MODEL 1
REMARK VINA RESULT:    -2.905      0.000      0.000
REMARK INTER + INTRA:          -3.657
REMARK INTER:                  -3.584
REMARK INTRA:                  -0.073
REMARK UNBOUND:                -0.073
REMARK SMILES CCCCCC(=O)[O-]
REMARK SMILES IDX 4 1 5 2 6 3 7 4 8 5 3 6 2 7 1 8
REMARK H PARENT
REMARK Flexibility Score: inf
ROOT
ATOM      1  C   UNL     1      50.029  31.128  56.476  1.00  0.00     0.006 C 
ENDROOT
BRANCH   1   2
ATOM      2  C   UNL     1      50.960  30.304  57.371  1.00  0.00     0.053 C 
BRANCH   2   3
ATOM      3  C   UNL     1      51.317  29.012  56.707  1.00  0.00     0.041 C 
ATOM      4  O   UNL     1      51.041  27.916  57.262  1.00  0.00    -0.550 OA
ATOM      5  O   UNL     1      51.912  29.016  55.451  1.00  0.00    -0.550 OA
ENDBRANCH   2   3
ENDBRANCH   1   2
BRANCH   1   6
ATOM      6  C   UNL     1      50.687  32.456  56.073  1.00  0.00     0.000 C 
BRANCH   6   7
ATOM      7  C   UNL     1      49.760  33.342  55.228  1.00  0.00    -0.003 C 
ATOM      8  C   UNL     1      50.031  34.834  55.420  1.00  0.00     0.004 C 
ENDBRANCH   6   7
ENDBRANCH   1   6
TORSDOF 4
ENDMDL
MODEL 2
REMARK VINA RESULT:    -2.865     10.626     11.839
REMARK INTER + INTRA:          -3.608
REMARK INTER:                  -3.411
REMARK INTRA:                  -0.197
REMARK UNBOUND:                -0.073
REMARK SMILES CCCCCC(=O)[O-]
REMARK SMILES IDX 4 1 5 2 6 3 7 4 8 5 3 6 2 7 1 8
REMARK H PARENT
REMARK Flexibility Score: inf
ROOT
ATOM      1  C   UNL     1      42.568  35.530  48.935  1.00  0.00     0.006 C 
ENDROOT
BRANCH   1   2
ATOM      2  C   UNL     1      43.185  34.536  49.924  1.00  0.00     0.053 C 
BRANCH   2   3
ATOM      3  C   UNL     1      43.974  33.494  49.197  1.00  0.00     0.041 C 
ATOM      4  O   UNL     1      44.293  32.422  49.777  1.00  0.00    -0.550 OA
ATOM      5  O   UNL     1      44.317  33.684  47.864  1.00  0.00    -0.550 OA
ENDBRANCH   2   3
ENDBRANCH   1   2
BRANCH   1   6
ATOM      6  C   UNL     1      41.086  35.213  48.691  1.00  0.00     0.000 C 
BRANCH   6   7
ATOM      7  C   UNL     1      40.683  35.371  47.216  1.00  0.00    -0.003 C 
ATOM      8  C   UNL     1      41.173  34.216  46.343  1.00  0.00     0.004 C 
ENDBRANCH   6   7
ENDBRANCH   1   6
TORSDOF 4
ENDMDL
MODEL 3
REMARK VINA RESULT:    -2.842      3.329      4.871
REMARK INTER + INTRA:          -3.580
REMARK INTER:                  -3.368
REMARK INTRA:                  -0.212
REMARK UNBOUND:                -0.073
REMARK SMILES CCCCCC(=O)[O-]
REMARK SMILES IDX 4 1 5 2 6 3 7 4 8 5 3 6 2 7 1 8
REMARK H PARENT
REMARK Flexibility Score: inf
ROOT
ATOM      1  C   UNL     1      50.191  32.863  54.947  1.00  0.00     0.006 C 
ENDROOT
BRANCH   1   2
ATOM      2  C   UNL     1      49.841  34.284  55.401  1.00  0.00     0.053 C 
BRANCH   2   3
ATOM      3  C   UNL     1      51.058  34.982  55.922  1.00  0.00     0.041 C 
ATOM      4  O   UNL     1      52.055  34.315  56.305  1.00  0.00    -0.550 OA
ATOM      5  O   UNL     1      51.111  36.370  55.940  1.00  0.00    -0.550 OA
ENDBRANCH   2   3
ENDBRANCH   1   2
BRANCH   1   6
ATOM      6  C   UNL     1      49.447  31.819  55.793  1.00  0.00     0.000 C 
BRANCH   6   7
ATOM      7  C   UNL     1      50.398  30.807  56.451  1.00  0.00    -0.003 C 
ATOM      8  C   UNL     1      50.960  31.304  57.783  1.00  0.00     0.004 C 
ENDBRANCH   6   7
ENDBRANCH   1   6
TORSDOF 4
ENDMDL
MODEL 4
REMARK VINA RESULT:    -2.809     11.953     13.349
REMARK INTER + INTRA:          -3.539
REMARK INTER:                  -3.458
REMARK INTRA:                  -0.081
REMARK UNBOUND:                -0.073
REMARK SMILES CCCCCC(=O)[O-]
REMARK SMILES IDX 4 1 5 2 6 3 7 4 8 5 3 6 2 7 1 8
REMARK H PARENT
REMARK Flexibility Score: inf
ROOT
ATOM      1  C   UNL     1      41.617  34.581  48.591  1.00  0.00     0.006 C 
ENDROOT
BRANCH   1   2
ATOM      2  C   UNL     1      40.863  35.609  47.743  1.00  0.00     0.053 C 
BRANCH   2   3
ATOM      3  C   UNL     1      40.763  35.146  46.323  1.00  0.00     0.041 C 
ATOM      4  O   UNL     1      40.322  35.920  45.434  1.00  0.00    -0.550 OA
ATOM      5  O   UNL     1      41.204  33.875  45.974  1.00  0.00    -0.550 OA
ENDBRANCH   2   3
ENDBRANCH   1   2
BRANCH   1   6
ATOM      6  C   UNL     1      42.772  35.241  49.357  1.00  0.00     0.000 C 
BRANCH   6   7
ATOM      7  C   UNL     1      43.513  34.256  50.273  1.00  0.00    -0.003 C 
ATOM      8  C   UNL     1      44.014  33.018  49.530  1.00  0.00     0.004 C 
ENDBRANCH   6   7
ENDBRANCH   1   6
TORSDOF 4
ENDMDL
MODEL 5
REMARK VINA RESULT:    -2.785     11.556     12.730
REMARK INTER + INTRA:          -3.510
REMARK INTER:                  -3.451
REMARK INTRA:                  -0.059
REMARK UNBOUND:                -0.073
REMARK SMILES CCCCCC(=O)[O-]
REMARK SMILES IDX 4 1 5 2 6 3 7 4 8 5 3 6 2 7 1 8
REMARK H PARENT
REMARK Flexibility Score: inf
ROOT
ATOM      1  C   UNL     1      41.237  35.127  48.554  1.00  0.00     0.006 C 
ENDROOT
BRANCH   1   2
ATOM      2  C   UNL     1      42.426  34.165  48.456  1.00  0.00     0.053 C 
BRANCH   2   3
ATOM      3  C   UNL     1      43.187  34.141  49.744  1.00  0.00     0.041 C 
ATOM      4  O   UNL     1      43.964  33.184  50.003  1.00  0.00    -0.550 OA
ATOM      5  O   UNL     1      43.078  35.200  50.637  1.00  0.00    -0.550 OA
ENDBRANCH   2   3
ENDBRANCH   1   2
BRANCH   1   6
ATOM      6  C   UNL     1      40.504  35.232  47.208  1.00  0.00     0.000 C 
BRANCH   6   7
ATOM      7  C   UNL     1      40.865  36.511  46.438  1.00  0.00    -0.003 C 
ATOM      8  C   UNL     1      40.292  36.530  45.021  1.00  0.00     0.004 C 
ENDBRANCH   6   7
ENDBRANCH   1   6
TORSDOF 4
ENDMDL
MODEL 6
REMARK VINA RESULT:    -2.785      9.708     11.021
REMARK INTER + INTRA:          -3.509
REMARK INTER:                  -3.443
REMARK INTRA:                  -0.066
REMARK UNBOUND:                -0.073
REMARK SMILES CCCCCC(=O)[O-]
REMARK SMILES IDX 4 1 5 2 6 3 7 4 8 5 3 6 2 7 1 8
REMARK H PARENT
REMARK Flexibility Score: inf
ROOT
ATOM      1  C   UNL     1      44.172  32.828  49.719  1.00  0.00     0.006 C 
ENDROOT
BRANCH   1   2
ATOM      2  C   UNL     1      43.366  33.740  48.788  1.00  0.00     0.053 C 
BRANCH   2   3
ATOM      3  C   UNL     1      42.623  34.770  49.579  1.00  0.00     0.041 C 
ATOM      4  O   UNL     1      41.509  35.196  49.176  1.00  0.00    -0.550 OA
ATOM      5  O   UNL     1      43.137  35.225  50.787  1.00  0.00    -0.550 OA
ENDBRANCH   2   3
ENDBRANCH   1   2
BRANCH   1   6
ATOM      6  C   UNL     1      45.207  32.013  48.928  1.00  0.00     0.000 C 
BRANCH   6   7
ATOM      7  C   UNL     1      45.452  30.623  49.535  1.00  0.00    -0.003 C 
ATOM      8  C   UNL     1      45.038  29.488  48.600  1.00  0.00     0.004 C 
ENDBRANCH   6   7
ENDBRANCH   1   6
TORSDOF 4
ENDMDL
MODEL 7
REMARK VINA RESULT:    -2.784     10.736     12.041
REMARK INTER + INTRA:          -3.508
REMARK INTER:                  -3.389
REMARK INTRA:                  -0.119
REMARK UNBOUND:                -0.073
REMARK SMILES CCCCCC(=O)[O-]
REMARK SMILES IDX 4 1 5 2 6 3 7 4 8 5 3 6 2 7 1 8
REMARK H PARENT
REMARK Flexibility Score: inf
ROOT
ATOM      1  C   UNL     1      42.362  34.312  48.850  1.00  0.00     0.006 C 
ENDROOT
BRANCH   1   2
ATOM      2  C   UNL     1      43.168  34.651  50.107  1.00  0.00     0.053 C 
BRANCH   2   3
ATOM      3  C   UNL     1      44.340  35.515  49.760  1.00  0.00     0.041 C 
ATOM      4  O   UNL     1      45.299  35.044  49.094  1.00  0.00    -0.550 OA
ATOM      5  O   UNL     1      44.351  36.854  50.131  1.00  0.00    -0.550 OA
ENDBRANCH   2   3
ENDBRANCH   1   2
BRANCH   1   6
ATOM      6  C   UNL     1      41.221  35.318  48.641  1.00  0.00     0.000 C 
BRANCH   6   7
ATOM      7  C   UNL     1      40.608  35.233  47.235  1.00  0.00    -0.003 C 
ATOM      8  C   UNL     1      41.233  34.129  46.383  1.00  0.00     0.004 C 
ENDBRANCH   6   7
ENDBRANCH   1   6
TORSDOF 4
ENDMDL
MODEL 8
REMARK VINA RESULT:    -2.783      1.721      2.153
REMARK INTER + INTRA:          -3.507
REMARK INTER:                  -3.315
REMARK INTRA:                  -0.192
REMARK UNBOUND:                -0.073
REMARK SMILES CCCCCC(=O)[O-]
REMARK SMILES IDX 4 1 5 2 6 3 7 4 8 5 3 6 2 7 1 8
REMARK H PARENT
REMARK Flexibility Score: inf
ROOT
ATOM      1  C   UNL     1      50.676  32.002  55.125  1.00  0.00     0.006 C 
ENDROOT
BRANCH   1   2
ATOM      2  C   UNL     1      49.876  31.383  56.275  1.00  0.00     0.053 C 
BRANCH   2   3
ATOM      3  C   UNL     1      50.790  30.969  57.386  1.00  0.00     0.041 C 
ATOM      4  O   UNL     1      51.002  29.748  57.610  1.00  0.00    -0.550 OA
ATOM      5  O   UNL     1      51.447  31.932  58.142  1.00  0.00    -0.550 OA
ENDBRANCH   2   3
ENDBRANCH   1   2
BRANCH   1   6
ATOM      6  C   UNL     1      49.920  33.186  54.505  1.00  0.00     0.000 C 
BRANCH   6   7
ATOM      7  C   UNL     1      49.869  34.406  55.437  1.00  0.00    -0.003 C 
ATOM      8  C   UNL     1      51.247  34.809  55.960  1.00  0.00     0.004 C 
ENDBRANCH   6   7
ENDBRANCH   1   6
TORSDOF 4
ENDMDL
MODEL 9
REMARK VINA RESULT:    -2.747      8.700      9.509
REMARK INTER + INTRA:          -3.463
REMARK INTER:                  -3.350
REMARK INTRA:                  -0.113
REMARK UNBOUND:                -0.073
REMARK SMILES CCCCCC(=O)[O-]
REMARK SMILES IDX 4 1 5 2 6 3 7 4 8 5 3 6 2 7 1 8
REMARK H PARENT
REMARK Flexibility Score: inf
ROOT
ATOM      1  C   UNL     1      44.235  32.643  49.797  1.00  0.00     0.006 C 
ENDROOT
BRANCH   1   2
ATOM      2  C   UNL     1      45.502  31.982  49.245  1.00  0.00     0.053 C 
BRANCH   2   3
ATOM      3  C   UNL     1      45.355  30.493  49.235  1.00  0.00     0.041 C 
ATOM      4  O   UNL     1      44.953  29.904  48.197  1.00  0.00    -0.550 OA
ATOM      5  O   UNL     1      45.707  29.751  50.355  1.00  0.00    -0.550 OA
ENDBRANCH   2   3
ENDBRANCH   1   2
BRANCH   1   6
ATOM      6  C   UNL     1      43.526  33.464  48.710  1.00  0.00     0.000 C 
BRANCH   6   7
ATOM      7  C   UNL     1      42.711  34.631  49.289  1.00  0.00    -0.003 C 
ATOM      8  C   UNL     1      43.197  35.063  50.672  1.00  0.00     0.004 C 
ENDBRANCH   6   7
ENDBRANCH   1   6
TORSDOF 4
ENDMDL
