MODEL 1
REMARK VINA RESULT:    -2.715      0.000      0.000
REMARK INTER + INTRA:         -10.294
REMARK INTER:                  -6.207
REMARK INTRA:                  -4.088
REMARK UNBOUND:                -4.088
REMARK SMILES CCCCCCCCCCCCCCCCCCCCCCCC(=O)[O-]
REMARK SMILES IDX 13 1 14 2 15 3 16 4 17 5 18 6 19 7 20 8 21 9 22 10 23 11
REMARK SMILES IDX 24 12 25 13 26 14 12 15 11 16 10 17 9 18 8 19 7 20 6 21 5 22
REMARK SMILES IDX 4 23 3 24 2 25 1 26
REMARK H PARENT
REMARK Flexibility Score: inf
ROOT
ATOM      1  C   UNL     1      24.155  30.434  46.378  1.00  0.00     0.000 C 
ENDROOT
BRANCH   1   2
ATOM      2  C   UNL     1      23.065  31.480  46.073  1.00  0.00     0.000 C 
BRANCH   2   3
ATOM      3  C   UNL     1      22.642  32.356  47.270  1.00  0.00     0.000 C 
BRANCH   3   4
ATOM      4  C   UNL     1      21.186  32.167  47.734  1.00  0.00     0.000 C 
BRANCH   4   5
ATOM      5  C   UNL     1      20.798  33.108  48.885  1.00  0.00     0.000 C 
BRANCH   5   6
ATOM      6  C   UNL     1      20.543  32.318  50.177  1.00  0.00     0.000 C 
BRANCH   6   7
ATOM      7  C   UNL     1      20.654  30.793  49.984  1.00  0.00     0.000 C 
BRANCH   7   8
ATOM      8  C   UNL     1      21.826  30.118  50.720  1.00  0.00     0.000 C 
BRANCH   8   9
ATOM      9  C   UNL     1      21.700  28.586  50.778  1.00  0.00     0.000 C 
BRANCH   9  10
ATOM     10  C   UNL     1      20.290  28.088  50.408  1.00  0.00     0.006 C 
BRANCH  10  11
ATOM     11  C   UNL     1      20.245  26.649  49.867  1.00  0.00     0.053 C 
BRANCH  11  12
ATOM     12  C   UNL     1      18.872  26.257  49.414  1.00  0.00     0.041 C 
ATOM     13  O   UNL     1      18.656  25.995  48.201  1.00  0.00    -0.550 OA
ATOM     14  O   UNL     1      17.838  26.155  50.337  1.00  0.00    -0.550 OA
ENDBRANCH  11  12
ENDBRANCH  10  11
ENDBRANCH   9  10
ENDBRANCH   8   9
ENDBRANCH   7   8
ENDBRANCH   6   7
ENDBRANCH   5   6
ENDBRANCH   4   5
ENDBRANCH   3   4
ENDBRANCH   2   3
ENDBRANCH   1   2
BRANCH   1  15
ATOM     15  C   UNL     1      24.023  29.745  47.748  1.00  0.00     0.000 C 
BRANCH  15  16
ATOM     16  C   UNL     1      23.673  28.254  47.631  1.00  0.00     0.000 C 
BRANCH  16  17
ATOM     17  C   UNL     1      22.249  28.060  47.097  1.00  0.00     0.000 C 
BRANCH  17  18
ATOM     18  C   UNL     1      22.052  26.635  46.564  1.00  0.00    -0.000 C 
BRANCH  18  19
ATOM     19  C   UNL     1      23.398  25.984  46.217  1.00  0.00    -0.000 C 
BRANCH  19  20
ATOM     20  C   UNL     1      23.565  24.591  46.847  1.00  0.00    -0.000 C 
BRANCH  20  21
ATOM     21  C   UNL     1      22.729  24.411  48.124  1.00  0.00    -0.000 C 
BRANCH  21  22
ATOM     22  C   UNL     1      23.635  24.237  49.353  1.00  0.00    -0.000 C 
BRANCH  22  23
ATOM     23  C   UNL     1      23.585  25.455  50.292  1.00  0.00    -0.000 C 
BRANCH  23  24
ATOM     24  C   UNL     1      24.978  26.051  50.594  1.00  0.00    -0.000 C 
BRANCH  24  25
ATOM     25  C   UNL     1      25.942  25.993  49.398  1.00  0.00    -0.003 C 
ATOM     26  C   UNL     1      27.409  26.061  49.815  1.00  0.00     0.004 C 
ENDBRANCH  24  25
ENDBRANCH  23  24
ENDBRANCH  22  23
ENDBRANCH  21  22
ENDBRANCH  20  21
ENDBRANCH  19  20
ENDBRANCH  18  19
ENDBRANCH  17  18
ENDBRANCH  16  17
ENDBRANCH  15  16
ENDBRANCH   1  15
TORSDOF 22
ENDMDL
MODEL 2
REMARK VINA RESULT:    -2.700      3.948      7.053
REMARK INTER + INTRA:         -10.260
REMARK INTER:                  -6.508
REMARK INTRA:                  -3.751
REMARK UNBOUND:                -4.088
REMARK SMILES CCCCCCCCCCCCCCCCCCCCCCCC(=O)[O-]
REMARK SMILES IDX 13 1 14 2 15 3 16 4 17 5 18 6 19 7 20 8 21 9 22 10 23 11
REMARK SMILES IDX 24 12 25 13 26 14 12 15 11 16 10 17 9 18 8 19 7 20 6 21 5 22
REMARK SMILES IDX 4 23 3 24 2 25 1 26
REMARK H PARENT
REMARK Flexibility Score: inf
ROOT
ATOM      1  C   UNL     1      21.254  28.763  46.968  1.00  0.00     0.000 C 
ENDROOT
BRANCH   1   2
ATOM      2  C   UNL     1      22.466  29.355  46.223  1.00  0.00     0.000 C 
BRANCH   2   3
ATOM      3  C   UNL     1      23.567  29.947  47.126  1.00  0.00     0.000 C 
BRANCH   3   4
ATOM      4  C   UNL     1      24.192  31.259  46.619  1.00  0.00     0.000 C 
BRANCH   4   5
ATOM      5  C   UNL     1      23.410  31.883  45.453  1.00  0.00     0.000 C 
BRANCH   5   6
ATOM      6  C   UNL     1      24.304  32.034  44.213  1.00  0.00     0.000 C 
BRANCH   6   7
ATOM      7  C   UNL     1      25.753  31.570  44.453  1.00  0.00     0.000 C 
BRANCH   7   8
ATOM      8  C   UNL     1      26.334  30.632  43.378  1.00  0.00     0.000 C 
BRANCH   8   9
ATOM      9  C   UNL     1      25.304  30.225  42.311  1.00  0.00     0.000 C 
BRANCH   9  10
ATOM     10  C   UNL     1      24.877  28.749  42.425  1.00  0.00     0.006 C 
BRANCH  10  11
ATOM     11  C   UNL     1      25.219  27.892  41.195  1.00  0.00     0.053 C 
BRANCH  11  12
ATOM     12  C   UNL     1      26.562  27.240  41.315  1.00  0.00     0.041 C 
ATOM     13  O   UNL     1      26.650  26.027  41.645  1.00  0.00    -0.550 OA
ATOM     14  O   UNL     1      27.714  27.964  41.035  1.00  0.00    -0.550 OA
ENDBRANCH  11  12
ENDBRANCH  10  11
ENDBRANCH   9  10
ENDBRANCH   8   9
ENDBRANCH   7   8
ENDBRANCH   6   7
ENDBRANCH   5   6
ENDBRANCH   4   5
ENDBRANCH   3   4
ENDBRANCH   2   3
ENDBRANCH   1   2
BRANCH   1  15
ATOM     15  C   UNL     1      20.261  29.804  47.515  1.00  0.00     0.000 C 
BRANCH  15  16
ATOM     16  C   UNL     1      20.045  30.981  46.553  1.00  0.00     0.000 C 
BRANCH  16  17
ATOM     17  C   UNL     1      19.978  32.312  47.312  1.00  0.00     0.000 C 
BRANCH  17  18
ATOM     18  C   UNL     1      21.128  32.427  48.320  1.00  0.00    -0.000 C 
BRANCH  18  19
ATOM     19  C   UNL     1      20.616  32.885  49.693  1.00  0.00    -0.000 C 
BRANCH  19  20
ATOM     20  C   UNL     1      20.599  31.750  50.730  1.00  0.00    -0.000 C 
BRANCH  20  21
ATOM     21  C   UNL     1      21.875  30.895  50.698  1.00  0.00    -0.000 C 
BRANCH  21  22
ATOM     22  C   UNL     1      21.559  29.425  51.020  1.00  0.00    -0.000 C 
BRANCH  22  23
ATOM     23  C   UNL     1      22.590  28.460  50.407  1.00  0.00    -0.000 C 
BRANCH  23  24
ATOM     24  C   UNL     1      22.015  27.055  50.119  1.00  0.00    -0.000 C 
BRANCH  24  25
ATOM     25  C   UNL     1      23.059  26.066  49.575  1.00  0.00    -0.003 C 
ATOM     26  C   UNL     1      24.137  26.747  48.735  1.00  0.00     0.004 C 
ENDBRANCH  24  25
ENDBRANCH  23  24
ENDBRANCH  22  23
ENDBRANCH  21  22
ENDBRANCH  20  21
ENDBRANCH  19  20
ENDBRANCH  18  19
ENDBRANCH  17  18
ENDBRANCH  16  17
ENDBRANCH  15  16
ENDBRANCH   1  15
TORSDOF 22
ENDMDL
MODEL 3
REMARK VINA RESULT:    -2.640      2.209      4.788
REMARK INTER + INTRA:         -10.122
REMARK INTER:                  -5.526
REMARK INTRA:                  -4.596
REMARK UNBOUND:                -4.088
REMARK SMILES CCCCCCCCCCCCCCCCCCCCCCCC(=O)[O-]
REMARK SMILES IDX 13 1 14 2 15 3 16 4 17 5 18 6 19 7 20 8 21 9 22 10 23 11
REMARK SMILES IDX 24 12 25 13 26 14 12 15 11 16 10 17 9 18 8 19 7 20 6 21 5 22
REMARK SMILES IDX 4 23 3 24 2 25 1 26
REMARK H PARENT
REMARK Flexibility Score: inf
ROOT
ATOM      1  C   UNL     1      22.153  32.127  47.291  1.00  0.00     0.000 C 
ENDROOT
BRANCH   1   2
ATOM      2  C   UNL     1      20.773  32.450  47.897  1.00  0.00     0.000 C 
BRANCH   2   3
ATOM      3  C   UNL     1      20.793  32.888  49.376  1.00  0.00     0.000 C 
BRANCH   3   4
ATOM      4  C   UNL     1      20.320  31.820  50.380  1.00  0.00     0.000 C 
BRANCH   4   5
ATOM      5  C   UNL     1      19.640  30.621  49.702  1.00  0.00     0.000 C 
BRANCH   5   6
ATOM      6  C   UNL     1      20.283  29.301  50.150  1.00  0.00     0.000 C 
BRANCH   6   7
ATOM      7  C   UNL     1      21.522  29.505  51.042  1.00  0.00     0.000 C 
BRANCH   7   8
ATOM      8  C   UNL     1      22.732  28.613  50.709  1.00  0.00     0.000 C 
BRANCH   8   9
ATOM      9  C   UNL     1      22.422  27.548  49.643  1.00  0.00     0.000 C 
BRANCH   9  10
ATOM     10  C   UNL     1      23.617  27.266  48.713  1.00  0.00     0.006 C 
BRANCH  10  11
ATOM     11  C   UNL     1      23.320  26.270  47.580  1.00  0.00     0.053 C 
BRANCH  11  12
ATOM     12  C   UNL     1      23.270  24.855  48.069  1.00  0.00     0.041 C 
ATOM     13  O   UNL     1      22.465  24.035  47.553  1.00  0.00    -0.550 OA
ATOM     14  O   UNL     1      24.131  24.437  49.075  1.00  0.00    -0.550 OA
ENDBRANCH  11  12
ENDBRANCH  10  11
ENDBRANCH   9  10
ENDBRANCH   8   9
ENDBRANCH   7   8
ENDBRANCH   6   7
ENDBRANCH   5   6
ENDBRANCH   4   5
ENDBRANCH   3   4
ENDBRANCH   2   3
ENDBRANCH   1   2
BRANCH   1  15
ATOM     15  C   UNL     1      22.760  30.787  47.744  1.00  0.00     0.000 C 
BRANCH  15  16
ATOM     16  C   UNL     1      24.115  30.495  47.082  1.00  0.00     0.000 C 
BRANCH  16  17
ATOM     17  C   UNL     1      24.507  31.613  46.108  1.00  0.00     0.000 C 
BRANCH  17  18
ATOM     18  C   UNL     1      24.607  31.080  44.673  1.00  0.00    -0.000 C 
BRANCH  18  19
ATOM     19  C   UNL     1      23.307  31.336  43.897  1.00  0.00    -0.000 C 
BRANCH  19  20
ATOM     20  C   UNL     1      22.672  30.044  43.358  1.00  0.00    -0.000 C 
BRANCH  20  21
ATOM     21  C   UNL     1      23.294  28.777  43.966  1.00  0.00    -0.000 C 
BRANCH  21  22
ATOM     22  C   UNL     1      22.214  27.888  44.604  1.00  0.00    -0.000 C 
BRANCH  22  23
ATOM     23  C   UNL     1      20.916  28.664  44.890  1.00  0.00    -0.000 C 
BRANCH  23  24
ATOM     24  C   UNL     1      20.606  28.803  46.398  1.00  0.00    -0.000 C 
BRANCH  24  25
ATOM     25  C   UNL     1      19.339  28.050  46.834  1.00  0.00    -0.003 C 
ATOM     26  C   UNL     1      19.628  26.626  47.302  1.00  0.00     0.004 C 
ENDBRANCH  24  25
ENDBRANCH  23  24
ENDBRANCH  22  23
ENDBRANCH  21  22
ENDBRANCH  20  21
ENDBRANCH  19  20
ENDBRANCH  18  19
ENDBRANCH  17  18
ENDBRANCH  16  17
ENDBRANCH  15  16
ENDBRANCH   1  15
TORSDOF 22
ENDMDL
MODEL 4
REMARK VINA RESULT:    -2.637     14.855     17.107
REMARK INTER + INTRA:         -10.115
REMARK INTER:                  -6.419
REMARK INTRA:                  -3.696
REMARK UNBOUND:                -4.088
REMARK SMILES CCCCCCCCCCCCCCCCCCCCCCCC(=O)[O-]
REMARK SMILES IDX 13 1 14 2 15 3 16 4 17 5 18 6 19 7 20 8 21 9 22 10 23 11
REMARK SMILES IDX 24 12 25 13 26 14 12 15 11 16 10 17 9 18 8 19 7 20 6 21 5 22
REMARK SMILES IDX 4 23 3 24 2 25 1 26
REMARK H PARENT
REMARK Flexibility Score: inf
ROOT
ATOM      1  C   UNL     1      18.074  25.829  33.099  1.00  0.00     0.000 C 
ENDROOT
BRANCH   1   2
ATOM      2  C   UNL     1      18.848  26.403  31.897  1.00  0.00     0.000 C 
BRANCH   2   3
ATOM      3  C   UNL     1      19.235  27.892  32.016  1.00  0.00     0.000 C 
BRANCH   3   4
ATOM      4  C   UNL     1      18.614  28.815  30.952  1.00  0.00     0.000 C 
BRANCH   4   5
ATOM      5  C   UNL     1      17.169  29.221  31.281  1.00  0.00     0.000 C 
BRANCH   5   6
ATOM      6  C   UNL     1      17.116  30.064  32.563  1.00  0.00     0.000 C 
BRANCH   6   7
ATOM      7  C   UNL     1      16.100  29.533  33.593  1.00  0.00     0.000 C 
BRANCH   7   8
ATOM      8  C   UNL     1      16.706  28.782  34.794  1.00  0.00     0.000 C 
BRANCH   8   9
ATOM      9  C   UNL     1      16.143  29.252  36.146  1.00  0.00     0.000 C 
BRANCH   9  10
ATOM     10  C   UNL     1      15.516  30.658  36.076  1.00  0.00     0.006 C 
BRANCH  10  11
ATOM     11  C   UNL     1      14.801  31.099  37.364  1.00  0.00     0.053 C 
BRANCH  11  12
ATOM     12  C   UNL     1      15.766  31.483  38.443  1.00  0.00     0.041 C 
ATOM     13  O   UNL     1      16.007  30.689  39.390  1.00  0.00    -0.550 OA
ATOM     14  O   UNL     1      16.420  32.709  38.388  1.00  0.00    -0.550 OA
ENDBRANCH  11  12
ENDBRANCH  10  11
ENDBRANCH   9  10
ENDBRANCH   8   9
ENDBRANCH   7   8
ENDBRANCH   6   7
ENDBRANCH   5   6
ENDBRANCH   4   5
ENDBRANCH   3   4
ENDBRANCH   2   3
ENDBRANCH   1   2
BRANCH   1  15
ATOM     15  C   UNL     1      16.613  25.447  32.803  1.00  0.00     0.000 C 
BRANCH  15  16
ATOM     16  C   UNL     1      16.300  25.415  31.300  1.00  0.00     0.000 C 
BRANCH  16  17
ATOM     17  C   UNL     1      15.125  26.340  30.959  1.00  0.00     0.000 C 
BRANCH  17  18
ATOM     18  C   UNL     1      14.297  26.658  32.210  1.00  0.00    -0.000 C 
BRANCH  18  19
ATOM     19  C   UNL     1      12.802  26.416  31.959  1.00  0.00    -0.000 C 
BRANCH  19  20
ATOM     20  C   UNL     1      12.499  24.973  31.522  1.00  0.00    -0.000 C 
BRANCH  20  21
ATOM     21  C   UNL     1      11.376  24.324  32.347  1.00  0.00    -0.000 C 
BRANCH  21  22
ATOM     22  C   UNL     1      11.202  25.041  33.695  1.00  0.00    -0.000 C 
BRANCH  22  23
ATOM     23  C   UNL     1      11.242  24.063  34.883  1.00  0.00    -0.000 C 
BRANCH  23  24
ATOM     24  C   UNL     1      12.429  24.313  35.841  1.00  0.00    -0.000 C 
BRANCH  24  25
ATOM     25  C   UNL     1      13.770  24.510  35.115  1.00  0.00    -0.003 C 
ATOM     26  C   UNL     1      14.381  23.196  34.634  1.00  0.00     0.004 C 
ENDBRANCH  24  25
ENDBRANCH  23  24
ENDBRANCH  22  23
ENDBRANCH  21  22
ENDBRANCH  20  21
ENDBRANCH  19  20
ENDBRANCH  18  19
ENDBRANCH  17  18
ENDBRANCH  16  17
ENDBRANCH  15  16
ENDBRANCH   1  15
TORSDOF 22
ENDMDL
MODEL 5
REMARK VINA RESULT:    -2.630      2.558      4.496
REMARK INTER + INTRA:         -10.101
REMARK INTER:                  -5.500
REMARK INTRA:                  -4.601
REMARK UNBOUND:                -4.088
REMARK SMILES CCCCCCCCCCCCCCCCCCCCCCCC(=O)[O-]
REMARK SMILES IDX 13 1 14 2 15 3 16 4 17 5 18 6 19 7 20 8 21 9 22 10 23 11
REMARK SMILES IDX 24 12 25 13 26 14 12 15 11 16 10 17 9 18 8 19 7 20 6 21 5 22
REMARK SMILES IDX 4 23 3 24 2 25 1 26
REMARK H PARENT
REMARK Flexibility Score: inf
ROOT
ATOM      1  C   UNL     1      21.400  29.948  44.440  1.00  0.00     0.000 C 
ENDROOT
BRANCH   1   2
ATOM      2  C   UNL     1      20.213  29.392  45.252  1.00  0.00     0.000 C 
BRANCH   2   3
ATOM      3  C   UNL     1      19.687  30.321  46.365  1.00  0.00     0.000 C 
BRANCH   3   4
ATOM      4  C   UNL     1      19.499  29.651  47.739  1.00  0.00     0.000 C 
BRANCH   4   5
ATOM      5  C   UNL     1      19.793  28.144  47.716  1.00  0.00     0.000 C 
BRANCH   5   6
ATOM      6  C   UNL     1      20.075  27.619  49.131  1.00  0.00     0.000 C 
BRANCH   6   7
ATOM      7  C   UNL     1      20.127  28.736  50.190  1.00  0.00     0.000 C 
BRANCH   7   8
ATOM      8  C   UNL     1      21.508  28.979  50.829  1.00  0.00     0.000 C 
BRANCH   8   9
ATOM      9  C   UNL     1      21.783  30.463  51.125  1.00  0.00     0.000 C 
BRANCH   9  10
ATOM     10  C   UNL     1      20.519  31.338  51.023  1.00  0.00     0.006 C 
BRANCH  10  11
ATOM     11  C   UNL     1      20.611  32.468  49.984  1.00  0.00     0.053 C 
BRANCH  11  12
ATOM     12  C   UNL     1      19.260  32.956  49.559  1.00  0.00     0.041 C 
ATOM     13  O   UNL     1      18.240  32.241  49.745  1.00  0.00    -0.550 OA
ATOM     14  O   UNL     1      19.125  34.213  48.982  1.00  0.00    -0.550 OA
ENDBRANCH  11  12
ENDBRANCH  10  11
ENDBRANCH   9  10
ENDBRANCH   8   9
ENDBRANCH   7   8
ENDBRANCH   6   7
ENDBRANCH   5   6
ENDBRANCH   4   5
ENDBRANCH   3   4
ENDBRANCH   2   3
ENDBRANCH   1   2
BRANCH   1  15
ATOM     15  C   UNL     1      21.639  31.460  44.599  1.00  0.00     0.000 C 
BRANCH  15  16
ATOM     16  C   UNL     1      23.113  31.850  44.413  1.00  0.00     0.000 C 
BRANCH  16  17
ATOM     17  C   UNL     1      23.876  31.779  45.741  1.00  0.00     0.000 C 
BRANCH  17  18
ATOM     18  C   UNL     1      22.936  32.023  46.928  1.00  0.00    -0.000 C 
BRANCH  18  19
ATOM     19  C   UNL     1      22.872  30.793  47.844  1.00  0.00    -0.000 C 
BRANCH  19  20
ATOM     20  C   UNL     1      24.002  29.787  47.569  1.00  0.00    -0.000 C 
BRANCH  20  21
ATOM     21  C   UNL     1      23.600  28.338  47.888  1.00  0.00    -0.000 C 
BRANCH  21  22
ATOM     22  C   UNL     1      23.233  27.576  46.605  1.00  0.00    -0.000 C 
BRANCH  22  23
ATOM     23  C   UNL     1      22.868  26.107  46.884  1.00  0.00    -0.000 C 
BRANCH  23  24
ATOM     24  C   UNL     1      23.054  25.702  48.365  1.00  0.00    -0.000 C 
BRANCH  24  25
ATOM     25  C   UNL     1      24.205  24.709  48.587  1.00  0.00    -0.003 C 
ATOM     26  C   UNL     1      25.235  24.734  47.460  1.00  0.00     0.004 C 
ENDBRANCH  24  25
ENDBRANCH  23  24
ENDBRANCH  22  23
ENDBRANCH  21  22
ENDBRANCH  20  21
ENDBRANCH  19  20
ENDBRANCH  18  19
ENDBRANCH  17  18
ENDBRANCH  16  17
ENDBRANCH  15  16
ENDBRANCH   1  15
TORSDOF 22
ENDMDL
MODEL 6
REMARK VINA RESULT:    -2.630      3.616      6.172
REMARK INTER + INTRA:         -10.100
REMARK INTER:                  -5.657
REMARK INTRA:                  -4.443
REMARK UNBOUND:                -4.088
REMARK SMILES CCCCCCCCCCCCCCCCCCCCCCCC(=O)[O-]
REMARK SMILES IDX 13 1 14 2 15 3 16 4 17 5 18 6 19 7 20 8 21 9 22 10 23 11
REMARK SMILES IDX 24 12 25 13 26 14 12 15 11 16 10 17 9 18 8 19 7 20 6 21 5 22
REMARK SMILES IDX 4 23 3 24 2 25 1 26
REMARK H PARENT
REMARK Flexibility Score: inf
ROOT
ATOM      1  C   UNL     1      21.317  32.030  47.263  1.00  0.00     0.000 C 
ENDROOT
BRANCH   1   2
ATOM      2  C   UNL     1      22.822  32.348  47.355  1.00  0.00     0.000 C 
BRANCH   2   3
ATOM      3  C   UNL     1      23.756  31.294  46.727  1.00  0.00     0.000 C 
BRANCH   3   4
ATOM      4  C   UNL     1      23.804  29.942  47.464  1.00  0.00     0.000 C 
BRANCH   4   5
ATOM      5  C   UNL     1      23.464  28.752  46.553  1.00  0.00     0.000 C 
BRANCH   5   6
ATOM      6  C   UNL     1      21.965  28.427  46.613  1.00  0.00     0.000 C 
BRANCH   6   7
ATOM      7  C   UNL     1      21.300  28.386  45.224  1.00  0.00     0.000 C 
BRANCH   7   8
ATOM      8  C   UNL     1      21.478  29.654  44.368  1.00  0.00     0.000 C 
BRANCH   8   9
ATOM      9  C   UNL     1      22.414  29.445  43.166  1.00  0.00     0.000 C 
BRANCH   9  10
ATOM     10  C   UNL     1      23.542  30.492  43.097  1.00  0.00     0.006 C 
BRANCH  10  11
ATOM     11  C   UNL     1      24.941  29.941  43.419  1.00  0.00     0.053 C 
BRANCH  11  12
ATOM     12  C   UNL     1      26.018  30.658  42.665  1.00  0.00     0.041 C 
ATOM     13  O   UNL     1      25.954  31.905  42.499  1.00  0.00    -0.550 OA
ATOM     14  O   UNL     1      27.108  29.952  42.170  1.00  0.00    -0.550 OA
ENDBRANCH  11  12
ENDBRANCH  10  11
ENDBRANCH   9  10
ENDBRANCH   8   9
ENDBRANCH   7   8
ENDBRANCH   6   7
ENDBRANCH   5   6
ENDBRANCH   4   5
ENDBRANCH   3   4
ENDBRANCH   2   3
ENDBRANCH   1   2
BRANCH   1  15
ATOM     15  C   UNL     1      20.627  31.772  48.614  1.00  0.00     0.000 C 
BRANCH  15  16
ATOM     16  C   UNL     1      19.962  30.389  48.686  1.00  0.00     0.000 C 
BRANCH  16  17
ATOM     17  C   UNL     1      20.297  29.682  50.005  1.00  0.00     0.000 C 
BRANCH  17  18
ATOM     18  C   UNL     1      21.633  30.180  50.571  1.00  0.00    -0.000 C 
BRANCH  18  19
ATOM     19  C   UNL     1      22.650  29.034  50.676  1.00  0.00    -0.000 C 
BRANCH  19  20
ATOM     20  C   UNL     1      22.060  27.676  50.263  1.00  0.00    -0.000 C 
BRANCH  20  21
ATOM     21  C   UNL     1      23.016  26.504  50.536  1.00  0.00    -0.000 C 
BRANCH  21  22
ATOM     22  C   UNL     1      24.114  26.430  49.462  1.00  0.00    -0.000 C 
BRANCH  22  23
ATOM     23  C   UNL     1      24.015  25.148  48.616  1.00  0.00    -0.000 C 
BRANCH  23  24
ATOM     24  C   UNL     1      24.384  25.366  47.131  1.00  0.00    -0.000 C 
BRANCH  24  25
ATOM     25  C   UNL     1      23.266  24.960  46.157  1.00  0.00    -0.003 C 
ATOM     26  C   UNL     1      23.620  25.242  44.699  1.00  0.00     0.004 C 
ENDBRANCH  24  25
ENDBRANCH  23  24
ENDBRANCH  22  23
ENDBRANCH  21  22
ENDBRANCH  20  21
ENDBRANCH  19  20
ENDBRANCH  18  19
ENDBRANCH  17  18
ENDBRANCH  16  17
ENDBRANCH  15  16
ENDBRANCH   1  15
TORSDOF 22
ENDMDL
MODEL 7
REMARK VINA RESULT:    -2.625      4.081      6.924
REMARK INTER + INTRA:         -10.090
REMARK INTER:                  -5.972
REMARK INTRA:                  -4.118
REMARK UNBOUND:                -4.088
REMARK SMILES CCCCCCCCCCCCCCCCCCCCCCCC(=O)[O-]
REMARK SMILES IDX 13 1 14 2 15 3 16 4 17 5 18 6 19 7 20 8 21 9 22 10 23 11
REMARK SMILES IDX 24 12 25 13 26 14 12 15 11 16 10 17 9 18 8 19 7 20 6 21 5 22
REMARK SMILES IDX 4 23 3 24 2 25 1 26
REMARK H PARENT
REMARK Flexibility Score: inf
ROOT
ATOM      1  C   UNL     1      20.409  29.147  46.016  1.00  0.00     0.000 C 
ENDROOT
BRANCH   1   2
ATOM      2  C   UNL     1      20.591  30.386  46.914  1.00  0.00     0.000 C 
BRANCH   2   3
ATOM      3  C   UNL     1      21.411  31.534  46.292  1.00  0.00     0.000 C 
BRANCH   3   4
ATOM      4  C   UNL     1      22.562  32.064  47.167  1.00  0.00     0.000 C 
BRANCH   4   5
ATOM      5  C   UNL     1      23.811  31.171  47.118  1.00  0.00     0.000 C 
BRANCH   5   6
ATOM      6  C   UNL     1      24.832  31.712  46.107  1.00  0.00     0.000 C 
BRANCH   6   7
ATOM      7  C   UNL     1      25.047  30.774  44.904  1.00  0.00     0.000 C 
BRANCH   7   8
ATOM      8  C   UNL     1      24.293  31.164  43.618  1.00  0.00     0.000 C 
BRANCH   8   9
ATOM      9  C   UNL     1      25.063  30.807  42.335  1.00  0.00     0.000 C 
BRANCH   9  10
ATOM     10  C   UNL     1      26.411  30.116  42.620  1.00  0.00     0.006 C 
BRANCH  10  11
ATOM     11  C   UNL     1      27.137  29.600  41.367  1.00  0.00     0.053 C 
BRANCH  11  12
ATOM     12  C   UNL     1      27.617  28.191  41.532  1.00  0.00     0.041 C 
ATOM     13  O   UNL     1      27.040  27.249  40.926  1.00  0.00    -0.550 OA
ATOM     14  O   UNL     1      28.721  27.921  42.333  1.00  0.00    -0.550 OA
ENDBRANCH  11  12
ENDBRANCH  10  11
ENDBRANCH   9  10
ENDBRANCH   8   9
ENDBRANCH   7   8
ENDBRANCH   6   7
ENDBRANCH   5   6
ENDBRANCH   4   5
ENDBRANCH   3   4
ENDBRANCH   2   3
ENDBRANCH   1   2
BRANCH   1  15
ATOM     15  C   UNL     1      21.074  29.250  44.632  1.00  0.00     0.000 C 
BRANCH  15  16
ATOM     16  C   UNL     1      21.993  28.058  44.324  1.00  0.00     0.000 C 
BRANCH  16  17
ATOM     17  C   UNL     1      23.090  27.915  45.387  1.00  0.00     0.000 C 
BRANCH  17  18
ATOM     18  C   UNL     1      23.020  26.543  46.067  1.00  0.00    -0.000 C 
BRANCH  18  19
ATOM     19  C   UNL     1      22.762  26.685  47.574  1.00  0.00    -0.000 C 
BRANCH  19  20
ATOM     20  C   UNL     1      23.583  27.817  48.213  1.00  0.00    -0.000 C 
BRANCH  20  21
ATOM     21  C   UNL     1      23.079  28.200  49.614  1.00  0.00    -0.000 C 
BRANCH  21  22
ATOM     22  C   UNL     1      21.544  28.146  49.678  1.00  0.00    -0.000 C 
BRANCH  22  23
ATOM     23  C   UNL     1      20.958  29.274  50.546  1.00  0.00    -0.000 C 
BRANCH  23  24
ATOM     24  C   UNL     1      21.857  30.530  50.606  1.00  0.00    -0.000 C 
BRANCH  24  25
ATOM     25  C   UNL     1      21.067  31.845  50.691  1.00  0.00    -0.003 C 
ATOM     26  C   UNL     1      19.623  31.701  50.213  1.00  0.00     0.004 C 
ENDBRANCH  24  25
ENDBRANCH  23  24
ENDBRANCH  22  23
ENDBRANCH  21  22
ENDBRANCH  20  21
ENDBRANCH  19  20
ENDBRANCH  18  19
ENDBRANCH  17  18
ENDBRANCH  16  17
ENDBRANCH  15  16
ENDBRANCH   1  15
TORSDOF 22
ENDMDL
MODEL 8
REMARK VINA RESULT:    -2.606      2.994      6.379
REMARK INTER + INTRA:         -10.044
REMARK INTER:                  -6.076
REMARK INTRA:                  -3.968
REMARK UNBOUND:                -4.088
REMARK SMILES CCCCCCCCCCCCCCCCCCCCCCCC(=O)[O-]
REMARK SMILES IDX 13 1 14 2 15 3 16 4 17 5 18 6 19 7 20 8 21 9 22 10 23 11
REMARK SMILES IDX 24 12 25 13 26 14 12 15 11 16 10 17 9 18 8 19 7 20 6 21 5 22
REMARK SMILES IDX 4 23 3 24 2 25 1 26
REMARK H PARENT
REMARK Flexibility Score: inf
ROOT
ATOM      1  C   UNL     1      20.848  28.302  50.375  1.00  0.00     0.000 C 
ENDROOT
BRANCH   1   2
ATOM      2  C   UNL     1      19.492  27.635  50.073  1.00  0.00     0.000 C 
BRANCH   2   3
ATOM      3  C   UNL     1      19.352  27.044  48.655  1.00  0.00     0.000 C 
BRANCH   3   4
ATOM      4  C   UNL     1      20.165  25.761  48.400  1.00  0.00     0.000 C 
BRANCH   4   5
ATOM      5  C   UNL     1      19.750  24.598  49.313  1.00  0.00     0.000 C 
BRANCH   5   6
ATOM      6  C   UNL     1      20.919  24.158  50.206  1.00  0.00     0.000 C 
BRANCH   6   7
ATOM      7  C   UNL     1      22.241  24.873  49.865  1.00  0.00     0.000 C 
BRANCH   7   8
ATOM      8  C   UNL     1      23.002  25.464  51.066  1.00  0.00     0.000 C 
BRANCH   8   9
ATOM      9  C   UNL     1      24.181  26.362  50.651  1.00  0.00     0.000 C 
BRANCH   9  10
ATOM     10  C   UNL     1      25.530  25.618  50.660  1.00  0.00     0.006 C 
BRANCH  10  11
ATOM     11  C   UNL     1      26.330  25.736  49.352  1.00  0.00     0.053 C 
BRANCH  11  12
ATOM     12  C   UNL     1      27.635  25.005  49.419  1.00  0.00     0.041 C 
ATOM     13  O   UNL     1      28.251  24.710  48.361  1.00  0.00    -0.550 OA
ATOM     14  O   UNL     1      28.184  24.674  50.652  1.00  0.00    -0.550 OA
ENDBRANCH  11  12
ENDBRANCH  10  11
ENDBRANCH   9  10
ENDBRANCH   8   9
ENDBRANCH   7   8
ENDBRANCH   6   7
ENDBRANCH   5   6
ENDBRANCH   4   5
ENDBRANCH   3   4
ENDBRANCH   2   3
ENDBRANCH   1   2
BRANCH   1  15
ATOM     15  C   UNL     1      20.756  29.643  51.125  1.00  0.00     0.000 C 
BRANCH  15  16
ATOM     16  C   UNL     1      21.501  30.778  50.406  1.00  0.00     0.000 C 
BRANCH  16  17
ATOM     17  C   UNL     1      21.064  30.885  48.940  1.00  0.00     0.000 C 
BRANCH  17  18
ATOM     18  C   UNL     1      21.400  32.267  48.367  1.00  0.00    -0.000 C 
BRANCH  18  19
ATOM     19  C   UNL     1      22.568  32.184  47.374  1.00  0.00    -0.000 C 
BRANCH  19  20
ATOM     20  C   UNL     1      22.674  30.809  46.694  1.00  0.00    -0.000 C 
BRANCH  20  21
ATOM     21  C   UNL     1      24.064  30.171  46.854  1.00  0.00    -0.000 C 
BRANCH  21  22
ATOM     22  C   UNL     1      24.022  29.010  47.861  1.00  0.00    -0.000 C 
BRANCH  22  23
ATOM     23  C   UNL     1      22.943  27.970  47.506  1.00  0.00    -0.000 C 
BRANCH  23  24
ATOM     24  C   UNL     1      23.527  26.638  46.983  1.00  0.00    -0.000 C 
BRANCH  24  25
ATOM     25  C   UNL     1      22.969  26.221  45.613  1.00  0.00    -0.003 C 
ATOM     26  C   UNL     1      22.741  27.408  44.680  1.00  0.00     0.004 C 
ENDBRANCH  24  25
ENDBRANCH  23  24
ENDBRANCH  22  23
ENDBRANCH  21  22
ENDBRANCH  20  21
ENDBRANCH  19  20
ENDBRANCH  18  19
ENDBRANCH  17  18
ENDBRANCH  16  17
ENDBRANCH  15  16
ENDBRANCH   1  15
TORSDOF 22
ENDMDL
MODEL 9
REMARK VINA RESULT:    -2.547      4.114      6.874
REMARK INTER + INTRA:          -9.909
REMARK INTER:                  -5.390
REMARK INTRA:                  -4.520
REMARK UNBOUND:                -4.088
REMARK SMILES CCCCCCCCCCCCCCCCCCCCCCCC(=O)[O-]
REMARK SMILES IDX 13 1 14 2 15 3 16 4 17 5 18 6 19 7 20 8 21 9 22 10 23 11
REMARK SMILES IDX 24 12 25 13 26 14 12 15 11 16 10 17 9 18 8 19 7 20 6 21 5 22
REMARK SMILES IDX 4 23 3 24 2 25 1 26
REMARK H PARENT
REMARK Flexibility Score: inf
ROOT
ATOM      1  C   UNL     1      20.255  29.893  43.412  1.00  0.00     0.000 C 
ENDROOT
BRANCH   1   2
ATOM      2  C   UNL     1      21.153  28.642  43.348  1.00  0.00     0.000 C 
BRANCH   2   3
ATOM      3  C   UNL     1      22.668  28.916  43.441  1.00  0.00     0.000 C 
BRANCH   3   4
ATOM      4  C   UNL     1      23.379  28.251  44.634  1.00  0.00     0.000 C 
BRANCH   4   5
ATOM      5  C   UNL     1      22.705  28.558  45.980  1.00  0.00     0.000 C 
BRANCH   5   6
ATOM      6  C   UNL     1      23.672  29.284  46.925  1.00  0.00     0.000 C 
BRANCH   6   7
ATOM      7  C   UNL     1      23.362  30.786  47.069  1.00  0.00     0.000 C 
BRANCH   7   8
ATOM      8  C   UNL     1      24.437  31.740  46.516  1.00  0.00     0.000 C 
BRANCH   8   9
ATOM      9  C   UNL     1      24.487  31.767  44.979  1.00  0.00     0.000 C 
BRANCH   9  10
ATOM     10  C   UNL     1      25.925  31.795  44.427  1.00  0.00     0.006 C 
BRANCH  10  11
ATOM     11  C   UNL     1      26.243  30.673  43.426  1.00  0.00     0.053 C 
BRANCH  11  12
ATOM     12  C   UNL     1      25.765  30.995  42.044  1.00  0.00     0.041 C 
ATOM     13  O   UNL     1      25.861  32.169  41.598  1.00  0.00    -0.550 OA
ATOM     14  O   UNL     1      25.239  29.993  41.238  1.00  0.00    -0.550 OA
ENDBRANCH  11  12
ENDBRANCH  10  11
ENDBRANCH   9  10
ENDBRANCH   8   9
ENDBRANCH   7   8
ENDBRANCH   6   7
ENDBRANCH   5   6
ENDBRANCH   4   5
ENDBRANCH   3   4
ENDBRANCH   2   3
ENDBRANCH   1   2
BRANCH   1  15
ATOM     15  C   UNL     1      20.995  31.202  43.738  1.00  0.00     0.000 C 
BRANCH  15  16
ATOM     16  C   UNL     1      20.625  31.765  45.118  1.00  0.00     0.000 C 
BRANCH  16  17
ATOM     17  C   UNL     1      19.351  31.107  45.662  1.00  0.00     0.000 C 
BRANCH  17  18
ATOM     18  C   UNL     1      19.571  30.577  47.084  1.00  0.00    -0.000 C 
BRANCH  18  19
ATOM     19  C   UNL     1      19.521  29.042  47.115  1.00  0.00    -0.000 C 
BRANCH  19  20
ATOM     20  C   UNL     1      19.085  28.489  48.482  1.00  0.00    -0.000 C 
BRANCH  20  21
ATOM     21  C   UNL     1      20.174  27.637  49.154  1.00  0.00    -0.000 C 
BRANCH  21  22
ATOM     22  C   UNL     1      20.677  28.307  50.443  1.00  0.00    -0.000 C 
BRANCH  22  23
ATOM     23  C   UNL     1      22.076  28.923  50.271  1.00  0.00    -0.000 C 
BRANCH  23  24
ATOM     24  C   UNL     1      22.116  30.441  50.562  1.00  0.00    -0.000 C 
BRANCH  24  25
ATOM     25  C   UNL     1      20.730  31.105  50.538  1.00  0.00    -0.003 C 
ATOM     26  C   UNL     1      20.767  32.533  49.998  1.00  0.00     0.004 C 
ENDBRANCH  24  25
ENDBRANCH  23  24
ENDBRANCH  22  23
ENDBRANCH  21  22
ENDBRANCH  20  21
ENDBRANCH  19  20
ENDBRANCH  18  19
ENDBRANCH  17  18
ENDBRANCH  16  17
ENDBRANCH  15  16
ENDBRANCH   1  15
TORSDOF 22
ENDMDL
