MODEL 1
REMARK VINA RESULT:    -6.235      0.000      0.000
REMARK INTER + INTRA:          -7.297
REMARK INTER:                  -7.693
REMARK INTRA:                   0.396
REMARK UNBOUND:                 0.396
REMARK SMILES O=c1c(O)c(-c2cc(O)c(O)c(O)c2)oc2cc(O)cc(O)c12
REMARK SMILES IDX 5 1 3 2 2 3 1 4 23 5 21 6 20 7 18 8 17 9 16 10 15 11 6 12
REMARK SMILES IDX 7 13 8 14 14 15 10 16 12 17 9 18 11 20 13 22 4 24 22 26
REMARK SMILES IDX 19 28
REMARK H PARENT 9 19 11 21 13 23 4 25 22 27 19 29
REMARK Flexibility Score: inf
ROOT
ATOM      1  C   UNL     1      27.739  16.895   5.854  1.00  0.00     0.180 A 
ATOM      2  C   UNL     1      26.490  16.533   6.387  1.00  0.00     0.208 A 
ATOM      3  C   UNL     1      26.448  15.717   7.529  1.00  0.00     0.238 A 
ATOM      4  O   UNL     1      25.328  15.459   8.043  1.00  0.00    -0.285 OA
ATOM      5  C   UNL     1      27.652  15.225   8.090  1.00  0.00     0.111 A 
ATOM      6  C   UNL     1      27.724  14.354   9.219  1.00  0.00     0.134 A 
ATOM      7  C   UNL     1      28.975  14.017   9.751  1.00  0.00     0.093 A 
ATOM      8  C   UNL     1      30.157  14.468   9.158  1.00  0.00     0.123 A 
ATOM      9  C   UNL     1      30.096  15.275   8.024  1.00  0.00     0.094 A 
ATOM     10  C   UNL     1      28.863  15.659   7.492  1.00  0.00     0.146 A 
ATOM     11  O   UNL     1      28.853  16.445   6.422  1.00  0.00    -0.452 OA
ENDROOT
BRANCH   1  12
ATOM     12  C   UNL     1      27.866  17.764   4.662  1.00  0.00     0.029 A 
ATOM     13  C   UNL     1      29.094  18.379   4.386  1.00  0.00     0.062 A 
ATOM     14  C   UNL     1      29.235  19.222   3.275  1.00  0.00     0.162 A 
ATOM     15  C   UNL     1      26.765  18.035   3.835  1.00  0.00     0.062 A 
ATOM     16  C   UNL     1      28.141  19.474   2.437  1.00  0.00     0.200 A 
ATOM     17  C   UNL     1      26.889  18.879   2.725  1.00  0.00     0.162 A 
BRANCH  14  18
ATOM     18  O   UNL     1      30.465  19.816   2.999  1.00  0.00    -0.504 OA
ATOM     19  H   UNL     1      30.762  20.004   2.048  1.00  0.00     0.293 HD
ENDBRANCH  14  18
BRANCH  16  20
ATOM     20  O   UNL     1      28.336  20.315   1.338  1.00  0.00    -0.502 OA
ATOM     21  H   UNL     1      28.973  20.117   0.579  1.00  0.00     0.293 HD
ENDBRANCH  16  20
BRANCH  17  22
ATOM     22  O   UNL     1      25.751  19.100   1.946  1.00  0.00    -0.504 OA
ATOM     23  H   UNL     1      25.265  18.376   1.437  1.00  0.00     0.293 HD
ENDBRANCH  17  22
ENDBRANCH   1  12
BRANCH   2  24
ATOM     24  O   UNL     1      25.312  16.967   5.773  1.00  0.00    -0.502 OA
ATOM     25  H   UNL     1      25.109  16.782   4.798  1.00  0.00     0.293 HD
ENDBRANCH   2  24
BRANCH   6  26
ATOM     26  O   UNL     1      26.611  13.774   9.835  1.00  0.00    -0.507 OA
ATOM     27  H   UNL     1      25.999  14.245  10.483  1.00  0.00     0.293 HD
ENDBRANCH   6  26
BRANCH   8  28
ATOM     28  O   UNL     1      31.397  14.115   9.684  1.00  0.00    -0.508 OA
ATOM     29  H   UNL     1      32.139  14.795   9.795  1.00  0.00     0.293 HD
ENDBRANCH   8  28
TORSDOF 7
ENDMDL
MODEL 2
REMARK VINA RESULT:    -6.031      2.768      7.099
REMARK INTER + INTRA:          -7.045
REMARK INTER:                  -6.718
REMARK INTRA:                  -0.327
REMARK UNBOUND:                 0.396
REMARK SMILES O=c1c(O)c(-c2cc(O)c(O)c(O)c2)oc2cc(O)cc(O)c12
REMARK SMILES IDX 5 1 3 2 2 3 1 4 23 5 21 6 20 7 18 8 17 9 16 10 15 11 6 12
REMARK SMILES IDX 7 13 8 14 14 15 10 16 12 17 9 18 11 20 13 22 4 24 22 26
REMARK SMILES IDX 19 28
REMARK H PARENT 9 19 11 21 13 23 4 25 22 27 19 29
REMARK Flexibility Score: inf
ROOT
ATOM      1  C   UNL     1      26.092  17.109   5.294  1.00  0.00     0.180 A 
ATOM      2  C   UNL     1      27.330  17.161   5.958  1.00  0.00     0.208 A 
ATOM      3  C   UNL     1      28.393  17.857   5.362  1.00  0.00     0.238 A 
ATOM      4  O   UNL     1      29.475  17.962   5.996  1.00  0.00    -0.285 OA
ATOM      5  C   UNL     1      28.224  18.443   4.084  1.00  0.00     0.111 A 
ATOM      6  C   UNL     1      29.248  19.132   3.365  1.00  0.00     0.134 A 
ATOM      7  C   UNL     1      28.936  19.763   2.155  1.00  0.00     0.093 A 
ATOM      8  C   UNL     1      27.654  19.676   1.605  1.00  0.00     0.123 A 
ATOM      9  C   UNL     1      26.664  18.959   2.272  1.00  0.00     0.094 A 
ATOM     10  C   UNL     1      26.934  18.351   3.500  1.00  0.00     0.146 A 
ATOM     11  O   UNL     1      25.954  17.696   4.111  1.00  0.00    -0.452 OA
ENDROOT
BRANCH   1  12
ATOM     12  C   UNL     1      24.920  16.407   5.866  1.00  0.00     0.029 A 
ATOM     13  C   UNL     1      24.531  15.170   5.334  1.00  0.00     0.062 A 
ATOM     14  C   UNL     1      23.414  14.496   5.844  1.00  0.00     0.162 A 
ATOM     15  C   UNL     1      24.152  16.982   6.890  1.00  0.00     0.062 A 
ATOM     16  C   UNL     1      22.661  15.060   6.883  1.00  0.00     0.200 A 
ATOM     17  C   UNL     1      23.031  16.321   7.407  1.00  0.00     0.162 A 
BRANCH  14  18
ATOM     18  O   UNL     1      23.044  13.258   5.320  1.00  0.00    -0.504 OA
ATOM     19  H   UNL     1      22.803  13.146   4.341  1.00  0.00     0.293 HD
ENDBRANCH  14  18
BRANCH  16  20
ATOM     20  O   UNL     1      21.561  14.342   7.360  1.00  0.00    -0.502 OA
ATOM     21  H   UNL     1      21.612  13.647   8.091  1.00  0.00     0.293 HD
ENDBRANCH  16  20
BRANCH  17  22
ATOM     22  O   UNL     1      22.316  16.954   8.427  1.00  0.00    -0.504 OA
ATOM     23  H   UNL     1      22.526  17.879   8.774  1.00  0.00     0.293 HD
ENDBRANCH  17  22
ENDBRANCH   1  12
BRANCH   2  24
ATOM     24  O   UNL     1      27.497  16.511   7.184  1.00  0.00    -0.502 OA
ATOM     25  H   UNL     1      28.396  16.452   7.649  1.00  0.00     0.293 HD
ENDBRANCH   2  24
BRANCH   6  26
ATOM     26  O   UNL     1      30.582  19.206   3.778  1.00  0.00    -0.507 OA
ATOM     27  H   UNL     1      30.964  19.924   4.374  1.00  0.00     0.293 HD
ENDBRANCH   6  26
BRANCH   8  28
ATOM     28  O   UNL     1      27.357  20.292   0.392  1.00  0.00    -0.508 OA
ATOM     29  H   UNL     1      27.204  19.755  -0.453  1.00  0.00     0.293 HD
ENDBRANCH   8  28
TORSDOF 7
ENDMDL
MODEL 3
REMARK VINA RESULT:    -5.949      1.626      3.619
REMARK INTER + INTRA:          -6.944
REMARK INTER:                  -7.340
REMARK INTRA:                   0.395
REMARK UNBOUND:                 0.396
REMARK SMILES O=c1c(O)c(-c2cc(O)c(O)c(O)c2)oc2cc(O)cc(O)c12
REMARK SMILES IDX 5 1 3 2 2 3 1 4 23 5 21 6 20 7 18 8 17 9 16 10 15 11 6 12
REMARK SMILES IDX 7 13 8 14 14 15 10 16 12 17 9 18 11 20 13 22 4 24 22 26
REMARK SMILES IDX 19 28
REMARK H PARENT 9 19 11 21 13 23 4 25 22 27 19 29
REMARK Flexibility Score: inf
ROOT
ATOM      1  C   UNL     1      27.147  17.215   5.315  1.00  0.00     0.180 A 
ATOM      2  C   UNL     1      28.241  16.985   6.167  1.00  0.00     0.208 A 
ATOM      3  C   UNL     1      28.065  16.167   7.295  1.00  0.00     0.238 A 
ATOM      4  O   UNL     1      29.066  15.906   8.011  1.00  0.00    -0.285 OA
ATOM      5  C   UNL     1      26.785  15.636   7.588  1.00  0.00     0.111 A 
ATOM      6  C   UNL     1      26.482  14.832   8.729  1.00  0.00     0.134 A 
ATOM      7  C   UNL     1      25.205  14.274   8.860  1.00  0.00     0.093 A 
ATOM      8  C   UNL     1      24.201  14.542   7.926  1.00  0.00     0.123 A 
ATOM      9  C   UNL     1      24.472  15.370   6.839  1.00  0.00     0.094 A 
ATOM     10  C   UNL     1      25.747  15.910   6.660  1.00  0.00     0.146 A 
ATOM     11  O   UNL     1      25.967  16.677   5.598  1.00  0.00    -0.452 OA
ENDROOT
BRANCH   1  12
ATOM     12  C   UNL     1      27.258  18.054   4.100  1.00  0.00     0.029 A 
ATOM     13  C   UNL     1      26.095  18.426   3.412  1.00  0.00     0.062 A 
ATOM     14  C   UNL     1      26.174  19.202   2.247  1.00  0.00     0.162 A 
ATOM     15  C   UNL     1      28.507  18.434   3.586  1.00  0.00     0.062 A 
ATOM     16  C   UNL     1      27.421  19.601   1.748  1.00  0.00     0.200 A 
ATOM     17  C   UNL     1      28.601  19.206   2.421  1.00  0.00     0.162 A 
BRANCH  14  18
ATOM     18  O   UNL     1      25.011  19.581   1.579  1.00  0.00    -0.504 OA
ATOM     19  H   UNL     1      24.687  19.087   0.755  1.00  0.00     0.293 HD
ENDBRANCH  14  18
BRANCH  16  20
ATOM     20  O   UNL     1      27.444  20.381   0.588  1.00  0.00    -0.502 OA
ATOM     21  H   UNL     1      26.928  20.162  -0.252  1.00  0.00     0.293 HD
ENDBRANCH  16  20
BRANCH  17  22
ATOM     22  O   UNL     1      29.878  19.550   1.971  1.00  0.00    -0.504 OA
ATOM     23  H   UNL     1      30.333  19.119   1.179  1.00  0.00     0.293 HD
ENDBRANCH  17  22
ENDBRANCH   1  12
BRANCH   2  24
ATOM     24  O   UNL     1      29.476  17.581   5.901  1.00  0.00    -0.502 OA
ATOM     25  H   UNL     1      30.265  17.057   5.540  1.00  0.00     0.293 HD
ENDBRANCH   2  24
BRANCH   6  26
ATOM     26  O   UNL     1      27.382  14.574   9.768  1.00  0.00    -0.507 OA
ATOM     27  H   UNL     1      28.365  14.382   9.646  1.00  0.00     0.293 HD
ENDBRANCH   6  26
BRANCH   8  28
ATOM     28  O   UNL     1      22.928  13.996   8.073  1.00  0.00    -0.508 OA
ATOM     29  H   UNL     1      22.568  13.727   8.981  1.00  0.00     0.293 HD
ENDBRANCH   8  28
TORSDOF 7
ENDMDL
MODEL 4
REMARK VINA RESULT:    -5.822     16.249     17.904
REMARK INTER + INTRA:          -6.788
REMARK INTER:                  -6.785
REMARK INTRA:                  -0.003
REMARK UNBOUND:                 0.396
REMARK SMILES O=c1c(O)c(-c2cc(O)c(O)c(O)c2)oc2cc(O)cc(O)c12
REMARK SMILES IDX 5 1 3 2 2 3 1 4 23 5 21 6 20 7 18 8 17 9 16 10 15 11 6 12
REMARK SMILES IDX 7 13 8 14 14 15 10 16 12 17 9 18 11 20 13 22 4 24 22 26
REMARK SMILES IDX 19 28
REMARK H PARENT 9 19 11 21 13 23 4 25 22 27 19 29
REMARK Flexibility Score: inf
ROOT
ATOM      1  C   UNL     1      39.996  22.217  -5.068  1.00  0.00     0.180 A 
ATOM      2  C   UNL     1      40.219  21.540  -3.857  1.00  0.00     0.208 A 
ATOM      3  C   UNL     1      40.296  22.281  -2.667  1.00  0.00     0.238 A 
ATOM      4  O   UNL     1      40.420  21.661  -1.578  1.00  0.00    -0.285 OA
ATOM      5  C   UNL     1      40.206  23.694  -2.708  1.00  0.00     0.111 A 
ATOM      6  C   UNL     1      40.317  24.548  -1.569  1.00  0.00     0.134 A 
ATOM      7  C   UNL     1      40.106  25.925  -1.716  1.00  0.00     0.093 A 
ATOM      8  C   UNL     1      39.853  26.486  -2.970  1.00  0.00     0.123 A 
ATOM      9  C   UNL     1      39.798  25.667  -4.095  1.00  0.00     0.094 A 
ATOM     10  C   UNL     1      39.966  24.285  -3.976  1.00  0.00     0.146 A 
ATOM     11  O   UNL     1      39.884  23.540  -5.072  1.00  0.00    -0.452 OA
ENDROOT
BRANCH   1  12
ATOM     12  C   UNL     1      39.889  21.504  -6.361  1.00  0.00     0.029 A 
ATOM     13  C   UNL     1      40.551  22.014  -7.486  1.00  0.00     0.062 A 
ATOM     14  C   UNL     1      40.449  21.370  -8.726  1.00  0.00     0.162 A 
ATOM     15  C   UNL     1      39.088  20.360  -6.501  1.00  0.00     0.062 A 
ATOM     16  C   UNL     1      39.668  20.214  -8.859  1.00  0.00     0.200 A 
ATOM     17  C   UNL     1      38.974  19.708  -7.734  1.00  0.00     0.162 A 
BRANCH  14  18
ATOM     18  O   UNL     1      41.125  21.875  -9.835  1.00  0.00    -0.504 OA
ATOM     19  H   UNL     1      41.804  21.319 -10.342  1.00  0.00     0.293 HD
ENDBRANCH  14  18
BRANCH  16  20
ATOM     20  O   UNL     1      39.607  19.605 -10.115  1.00  0.00    -0.502 OA
ATOM     21  H   UNL     1      39.468  18.615 -10.258  1.00  0.00     0.293 HD
ENDBRANCH  16  20
BRANCH  17  22
ATOM     22  O   UNL     1      38.161  18.573  -7.797  1.00  0.00    -0.504 OA
ATOM     23  H   UNL     1      38.209  17.883  -8.532  1.00  0.00     0.293 HD
ENDBRANCH  17  22
ENDBRANCH   1  12
BRANCH   2  24
ATOM     24  O   UNL     1      40.380  20.152  -3.847  1.00  0.00    -0.502 OA
ATOM     25  H   UNL     1      39.600  19.514  -3.955  1.00  0.00     0.293 HD
ENDBRANCH   2  24
BRANCH   6  26
ATOM     26  O   UNL     1      40.653  24.105  -0.286  1.00  0.00    -0.507 OA
ATOM     27  H   UNL     1      40.838  24.705   0.503  1.00  0.00     0.293 HD
ENDBRANCH   6  26
BRANCH   8  28
ATOM     28  O   UNL     1      39.662  27.858  -3.110  1.00  0.00    -0.508 OA
ATOM     29  H   UNL     1      40.207  28.406  -3.764  1.00  0.00     0.293 HD
ENDBRANCH   8  28
TORSDOF 7
ENDMDL
MODEL 5
REMARK VINA RESULT:    -5.791      2.788      7.286
REMARK INTER + INTRA:          -6.749
REMARK INTER:                  -6.537
REMARK INTRA:                  -0.212
REMARK UNBOUND:                 0.396
REMARK SMILES O=c1c(O)c(-c2cc(O)c(O)c(O)c2)oc2cc(O)cc(O)c12
REMARK SMILES IDX 5 1 3 2 2 3 1 4 23 5 21 6 20 7 18 8 17 9 16 10 15 11 6 12
REMARK SMILES IDX 7 13 8 14 14 15 10 16 12 17 9 18 11 20 13 22 4 24 22 26
REMARK SMILES IDX 19 28
REMARK H PARENT 9 19 11 21 13 23 4 25 22 27 19 29
REMARK Flexibility Score: inf
ROOT
ATOM      1  C   UNL     1      25.162  17.046   4.594  1.00  0.00     0.180 A 
ATOM      2  C   UNL     1      24.111  17.740   3.969  1.00  0.00     0.208 A 
ATOM      3  C   UNL     1      24.417  18.716   3.007  1.00  0.00     0.238 A 
ATOM      4  O   UNL     1      23.470  19.280   2.400  1.00  0.00    -0.285 OA
ATOM      5  C   UNL     1      25.769  19.027   2.722  1.00  0.00     0.111 A 
ATOM      6  C   UNL     1      26.194  20.030   1.798  1.00  0.00     0.134 A 
ATOM      7  C   UNL     1      27.558  20.176   1.518  1.00  0.00     0.093 A 
ATOM      8  C   UNL     1      28.516  19.401   2.175  1.00  0.00     0.123 A 
ATOM      9  C   UNL     1      28.114  18.457   3.118  1.00  0.00     0.094 A 
ATOM     10  C   UNL     1      26.759  18.261   3.391  1.00  0.00     0.146 A 
ATOM     11  O   UNL     1      26.420  17.337   4.282  1.00  0.00    -0.452 OA
ENDROOT
BRANCH   1  12
ATOM     12  C   UNL     1      24.919  15.994   5.606  1.00  0.00     0.029 A 
ATOM     13  C   UNL     1      25.415  16.163   6.906  1.00  0.00     0.062 A 
ATOM     14  C   UNL     1      25.216  15.173   7.878  1.00  0.00     0.162 A 
ATOM     15  C   UNL     1      24.255  14.802   5.278  1.00  0.00     0.062 A 
ATOM     16  C   UNL     1      24.533  13.993   7.556  1.00  0.00     0.200 A 
ATOM     17  C   UNL     1      24.053  13.803   6.237  1.00  0.00     0.162 A 
BRANCH  14  18
ATOM     18  O   UNL     1      25.699  15.356   9.173  1.00  0.00    -0.504 OA
ATOM     19  H   UNL     1      26.691  15.328   9.379  1.00  0.00     0.293 HD
ENDBRANCH  14  18
BRANCH  16  20
ATOM     20  O   UNL     1      24.355  13.041   8.563  1.00  0.00    -0.502 OA
ATOM     21  H   UNL     1      24.192  12.059   8.392  1.00  0.00     0.293 HD
ENDBRANCH  16  20
BRANCH  17  22
ATOM     22  O   UNL     1      23.382  12.645   5.838  1.00  0.00    -0.504 OA
ATOM     23  H   UNL     1      22.682  12.177   6.395  1.00  0.00     0.293 HD
ENDBRANCH  17  22
ENDBRANCH   1  12
BRANCH   2  24
ATOM     24  O   UNL     1      22.786  17.472   4.320  1.00  0.00    -0.502 OA
ATOM     25  H   UNL     1      22.456  17.527   5.277  1.00  0.00     0.293 HD
ENDBRANCH   2  24
BRANCH   6  26
ATOM     26  O   UNL     1      25.328  20.919   1.153  1.00  0.00    -0.507 OA
ATOM     27  H   UNL     1      25.053  21.820   1.512  1.00  0.00     0.293 HD
ENDBRANCH   6  26
BRANCH   8  28
ATOM     28  O   UNL     1      29.872  19.565   1.903  1.00  0.00    -0.508 OA
ATOM     29  H   UNL     1      30.235  19.504   0.959  1.00  0.00     0.293 HD
ENDBRANCH   8  28
TORSDOF 7
ENDMDL
MODEL 6
REMARK VINA RESULT:    -5.782     15.721     17.660
REMARK INTER + INTRA:          -6.738
REMARK INTER:                  -6.667
REMARK INTRA:                  -0.071
REMARK UNBOUND:                 0.396
REMARK SMILES O=c1c(O)c(-c2cc(O)c(O)c(O)c2)oc2cc(O)cc(O)c12
REMARK SMILES IDX 5 1 3 2 2 3 1 4 23 5 21 6 20 7 18 8 17 9 16 10 15 11 6 12
REMARK SMILES IDX 7 13 8 14 14 15 10 16 12 17 9 18 11 20 13 22 4 24 22 26
REMARK SMILES IDX 19 28
REMARK H PARENT 9 19 11 21 13 23 4 25 22 27 19 29
REMARK Flexibility Score: inf
ROOT
ATOM      1  C   UNL     1      39.833  22.525  -5.327  1.00  0.00     0.180 A 
ATOM      2  C   UNL     1      39.609  23.912  -5.270  1.00  0.00     0.208 A 
ATOM      3  C   UNL     1      39.730  24.571  -4.036  1.00  0.00     0.238 A 
ATOM      4  O   UNL     1      39.601  25.823  -4.007  1.00  0.00    -0.285 OA
ATOM      5  C   UNL     1      40.019  23.829  -2.865  1.00  0.00     0.111 A 
ATOM      6  C   UNL     1      40.119  24.387  -1.554  1.00  0.00     0.134 A 
ATOM      7  C   UNL     1      40.514  23.573  -0.486  1.00  0.00     0.093 A 
ATOM      8  C   UNL     1      40.749  22.208  -0.668  1.00  0.00     0.123 A 
ATOM      9  C   UNL     1      40.600  21.644  -1.933  1.00  0.00     0.094 A 
ATOM     10  C   UNL     1      40.245  22.437  -3.026  1.00  0.00     0.146 A 
ATOM     11  O   UNL     1      40.134  21.861  -4.217  1.00  0.00    -0.452 OA
ENDROOT
BRANCH   1  12
ATOM     12  C   UNL     1      39.738  21.763  -6.592  1.00  0.00     0.029 A 
ATOM     13  C   UNL     1      38.979  20.586  -6.631  1.00  0.00     0.062 A 
ATOM     14  C   UNL     1      38.889  19.835  -7.811  1.00  0.00     0.162 A 
ATOM     15  C   UNL     1      40.442  22.160  -7.740  1.00  0.00     0.062 A 
ATOM     16  C   UNL     1      39.573  20.245  -8.963  1.00  0.00     0.200 A 
ATOM     17  C   UNL     1      40.365  21.418  -8.924  1.00  0.00     0.162 A 
BRANCH  14  18
ATOM     18  O   UNL     1      38.118  18.674  -7.845  1.00  0.00    -0.504 OA
ATOM     19  H   UNL     1      38.411  17.828  -7.369  1.00  0.00     0.293 HD
ENDBRANCH  14  18
BRANCH  16  20
ATOM     20  O   UNL     1      39.444  19.465 -10.116  1.00  0.00    -0.502 OA
ATOM     21  H   UNL     1      39.991  19.599 -10.955  1.00  0.00     0.293 HD
ENDBRANCH  16  20
BRANCH  17  22
ATOM     22  O   UNL     1      41.090  21.876 -10.027  1.00  0.00    -0.504 OA
ATOM     23  H   UNL     1      40.672  22.150 -10.904  1.00  0.00     0.293 HD
ENDBRANCH  17  22
ENDBRANCH   1  12
BRANCH   2  24
ATOM     24  O   UNL     1      39.251  24.613  -6.424  1.00  0.00    -0.502 OA
ATOM     25  H   UNL     1      38.485  24.322  -7.021  1.00  0.00     0.293 HD
ENDBRANCH   2  24
BRANCH   6  26
ATOM     26  O   UNL     1      39.821  25.718  -1.244  1.00  0.00    -0.507 OA
ATOM     27  H   UNL     1      39.009  26.219  -1.570  1.00  0.00     0.293 HD
ENDBRANCH   6  26
BRANCH   8  28
ATOM     28  O   UNL     1      41.125  21.402   0.404  1.00  0.00    -0.508 OA
ATOM     29  H   UNL     1      41.694  20.574   0.271  1.00  0.00     0.293 HD
ENDBRANCH   8  28
TORSDOF 7
ENDMDL
MODEL 7
REMARK VINA RESULT:    -5.731     14.731     17.081
REMARK INTER + INTRA:          -6.675
REMARK INTER:                  -6.899
REMARK INTRA:                   0.224
REMARK UNBOUND:                 0.396
REMARK SMILES O=c1c(O)c(-c2cc(O)c(O)c(O)c2)oc2cc(O)cc(O)c12
REMARK SMILES IDX 5 1 3 2 2 3 1 4 23 5 21 6 20 7 18 8 17 9 16 10 15 11 6 12
REMARK SMILES IDX 7 13 8 14 14 15 10 16 12 17 9 18 11 20 13 22 4 24 22 26
REMARK SMILES IDX 19 28
REMARK H PARENT 9 19 11 21 13 23 4 25 22 27 19 29
REMARK Flexibility Score: inf
ROOT
ATOM      1  C   UNL     1      40.005  23.430  -1.875  1.00  0.00     0.180 A 
ATOM      2  C   UNL     1      40.049  24.569  -2.698  1.00  0.00     0.208 A 
ATOM      3  C   UNL     1      39.990  24.405  -4.091  1.00  0.00     0.238 A 
ATOM      4  O   UNL     1      39.955  25.432  -4.817  1.00  0.00    -0.285 OA
ATOM      5  C   UNL     1      39.946  23.103  -4.647  1.00  0.00     0.111 A 
ATOM      6  C   UNL     1      39.931  22.818  -6.047  1.00  0.00     0.134 A 
ATOM      7  C   UNL     1      39.780  21.495  -6.480  1.00  0.00     0.093 A 
ATOM      8  C   UNL     1      39.708  20.441  -5.566  1.00  0.00     0.123 A 
ATOM      9  C   UNL     1      39.777  20.704  -4.200  1.00  0.00     0.094 A 
ATOM     10  C   UNL     1      39.889  22.017  -3.736  1.00  0.00     0.146 A 
ATOM     11  O   UNL     1      39.931  22.223  -2.425  1.00  0.00    -0.452 OA
ENDROOT
BRANCH   1  12
ATOM     12  C   UNL     1      40.047  23.523  -0.398  1.00  0.00     0.029 A 
ATOM     13  C   UNL     1      40.563  22.452   0.344  1.00  0.00     0.062 A 
ATOM     14  C   UNL     1      40.595  22.506   1.744  1.00  0.00     0.162 A 
ATOM     15  C   UNL     1      39.527  24.636   0.279  1.00  0.00     0.062 A 
ATOM     16  C   UNL     1      40.096  23.628   2.419  1.00  0.00     0.200 A 
ATOM     17  C   UNL     1      39.549  24.702   1.678  1.00  0.00     0.162 A 
BRANCH  14  18
ATOM     18  O   UNL     1      41.125  21.443   2.474  1.00  0.00    -0.504 OA
ATOM     19  H   UNL     1      42.124  21.339   2.611  1.00  0.00     0.293 HD
ENDBRANCH  14  18
BRANCH  16  20
ATOM     20  O   UNL     1      40.160  23.636   3.815  1.00  0.00    -0.502 OA
ATOM     21  H   UNL     1      41.003  23.463   4.345  1.00  0.00     0.293 HD
ENDBRANCH  16  20
BRANCH  17  22
ATOM     22  O   UNL     1      39.015  25.842   2.283  1.00  0.00    -0.504 OA
ATOM     23  H   UNL     1      38.034  26.083   2.270  1.00  0.00     0.293 HD
ENDBRANCH  17  22
ENDBRANCH   1  12
BRANCH   2  24
ATOM     24  O   UNL     1      40.169  25.840  -2.131  1.00  0.00    -0.502 OA
ATOM     25  H   UNL     1      41.067  26.252  -1.906  1.00  0.00     0.293 HD
ENDBRANCH   2  24
BRANCH   6  26
ATOM     26  O   UNL     1      40.085  23.785  -7.045  1.00  0.00    -0.507 OA
ATOM     27  H   UNL     1      39.972  23.618  -8.033  1.00  0.00     0.293 HD
ENDBRANCH   6  26
BRANCH   8  28
ATOM     28  O   UNL     1      39.575  19.126  -6.006  1.00  0.00    -0.508 OA
ATOM     29  H   UNL     1      40.370  18.596  -6.341  1.00  0.00     0.293 HD
ENDBRANCH   8  28
TORSDOF 7
ENDMDL
MODEL 8
REMARK VINA RESULT:    -5.693      2.797      5.366
REMARK INTER + INTRA:          -6.628
REMARK INTER:                  -6.931
REMARK INTRA:                   0.303
REMARK UNBOUND:                 0.396
REMARK SMILES O=c1c(O)c(-c2cc(O)c(O)c(O)c2)oc2cc(O)cc(O)c12
REMARK SMILES IDX 5 1 3 2 2 3 1 4 23 5 21 6 20 7 18 8 17 9 16 10 15 11 6 12
REMARK SMILES IDX 7 13 8 14 14 15 10 16 12 17 9 18 11 20 13 22 4 24 22 26
REMARK SMILES IDX 19 28
REMARK H PARENT 9 19 11 21 13 23 4 25 22 27 19 29
REMARK Flexibility Score: inf
ROOT
ATOM      1  C   UNL     1      25.538  18.571   3.209  1.00  0.00     0.180 A 
ATOM      2  C   UNL     1      26.902  18.720   2.903  1.00  0.00     0.208 A 
ATOM      3  C   UNL     1      27.858  18.169   3.770  1.00  0.00     0.238 A 
ATOM      4  O   UNL     1      29.074  18.243   3.451  1.00  0.00    -0.285 OA
ATOM      5  C   UNL     1      27.443  17.526   4.962  1.00  0.00     0.111 A 
ATOM      6  C   UNL     1      28.329  16.972   5.936  1.00  0.00     0.134 A 
ATOM      7  C   UNL     1      27.802  16.266   7.024  1.00  0.00     0.093 A 
ATOM      8  C   UNL     1      26.422  16.148   7.208  1.00  0.00     0.123 A 
ATOM      9  C   UNL     1      25.551  16.732   6.292  1.00  0.00     0.094 A 
ATOM     10  C   UNL     1      26.045  17.411   5.176  1.00  0.00     0.146 A 
ATOM     11  O   UNL     1      25.178  17.934   4.317  1.00  0.00    -0.452 OA
ENDROOT
BRANCH   1  12
ATOM     12  C   UNL     1      24.471  19.110   2.336  1.00  0.00     0.029 A 
ATOM     13  C   UNL     1      23.217  18.485   2.316  1.00  0.00     0.062 A 
ATOM     14  C   UNL     1      22.196  18.964   1.483  1.00  0.00     0.162 A 
ATOM     15  C   UNL     1      24.705  20.199   1.483  1.00  0.00     0.062 A 
ATOM     16  C   UNL     1      22.424  20.066   0.648  1.00  0.00     0.200 A 
ATOM     17  C   UNL     1      23.696  20.686   0.643  1.00  0.00     0.162 A 
BRANCH  14  18
ATOM     18  O   UNL     1      20.947  18.346   1.481  1.00  0.00    -0.504 OA
ATOM     19  H   UNL     1      20.329  18.395   2.283  1.00  0.00     0.293 HD
ENDBRANCH  14  18
BRANCH  16  20
ATOM     20  O   UNL     1      21.370  20.509  -0.156  1.00  0.00    -0.502 OA
ATOM     21  H   UNL     1      20.690  21.198   0.131  1.00  0.00     0.293 HD
ENDBRANCH  16  20
BRANCH  17  22
ATOM     22  O   UNL     1      24.002  21.775  -0.177  1.00  0.00    -0.504 OA
ATOM     23  H   UNL     1      23.392  22.125  -0.902  1.00  0.00     0.293 HD
ENDBRANCH  17  22
ENDBRANCH   1  12
BRANCH   2  24
ATOM     24  O   UNL     1      27.292  19.424   1.761  1.00  0.00    -0.502 OA
ATOM     25  H   UNL     1      26.720  19.463   0.925  1.00  0.00     0.293 HD
ENDBRANCH   2  24
BRANCH   6  26
ATOM     26  O   UNL     1      29.720  17.107   5.898  1.00  0.00    -0.507 OA
ATOM     27  H   UNL     1      30.366  16.368   5.668  1.00  0.00     0.293 HD
ENDBRANCH   6  26
BRANCH   8  28
ATOM     28  O   UNL     1      25.907  15.458   8.303  1.00  0.00    -0.508 OA
ATOM     29  H   UNL     1      25.100  15.798   8.812  1.00  0.00     0.293 HD
ENDBRANCH   8  28
TORSDOF 7
ENDMDL
MODEL 9
REMARK VINA RESULT:    -5.566      4.688      5.538
REMARK INTER + INTRA:          -6.472
REMARK INTER:                  -6.176
REMARK INTRA:                  -0.295
REMARK UNBOUND:                 0.396
REMARK SMILES O=c1c(O)c(-c2cc(O)c(O)c(O)c2)oc2cc(O)cc(O)c12
REMARK SMILES IDX 5 1 3 2 2 3 1 4 23 5 21 6 20 7 18 8 17 9 16 10 15 11 6 12
REMARK SMILES IDX 7 13 8 14 14 15 10 16 12 17 9 18 11 20 13 22 4 24 22 26
REMARK SMILES IDX 19 28
REMARK H PARENT 9 19 11 21 13 23 4 25 22 27 19 29
REMARK Flexibility Score: inf
ROOT
ATOM      1  C   UNL     1      23.482  18.217   4.349  1.00  0.00     0.180 A 
ATOM      2  C   UNL     1      23.606  16.817   4.344  1.00  0.00     0.208 A 
ATOM      3  C   UNL     1      23.432  16.114   5.547  1.00  0.00     0.238 A 
ATOM      4  O   UNL     1      23.470  14.856   5.520  1.00  0.00    -0.285 OA
ATOM      5  C   UNL     1      23.193  16.822   6.750  1.00  0.00     0.111 A 
ATOM      6  C   UNL     1      23.047  16.215   8.034  1.00  0.00     0.134 A 
ATOM      7  C   UNL     1      22.708  17.007   9.138  1.00  0.00     0.093 A 
ATOM      8  C   UNL     1      22.573  18.392   9.017  1.00  0.00     0.123 A 
ATOM      9  C   UNL     1      22.767  19.000   7.779  1.00  0.00     0.094 A 
ATOM     10  C   UNL     1      23.069  18.232   6.651  1.00  0.00     0.146 A 
ATOM     11  O   UNL     1      23.226  18.851   5.487  1.00  0.00    -0.452 OA
ENDROOT
BRANCH   1  12
ATOM     12  C   UNL     1      23.637  19.026   3.119  1.00  0.00     0.029 A 
ATOM     13  C   UNL     1      24.921  19.262   2.608  1.00  0.00     0.062 A 
ATOM     14  C   UNL     1      25.096  20.042   1.457  1.00  0.00     0.162 A 
ATOM     15  C   UNL     1      22.531  19.613   2.486  1.00  0.00     0.062 A 
ATOM     16  C   UNL     1      23.989  20.608   0.811  1.00  0.00     0.200 A 
ATOM     17  C   UNL     1      22.692  20.397   1.337  1.00  0.00     0.162 A 
BRANCH  14  18
ATOM     18  O   UNL     1      26.375  20.258   0.946  1.00  0.00    -0.504 OA
ATOM     19  H   UNL     1      26.531  20.427  -0.041  1.00  0.00     0.293 HD
ENDBRANCH  14  18
BRANCH  16  20
ATOM     20  O   UNL     1      24.218  21.370  -0.338  1.00  0.00    -0.502 OA
ATOM     21  H   UNL     1      23.501  21.619  -1.004  1.00  0.00     0.293 HD
ENDBRANCH  16  20
BRANCH  17  22
ATOM     22  O   UNL     1      21.545  20.947   0.760  1.00  0.00    -0.504 OA
ATOM     23  H   UNL     1      21.455  21.917   0.494  1.00  0.00     0.293 HD
ENDBRANCH  17  22
ENDBRANCH   1  12
BRANCH   2  24
ATOM     24  O   UNL     1      23.917  16.143   3.160  1.00  0.00    -0.502 OA
ATOM     25  H   UNL     1      23.500  15.252   2.917  1.00  0.00     0.293 HD
ENDBRANCH   2  24
BRANCH   6  26
ATOM     26  O   UNL     1      23.247  14.854   8.285  1.00  0.00    -0.507 OA
ATOM     27  H   UNL     1      23.502  14.462   9.178  1.00  0.00     0.293 HD
ENDBRANCH   6  26
BRANCH   8  28
ATOM     28  O   UNL     1      22.252  19.175  10.123  1.00  0.00    -0.508 OA
ATOM     29  H   UNL     1      21.390  19.706  10.165  1.00  0.00     0.293 HD
ENDBRANCH   8  28
TORSDOF 7
ENDMDL
