MODEL 1
REMARK VINA RESULT:    -3.422      0.000      0.000
REMARK INTER + INTRA:          -4.452
REMARK INTER:                  -4.222
REMARK INTRA:                  -0.230
REMARK UNBOUND:                -0.230
REMARK SMILES CCCCC=CC(C)=O
REMARK SMILES IDX 4 1 3 2 2 3 1 4 5 5 6 6 7 7 9 8 8 9
REMARK H PARENT
REMARK Flexibility Score: inf
ROOT
ATOM      1  C   UNL     1      12.195 -42.675  -7.270  1.00  0.00     0.027 C 
ENDROOT
BRANCH   1   2
ATOM      2  C   UNL     1      10.864 -43.128  -7.880  1.00  0.00     0.004 C 
BRANCH   2   3
ATOM      3  C   UNL     1      10.213 -41.995  -8.682  1.00  0.00    -0.003 C 
ATOM      4  C   UNL     1      11.251 -41.226  -9.493  1.00  0.00     0.004 C 
ENDBRANCH   2   3
ENDBRANCH   1   2
BRANCH   1   5
ATOM      5  C   UNL     1      13.263 -43.713  -7.464  1.00  0.00    -0.023 C 
ATOM      6  C   UNL     1      14.457 -43.401  -7.981  1.00  0.00     0.042 C 
BRANCH   6   7
ATOM      7  C   UNL     1      15.514 -44.407  -8.192  1.00  0.00     0.152 C 
ATOM      8  O   UNL     1      15.998 -44.603  -9.340  1.00  0.00    -0.295 OA
ATOM      9  C   UNL     1      16.016 -45.205  -7.032  1.00  0.00     0.093 C 
ENDBRANCH   6   7
ENDBRANCH   1   5
TORSDOF 4
ENDMDL
MODEL 2
REMARK VINA RESULT:    -3.406     19.229     20.056
REMARK INTER + INTRA:          -4.433
REMARK INTER:                  -4.294
REMARK INTRA:                  -0.139
REMARK UNBOUND:                -0.230
REMARK SMILES CCCCC=CC(C)=O
REMARK SMILES IDX 4 1 3 2 2 3 1 4 5 5 6 6 7 7 9 8 8 9
REMARK H PARENT
REMARK Flexibility Score: inf
ROOT
ATOM      1  C   UNL     1      28.199 -41.537 -21.538  1.00  0.00     0.027 C 
ENDROOT
BRANCH   1   2
ATOM      2  C   UNL     1      27.938 -42.688 -22.516  1.00  0.00     0.004 C 
BRANCH   2   3
ATOM      3  C   UNL     1      27.434 -42.161 -23.864  1.00  0.00    -0.003 C 
ATOM      4  C   UNL     1      27.573 -43.216 -24.956  1.00  0.00     0.004 C 
ENDBRANCH   2   3
ENDBRANCH   1   2
BRANCH   1   5
ATOM      5  C   UNL     1      28.828 -42.034 -20.268  1.00  0.00    -0.023 C 
ATOM      6  C   UNL     1      28.657 -43.293 -19.849  1.00  0.00     0.042 C 
BRANCH   6   7
ATOM      7  C   UNL     1      29.254 -43.797 -18.598  1.00  0.00     0.152 C 
ATOM      8  O   UNL     1      29.556 -43.006 -17.663  1.00  0.00    -0.295 OA
ATOM      9  C   UNL     1      29.508 -45.261 -18.438  1.00  0.00     0.093 C 
ENDBRANCH   6   7
ENDBRANCH   1   5
TORSDOF 4
ENDMDL
MODEL 3
REMARK VINA RESULT:    -3.375     21.153     21.920
REMARK INTER + INTRA:          -4.394
REMARK INTER:                  -4.279
REMARK INTRA:                  -0.116
REMARK UNBOUND:                -0.230
REMARK SMILES CCCCC=CC(C)=O
REMARK SMILES IDX 4 1 3 2 2 3 1 4 5 5 6 6 7 7 9 8 8 9
REMARK H PARENT
REMARK Flexibility Score: inf
ROOT
ATOM      1  C   UNL     1      27.513 -27.514 -15.004  1.00  0.00     0.027 C 
ENDROOT
BRANCH   1   2
ATOM      2  C   UNL     1      27.172 -27.377 -16.492  1.00  0.00     0.004 C 
BRANCH   2   3
ATOM      3  C   UNL     1      27.397 -25.941 -16.978  1.00  0.00    -0.003 C 
ATOM      4  C   UNL     1      27.872 -25.917 -18.427  1.00  0.00     0.004 C 
ENDBRANCH   2   3
ENDBRANCH   1   2
BRANCH   1   5
ATOM      5  C   UNL     1      28.222 -28.809 -14.725  1.00  0.00    -0.023 C 
ATOM      6  C   UNL     1      27.581 -29.855 -14.191  1.00  0.00     0.042 C 
BRANCH   6   7
ATOM      7  C   UNL     1      28.261 -31.131 -13.897  1.00  0.00     0.152 C 
ATOM      8  O   UNL     1      28.726 -31.364 -12.748  1.00  0.00    -0.295 OA
ATOM      9  C   UNL     1      28.403 -32.158 -14.973  1.00  0.00     0.093 C 
ENDBRANCH   6   7
ENDBRANCH   1   5
TORSDOF 4
ENDMDL
MODEL 4
REMARK VINA RESULT:    -3.351     18.953     20.181
REMARK INTER + INTRA:          -4.365
REMARK INTER:                  -4.227
REMARK INTRA:                  -0.138
REMARK UNBOUND:                -0.230
REMARK SMILES CCCCC=CC(C)=O
REMARK SMILES IDX 4 1 3 2 2 3 1 4 5 5 6 6 7 7 9 8 8 9
REMARK H PARENT
REMARK Flexibility Score: inf
ROOT
ATOM      1  C   UNL     1      28.664 -43.506 -22.191  1.00  0.00     0.027 C 
ENDROOT
BRANCH   1   2
ATOM      2  C   UNL     1      27.569 -42.680 -22.876  1.00  0.00     0.004 C 
BRANCH   2   3
ATOM      3  C   UNL     1      27.601 -42.879 -24.396  1.00  0.00    -0.003 C 
ATOM      4  C   UNL     1      27.080 -41.644 -25.124  1.00  0.00     0.004 C 
ENDBRANCH   2   3
ENDBRANCH   1   2
BRANCH   1   5
ATOM      5  C   UNL     1      28.683 -43.263 -20.709  1.00  0.00    -0.023 C 
ATOM      6  C   UNL     1      28.848 -42.035 -20.205  1.00  0.00     0.042 C 
BRANCH   6   7
ATOM      7  C   UNL     1      28.883 -41.776 -18.753  1.00  0.00     0.152 C 
ATOM      8  O   UNL     1      28.455 -40.687 -18.282  1.00  0.00    -0.295 OA
ATOM      9  C   UNL     1      29.434 -42.814 -17.830  1.00  0.00     0.093 C 
ENDBRANCH   6   7
ENDBRANCH   1   5
TORSDOF 4
ENDMDL
MODEL 5
REMARK VINA RESULT:    -3.341      2.066      5.237
REMARK INTER + INTRA:          -4.352
REMARK INTER:                  -4.186
REMARK INTRA:                  -0.166
REMARK UNBOUND:                -0.230
REMARK SMILES CCCCC=CC(C)=O
REMARK SMILES IDX 4 1 3 2 2 3 1 4 5 5 6 6 7 7 9 8 8 9
REMARK H PARENT
REMARK Flexibility Score: inf
ROOT
ATOM      1  C   UNL     1      15.476 -45.210  -6.723  1.00  0.00     0.027 C 
ENDROOT
BRANCH   1   2
ATOM      2  C   UNL     1      16.749 -44.672  -7.388  1.00  0.00     0.004 C 
BRANCH   2   3
ATOM      3  C   UNL     1      17.482 -45.782  -8.149  1.00  0.00    -0.003 C 
ATOM      4  C   UNL     1      17.212 -45.694  -9.648  1.00  0.00     0.004 C 
ENDBRANCH   2   3
ENDBRANCH   1   2
BRANCH   1   5
ATOM      5  C   UNL     1      14.426 -44.141  -6.613  1.00  0.00    -0.023 C 
ATOM      6  C   UNL     1      13.485 -43.987  -7.551  1.00  0.00     0.042 C 
BRANCH   6   7
ATOM      7  C   UNL     1      12.454 -42.935  -7.469  1.00  0.00     0.152 C 
ATOM      8  O   UNL     1      12.727 -41.799  -6.996  1.00  0.00    -0.295 OA
ATOM      9  C   UNL     1      11.067 -43.221  -7.949  1.00  0.00     0.093 C 
ENDBRANCH   6   7
ENDBRANCH   1   5
TORSDOF 4
ENDMDL
MODEL 6
REMARK VINA RESULT:    -3.291      2.008      3.155
REMARK INTER + INTRA:          -4.291
REMARK INTER:                  -4.137
REMARK INTRA:                  -0.154
REMARK UNBOUND:                -0.230
REMARK SMILES CCCCC=CC(C)=O
REMARK SMILES IDX 4 1 3 2 2 3 1 4 5 5 6 6 7 7 9 8 8 9
REMARK H PARENT
REMARK Flexibility Score: inf
ROOT
ATOM      1  C   UNL     1      14.651 -44.669  -6.463  1.00  0.00     0.027 C 
ENDROOT
BRANCH   1   2
ATOM      2  C   UNL     1      13.937 -44.250  -7.753  1.00  0.00     0.004 C 
BRANCH   2   3
ATOM      3  C   UNL     1      13.060 -43.015  -7.521  1.00  0.00    -0.003 C 
ATOM      4  C   UNL     1      11.603 -43.299  -7.874  1.00  0.00     0.004 C 
ENDBRANCH   2   3
ENDBRANCH   1   2
BRANCH   1   5
ATOM      5  C   UNL     1      16.033 -45.184  -6.748  1.00  0.00    -0.023 C 
ATOM      6  C   UNL     1      16.570 -45.107  -7.971  1.00  0.00     0.042 C 
BRANCH   6   7
ATOM      7  C   UNL     1      17.919 -45.618  -8.274  1.00  0.00     0.152 C 
ATOM      8  O   UNL     1      18.780 -45.750  -7.362  1.00  0.00    -0.295 OA
ATOM      9  C   UNL     1      18.272 -45.983  -9.681  1.00  0.00     0.093 C 
ENDBRANCH   6   7
ENDBRANCH   1   5
TORSDOF 4
ENDMDL
MODEL 7
REMARK VINA RESULT:    -3.284      3.345      6.263
REMARK INTER + INTRA:          -4.283
REMARK INTER:                  -4.049
REMARK INTRA:                  -0.233
REMARK UNBOUND:                -0.230
REMARK SMILES CCCCC=CC(C)=O
REMARK SMILES IDX 4 1 3 2 2 3 1 4 5 5 6 6 7 7 9 8 8 9
REMARK H PARENT
REMARK Flexibility Score: inf
ROOT
ATOM      1  C   UNL     1      18.244 -45.977  -9.108  1.00  0.00     0.027 C 
ENDROOT
BRANCH   1   2
ATOM      2  C   UNL     1      18.006 -45.484 -10.539  1.00  0.00     0.004 C 
BRANCH   2   3
ATOM      3  C   UNL     1      19.328 -45.109 -11.219  1.00  0.00    -0.003 C 
ATOM      4  C   UNL     1      20.518 -45.714 -10.480  1.00  0.00     0.004 C 
ENDBRANCH   2   3
ENDBRANCH   1   2
BRANCH   1   5
ATOM      5  C   UNL     1      17.115 -45.579  -8.200  1.00  0.00    -0.023 C 
ATOM      6  C   UNL     1      16.189 -44.693  -8.584  1.00  0.00     0.042 C 
BRANCH   6   7
ATOM      7  C   UNL     1      15.080 -44.279  -7.703  1.00  0.00     0.152 C 
ATOM      8  O   UNL     1      14.360 -43.286  -7.997  1.00  0.00    -0.295 OA
ATOM      9  C   UNL     1      14.808 -45.043  -6.448  1.00  0.00     0.093 C 
ENDBRANCH   6   7
ENDBRANCH   1   5
TORSDOF 4
ENDMDL
MODEL 8
REMARK VINA RESULT:    -3.264     10.258     12.025
REMARK INTER + INTRA:          -4.257
REMARK INTER:                  -4.095
REMARK INTRA:                  -0.162
REMARK UNBOUND:                -0.230
REMARK SMILES CCCCC=CC(C)=O
REMARK SMILES IDX 4 1 3 2 2 3 1 4 5 5 6 6 7 7 9 8 8 9
REMARK H PARENT
REMARK Flexibility Score: inf
ROOT
ATOM      1  C   UNL     1      12.148 -38.267 -19.857  1.00  0.00     0.027 C 
ENDROOT
BRANCH   1   2
ATOM      2  C   UNL     1      13.083 -38.642 -21.012  1.00  0.00     0.004 C 
BRANCH   2   3
ATOM      3  C   UNL     1      12.398 -38.430 -22.366  1.00  0.00    -0.003 C 
ATOM      4  C   UNL     1      10.897 -38.211 -22.197  1.00  0.00     0.004 C 
ENDBRANCH   2   3
ENDBRANCH   1   2
BRANCH   1   5
ATOM      5  C   UNL     1      12.753 -38.622 -18.529  1.00  0.00    -0.023 C 
ATOM      6  C   UNL     1      12.041 -39.237 -17.578  1.00  0.00     0.042 C 
BRANCH   6   7
ATOM      7  C   UNL     1      12.612 -39.582 -16.263  1.00  0.00     0.152 C 
ATOM      8  O   UNL     1      12.256 -38.963 -15.223  1.00  0.00    -0.295 OA
ATOM      9  C   UNL     1      13.626 -40.675 -16.161  1.00  0.00     0.093 C 
ENDBRANCH   6   7
ENDBRANCH   1   5
TORSDOF 4
ENDMDL
MODEL 9
REMARK VINA RESULT:    -3.244     18.181     19.904
REMARK INTER + INTRA:          -4.232
REMARK INTER:                  -4.044
REMARK INTRA:                  -0.188
REMARK UNBOUND:                -0.230
REMARK SMILES CCCCC=CC(C)=O
REMARK SMILES IDX 4 1 3 2 2 3 1 4 5 5 6 6 7 7 9 8 8 9
REMARK H PARENT
REMARK Flexibility Score: inf
ROOT
ATOM      1  C   UNL     1      29.014 -45.009 -19.452  1.00  0.00     0.027 C 
ENDROOT
BRANCH   1   2
ATOM      2  C   UNL     1      29.345 -44.713 -17.985  1.00  0.00     0.004 C 
BRANCH   2   3
ATOM      3  C   UNL     1      29.436 -43.203 -17.736  1.00  0.00    -0.003 C 
ATOM      4  C   UNL     1      29.017 -42.852 -16.312  1.00  0.00     0.004 C 
ENDBRANCH   2   3
ENDBRANCH   1   2
BRANCH   1   5
ATOM      5  C   UNL     1      28.625 -43.758 -20.186  1.00  0.00    -0.023 C 
ATOM      6  C   UNL     1      28.452 -43.750 -21.512  1.00  0.00     0.042 C 
BRANCH   6   7
ATOM      7  C   UNL     1      28.084 -42.529 -22.253  1.00  0.00     0.152 C 
ATOM      8  O   UNL     1      28.176 -41.393 -21.713  1.00  0.00    -0.295 OA
ATOM      9  C   UNL     1      27.592 -42.639 -23.661  1.00  0.00     0.093 C 
ENDBRANCH   6   7
ENDBRANCH   1   5
TORSDOF 4
ENDMDL
