MODEL 1
REMARK VINA RESULT:    -4.142      0.000      0.000
REMARK INTER + INTRA:         -11.514
REMARK INTER:                  -9.469
REMARK INTRA:                  -2.045
REMARK UNBOUND:                -2.045
REMARK SMILES CCCCCCCCCCCCCCCCCCCCCCCC(=O)[O-]
REMARK SMILES IDX 13 1 14 2 15 3 16 4 17 5 18 6 19 7 20 8 21 9 22 10 23 11
REMARK SMILES IDX 24 12 25 13 26 14 12 15 11 16 10 17 9 18 8 19 7 20 6 21 5 22
REMARK SMILES IDX 4 23 3 24 2 25 1 26
REMARK H PARENT
REMARK Flexibility Score: inf
ROOT
ATOM      1  C   UNL     1      -8.285  -4.918  -6.332  1.00  0.00     0.000 C 
ENDROOT
BRANCH   1   2
ATOM      2  C   UNL     1      -9.408  -5.378  -7.272  1.00  0.00     0.000 C 
BRANCH   2   3
ATOM      3  C   UNL     1      -9.485  -4.546  -8.562  1.00  0.00     0.000 C 
BRANCH   3   4
ATOM      4  C   UNL     1      -9.155  -5.367  -9.821  1.00  0.00     0.000 C 
BRANCH   4   5
ATOM      5  C   UNL     1      -7.998  -6.352  -9.587  1.00  0.00     0.000 C 
BRANCH   5   6
ATOM      6  C   UNL     1      -6.629  -5.719  -9.892  1.00  0.00     0.000 C 
BRANCH   6   7
ATOM      7  C   UNL     1      -5.486  -6.329  -9.060  1.00  0.00     0.000 C 
BRANCH   7   8
ATOM      8  C   UNL     1      -5.881  -6.785  -7.645  1.00  0.00     0.000 C 
BRANCH   8   9
ATOM      9  C   UNL     1      -4.687  -6.872  -6.684  1.00  0.00     0.000 C 
BRANCH   9  10
ATOM     10  C   UNL     1      -4.733  -5.746  -5.645  1.00  0.00     0.006 C 
BRANCH  10  11
ATOM     11  C   UNL     1      -4.582  -4.376  -6.312  1.00  0.00     0.053 C 
BRANCH  11  12
ATOM     12  C   UNL     1      -3.467  -3.602  -5.681  1.00  0.00     0.041 C 
ATOM     13  O   UNL     1      -3.627  -2.387  -5.389  1.00  0.00    -0.550 OA
ATOM     14  O   UNL     1      -2.243  -4.213  -5.442  1.00  0.00    -0.550 OA
ENDBRANCH  11  12
ENDBRANCH  10  11
ENDBRANCH   9  10
ENDBRANCH   8   9
ENDBRANCH   7   8
ENDBRANCH   6   7
ENDBRANCH   5   6
ENDBRANCH   4   5
ENDBRANCH   3   4
ENDBRANCH   2   3
ENDBRANCH   1   2
BRANCH   1  15
ATOM     15  C   UNL     1      -8.640  -5.213  -4.868  1.00  0.00     0.000 C 
BRANCH  15  16
ATOM     16  C   UNL     1     -10.027  -5.865  -4.758  1.00  0.00     0.000 C 
BRANCH  16  17
ATOM     17  C   UNL     1     -11.123  -4.852  -4.362  1.00  0.00     0.000 C 
BRANCH  17  18
ATOM     18  C   UNL     1     -10.588  -3.431  -4.108  1.00  0.00    -0.000 C 
BRANCH  18  19
ATOM     19  C   UNL     1     -11.074  -2.841  -2.775  1.00  0.00    -0.000 C 
BRANCH  19  20
ATOM     20  C   UNL     1     -10.541  -3.595  -1.539  1.00  0.00    -0.000 C 
BRANCH  20  21
ATOM     21  C   UNL     1      -9.010  -3.772  -1.518  1.00  0.00    -0.000 C 
BRANCH  21  22
ATOM     22  C   UNL     1      -8.261  -2.605  -2.183  1.00  0.00    -0.000 C 
BRANCH  22  23
ATOM     23  C   UNL     1      -7.866  -1.506  -1.182  1.00  0.00    -0.000 C 
BRANCH  23  24
ATOM     24  C   UNL     1      -7.604  -0.123  -1.811  1.00  0.00    -0.000 C 
BRANCH  24  25
ATOM     25  C   UNL     1      -7.493   1.019  -0.778  1.00  0.00    -0.003 C 
ATOM     26  C   UNL     1      -8.701   1.955  -0.811  1.00  0.00     0.004 C 
ENDBRANCH  24  25
ENDBRANCH  23  24
ENDBRANCH  22  23
ENDBRANCH  21  22
ENDBRANCH  20  21
ENDBRANCH  19  20
ENDBRANCH  18  19
ENDBRANCH  17  18
ENDBRANCH  16  17
ENDBRANCH  15  16
ENDBRANCH   1  15
TORSDOF 22
ENDMDL
MODEL 2
REMARK VINA RESULT:    -3.930      1.259      2.094
REMARK INTER + INTRA:         -11.029
REMARK INTER:                  -8.762
REMARK INTRA:                  -2.267
REMARK UNBOUND:                -2.045
REMARK SMILES CCCCCCCCCCCCCCCCCCCCCCCC(=O)[O-]
REMARK SMILES IDX 13 1 14 2 15 3 16 4 17 5 18 6 19 7 20 8 21 9 22 10 23 11
REMARK SMILES IDX 24 12 25 13 26 14 12 15 11 16 10 17 9 18 8 19 7 20 6 21 5 22
REMARK SMILES IDX 4 23 3 24 2 25 1 26
REMARK H PARENT
REMARK Flexibility Score: inf
ROOT
ATOM      1  C   UNL     1      -8.652  -4.620  -6.101  1.00  0.00     0.000 C 
ENDROOT
BRANCH   1   2
ATOM      2  C   UNL     1      -9.104  -5.974  -6.667  1.00  0.00     0.000 C 
BRANCH   2   3
ATOM      3  C   UNL     1     -10.333  -5.858  -7.583  1.00  0.00     0.000 C 
BRANCH   3   4
ATOM      4  C   UNL     1     -10.424  -4.493  -8.286  1.00  0.00     0.000 C 
BRANCH   4   5
ATOM      5  C   UNL     1      -9.870  -4.538  -9.720  1.00  0.00     0.000 C 
BRANCH   5   6
ATOM      6  C   UNL     1      -8.536  -3.783  -9.850  1.00  0.00     0.000 C 
BRANCH   6   7
ATOM      7  C   UNL     1      -7.338  -4.717 -10.101  1.00  0.00     0.000 C 
BRANCH   7   8
ATOM      8  C   UNL     1      -7.671  -6.219 -10.094  1.00  0.00     0.000 C 
BRANCH   8   9
ATOM      9  C   UNL     1      -6.632  -7.062  -9.340  1.00  0.00     0.000 C 
BRANCH   9  10
ATOM     10  C   UNL     1      -5.795  -6.190  -8.397  1.00  0.00     0.006 C 
BRANCH  10  11
ATOM     11  C   UNL     1      -5.613  -6.870  -7.036  1.00  0.00     0.053 C 
BRANCH  11  12
ATOM     12  C   UNL     1      -4.583  -6.152  -6.221  1.00  0.00     0.041 C 
ATOM     13  O   UNL     1      -3.640  -6.793  -5.686  1.00  0.00    -0.550 OA
ATOM     14  O   UNL     1      -4.681  -4.780  -6.027  1.00  0.00    -0.550 OA
ENDBRANCH  11  12
ENDBRANCH  10  11
ENDBRANCH   9  10
ENDBRANCH   8   9
ENDBRANCH   7   8
ENDBRANCH   6   7
ENDBRANCH   5   6
ENDBRANCH   4   5
ENDBRANCH   3   4
ENDBRANCH   2   3
ENDBRANCH   1   2
BRANCH   1  15
ATOM     15  C   UNL     1      -9.711  -4.041  -5.153  1.00  0.00     0.000 C 
BRANCH  15  16
ATOM     16  C   UNL     1     -10.422  -5.157  -4.372  1.00  0.00     0.000 C 
BRANCH  16  17
ATOM     17  C   UNL     1     -11.124  -4.631  -3.102  1.00  0.00     0.000 C 
BRANCH  17  18
ATOM     18  C   UNL     1     -11.125  -3.096  -2.988  1.00  0.00    -0.000 C 
BRANCH  18  19
ATOM     19  C   UNL     1     -10.837  -2.604  -1.561  1.00  0.00    -0.000 C 
BRANCH  19  20
ATOM     20  C   UNL     1      -9.726  -3.403  -0.848  1.00  0.00    -0.000 C 
BRANCH  20  21
ATOM     21  C   UNL     1      -8.406  -3.495  -1.640  1.00  0.00    -0.000 C 
BRANCH  21  22
ATOM     22  C   UNL     1      -8.032  -2.178  -2.340  1.00  0.00    -0.000 C 
BRANCH  22  23
ATOM     23  C   UNL     1      -7.093  -1.303  -1.493  1.00  0.00    -0.000 C 
BRANCH  23  24
ATOM     24  C   UNL     1      -7.318   0.216  -1.638  1.00  0.00    -0.000 C 
BRANCH  24  25
ATOM     25  C   UNL     1      -8.426   0.770  -0.718  1.00  0.00    -0.003 C 
ATOM     26  C   UNL     1      -8.540   2.292  -0.794  1.00  0.00     0.004 C 
ENDBRANCH  24  25
ENDBRANCH  23  24
ENDBRANCH  22  23
ENDBRANCH  21  22
ENDBRANCH  20  21
ENDBRANCH  19  20
ENDBRANCH  18  19
ENDBRANCH  17  18
ENDBRANCH  16  17
ENDBRANCH  15  16
ENDBRANCH   1  15
TORSDOF 22
ENDMDL
MODEL 3
REMARK VINA RESULT:    -3.845      2.679      7.441
REMARK INTER + INTRA:         -10.836
REMARK INTER:                  -8.933
REMARK INTRA:                  -1.904
REMARK UNBOUND:                -2.045
REMARK SMILES CCCCCCCCCCCCCCCCCCCCCCCC(=O)[O-]
REMARK SMILES IDX 13 1 14 2 15 3 16 4 17 5 18 6 19 7 20 8 21 9 22 10 23 11
REMARK SMILES IDX 24 12 25 13 26 14 12 15 11 16 10 17 9 18 8 19 7 20 6 21 5 22
REMARK SMILES IDX 4 23 3 24 2 25 1 26
REMARK H PARENT
REMARK Flexibility Score: inf
ROOT
ATOM      1  C   UNL     1      -8.465  -4.909  -5.115  1.00  0.00     0.000 C 
ENDROOT
BRANCH   1   2
ATOM      2  C   UNL     1      -9.976  -5.073  -4.898  1.00  0.00     0.000 C 
BRANCH   2   3
ATOM      3  C   UNL     1     -10.747  -3.752  -5.044  1.00  0.00     0.000 C 
BRANCH   3   4
ATOM      4  C   UNL     1     -11.074  -3.101  -3.689  1.00  0.00     0.000 C 
BRANCH   4   5
ATOM      5  C   UNL     1     -11.080  -4.122  -2.539  1.00  0.00     0.000 C 
BRANCH   5   6
ATOM      6  C   UNL     1     -11.125  -3.440  -1.160  1.00  0.00     0.000 C 
BRANCH   6   7
ATOM      7  C   UNL     1      -9.725  -3.160  -0.582  1.00  0.00     0.000 C 
BRANCH   7   8
ATOM      8  C   UNL     1      -8.560  -3.381  -1.562  1.00  0.00     0.000 C 
BRANCH   8   9
ATOM      9  C   UNL     1      -7.853  -2.078  -1.961  1.00  0.00     0.000 C 
BRANCH   9  10
ATOM     10  C   UNL     1      -8.376  -0.894  -1.139  1.00  0.00     0.006 C 
BRANCH  10  11
ATOM     11  C   UNL     1      -7.544   0.366  -1.398  1.00  0.00     0.053 C 
BRANCH  11  12
ATOM     12  C   UNL     1      -8.126   1.541  -0.676  1.00  0.00     0.041 C 
ATOM     13  O   UNL     1      -7.694   1.863   0.461  1.00  0.00    -0.550 OA
ATOM     14  O   UNL     1      -9.166   2.263  -1.248  1.00  0.00    -0.550 OA
ENDBRANCH  11  12
ENDBRANCH  10  11
ENDBRANCH   9  10
ENDBRANCH   8   9
ENDBRANCH   7   8
ENDBRANCH   6   7
ENDBRANCH   5   6
ENDBRANCH   4   5
ENDBRANCH   3   4
ENDBRANCH   2   3
ENDBRANCH   1   2
BRANCH   1  15
ATOM     15  C   UNL     1      -8.045  -5.455  -6.486  1.00  0.00     0.000 C 
BRANCH  15  16
ATOM     16  C   UNL     1      -8.479  -4.506  -7.614  1.00  0.00     0.000 C 
BRANCH  16  17
ATOM     17  C   UNL     1      -8.991  -5.265  -8.857  1.00  0.00     0.000 C 
BRANCH  17  18
ATOM     18  C   UNL     1      -7.878  -5.649  -9.848  1.00  0.00    -0.000 C 
BRANCH  18  19
ATOM     19  C   UNL     1      -7.524  -7.143  -9.799  1.00  0.00    -0.000 C 
BRANCH  19  20
ATOM     20  C   UNL     1      -6.045  -7.413  -9.453  1.00  0.00    -0.000 C 
BRANCH  20  21
ATOM     21  C   UNL     1      -5.399  -6.339  -8.556  1.00  0.00    -0.000 C 
BRANCH  21  22
ATOM     22  C   UNL     1      -5.265  -6.781  -7.090  1.00  0.00    -0.000 C 
BRANCH  22  23
ATOM     23  C   UNL     1      -4.119  -6.065  -6.357  1.00  0.00    -0.000 C 
BRANCH  23  24
ATOM     24  C   UNL     1      -4.400  -4.591  -5.999  1.00  0.00    -0.000 C 
BRANCH  24  25
ATOM     25  C   UNL     1      -3.136  -3.790  -5.623  1.00  0.00    -0.003 C 
ATOM     26  C   UNL     1      -3.264  -2.305  -5.961  1.00  0.00     0.004 C 
ENDBRANCH  24  25
ENDBRANCH  23  24
ENDBRANCH  22  23
ENDBRANCH  21  22
ENDBRANCH  20  21
ENDBRANCH  19  20
ENDBRANCH  18  19
ENDBRANCH  17  18
ENDBRANCH  16  17
ENDBRANCH  15  16
ENDBRANCH   1  15
TORSDOF 22
ENDMDL
MODEL 4
REMARK VINA RESULT:    -3.703      1.267      2.718
REMARK INTER + INTRA:         -10.511
REMARK INTER:                  -8.111
REMARK INTRA:                  -2.399
REMARK UNBOUND:                -2.045
REMARK SMILES CCCCCCCCCCCCCCCCCCCCCCCC(=O)[O-]
REMARK SMILES IDX 13 1 14 2 15 3 16 4 17 5 18 6 19 7 20 8 21 9 22 10 23 11
REMARK SMILES IDX 24 12 25 13 26 14 12 15 11 16 10 17 9 18 8 19 7 20 6 21 5 22
REMARK SMILES IDX 4 23 3 24 2 25 1 26
REMARK H PARENT
REMARK Flexibility Score: inf
ROOT
ATOM      1  C   UNL     1      -8.577  -4.094  -8.801  1.00  0.00     0.000 C 
ENDROOT
BRANCH   1   2
ATOM      2  C   UNL     1      -7.165  -4.603  -9.123  1.00  0.00     0.000 C 
BRANCH   2   3
ATOM      3  C   UNL     1      -7.164  -5.768 -10.125  1.00  0.00     0.000 C 
BRANCH   3   4
ATOM      4  C   UNL     1      -6.419  -7.006  -9.597  1.00  0.00     0.000 C 
BRANCH   4   5
ATOM      5  C   UNL     1      -5.508  -6.674  -8.404  1.00  0.00     0.000 C 
BRANCH   5   6
ATOM      6  C   UNL     1      -5.883  -7.478  -7.148  1.00  0.00     0.000 C 
BRANCH   6   7
ATOM      7  C   UNL     1      -6.478  -6.603  -6.029  1.00  0.00     0.000 C 
BRANCH   7   8
ATOM      8  C   UNL     1      -5.444  -5.875  -5.152  1.00  0.00     0.000 C 
BRANCH   8   9
ATOM      9  C   UNL     1      -3.993  -6.177  -5.555  1.00  0.00     0.000 C 
BRANCH   9  10
ATOM     10  C   UNL     1      -3.228  -4.884  -5.863  1.00  0.00     0.006 C 
BRANCH  10  11
ATOM     11  C   UNL     1      -4.180  -3.687  -5.938  1.00  0.00     0.053 C 
BRANCH  11  12
ATOM     12  C   UNL     1      -3.446  -2.410  -5.668  1.00  0.00     0.041 C 
ATOM     13  O   UNL     1      -2.970  -2.184  -4.525  1.00  0.00    -0.550 OA
ATOM     14  O   UNL     1      -3.312  -1.459  -6.671  1.00  0.00    -0.550 OA
ENDBRANCH  11  12
ENDBRANCH  10  11
ENDBRANCH   9  10
ENDBRANCH   8   9
ENDBRANCH   7   8
ENDBRANCH   6   7
ENDBRANCH   5   6
ENDBRANCH   4   5
ENDBRANCH   3   4
ENDBRANCH   2   3
ENDBRANCH   1   2
BRANCH   1  15
ATOM     15  C   UNL     1      -9.643  -5.041  -9.369  1.00  0.00     0.000 C 
BRANCH  15  16
ATOM     16  C   UNL     1     -10.115  -6.042  -8.303  1.00  0.00     0.000 C 
BRANCH  16  17
ATOM     17  C   UNL     1     -10.963  -5.372  -7.201  1.00  0.00     0.000 C 
BRANCH  17  18
ATOM     18  C   UNL     1     -11.092  -6.218  -5.921  1.00  0.00    -0.000 C 
BRANCH  18  19
ATOM     19  C   UNL     1     -10.775  -5.421  -4.646  1.00  0.00    -0.000 C 
BRANCH  19  20
ATOM     20  C   UNL     1      -9.954  -4.141  -4.909  1.00  0.00    -0.000 C 
BRANCH  20  21
ATOM     21  C   UNL     1      -8.901  -3.831  -3.827  1.00  0.00    -0.000 C 
BRANCH  21  22
ATOM     22  C   UNL     1      -9.477  -3.861  -2.402  1.00  0.00    -0.000 C 
BRANCH  22  23
ATOM     23  C   UNL     1      -9.349  -2.508  -1.683  1.00  0.00    -0.000 C 
BRANCH  23  24
ATOM     24  C   UNL     1      -7.931  -2.176  -1.175  1.00  0.00    -0.000 C 
BRANCH  24  25
ATOM     25  C   UNL     1      -7.292  -0.954  -1.868  1.00  0.00    -0.003 C 
ATOM     26  C   UNL     1      -7.698   0.366  -1.214  1.00  0.00     0.004 C 
ENDBRANCH  24  25
ENDBRANCH  23  24
ENDBRANCH  22  23
ENDBRANCH  21  22
ENDBRANCH  20  21
ENDBRANCH  19  20
ENDBRANCH  18  19
ENDBRANCH  17  18
ENDBRANCH  16  17
ENDBRANCH  15  16
ENDBRANCH   1  15
TORSDOF 22
ENDMDL
MODEL 5
REMARK VINA RESULT:    -3.428      1.101      2.437
REMARK INTER + INTRA:          -9.882
REMARK INTER:                  -7.760
REMARK INTRA:                  -2.123
REMARK UNBOUND:                -2.045
REMARK SMILES CCCCCCCCCCCCCCCCCCCCCCCC(=O)[O-]
REMARK SMILES IDX 13 1 14 2 15 3 16 4 17 5 18 6 19 7 20 8 21 9 22 10 23 11
REMARK SMILES IDX 24 12 25 13 26 14 12 15 11 16 10 17 9 18 8 19 7 20 6 21 5 22
REMARK SMILES IDX 4 23 3 24 2 25 1 26
REMARK H PARENT
REMARK Flexibility Score: inf
ROOT
ATOM      1  C   UNL     1      -8.929  -4.430  -4.466  1.00  0.00     0.000 C 
ENDROOT
BRANCH   1   2
ATOM      2  C   UNL     1      -8.724  -5.428  -5.614  1.00  0.00     0.000 C 
BRANCH   2   3
ATOM      3  C   UNL     1     -10.044  -5.862  -6.270  1.00  0.00     0.000 C 
BRANCH   3   4
ATOM      4  C   UNL     1     -10.042  -5.671  -7.797  1.00  0.00     0.000 C 
BRANCH   4   5
ATOM      5  C   UNL     1      -9.837  -4.201  -8.199  1.00  0.00     0.000 C 
BRANCH   5   6
ATOM      6  C   UNL     1      -9.091  -4.066  -9.538  1.00  0.00     0.000 C 
BRANCH   6   7
ATOM      7  C   UNL     1      -8.533  -5.405 -10.053  1.00  0.00     0.000 C 
BRANCH   7   8
ATOM      8  C   UNL     1      -7.016  -5.589  -9.880  1.00  0.00     0.000 C 
BRANCH   8   9
ATOM      9  C   UNL     1      -6.651  -6.792  -8.998  1.00  0.00     0.000 C 
BRANCH   9  10
ATOM     10  C   UNL     1      -5.429  -6.484  -8.124  1.00  0.00     0.006 C 
BRANCH  10  11
ATOM     11  C   UNL     1      -5.765  -5.432  -7.062  1.00  0.00     0.053 C 
BRANCH  11  12
ATOM     12  C   UNL     1      -4.572  -5.150  -6.203  1.00  0.00     0.041 C 
ATOM     13  O   UNL     1      -3.970  -6.094  -5.627  1.00  0.00    -0.550 OA
ATOM     14  O   UNL     1      -4.143  -3.843  -6.014  1.00  0.00    -0.550 OA
ENDBRANCH  11  12
ENDBRANCH  10  11
ENDBRANCH   9  10
ENDBRANCH   8   9
ENDBRANCH   7   8
ENDBRANCH   6   7
ENDBRANCH   5   6
ENDBRANCH   4   5
ENDBRANCH   3   4
ENDBRANCH   2   3
ENDBRANCH   1   2
BRANCH   1  15
ATOM     15  C   UNL     1     -10.301  -3.750  -4.569  1.00  0.00     0.000 C 
BRANCH  15  16
ATOM     16  C   UNL     1     -11.125  -3.974  -3.291  1.00  0.00     0.000 C 
BRANCH  16  17
ATOM     17  C   UNL     1     -10.960  -2.822  -2.276  1.00  0.00     0.000 C 
BRANCH  17  18
ATOM     18  C   UNL     1     -11.116  -3.264  -0.810  1.00  0.00    -0.000 C 
BRANCH  18  19
ATOM     19  C   UNL     1      -9.883  -4.010  -0.277  1.00  0.00    -0.000 C 
BRANCH  19  20
ATOM     20  C   UNL     1      -8.619  -3.799  -1.135  1.00  0.00    -0.000 C 
BRANCH  20  21
ATOM     21  C   UNL     1      -7.850  -2.501  -0.818  1.00  0.00    -0.000 C 
BRANCH  21  22
ATOM     22  C   UNL     1      -7.522  -1.675  -2.073  1.00  0.00    -0.000 C 
BRANCH  22  23
ATOM     23  C   UNL     1      -7.167  -0.214  -1.744  1.00  0.00    -0.000 C 
BRANCH  23  24
ATOM     24  C   UNL     1      -8.329   0.619  -1.167  1.00  0.00    -0.000 C 
BRANCH  24  25
ATOM     25  C   UNL     1      -7.871   1.893  -0.424  1.00  0.00    -0.003 C 
ATOM     26  C   UNL     1      -8.684   3.124  -0.822  1.00  0.00     0.004 C 
ENDBRANCH  24  25
ENDBRANCH  23  24
ENDBRANCH  22  23
ENDBRANCH  21  22
ENDBRANCH  20  21
ENDBRANCH  19  20
ENDBRANCH  18  19
ENDBRANCH  17  18
ENDBRANCH  16  17
ENDBRANCH  15  16
ENDBRANCH   1  15
TORSDOF 22
ENDMDL
MODEL 6
REMARK VINA RESULT:    -3.174      2.860      4.398
REMARK INTER + INTRA:          -9.301
REMARK INTER:                  -7.857
REMARK INTRA:                  -1.444
REMARK UNBOUND:                -2.045
REMARK SMILES CCCCCCCCCCCCCCCCCCCCCCCC(=O)[O-]
REMARK SMILES IDX 13 1 14 2 15 3 16 4 17 5 18 6 19 7 20 8 21 9 22 10 23 11
REMARK SMILES IDX 24 12 25 13 26 14 12 15 11 16 10 17 9 18 8 19 7 20 6 21 5 22
REMARK SMILES IDX 4 23 3 24 2 25 1 26
REMARK H PARENT
REMARK Flexibility Score: inf
ROOT
ATOM      1  C   UNL     1      -6.641  -6.671  -4.814  1.00  0.00     0.000 C 
ENDROOT
BRANCH   1   2
ATOM      2  C   UNL     1      -5.861  -7.029  -6.088  1.00  0.00     0.000 C 
BRANCH   2   3
ATOM      3  C   UNL     1      -4.950  -5.889  -6.570  1.00  0.00     0.000 C 
BRANCH   3   4
ATOM      4  C   UNL     1      -5.725  -4.770  -7.286  1.00  0.00     0.000 C 
BRANCH   4   5
ATOM      5  C   UNL     1      -6.715  -5.320  -8.326  1.00  0.00     0.000 C 
BRANCH   5   6
ATOM      6  C   UNL     1      -7.034  -4.290  -9.424  1.00  0.00     0.000 C 
BRANCH   6   7
ATOM      7  C   UNL     1      -8.536  -4.206  -9.751  1.00  0.00     0.000 C 
BRANCH   7   8
ATOM      8  C   UNL     1      -9.441  -5.105  -8.892  1.00  0.00     0.000 C 
BRANCH   8   9
ATOM      9  C   UNL     1     -10.439  -5.926  -9.723  1.00  0.00     0.000 C 
BRANCH   9  10
ATOM     10  C   UNL     1     -10.056  -7.411  -9.733  1.00  0.00     0.006 C 
BRANCH  10  11
ATOM     11  C   UNL     1      -8.587  -7.597 -10.124  1.00  0.00     0.053 C 
BRANCH  11  12
ATOM     12  C   UNL     1      -8.174  -9.026  -9.961  1.00  0.00     0.041 C 
ATOM     13  O   UNL     1      -6.962  -9.320  -9.794  1.00  0.00    -0.550 OA
ATOM     14  O   UNL     1      -9.125 -10.036 -10.024  1.00  0.00    -0.550 OA
ENDBRANCH  11  12
ENDBRANCH  10  11
ENDBRANCH   9  10
ENDBRANCH   8   9
ENDBRANCH   7   8
ENDBRANCH   6   7
ENDBRANCH   5   6
ENDBRANCH   4   5
ENDBRANCH   3   4
ENDBRANCH   2   3
ENDBRANCH   1   2
BRANCH   1  15
ATOM     15  C   UNL     1      -7.357  -5.322  -4.971  1.00  0.00     0.000 C 
BRANCH  15  16
ATOM     16  C   UNL     1      -8.880  -5.512  -5.047  1.00  0.00     0.000 C 
BRANCH  16  17
ATOM     17  C   UNL     1      -9.612  -4.224  -5.482  1.00  0.00     0.000 C 
BRANCH  17  18
ATOM     18  C   UNL     1     -10.967  -4.018  -4.782  1.00  0.00    -0.000 C 
BRANCH  18  19
ATOM     19  C   UNL     1     -10.879  -3.059  -3.584  1.00  0.00    -0.000 C 
BRANCH  19  20
ATOM     20  C   UNL     1     -10.464  -3.753  -2.270  1.00  0.00    -0.000 C 
BRANCH  20  21
ATOM     21  C   UNL     1      -9.006  -3.485  -1.848  1.00  0.00    -0.000 C 
BRANCH  21  22
ATOM     22  C   UNL     1      -8.778  -2.050  -1.346  1.00  0.00    -0.000 C 
BRANCH  22  23
ATOM     23  C   UNL     1      -7.406  -1.489  -1.756  1.00  0.00    -0.000 C 
BRANCH  23  24
ATOM     24  C   UNL     1      -7.246   0.032  -1.565  1.00  0.00    -0.000 C 
BRANCH  24  25
ATOM     25  C   UNL     1      -8.331   0.664  -0.668  1.00  0.00    -0.003 C 
ATOM     26  C   UNL     1      -8.576   2.136  -0.997  1.00  0.00     0.004 C 
ENDBRANCH  24  25
ENDBRANCH  23  24
ENDBRANCH  22  23
ENDBRANCH  21  22
ENDBRANCH  20  21
ENDBRANCH  19  20
ENDBRANCH  18  19
ENDBRANCH  17  18
ENDBRANCH  16  17
ENDBRANCH  15  16
ENDBRANCH   1  15
TORSDOF 22
ENDMDL
MODEL 7
REMARK VINA RESULT:    -3.004      2.254      7.352
REMARK INTER + INTRA:          -8.913
REMARK INTER:                  -7.308
REMARK INTRA:                  -1.605
REMARK UNBOUND:                -2.045
REMARK SMILES CCCCCCCCCCCCCCCCCCCCCCCC(=O)[O-]
REMARK SMILES IDX 13 1 14 2 15 3 16 4 17 5 18 6 19 7 20 8 21 9 22 10 23 11
REMARK SMILES IDX 24 12 25 13 26 14 12 15 11 16 10 17 9 18 8 19 7 20 6 21 5 22
REMARK SMILES IDX 4 23 3 24 2 25 1 26
REMARK H PARENT
REMARK Flexibility Score: inf
ROOT
ATOM      1  C   UNL     1      -5.073  -6.317  -6.180  1.00  0.00     0.000 C 
ENDROOT
BRANCH   1   2
ATOM      2  C   UNL     1      -5.916  -5.040  -6.055  1.00  0.00     0.000 C 
BRANCH   2   3
ATOM      3  C   UNL     1      -7.378  -5.245  -6.481  1.00  0.00     0.000 C 
BRANCH   3   4
ATOM      4  C   UNL     1      -8.168  -6.124  -5.496  1.00  0.00     0.000 C 
BRANCH   4   5
ATOM      5  C   UNL     1      -9.431  -5.421  -4.972  1.00  0.00     0.000 C 
BRANCH   5   6
ATOM      6  C   UNL     1      -9.501  -3.949  -5.415  1.00  0.00     0.000 C 
BRANCH   6   7
ATOM      7  C   UNL     1     -10.874  -3.306  -5.149  1.00  0.00     0.000 C 
BRANCH   7   8
ATOM      8  C   UNL     1     -11.096  -2.816  -3.707  1.00  0.00     0.000 C 
BRANCH   8   9
ATOM      9  C   UNL     1     -11.107  -3.956  -2.678  1.00  0.00     0.000 C 
BRANCH   9  10
ATOM     10  C   UNL     1     -10.384  -3.542  -1.391  1.00  0.00     0.006 C 
BRANCH  10  11
ATOM     11  C   UNL     1      -8.864  -3.590  -1.575  1.00  0.00     0.053 C 
BRANCH  11  12
ATOM     12  C   UNL     1      -8.331  -2.233  -1.913  1.00  0.00     0.041 C 
ATOM     13  O   UNL     1      -7.663  -2.059  -2.966  1.00  0.00    -0.550 OA
ATOM     14  O   UNL     1      -8.545  -1.166  -1.050  1.00  0.00    -0.550 OA
ENDBRANCH  11  12
ENDBRANCH  10  11
ENDBRANCH   9  10
ENDBRANCH   8   9
ENDBRANCH   7   8
ENDBRANCH   6   7
ENDBRANCH   5   6
ENDBRANCH   4   5
ENDBRANCH   3   4
ENDBRANCH   2   3
ENDBRANCH   1   2
BRANCH   1  15
ATOM     15  C   UNL     1      -5.705  -7.295  -7.180  1.00  0.00     0.000 C 
BRANCH  15  16
ATOM     16  C   UNL     1      -5.288  -6.957  -8.620  1.00  0.00     0.000 C 
BRANCH  16  17
ATOM     17  C   UNL     1      -6.127  -5.808  -9.221  1.00  0.00     0.000 C 
BRANCH  17  18
ATOM     18  C   UNL     1      -7.403  -6.285  -9.937  1.00  0.00    -0.000 C 
BRANCH  18  19
ATOM     19  C   UNL     1      -7.447  -7.810 -10.125  1.00  0.00    -0.000 C 
BRANCH  19  20
ATOM     20  C   UNL     1      -8.840  -8.420  -9.869  1.00  0.00    -0.000 C 
BRANCH  20  21
ATOM     21  C   UNL     1     -10.001  -7.411  -9.972  1.00  0.00    -0.000 C 
BRANCH  21  22
ATOM     22  C   UNL     1     -10.456  -6.877  -8.604  1.00  0.00    -0.000 C 
BRANCH  22  23
ATOM     23  C   UNL     1     -11.057  -5.464  -8.690  1.00  0.00    -0.000 C 
BRANCH  23  24
ATOM     24  C   UNL     1     -10.737  -4.702  -9.992  1.00  0.00    -0.000 C 
BRANCH  24  25
ATOM     25  C   UNL     1      -9.755  -3.527  -9.800  1.00  0.00    -0.003 C 
ATOM     26  C   UNL     1     -10.391  -2.176 -10.124  1.00  0.00     0.004 C 
ENDBRANCH  24  25
ENDBRANCH  23  24
ENDBRANCH  22  23
ENDBRANCH  21  22
ENDBRANCH  20  21
ENDBRANCH  19  20
ENDBRANCH  18  19
ENDBRANCH  17  18
ENDBRANCH  16  17
ENDBRANCH  15  16
ENDBRANCH   1  15
TORSDOF 22
ENDMDL
MODEL 8
REMARK VINA RESULT:    -2.912      2.795      7.628
REMARK INTER + INTRA:          -8.701
REMARK INTER:                  -6.738
REMARK INTRA:                  -1.963
REMARK UNBOUND:                -2.045
REMARK SMILES CCCCCCCCCCCCCCCCCCCCCCCC(=O)[O-]
REMARK SMILES IDX 13 1 14 2 15 3 16 4 17 5 18 6 19 7 20 8 21 9 22 10 23 11
REMARK SMILES IDX 24 12 25 13 26 14 12 15 11 16 10 17 9 18 8 19 7 20 6 21 5 22
REMARK SMILES IDX 4 23 3 24 2 25 1 26
REMARK H PARENT
REMARK Flexibility Score: inf
ROOT
ATOM      1  C   UNL     1      -9.421  -5.474  -5.823  1.00  0.00     0.000 C 
ENDROOT
BRANCH   1   2
ATOM      2  C   UNL     1      -9.459  -5.088  -4.337  1.00  0.00     0.000 C 
BRANCH   2   3
ATOM      3  C   UNL     1     -10.838  -4.581  -3.887  1.00  0.00     0.000 C 
BRANCH   3   4
ATOM      4  C   UNL     1     -10.794  -3.147  -3.333  1.00  0.00     0.000 C 
BRANCH   4   5
ATOM      5  C   UNL     1     -11.125  -3.091  -1.833  1.00  0.00     0.000 C 
BRANCH   5   6
ATOM      6  C   UNL     1      -9.969  -3.616  -0.964  1.00  0.00     0.000 C 
BRANCH   6   7
ATOM      7  C   UNL     1      -8.587  -3.405  -1.611  1.00  0.00     0.000 C 
BRANCH   7   8
ATOM      8  C   UNL     1      -7.812  -2.176  -1.105  1.00  0.00     0.000 C 
BRANCH   8   9
ATOM      9  C   UNL     1      -7.345  -1.249  -2.238  1.00  0.00     0.000 C 
BRANCH   9  10
ATOM     10  C   UNL     1      -7.200   0.194  -1.743  1.00  0.00     0.006 C 
BRANCH  10  11
ATOM     11  C   UNL     1      -8.233   0.509  -0.656  1.00  0.00     0.053 C 
BRANCH  11  12
ATOM     12  C   UNL     1      -8.351   1.988  -0.453  1.00  0.00     0.041 C 
ATOM     13  O   UNL     1      -8.920   2.702  -1.319  1.00  0.00    -0.550 OA
ATOM     14  O   UNL     1      -7.806   2.580   0.679  1.00  0.00    -0.550 OA
ENDBRANCH  11  12
ENDBRANCH  10  11
ENDBRANCH   9  10
ENDBRANCH   8   9
ENDBRANCH   7   8
ENDBRANCH   6   7
ENDBRANCH   5   6
ENDBRANCH   4   5
ENDBRANCH   3   4
ENDBRANCH   2   3
ENDBRANCH   1   2
BRANCH   1  15
ATOM     15  C   UNL     1     -10.839  -5.579  -6.398  1.00  0.00     0.000 C 
BRANCH  15  16
ATOM     16  C   UNL     1     -10.815  -6.152  -7.823  1.00  0.00     0.000 C 
BRANCH  16  17
ATOM     17  C   UNL     1     -10.518  -5.073  -8.886  1.00  0.00     0.000 C 
BRANCH  17  18
ATOM     18  C   UNL     1      -9.509  -5.523  -9.958  1.00  0.00    -0.000 C 
BRANCH  18  19
ATOM     19  C   UNL     1      -8.996  -6.953  -9.731  1.00  0.00    -0.000 C 
BRANCH  19  20
ATOM     20  C   UNL     1      -7.496  -7.018  -9.374  1.00  0.00    -0.000 C 
BRANCH  20  21
ATOM     21  C   UNL     1      -6.793  -5.647  -9.350  1.00  0.00    -0.000 C 
BRANCH  21  22
ATOM     22  C   UNL     1      -6.644  -5.073  -7.931  1.00  0.00    -0.000 C 
BRANCH  22  23
ATOM     23  C   UNL     1      -6.070  -6.095  -6.935  1.00  0.00    -0.000 C 
BRANCH  23  24
ATOM     24  C   UNL     1      -4.540  -6.275  -7.002  1.00  0.00    -0.000 C 
BRANCH  24  25
ATOM     25  C   UNL     1      -3.828  -6.054  -5.651  1.00  0.00    -0.003 C 
ATOM     26  C   UNL     1      -3.058  -4.735  -5.606  1.00  0.00     0.004 C 
ENDBRANCH  24  25
ENDBRANCH  23  24
ENDBRANCH  22  23
ENDBRANCH  21  22
ENDBRANCH  20  21
ENDBRANCH  19  20
ENDBRANCH  18  19
ENDBRANCH  17  18
ENDBRANCH  16  17
ENDBRANCH  15  16
ENDBRANCH   1  15
TORSDOF 22
ENDMDL
MODEL 9
REMARK VINA RESULT:    -2.740      2.459      4.175
REMARK INTER + INTRA:          -8.309
REMARK INTER:                  -6.568
REMARK INTRA:                  -1.742
REMARK UNBOUND:                -2.045
REMARK SMILES CCCCCCCCCCCCCCCCCCCCCCCC(=O)[O-]
REMARK SMILES IDX 13 1 14 2 15 3 16 4 17 5 18 6 19 7 20 8 21 9 22 10 23 11
REMARK SMILES IDX 24 12 25 13 26 14 12 15 11 16 10 17 9 18 8 19 7 20 6 21 5 22
REMARK SMILES IDX 4 23 3 24 2 25 1 26
REMARK H PARENT
REMARK Flexibility Score: inf
ROOT
ATOM      1  C   UNL     1      -6.123  -5.254  -5.752  1.00  0.00     0.000 C 
ENDROOT
BRANCH   1   2
ATOM      2  C   UNL     1      -6.037  -6.784  -5.846  1.00  0.00     0.000 C 
BRANCH   2   3
ATOM      3  C   UNL     1      -6.176  -7.303  -7.285  1.00  0.00     0.000 C 
BRANCH   3   4
ATOM      4  C   UNL     1      -5.348  -6.489  -8.294  1.00  0.00     0.000 C 
BRANCH   4   5
ATOM      5  C   UNL     1      -5.964  -6.507  -9.703  1.00  0.00     0.000 C 
BRANCH   5   6
ATOM      6  C   UNL     1      -7.151  -7.480  -9.803  1.00  0.00     0.000 C 
BRANCH   6   7
ATOM      7  C   UNL     1      -8.513  -6.764  -9.851  1.00  0.00     0.000 C 
BRANCH   7   8
ATOM      8  C   UNL     1      -9.738  -7.681  -9.691  1.00  0.00     0.000 C 
BRANCH   8   9
ATOM      9  C   UNL     1     -10.937  -6.977  -9.039  1.00  0.00     0.000 C 
BRANCH   9  10
ATOM     10  C   UNL     1     -10.620  -5.505  -8.749  1.00  0.00     0.006 C 
BRANCH  10  11
ATOM     11  C   UNL     1     -10.705  -4.663 -10.027  1.00  0.00     0.053 C 
BRANCH  11  12
ATOM     12  C   UNL     1     -10.249  -3.261  -9.766  1.00  0.00     0.041 C 
ATOM     13  O   UNL     1     -11.054  -2.410  -9.305  1.00  0.00    -0.550 OA
ATOM     14  O   UNL     1      -8.945  -2.887 -10.060  1.00  0.00    -0.550 OA
ENDBRANCH  11  12
ENDBRANCH  10  11
ENDBRANCH   9  10
ENDBRANCH   8   9
ENDBRANCH   7   8
ENDBRANCH   6   7
ENDBRANCH   5   6
ENDBRANCH   4   5
ENDBRANCH   3   4
ENDBRANCH   2   3
ENDBRANCH   1   2
BRANCH   1  15
ATOM     15  C   UNL     1      -7.580  -4.781  -5.838  1.00  0.00     0.000 C 
BRANCH  15  16
ATOM     16  C   UNL     1      -8.479  -5.590  -4.891  1.00  0.00     0.000 C 
BRANCH  16  17
ATOM     17  C   UNL     1      -9.981  -5.330  -5.140  1.00  0.00     0.000 C 
BRANCH  17  18
ATOM     18  C   UNL     1     -10.459  -3.952  -4.649  1.00  0.00    -0.000 C 
BRANCH  18  19
ATOM     19  C   UNL     1     -11.125  -4.011  -3.265  1.00  0.00    -0.000 C 
BRANCH  19  20
ATOM     20  C   UNL     1     -10.505  -3.035  -2.244  1.00  0.00    -0.000 C 
BRANCH  20  21
ATOM     21  C   UNL     1      -9.558  -3.701  -1.227  1.00  0.00    -0.000 C 
BRANCH  21  22
ATOM     22  C   UNL     1      -8.076  -3.390  -1.492  1.00  0.00    -0.000 C 
BRANCH  22  23
ATOM     23  C   UNL     1      -7.680  -1.970  -1.054  1.00  0.00    -0.000 C 
BRANCH  23  24
ATOM     24  C   UNL     1      -7.565  -0.947  -2.202  1.00  0.00    -0.000 C 
BRANCH  24  25
ATOM     25  C   UNL     1      -7.158   0.467  -1.736  1.00  0.00    -0.003 C 
ATOM     26  C   UNL     1      -8.019   0.970  -0.578  1.00  0.00     0.004 C 
ENDBRANCH  24  25
ENDBRANCH  23  24
ENDBRANCH  22  23
ENDBRANCH  21  22
ENDBRANCH  20  21
ENDBRANCH  19  20
ENDBRANCH  18  19
ENDBRANCH  17  18
ENDBRANCH  16  17
ENDBRANCH  15  16
ENDBRANCH   1  15
TORSDOF 22
ENDMDL
