MODEL 1
REMARK VINA RESULT:    -4.287      0.000      0.000
REMARK INTER + INTRA:          -4.577
REMARK INTER:                  -4.538
REMARK INTRA:                  -0.039
REMARK UNBOUND:                -0.039
REMARK SMILES COc1ccc2ccc(=O)oc2c1
REMARK SMILES IDX 3 1 13 2 12 3 6 4 5 5 4 6 7 7 8 8 9 9 10 10 11 11 2 12 1 13
REMARK H PARENT
REMARK Flexibility Score: inf
ROOT
ATOM      1  C   UNL     1      -0.105  28.698  33.055  1.00  0.00     0.122 A 
ATOM      2  C   UNL     1      -0.105  29.124  31.712  1.00  0.00     0.094 A 
ATOM      3  C   UNL     1      -0.112  28.184  30.675  1.00  0.00     0.142 A 
ATOM      4  C   UNL     1      -0.118  26.805  30.976  1.00  0.00     0.018 A 
ATOM      5  C   UNL     1      -0.117  26.382  32.311  1.00  0.00     0.016 A 
ATOM      6  C   UNL     1      -0.111  27.326  33.342  1.00  0.00     0.047 A 
ATOM      7  C   UNL     1      -0.125  25.891  29.917  1.00  0.00     0.019 A 
ATOM      8  C   UNL     1      -0.125  26.363  28.605  1.00  0.00     0.094 A 
ATOM      9  C   UNL     1      -0.119  27.744  28.382  1.00  0.00     0.336 A 
ATOM     10  O   UNL     1      -0.120  28.191  27.205  1.00  0.00    -0.246 OA
ATOM     11  O   UNL     1      -0.114  28.593  29.407  1.00  0.00    -0.423 OA
ENDROOT
BRANCH   1  12
ATOM     12  O   UNL     1      -0.098  29.601  34.129  1.00  0.00    -0.497 OA
ATOM     13  C   UNL     1      -0.057  31.017  33.989  1.00  0.00     0.278 C 
ENDBRANCH   1  12
TORSDOF 1
ENDMDL
MODEL 2
REMARK VINA RESULT:    -3.770      1.184      4.614
REMARK INTER + INTRA:          -4.029
REMARK INTER:                  -3.990
REMARK INTRA:                  -0.039
REMARK UNBOUND:                -0.039
REMARK SMILES COc1ccc2ccc(=O)oc2c1
REMARK SMILES IDX 3 1 13 2 12 3 6 4 5 5 4 6 7 7 8 8 9 9 10 10 11 11 2 12 1 13
REMARK H PARENT
REMARK Flexibility Score: inf
ROOT
ATOM      1  C   UNL     1      -0.122  26.956  29.544  1.00  0.00     0.122 A 
ATOM      2  C   UNL     1      -0.117  28.221  30.163  1.00  0.00     0.094 A 
ATOM      3  C   UNL     1      -0.115  28.323  31.559  1.00  0.00     0.142 A 
ATOM      4  C   UNL     1      -0.118  27.153  32.349  1.00  0.00     0.018 A 
ATOM      5  C   UNL     1      -0.124  25.895  31.733  1.00  0.00     0.016 A 
ATOM      6  C   UNL     1      -0.125  25.801  30.339  1.00  0.00     0.047 A 
ATOM      7  C   UNL     1      -0.116  27.288  33.741  1.00  0.00     0.019 A 
ATOM      8  C   UNL     1      -0.112  28.563  34.305  1.00  0.00     0.094 A 
ATOM      9  C   UNL     1      -0.108  29.678  33.460  1.00  0.00     0.336 A 
ATOM     10  O   UNL     1      -0.103  30.838  33.949  1.00  0.00    -0.246 OA
ATOM     11  O   UNL     1      -0.110  29.522  32.138  1.00  0.00    -0.423 OA
ENDROOT
BRANCH   1  12
ATOM     12  O   UNL     1      -0.124  26.802  28.149  1.00  0.00    -0.497 OA
ATOM     13  C   UNL     1      -0.048  27.878  27.221  1.00  0.00     0.278 C 
ENDBRANCH   1  12
TORSDOF 1
ENDMDL
MODEL 3
REMARK VINA RESULT:    -3.062      1.638      2.503
REMARK INTER + INTRA:          -3.281
REMARK INTER:                  -3.240
REMARK INTRA:                  -0.040
REMARK UNBOUND:                -0.039
REMARK SMILES COc1ccc2ccc(=O)oc2c1
REMARK SMILES IDX 3 1 13 2 12 3 6 4 5 5 4 6 7 7 8 8 9 9 10 10 11 11 2 12 1 13
REMARK H PARENT
REMARK Flexibility Score: inf
ROOT
ATOM      1  C   UNL     1      -0.111  27.043  32.457  1.00  0.00     0.122 A 
ATOM      2  C   UNL     1      -0.115  26.346  31.233  1.00  0.00     0.094 A 
ATOM      3  C   UNL     1      -0.117  27.048  30.021  1.00  0.00     0.142 A 
ATOM      4  C   UNL     1      -0.117  28.459  30.027  1.00  0.00     0.018 A 
ATOM      5  C   UNL     1      -0.114  29.152  31.244  1.00  0.00     0.016 A 
ATOM      6  C   UNL     1      -0.111  28.445  32.450  1.00  0.00     0.047 A 
ATOM      7  C   UNL     1      -0.119  29.131  28.800  1.00  0.00     0.019 A 
ATOM      8  C   UNL     1      -0.123  28.394  27.617  1.00  0.00     0.094 A 
ATOM      9  C   UNL     1      -0.122  26.997  27.688  1.00  0.00     0.336 A 
ATOM     10  O   UNL     1      -0.125  26.314  26.630  1.00  0.00    -0.246 OA
ATOM     11  O   UNL     1      -0.119  26.382  28.868  1.00  0.00    -0.423 OA
ENDROOT
BRANCH   1  12
ATOM     12  O   UNL     1      -0.109  26.386  33.696  1.00  0.00    -0.497 OA
ATOM     13  C   UNL     1      -0.013  27.042  34.955  1.00  0.00     0.278 C 
ENDBRANCH   1  12
TORSDOF 1
ENDMDL
MODEL 4
REMARK VINA RESULT:    -2.748      1.745      5.105
REMARK INTER + INTRA:          -2.948
REMARK INTER:                  -2.908
REMARK INTRA:                  -0.040
REMARK UNBOUND:                -0.039
REMARK SMILES COc1ccc2ccc(=O)oc2c1
REMARK SMILES IDX 3 1 13 2 12 3 6 4 5 5 4 6 7 7 8 8 9 9 10 10 11 11 2 12 1 13
REMARK H PARENT
REMARK Flexibility Score: inf
ROOT
ATOM      1  C   UNL     1      -0.118  27.308  29.365  1.00  0.00     0.122 A 
ATOM      2  C   UNL     1      -0.115  26.486  30.509  1.00  0.00     0.094 A 
ATOM      3  C   UNL     1      -0.117  27.057  31.787  1.00  0.00     0.142 A 
ATOM      4  C   UNL     1      -0.122  28.460  31.930  1.00  0.00     0.018 A 
ATOM      5  C   UNL     1      -0.124  29.278  30.792  1.00  0.00     0.016 A 
ATOM      6  C   UNL     1      -0.122  28.701  29.519  1.00  0.00     0.047 A 
ATOM      7  C   UNL     1      -0.124  29.000  33.220  1.00  0.00     0.019 A 
ATOM      8  C   UNL     1      -0.121  28.143  34.320  1.00  0.00     0.094 A 
ATOM      9  C   UNL     1      -0.117  26.761  34.103  1.00  0.00     0.336 A 
ATOM     10  O   UNL     1      -0.116  25.970  35.082  1.00  0.00    -0.246 OA
ATOM     11  O   UNL     1      -0.116  26.273  32.864  1.00  0.00    -0.423 OA
ENDROOT
BRANCH   1  12
ATOM     12  O   UNL     1      -0.116  26.784  28.063  1.00  0.00    -0.497 OA
ATOM     13  C   UNL     1      -0.046  27.571  26.879  1.00  0.00     0.278 C 
ENDBRANCH   1  12
TORSDOF 1
ENDMDL
MODEL 5
REMARK VINA RESULT:    -2.509      1.811      5.191
REMARK INTER + INTRA:          -2.694
REMARK INTER:                  -2.655
REMARK INTRA:                  -0.039
REMARK UNBOUND:                -0.039
REMARK SMILES COc1ccc2ccc(=O)oc2c1
REMARK SMILES IDX 3 1 13 2 12 3 6 4 5 5 4 6 7 7 8 8 9 9 10 10 11 11 2 12 1 13
REMARK H PARENT
REMARK Flexibility Score: inf
ROOT
ATOM      1  C   UNL     1      -0.103  25.829  29.694  1.00  0.00     0.122 A 
ATOM      2  C   UNL     1      -0.107  25.844  31.102  1.00  0.00     0.094 A 
ATOM      3  C   UNL     1      -0.110  27.060  31.795  1.00  0.00     0.142 A 
ATOM      4  C   UNL     1      -0.109  28.276  31.079  1.00  0.00     0.018 A 
ATOM      5  C   UNL     1      -0.103  28.261  29.678  1.00  0.00     0.016 A 
ATOM      6  C   UNL     1      -0.101  27.043  28.993  1.00  0.00     0.047 A 
ATOM      7  C   UNL     1      -0.112  29.475  31.800  1.00  0.00     0.019 A 
ATOM      8  C   UNL     1      -0.117  29.435  33.193  1.00  0.00     0.094 A 
ATOM      9  C   UNL     1      -0.119  28.193  33.836  1.00  0.00     0.336 A 
ATOM     10  O   UNL     1      -0.124  28.136  35.094  1.00  0.00    -0.246 OA
ATOM     11  O   UNL     1      -0.116  27.067  33.127  1.00  0.00    -0.423 OA
ENDROOT
BRANCH   1  12
ATOM     12  O   UNL     1      -0.099  24.636  28.955  1.00  0.00    -0.497 OA
ATOM     13  C   UNL     1      -0.124  23.334  29.530  1.00  0.00     0.278 C 
ENDBRANCH   1  12
TORSDOF 1
ENDMDL
