MODEL 1
REMARK VINA RESULT:    -3.931      0.000      0.000
REMARK INTER + INTRA:          -8.660
REMARK INTER:                  -6.688
REMARK INTRA:                  -1.971
REMARK UNBOUND:                -1.971
REMARK SMILES CCCCCCCCCCCCCC(=O)[O-]
REMARK SMILES IDX 8 1 9 2 10 3 11 4 12 5 13 6 14 7 15 8 16 9 7 10 6 11 5 12
REMARK SMILES IDX 4 13 3 14 2 15 1 16
REMARK H PARENT
REMARK Flexibility Score: inf
ROOT
ATOM      1  C   UNL     1      25.206   1.676  17.468  1.00  0.00     0.000 C 
ENDROOT
BRANCH   1   2
ATOM      2  C   UNL     1      25.005   0.729  18.658  1.00  0.00     0.000 C 
BRANCH   2   3
ATOM      3  C   UNL     1      24.607  -0.676  18.181  1.00  0.00     0.000 C 
BRANCH   3   4
ATOM      4  C   UNL     1      24.401  -0.749  16.659  1.00  0.00     0.000 C 
BRANCH   4   5
ATOM      5  C   UNL     1      23.757  -2.070  16.211  1.00  0.00     0.006 C 
BRANCH   5   6
ATOM      6  C   UNL     1      22.601  -2.457  17.138  1.00  0.00     0.053 C 
BRANCH   6   7
ATOM      7  C   UNL     1      22.691  -3.903  17.513  1.00  0.00     0.041 C 
ATOM      8  O   UNL     1      21.651  -4.546  17.814  1.00  0.00    -0.550 OA
ATOM      9  O   UNL     1      23.930  -4.527  17.579  1.00  0.00    -0.550 OA
ENDBRANCH   6   7
ENDBRANCH   5   6
ENDBRANCH   4   5
ENDBRANCH   3   4
ENDBRANCH   2   3
ENDBRANCH   1   2
BRANCH   1  10
ATOM     10  C   UNL     1      24.555   3.039  17.733  1.00  0.00     0.000 C 
BRANCH  10  11
ATOM     11  C   UNL     1      24.074   3.146  19.185  1.00  0.00    -0.000 C 
BRANCH  11  12
ATOM     12  C   UNL     1      22.868   4.087  19.297  1.00  0.00    -0.000 C 
BRANCH  12  13
ATOM     13  C   UNL     1      21.550   3.297  19.295  1.00  0.00    -0.000 C 
BRANCH  13  14
ATOM     14  C   UNL     1      21.724   1.841  19.763  1.00  0.00    -0.000 C 
BRANCH  14  15
ATOM     15  C   UNL     1      21.110   0.783  18.827  1.00  0.00    -0.003 C 
ATOM     16  C   UNL     1      21.310   1.107  17.347  1.00  0.00     0.004 C 
ENDBRANCH  14  15
ENDBRANCH  13  14
ENDBRANCH  12  13
ENDBRANCH  11  12
ENDBRANCH  10  11
ENDBRANCH   1  10
TORSDOF 12
ENDMDL
MODEL 2
REMARK VINA RESULT:    -3.921     10.075     11.922
REMARK INTER + INTRA:          -8.643
REMARK INTER:                  -6.861
REMARK INTRA:                  -1.783
REMARK UNBOUND:                -1.971
REMARK SMILES CCCCCCCCCCCCCC(=O)[O-]
REMARK SMILES IDX 8 1 9 2 10 3 11 4 12 5 13 6 14 7 15 8 16 9 7 10 6 11 5 12
REMARK SMILES IDX 4 13 3 14 2 15 1 16
REMARK H PARENT
REMARK Flexibility Score: inf
ROOT
ATOM      1  C   UNL     1      26.408   6.809   6.313  1.00  0.00     0.000 C 
ENDROOT
BRANCH   1   2
ATOM      2  C   UNL     1      26.529   7.864   7.420  1.00  0.00     0.000 C 
BRANCH   2   3
ATOM      3  C   UNL     1      25.220   7.978   8.216  1.00  0.00     0.000 C 
BRANCH   3   4
ATOM      4  C   UNL     1      25.335   7.393   9.632  1.00  0.00     0.000 C 
BRANCH   4   5
ATOM      5  C   UNL     1      24.287   6.304   9.911  1.00  0.00     0.006 C 
BRANCH   5   6
ATOM      6  C   UNL     1      24.386   5.807  11.356  1.00  0.00     0.053 C 
BRANCH   6   7
ATOM      7  C   UNL     1      23.310   6.421  12.196  1.00  0.00     0.041 C 
ATOM      8  O   UNL     1      23.411   6.426  13.451  1.00  0.00    -0.550 OA
ATOM      9  O   UNL     1      22.173   6.943  11.594  1.00  0.00    -0.550 OA
ENDBRANCH   6   7
ENDBRANCH   5   6
ENDBRANCH   4   5
ENDBRANCH   3   4
ENDBRANCH   2   3
ENDBRANCH   1   2
BRANCH   1  10
ATOM     10  C   UNL     1      25.016   6.164   6.316  1.00  0.00     0.000 C 
BRANCH  10  11
ATOM     11  C   UNL     1      25.092   4.693   6.741  1.00  0.00    -0.000 C 
BRANCH  11  12
ATOM     12  C   UNL     1      26.545   4.261   6.972  1.00  0.00    -0.000 C 
BRANCH  12  13
ATOM     13  C   UNL     1      26.737   3.714   8.395  1.00  0.00    -0.000 C 
BRANCH  13  14
ATOM     14  C   UNL     1      27.622   4.620   9.271  1.00  0.00    -0.000 C 
BRANCH  14  15
ATOM     15  C   UNL     1      27.718   4.196  10.748  1.00  0.00    -0.003 C 
ATOM     16  C   UNL     1      28.803   4.951  11.516  1.00  0.00     0.004 C 
ENDBRANCH  14  15
ENDBRANCH  13  14
ENDBRANCH  12  13
ENDBRANCH  11  12
ENDBRANCH  10  11
ENDBRANCH   1  10
TORSDOF 12
ENDMDL
MODEL 3
REMARK VINA RESULT:    -3.848     10.052     11.711
REMARK INTER + INTRA:          -8.519
REMARK INTER:                  -6.591
REMARK INTRA:                  -1.928
REMARK UNBOUND:                -1.971
REMARK SMILES CCCCCCCCCCCCCC(=O)[O-]
REMARK SMILES IDX 8 1 9 2 10 3 11 4 12 5 13 6 14 7 15 8 16 9 7 10 6 11 5 12
REMARK SMILES IDX 4 13 3 14 2 15 1 16
REMARK H PARENT
REMARK Flexibility Score: inf
ROOT
ATOM      1  C   UNL     1      23.482   4.733   7.785  1.00  0.00     0.000 C 
ENDROOT
BRANCH   1   2
ATOM      2  C   UNL     1      23.680   4.245   9.226  1.00  0.00     0.000 C 
BRANCH   2   3
ATOM      3  C   UNL     1      23.967   5.422  10.171  1.00  0.00     0.000 C 
BRANCH   3   4
ATOM      4  C   UNL     1      25.295   5.263  10.927  1.00  0.00     0.000 C 
BRANCH   4   5
ATOM      5  C   UNL     1      26.322   4.422  10.153  1.00  0.00     0.006 C 
BRANCH   5   6
ATOM      6  C   UNL     1      27.695   5.101  10.150  1.00  0.00     0.053 C 
BRANCH   6   7
ATOM      7  C   UNL     1      28.447   4.766  11.400  1.00  0.00     0.041 C 
ATOM      8  O   UNL     1      28.812   5.680  12.185  1.00  0.00    -0.550 OA
ATOM      9  O   UNL     1      28.789   3.448  11.671  1.00  0.00    -0.550 OA
ENDBRANCH   6   7
ENDBRANCH   5   6
ENDBRANCH   4   5
ENDBRANCH   3   4
ENDBRANCH   2   3
ENDBRANCH   1   2
BRANCH   1  10
ATOM     10  C   UNL     1      24.631   4.266   6.883  1.00  0.00     0.000 C 
BRANCH  10  11
ATOM     11  C   UNL     1      25.610   5.412   6.601  1.00  0.00    -0.000 C 
BRANCH  11  12
ATOM     12  C   UNL     1      24.866   6.740   6.419  1.00  0.00    -0.000 C 
BRANCH  12  13
ATOM     13  C   UNL     1      25.711   7.919   6.925  1.00  0.00    -0.000 C 
BRANCH  13  14
ATOM     14  C   UNL     1      26.053   7.812   8.422  1.00  0.00    -0.000 C 
BRANCH  14  15
ATOM     15  C   UNL     1      25.440   8.914   9.306  1.00  0.00    -0.003 C 
ATOM     16  C   UNL     1      23.921   8.805   9.431  1.00  0.00     0.004 C 
ENDBRANCH  14  15
ENDBRANCH  13  14
ENDBRANCH  12  13
ENDBRANCH  11  12
ENDBRANCH  10  11
ENDBRANCH   1  10
TORSDOF 12
ENDMDL
MODEL 4
REMARK VINA RESULT:    -3.846      9.913     11.306
REMARK INTER + INTRA:          -8.516
REMARK INTER:                  -6.392
REMARK INTRA:                  -2.125
REMARK UNBOUND:                -1.971
REMARK SMILES CCCCCCCCCCCCCC(=O)[O-]
REMARK SMILES IDX 8 1 9 2 10 3 11 4 12 5 13 6 14 7 15 8 16 9 7 10 6 11 5 12
REMARK SMILES IDX 4 13 3 14 2 15 1 16
REMARK H PARENT
REMARK Flexibility Score: inf
ROOT
ATOM      1  C   UNL     1      25.712   5.022  10.487  1.00  0.00     0.000 C 
ENDROOT
BRANCH   1   2
ATOM      2  C   UNL     1      27.085   5.707  10.502  1.00  0.00     0.000 C 
BRANCH   2   3
ATOM      3  C   UNL     1      28.057   5.011   9.538  1.00  0.00     0.000 C 
BRANCH   3   4
ATOM      4  C   UNL     1      27.906   3.481   9.546  1.00  0.00     0.000 C 
BRANCH   4   5
ATOM      5  C   UNL     1      27.798   2.889   8.132  1.00  0.00     0.006 C 
BRANCH   5   6
ATOM      6  C   UNL     1      26.898   1.649   8.126  1.00  0.00     0.053 C 
BRANCH   6   7
ATOM      7  C   UNL     1      27.725   0.402   8.093  1.00  0.00     0.041 C 
ATOM      8  O   UNL     1      27.706  -0.345   7.079  1.00  0.00    -0.550 OA
ATOM      9  O   UNL     1      28.479   0.039   9.201  1.00  0.00    -0.550 OA
ENDBRANCH   6   7
ENDBRANCH   5   6
ENDBRANCH   4   5
ENDBRANCH   3   4
ENDBRANCH   2   3
ENDBRANCH   1   2
BRANCH   1  10
ATOM     10  C   UNL     1      24.597   6.029  10.175  1.00  0.00     0.000 C 
BRANCH  10  11
ATOM     11  C   UNL     1      23.732   5.546   9.006  1.00  0.00    -0.000 C 
BRANCH  11  12
ATOM     12  C   UNL     1      24.374   4.343   8.304  1.00  0.00    -0.000 C 
BRANCH  12  13
ATOM     13  C   UNL     1      24.520   4.599   6.796  1.00  0.00    -0.000 C 
BRANCH  13  14
ATOM     14  C   UNL     1      24.814   6.073   6.463  1.00  0.00    -0.000 C 
BRANCH  14  15
ATOM     15  C   UNL     1      26.301   6.466   6.523  1.00  0.00    -0.003 C 
ATOM     16  C   UNL     1      26.548   7.756   7.303  1.00  0.00     0.004 C 
ENDBRANCH  14  15
ENDBRANCH  13  14
ENDBRANCH  12  13
ENDBRANCH  11  12
ENDBRANCH  10  11
ENDBRANCH   1  10
TORSDOF 12
ENDMDL
MODEL 5
REMARK VINA RESULT:    -3.844     10.028     11.630
REMARK INTER + INTRA:          -8.513
REMARK INTER:                  -6.309
REMARK INTRA:                  -2.204
REMARK UNBOUND:                -1.971
REMARK SMILES CCCCCCCCCCCCCC(=O)[O-]
REMARK SMILES IDX 8 1 9 2 10 3 11 4 12 5 13 6 14 7 15 8 16 9 7 10 6 11 5 12
REMARK SMILES IDX 4 13 3 14 2 15 1 16
REMARK H PARENT
REMARK Flexibility Score: inf
ROOT
ATOM      1  C   UNL     1      27.969   3.151   9.664  1.00  0.00     0.000 C 
ENDROOT
BRANCH   1   2
ATOM      2  C   UNL     1      28.517   4.505   9.196  1.00  0.00     0.000 C 
BRANCH   2   3
ATOM      3  C   UNL     1      27.873   5.659   9.978  1.00  0.00     0.000 C 
BRANCH   3   4
ATOM      4  C   UNL     1      26.796   5.179  10.964  1.00  0.00     0.000 C 
BRANCH   4   5
ATOM      5  C   UNL     1      25.373   5.527  10.502  1.00  0.00     0.006 C 
BRANCH   5   6
ATOM      6  C   UNL     1      24.443   4.316  10.636  1.00  0.00     0.053 C 
BRANCH   6   7
ATOM      7  C   UNL     1      23.099   4.621  10.053  1.00  0.00     0.041 C 
ATOM      8  O   UNL     1      22.518   3.774   9.324  1.00  0.00    -0.550 OA
ATOM      9  O   UNL     1      22.511   5.859  10.272  1.00  0.00    -0.550 OA
ENDBRANCH   6   7
ENDBRANCH   5   6
ENDBRANCH   4   5
ENDBRANCH   3   4
ENDBRANCH   2   3
ENDBRANCH   1   2
BRANCH   1  10
ATOM     10  C   UNL     1      27.272   2.411   8.516  1.00  0.00     0.000 C 
BRANCH  10  11
ATOM     11  C   UNL     1      26.991   3.356   7.342  1.00  0.00    -0.000 C 
BRANCH  11  12
ATOM     12  C   UNL     1      25.484   3.536   7.127  1.00  0.00    -0.000 C 
BRANCH  12  13
ATOM     13  C   UNL     1      25.137   5.008   6.859  1.00  0.00    -0.000 C 
BRANCH  13  14
ATOM     14  C   UNL     1      26.363   5.851   6.467  1.00  0.00    -0.000 C 
BRANCH  14  15
ATOM     15  C   UNL     1      26.110   7.369   6.400  1.00  0.00    -0.003 C 
ATOM     16  C   UNL     1      26.134   8.040   7.772  1.00  0.00     0.004 C 
ENDBRANCH  14  15
ENDBRANCH  13  14
ENDBRANCH  12  13
ENDBRANCH  11  12
ENDBRANCH  10  11
ENDBRANCH   1  10
TORSDOF 12
ENDMDL
MODEL 6
REMARK VINA RESULT:    -3.835     10.465     11.708
REMARK INTER + INTRA:          -8.497
REMARK INTER:                  -6.643
REMARK INTRA:                  -1.854
REMARK UNBOUND:                -1.971
REMARK SMILES CCCCCCCCCCCCCC(=O)[O-]
REMARK SMILES IDX 8 1 9 2 10 3 11 4 12 5 13 6 14 7 15 8 16 9 7 10 6 11 5 12
REMARK SMILES IDX 4 13 3 14 2 15 1 16
REMARK H PARENT
REMARK Flexibility Score: inf
ROOT
ATOM      1  C   UNL     1      28.064   3.740   8.900  1.00  0.00     0.000 C 
ENDROOT
BRANCH   1   2
ATOM      2  C   UNL     1      27.716   2.317   8.444  1.00  0.00     0.000 C 
BRANCH   2   3
ATOM      3  C   UNL     1      26.831   2.343   7.188  1.00  0.00     0.000 C 
BRANCH   3   4
ATOM      4  C   UNL     1      26.414   3.767   6.787  1.00  0.00     0.000 C 
BRANCH   4   5
ATOM      5  C   UNL     1      24.890   3.957   6.777  1.00  0.00     0.006 C 
BRANCH   5   6
ATOM      6  C   UNL     1      24.288   3.618   8.144  1.00  0.00     0.053 C 
BRANCH   6   7
ATOM      7  C   UNL     1      23.065   4.443   8.397  1.00  0.00     0.041 C 
ATOM      8  O   UNL     1      22.188   4.044   9.207  1.00  0.00    -0.550 OA
ATOM      9  O   UNL     1      22.871   5.628   7.700  1.00  0.00    -0.550 OA
ENDBRANCH   6   7
ENDBRANCH   5   6
ENDBRANCH   4   5
ENDBRANCH   3   4
ENDBRANCH   2   3
ENDBRANCH   1   2
BRANCH   1  10
ATOM     10  C   UNL     1      27.919   3.882  10.420  1.00  0.00     0.000 C 
BRANCH  10  11
ATOM     11  C   UNL     1      27.188   5.179  10.784  1.00  0.00    -0.000 C 
BRANCH  11  12
ATOM     12  C   UNL     1      27.231   6.181   9.624  1.00  0.00    -0.000 C 
BRANCH  12  13
ATOM     13  C   UNL     1      25.838   6.770   9.353  1.00  0.00    -0.000 C 
BRANCH  13  14
ATOM     14  C   UNL     1      25.874   7.979   8.401  1.00  0.00    -0.000 C 
BRANCH  14  15
ATOM     15  C   UNL     1      26.659   7.752   7.096  1.00  0.00    -0.003 C 
ATOM     16  C   UNL     1      25.768   7.330   5.928  1.00  0.00     0.004 C 
ENDBRANCH  14  15
ENDBRANCH  13  14
ENDBRANCH  12  13
ENDBRANCH  11  12
ENDBRANCH  10  11
ENDBRANCH   1  10
TORSDOF 12
ENDMDL
MODEL 7
REMARK VINA RESULT:    -3.819     10.405     12.113
REMARK INTER + INTRA:          -8.470
REMARK INTER:                  -6.563
REMARK INTRA:                  -1.907
REMARK UNBOUND:                -1.971
REMARK SMILES CCCCCCCCCCCCCC(=O)[O-]
REMARK SMILES IDX 8 1 9 2 10 3 11 4 12 5 13 6 14 7 15 8 16 9 7 10 6 11 5 12
REMARK SMILES IDX 4 13 3 14 2 15 1 16
REMARK H PARENT
REMARK Flexibility Score: inf
ROOT
ATOM      1  C   UNL     1      27.808   3.191   9.900  1.00  0.00     0.000 C 
ENDROOT
BRANCH   1   2
ATOM      2  C   UNL     1      28.514   4.263  10.739  1.00  0.00     0.000 C 
BRANCH   2   3
ATOM      3  C   UNL     1      27.898   5.649  10.492  1.00  0.00     0.000 C 
BRANCH   3   4
ATOM      4  C   UNL     1      26.374   5.663  10.689  1.00  0.00     0.000 C 
BRANCH   4   5
ATOM      5  C   UNL     1      25.639   6.414   9.568  1.00  0.00     0.006 C 
BRANCH   5   6
ATOM      6  C   UNL     1      26.614   6.847   8.469  1.00  0.00     0.053 C 
BRANCH   6   7
ATOM      7  C   UNL     1      25.972   6.733   7.123  1.00  0.00     0.041 C 
ATOM      8  O   UNL     1      24.752   6.435   7.026  1.00  0.00    -0.550 OA
ATOM      9  O   UNL     1      26.732   6.905   5.974  1.00  0.00    -0.550 OA
ENDBRANCH   6   7
ENDBRANCH   5   6
ENDBRANCH   4   5
ENDBRANCH   3   4
ENDBRANCH   2   3
ENDBRANCH   1   2
BRANCH   1  10
ATOM     10  C   UNL     1      28.207   3.295   8.423  1.00  0.00     0.000 C 
BRANCH  10  11
ATOM     11  C   UNL     1      26.982   3.166   7.511  1.00  0.00    -0.000 C 
BRANCH  11  12
ATOM     12  C   UNL     1      25.731   2.799   8.318  1.00  0.00    -0.000 C 
BRANCH  12  13
ATOM     13  C   UNL     1      25.211   1.408   7.925  1.00  0.00    -0.000 C 
BRANCH  13  14
ATOM     14  C   UNL     1      26.328   0.461   7.452  1.00  0.00    -0.000 C 
BRANCH  14  15
ATOM     15  C   UNL     1      26.713  -0.639   8.457  1.00  0.00    -0.003 C 
ATOM     16  C   UNL     1      28.100  -0.435   9.065  1.00  0.00     0.004 C 
ENDBRANCH  14  15
ENDBRANCH  13  14
ENDBRANCH  12  13
ENDBRANCH  11  12
ENDBRANCH  10  11
ENDBRANCH   1  10
TORSDOF 12
ENDMDL
MODEL 8
REMARK VINA RESULT:    -3.816     10.552     12.177
REMARK INTER + INTRA:          -8.465
REMARK INTER:                  -6.607
REMARK INTRA:                  -1.858
REMARK UNBOUND:                -1.971
REMARK SMILES CCCCCCCCCCCCCC(=O)[O-]
REMARK SMILES IDX 8 1 9 2 10 3 11 4 12 5 13 6 14 7 15 8 16 9 7 10 6 11 5 12
REMARK SMILES IDX 4 13 3 14 2 15 1 16
REMARK H PARENT
REMARK Flexibility Score: inf
ROOT
ATOM      1  C   UNL     1      25.985   7.691   9.516  1.00  0.00     0.000 C 
ENDROOT
BRANCH   1   2
ATOM      2  C   UNL     1      25.712   8.243   8.111  1.00  0.00     0.000 C 
BRANCH   2   3
ATOM      3  C   UNL     1      26.718   7.682   7.095  1.00  0.00     0.000 C 
BRANCH   3   4
ATOM      4  C   UNL     1      26.034   7.020   5.888  1.00  0.00     0.000 C 
BRANCH   4   5
ATOM      5  C   UNL     1      24.671   6.407   6.244  1.00  0.00     0.006 C 
BRANCH   5   6
ATOM      6  C   UNL     1      24.819   4.932   6.630  1.00  0.00     0.053 C 
BRANCH   6   7
ATOM      7  C   UNL     1      24.083   4.647   7.901  1.00  0.00     0.041 C 
ATOM      8  O   UNL     1      24.154   3.508   8.433  1.00  0.00    -0.550 OA
ATOM      9  O   UNL     1      23.279   5.624   8.472  1.00  0.00    -0.550 OA
ENDBRANCH   6   7
ENDBRANCH   5   6
ENDBRANCH   4   5
ENDBRANCH   3   4
ENDBRANCH   2   3
ENDBRANCH   1   2
BRANCH   1  10
ATOM     10  C   UNL     1      26.917   6.474   9.458  1.00  0.00     0.000 C 
BRANCH  10  11
ATOM     11  C   UNL     1      26.558   5.454  10.545  1.00  0.00    -0.000 C 
BRANCH  11  12
ATOM     12  C   UNL     1      27.192   4.089  10.251  1.00  0.00    -0.000 C 
BRANCH  12  13
ATOM     13  C   UNL     1      28.065   4.148   8.988  1.00  0.00    -0.000 C 
BRANCH  13  14
ATOM     14  C   UNL     1      27.630   3.139   7.911  1.00  0.00    -0.000 C 
BRANCH  14  15
ATOM     15  C   UNL     1      27.700   1.662   8.342  1.00  0.00    -0.003 C 
ATOM     16  C   UNL     1      26.577   0.812   7.748  1.00  0.00     0.004 C 
ENDBRANCH  14  15
ENDBRANCH  13  14
ENDBRANCH  12  13
ENDBRANCH  11  12
ENDBRANCH  10  11
ENDBRANCH   1  10
TORSDOF 12
ENDMDL
MODEL 9
REMARK VINA RESULT:    -3.778     10.092     11.244
REMARK INTER + INTRA:          -8.400
REMARK INTER:                  -6.169
REMARK INTRA:                  -2.230
REMARK UNBOUND:                -1.971
REMARK SMILES CCCCCCCCCCCCCC(=O)[O-]
REMARK SMILES IDX 8 1 9 2 10 3 11 4 12 5 13 6 14 7 15 8 16 9 7 10 6 11 5 12
REMARK SMILES IDX 4 13 3 14 2 15 1 16
REMARK H PARENT
REMARK Flexibility Score: inf
ROOT
ATOM      1  C   UNL     1      26.438   7.760   7.383  1.00  0.00     0.000 C 
ENDROOT
BRANCH   1   2
ATOM      2  C   UNL     1      26.156   6.540   6.498  1.00  0.00     0.000 C 
BRANCH   2   3
ATOM      3  C   UNL     1      24.696   6.085   6.638  1.00  0.00     0.000 C 
BRANCH   3   4
ATOM      4  C   UNL     1      24.554   4.555   6.688  1.00  0.00     0.000 C 
BRANCH   4   5
ATOM      5  C   UNL     1      25.910   3.838   6.777  1.00  0.00     0.006 C 
BRANCH   5   6
ATOM      6  C   UNL     1      25.851   2.679   7.778  1.00  0.00     0.053 C 
BRANCH   6   7
ATOM      7  C   UNL     1      27.227   2.168   8.069  1.00  0.00     0.041 C 
ATOM      8  O   UNL     1      27.437   0.931   8.163  1.00  0.00    -0.550 OA
ATOM      9  O   UNL     1      28.268   3.061   8.286  1.00  0.00    -0.550 OA
ENDBRANCH   6   7
ENDBRANCH   5   6
ENDBRANCH   4   5
ENDBRANCH   3   4
ENDBRANCH   2   3
ENDBRANCH   1   2
BRANCH   1  10
ATOM     10  C   UNL     1      26.221   7.429   8.864  1.00  0.00     0.000 C 
BRANCH  10  11
ATOM     11  C   UNL     1      27.240   6.393   9.352  1.00  0.00    -0.000 C 
BRANCH  11  12
ATOM     12  C   UNL     1      26.590   5.389  10.311  1.00  0.00    -0.000 C 
BRANCH  12  13
ATOM     13  C   UNL     1      25.120   5.749  10.573  1.00  0.00    -0.000 C 
BRANCH  13  14
ATOM     14  C   UNL     1      24.195   4.519  10.592  1.00  0.00    -0.000 C 
BRANCH  14  15
ATOM     15  C   UNL     1      22.817   4.735   9.939  1.00  0.00    -0.003 C 
ATOM     16  C   UNL     1      22.216   3.449   9.373  1.00  0.00     0.004 C 
ENDBRANCH  14  15
ENDBRANCH  13  14
ENDBRANCH  12  13
ENDBRANCH  11  12
ENDBRANCH  10  11
ENDBRANCH   1  10
TORSDOF 12
ENDMDL
