MODEL 1
REMARK VINA RESULT:    -4.719      0.000      0.000
REMARK INTER + INTRA:          -5.311
REMARK INTER:                  -5.823
REMARK INTRA:                   0.512
REMARK UNBOUND:                 0.512
REMARK SMILES C=C1[C@@H]2CC[C@H]3[C@H]2C(C)(C)CCC[C@@]13C
REMARK SMILES IDX 14 1 6 2 7 3 3 4 2 5 1 6 4 7 5 8 15 9 8 10 9 11 10 12 11 13
REMARK SMILES IDX 13 15 12 16
REMARK H PARENT
REMARK Flexibility Score: 80.00
ROOT
ATOM      1  C   UNL     1     102.263 105.134 128.336  1.00  0.00    -0.008 C 
ATOM      2  C   UNL     1     102.054 104.701 126.893  1.00  0.00     0.003 C 
ATOM      3  C   UNL     1     103.168 105.532 126.229  1.00  0.00     0.006 C 
ATOM      4  C   UNL     1     102.526 106.868 126.567  1.00  0.00     0.019 C 
ATOM      5  C   UNL     1     102.413 106.644 128.094  1.00  0.00    -0.068 C 
ATOM      6  C   UNL     1     102.506 107.596 129.027  1.00  0.00     0.009 C 
ATOM      7  C   UNL     1     101.126 106.745 125.982  1.00  0.00     0.008 C 
ATOM      8  C   UNL     1     100.784 105.272 126.219  1.00  0.00     0.005 C 
ATOM      9  C   UNL     1     101.048 104.839 129.243  1.00  0.00     0.016 C 
ENDROOT
BRANCH   3  10
ATOM     10  C   UNL     1     104.120 104.619 125.426  1.00  0.00    -0.032 C 
ATOM     11  C   UNL     1     103.377 103.931 124.260  1.00  0.00     0.011 C 
ATOM     12  C   UNL     1     105.301 105.422 124.811  1.00  0.00     0.011 C 
BRANCH  10  13
ATOM     13  C   UNL     1     104.663 103.540 126.470  1.00  0.00     0.007 CG0
ATOM     14  G   UNL     1     104.819 104.016 127.979  1.00  0.00     0.000 G0
ENDBRANCH  10  13
ENDBRANCH   3  10
BRANCH   1  15
ATOM     15  C   UNL     1     103.539 104.342 128.877  1.00  0.00     0.011 C 
BRANCH  15  16
ATOM     16  C   UNL     1     104.817 104.008 127.978  1.00  0.00     0.001 CG0
ATOM     17  G   UNL     1     104.657 103.538 126.467  1.00  0.00     0.000 G0
ENDBRANCH  15  16
ENDBRANCH   1  15
TORSDOF 0
ENDMDL
MODEL 2
REMARK VINA RESULT:    -4.707      4.068      5.323
REMARK INTER + INTRA:          -5.296
REMARK INTER:                  -5.803
REMARK INTRA:                   0.507
REMARK UNBOUND:                 0.512
REMARK SMILES C=C1[C@@H]2CC[C@H]3[C@H]2C(C)(C)CCC[C@@]13C
REMARK SMILES IDX 14 1 6 2 7 3 3 4 2 5 1 6 4 7 5 8 15 9 8 10 9 11 10 12 11 13
REMARK SMILES IDX 13 15 12 16
REMARK H PARENT
REMARK Flexibility Score: 80.00
ROOT
ATOM      1  C   UNL     1     107.369 102.261 128.347  1.00  0.00    -0.008 C 
ATOM      2  C   UNL     1     107.724 102.058 126.881  1.00  0.00     0.003 C 
ATOM      3  C   UNL     1     106.854 103.171 126.267  1.00  0.00     0.006 C 
ATOM      4  C   UNL     1     105.541 102.522 126.675  1.00  0.00     0.019 C 
ATOM      5  C   UNL     1     105.847 102.406 128.187  1.00  0.00    -0.068 C 
ATOM      6  C   UNL     1     104.947 102.493 129.170  1.00  0.00     0.009 C 
ATOM      7  C   UNL     1     105.637 101.125 126.079  1.00  0.00     0.008 C 
ATOM      8  C   UNL     1     107.122 100.788 126.235  1.00  0.00     0.005 C 
ATOM      9  C   UNL     1     107.717 101.045 129.232  1.00  0.00     0.016 C 
ENDROOT
BRANCH   3  10
ATOM     10  C   UNL     1     107.718 104.129 125.419  1.00  0.00    -0.032 C 
ATOM     11  C   UNL     1     108.362 103.388 124.225  1.00  0.00     0.011 C 
ATOM     12  C   UNL     1     106.876 105.298 124.836  1.00  0.00     0.011 C 
BRANCH  10  13
ATOM     13  C   UNL     1     108.838 104.689 126.410  1.00  0.00     0.007 CG0
ATOM     14  G   UNL     1     108.436 104.828 127.942  1.00  0.00     0.000 G0
ENDBRANCH  10  13
ENDBRANCH   3  10
BRANCH   1  15
ATOM     15  C   UNL     1     108.184 103.539 128.848  1.00  0.00     0.011 C 
BRANCH  15  16
ATOM     16  C   UNL     1     108.449 104.828 127.942  1.00  0.00     0.001 CG0
ATOM     17  G   UNL     1     108.833 104.686 126.405  1.00  0.00     0.000 G0
ENDBRANCH  15  16
ENDBRANCH   1  15
TORSDOF 0
ENDMDL
MODEL 3
REMARK VINA RESULT:    -4.674      4.140      5.414
REMARK INTER + INTRA:          -5.255
REMARK INTER:                  -5.764
REMARK INTRA:                   0.509
REMARK UNBOUND:                 0.512
REMARK SMILES C=C1[C@@H]2CC[C@H]3[C@H]2C(C)(C)CCC[C@@]13C
REMARK SMILES IDX 14 1 6 2 7 3 3 4 2 5 1 6 4 7 5 8 15 9 8 10 9 11 10 12 11 13
REMARK SMILES IDX 13 15 12 16
REMARK H PARENT
REMARK Flexibility Score: 80.00
ROOT
ATOM      1  C   UNL     1     105.181 110.287 128.140  1.00  0.00    -0.008 C 
ATOM      2  C   UNL     1     104.863 110.423 126.659  1.00  0.00     0.003 C 
ATOM      3  C   UNL     1     105.693 109.239 126.126  1.00  0.00     0.006 C 
ATOM      4  C   UNL     1     107.027 109.850 126.525  1.00  0.00     0.019 C 
ATOM      5  C   UNL     1     106.697 110.065 128.021  1.00  0.00    -0.068 C 
ATOM      6  C   UNL     1     107.573 109.993 129.028  1.00  0.00     0.009 C 
ATOM      7  C   UNL     1     107.006 111.214 125.851  1.00  0.00     0.008 C 
ATOM      8  C   UNL     1     105.536 111.626 125.956  1.00  0.00     0.005 C 
ATOM      9  C   UNL     1     104.873 111.566 128.949  1.00  0.00     0.016 C 
ENDROOT
BRANCH   3  10
ATOM     10  C   UNL     1     104.801 108.275 125.314  1.00  0.00    -0.032 C 
ATOM     11  C   UNL     1     104.219 108.974 124.065  1.00  0.00     0.011 C 
ATOM     12  C   UNL     1     105.599 107.036 124.818  1.00  0.00     0.011 C 
BRANCH  10  13
ATOM     13  C   UNL     1     103.636 107.826 126.309  1.00  0.00     0.007 CG0
ATOM     14  G   UNL     1     103.999 107.758 127.856  1.00  0.00     0.000 G0
ENDBRANCH  10  13
ENDBRANCH   3  10
BRANCH   1  15
ATOM     15  C   UNL     1     104.298 109.078 128.694  1.00  0.00     0.011 C 
BRANCH  15  16
ATOM     16  C   UNL     1     103.988 107.754 127.854  1.00  0.00     0.001 CG0
ATOM     17  G   UNL     1     103.634 107.830 126.305  1.00  0.00     0.000 G0
ENDBRANCH  15  16
ENDBRANCH   1  15
TORSDOF 0
ENDMDL
MODEL 4
REMARK VINA RESULT:    -4.667      5.451      7.491
REMARK INTER + INTRA:          -5.247
REMARK INTER:                  -5.756
REMARK INTRA:                   0.509
REMARK UNBOUND:                 0.512
REMARK SMILES C=C1[C@@H]2CC[C@H]3[C@H]2C(C)(C)CCC[C@@]13C
REMARK SMILES IDX 14 1 6 2 7 3 3 4 2 5 1 6 4 7 5 8 15 9 8 10 9 11 10 12 11 13
REMARK SMILES IDX 13 15 12 16
REMARK H PARENT
REMARK Flexibility Score: 80.00
ROOT
ATOM      1  C   UNL     1     110.106 107.323 128.340  1.00  0.00    -0.008 C 
ATOM      2  C   UNL     1     110.335 107.737 126.894  1.00  0.00     0.003 C 
ATOM      3  C   UNL     1     109.202 106.929 126.231  1.00  0.00     0.006 C 
ATOM      4  C   UNL     1     109.806 105.580 126.585  1.00  0.00     0.019 C 
ATOM      5  C   UNL     1     109.917 105.815 128.110  1.00  0.00    -0.068 C 
ATOM      6  C   UNL     1     109.793 104.875 129.052  1.00  0.00     0.009 C 
ATOM      7  C   UNL     1     111.212 105.660 126.007  1.00  0.00     0.008 C 
ATOM      8  C   UNL     1     111.593 107.125 126.232  1.00  0.00     0.005 C 
ATOM      9  C   UNL     1     111.323 107.593 129.250  1.00  0.00     0.016 C 
ENDROOT
BRANCH   3  10
ATOM     10  C   UNL     1     108.280 107.860 125.414  1.00  0.00    -0.032 C 
ATOM     11  C   UNL     1     109.050 108.525 124.251  1.00  0.00     0.011 C 
ATOM     12  C   UNL     1     107.086 107.082 124.792  1.00  0.00     0.011 C 
BRANCH  10  13
ATOM     13  C   UNL     1     107.752 108.957 126.447  1.00  0.00     0.007 CG0
ATOM     14  G   UNL     1     107.575 108.495 127.958  1.00  0.00     0.000 G0
ENDBRANCH  10  13
ENDBRANCH   3  10
BRANCH   1  15
ATOM     15  C   UNL     1     108.849 108.154 128.866  1.00  0.00     0.011 C 
BRANCH  15  16
ATOM     16  C   UNL     1     107.579 108.501 127.960  1.00  0.00     0.001 CG0
ATOM     17  G   UNL     1     107.750 108.954 126.446  1.00  0.00     0.000 G0
ENDBRANCH  15  16
ENDBRANCH   1  15
TORSDOF 0
ENDMDL
MODEL 5
REMARK VINA RESULT:    -4.569      3.196      5.136
REMARK INTER + INTRA:          -5.126
REMARK INTER:                  -5.635
REMARK INTRA:                   0.509
REMARK UNBOUND:                 0.512
REMARK SMILES C=C1[C@@H]2CC[C@H]3[C@H]2C(C)(C)CCC[C@@]13C
REMARK SMILES IDX 14 1 6 2 7 3 3 4 2 5 1 6 4 7 5 8 15 9 8 10 9 11 10 12 11 13
REMARK SMILES IDX 13 15 12 16
REMARK H PARENT
REMARK Flexibility Score: 80.00
ROOT
ATOM      1  C   UNL     1     106.049 104.691 127.970  1.00  0.00    -0.008 C 
ATOM      2  C   UNL     1     106.707 103.655 127.071  1.00  0.00     0.003 C 
ATOM      3  C   UNL     1     107.473 102.858 128.143  1.00  0.00     0.006 C 
ATOM      4  C   UNL     1     108.384 104.016 128.514  1.00  0.00     0.019 C 
ATOM      5  C   UNL     1     107.270 105.041 128.835  1.00  0.00    -0.068 C 
ATOM      6  C   UNL     1     107.343 106.005 129.757  1.00  0.00     0.009 C 
ATOM      7  C   UNL     1     109.005 104.417 127.183  1.00  0.00     0.008 C 
ATOM      8  C   UNL     1     107.860 104.196 126.191  1.00  0.00     0.005 C 
ATOM      9  C   UNL     1     105.544 105.931 127.202  1.00  0.00     0.016 C 
ENDROOT
BRANCH   3  10
ATOM     10  C   UNL     1     107.094 101.362 128.080  1.00  0.00    -0.032 C 
ATOM     11  C   UNL     1     107.501 100.743 126.724  1.00  0.00     0.011 C 
ATOM     12  C   UNL     1     107.804 100.542 129.194  1.00  0.00     0.011 C 
BRANCH  10  13
ATOM     13  C   UNL     1     105.509 101.311 128.275  1.00  0.00     0.007 CG0
ATOM     14  G   UNL     1     104.860 102.449 129.177  1.00  0.00     0.000 G0
ENDBRANCH  10  13
ENDBRANCH   3  10
BRANCH   1  15
ATOM     15  C   UNL     1     104.819 103.967 128.685  1.00  0.00     0.011 C 
BRANCH  15  16
ATOM     16  C   UNL     1     104.852 102.445 129.173  1.00  0.00     0.001 CG0
ATOM     17  G   UNL     1     105.494 101.307 128.265  1.00  0.00     0.000 G0
ENDBRANCH  15  16
ENDBRANCH   1  15
TORSDOF 0
ENDMDL
MODEL 6
REMARK VINA RESULT:    -4.493      4.549      6.052
REMARK INTER + INTRA:          -5.032
REMARK INTER:                  -5.536
REMARK INTRA:                   0.504
REMARK UNBOUND:                 0.512
REMARK SMILES C=C1[C@@H]2CC[C@H]3[C@H]2C(C)(C)CCC[C@@]13C
REMARK SMILES IDX 14 1 6 2 7 3 3 4 2 5 1 6 4 7 5 8 15 9 8 10 9 11 10 12 11 13
REMARK SMILES IDX 13 15 12 16
REMARK H PARENT
REMARK Flexibility Score: 80.00
ROOT
ATOM      1  C   UNL     1     106.561 107.711 127.896  1.00  0.00    -0.008 C 
ATOM      2  C   UNL     1     105.754 108.709 127.079  1.00  0.00     0.003 C 
ATOM      3  C   UNL     1     105.133 109.518 128.234  1.00  0.00     0.006 C 
ATOM      4  C   UNL     1     104.314 108.351 128.759  1.00  0.00     0.019 C 
ATOM      5  C   UNL     1     105.488 107.359 128.938  1.00  0.00    -0.068 C 
ATOM      6  C   UNL     1     105.572 106.417 129.882  1.00  0.00     0.009 C 
ATOM      7  C   UNL     1     103.517 107.902 127.542  1.00  0.00     0.008 C 
ATOM      8  C   UNL     1     104.500 108.122 126.390  1.00  0.00     0.005 C 
ATOM      9  C   UNL     1     106.980 106.462 127.092  1.00  0.00     0.016 C 
ENDROOT
BRANCH   3  10
ATOM     10  C   UNL     1     105.463 111.019 128.081  1.00  0.00    -0.032 C 
ATOM     11  C   UNL     1     104.879 111.586 126.769  1.00  0.00     0.011 C 
ATOM     12  C   UNL     1     104.872 111.858 129.250  1.00  0.00     0.011 C 
BRANCH  10  13
ATOM     13  C   UNL     1     107.057 111.111 128.080  1.00  0.00     0.007 CG0
ATOM     14  G   UNL     1     107.842 109.996 128.899  1.00  0.00     0.000 G0
ENDBRANCH  10  13
ENDBRANCH   3  10
BRANCH   1  15
ATOM     15  C   UNL     1     107.864 108.479 128.409  1.00  0.00     0.011 C 
BRANCH  15  16
ATOM     16  C   UNL     1     107.857 110.000 128.897  1.00  0.00     0.001 CG0
ATOM     17  G   UNL     1     107.056 111.115 128.094  1.00  0.00     0.000 G0
ENDBRANCH  15  16
ENDBRANCH   1  15
TORSDOF 0
ENDMDL
MODEL 7
REMARK VINA RESULT:    -4.411      3.971      5.805
REMARK INTER + INTRA:          -4.930
REMARK INTER:                  -5.451
REMARK INTRA:                   0.521
REMARK UNBOUND:                 0.512
REMARK SMILES C=C1[C@@H]2CC[C@H]3[C@H]2C(C)(C)CCC[C@@]13C
REMARK SMILES IDX 14 1 6 2 7 3 3 4 2 5 1 6 4 7 5 8 15 9 8 10 9 11 10 12 11 13
REMARK SMILES IDX 13 15 12 16
REMARK H PARENT
REMARK Flexibility Score: 80.00
ROOT
ATOM      1  C   UNL     1     106.141 109.770 126.342  1.00  0.00    -0.008 C 
ATOM      2  C   UNL     1     106.524 108.959 127.572  1.00  0.00     0.003 C 
ATOM      3  C   UNL     1     105.168 108.977 128.303  1.00  0.00     0.006 C 
ATOM      4  C   UNL     1     105.183 110.480 128.529  1.00  0.00     0.019 C 
ATOM      5  C   UNL     1     105.369 110.894 127.050  1.00  0.00    -0.068 C 
ATOM      6  C   UNL     1     104.875 112.000 126.486  1.00  0.00     0.009 C 
ATOM      7  C   UNL     1     106.508 110.716 129.241  1.00  0.00     0.008 C 
ATOM      8  C   UNL     1     107.438 109.697 128.578  1.00  0.00     0.005 C 
ATOM      9  C   UNL     1     107.359 110.333 125.580  1.00  0.00     0.016 C 
ENDROOT
BRANCH   3  10
ATOM     10  C   UNL     1     104.696 107.537 128.604  1.00  0.00    -0.032 C 
ATOM     11  C   UNL     1     105.658 106.832 129.585  1.00  0.00     0.011 C 
ATOM     12  C   UNL     1     103.282 107.520 129.250  1.00  0.00     0.011 C 
BRANCH  10  13
ATOM     13  C   UNL     1     104.673 106.788 127.193  1.00  0.00     0.007 CG0
ATOM     14  G   UNL     1     104.322 107.670 125.918  1.00  0.00     0.000 G0
ENDBRANCH  10  13
ENDBRANCH   3  10
BRANCH   1  15
ATOM     15  C   UNL     1     105.314 108.795 125.385  1.00  0.00     0.011 C 
BRANCH  15  16
ATOM     16  C   UNL     1     104.319 107.666 125.921  1.00  0.00     0.001 CG0
ATOM     17  G   UNL     1     104.683 106.792 127.199  1.00  0.00     0.000 G0
ENDBRANCH  15  16
ENDBRANCH   1  15
TORSDOF 0
ENDMDL
MODEL 8
REMARK VINA RESULT:    -4.407      5.123      7.427
REMARK INTER + INTRA:          -4.925
REMARK INTER:                  -5.444
REMARK INTRA:                   0.518
REMARK UNBOUND:                 0.512
REMARK SMILES C=C1[C@@H]2CC[C@H]3[C@H]2C(C)(C)CCC[C@@]13C
REMARK SMILES IDX 14 1 6 2 7 3 3 4 2 5 1 6 4 7 5 8 15 9 8 10 9 11 10 12 11 13
REMARK SMILES IDX 13 15 12 16
REMARK H PARENT
REMARK Flexibility Score: 80.00
ROOT
ATOM      1  C   UNL     1     109.665 106.429 126.277  1.00  0.00    -0.008 C 
ATOM      2  C   UNL     1     108.781 106.004 127.440  1.00  0.00     0.003 C 
ATOM      3  C   UNL     1     108.871 107.285 128.292  1.00  0.00     0.006 C 
ATOM      4  C   UNL     1     110.359 107.133 128.564  1.00  0.00     0.019 C 
ATOM      5  C   UNL     1     110.815 107.046 127.089  1.00  0.00    -0.068 C 
ATOM      6  C   UNL     1     111.976 107.500 126.607  1.00  0.00     0.009 C 
ATOM      7  C   UNL     1     110.468 105.736 129.160  1.00  0.00     0.008 C 
ATOM      8  C   UNL     1     109.409 104.949 128.384  1.00  0.00     0.005 C 
ATOM      9  C   UNL     1     110.166 105.242 125.427  1.00  0.00     0.016 C 
ENDROOT
BRANCH   3  10
ATOM     10  C   UNL     1     107.460 107.838 128.587  1.00  0.00    -0.032 C 
ATOM     11  C   UNL     1     106.645 106.849 129.450  1.00  0.00     0.011 C 
ATOM     12  C   UNL     1     107.523 109.184 129.364  1.00  0.00     0.011 C 
BRANCH  10  13
ATOM     13  C   UNL     1     106.773 108.049 127.161  1.00  0.00     0.007 CG0
ATOM     14  G   UNL     1     107.731 108.441 125.954  1.00  0.00     0.000 G0
ENDBRANCH  10  13
ENDBRANCH   3  10
BRANCH   1  15
ATOM     15  C   UNL     1     108.793 107.409 125.368  1.00  0.00     0.011 C 
BRANCH  15  16
ATOM     16  C   UNL     1     107.728 108.445 125.956  1.00  0.00     0.001 CG0
ATOM     17  G   UNL     1     106.772 108.042 127.162  1.00  0.00     0.000 G0
ENDBRANCH  15  16
ENDBRANCH   1  15
TORSDOF 0
ENDMDL
MODEL 9
REMARK VINA RESULT:    -4.381      3.815      5.811
REMARK INTER + INTRA:          -4.893
REMARK INTER:                  -5.409
REMARK INTRA:                   0.516
REMARK UNBOUND:                 0.512
REMARK SMILES C=C1[C@@H]2CC[C@H]3[C@H]2C(C)(C)CCC[C@@]13C
REMARK SMILES IDX 14 1 6 2 7 3 3 4 2 5 1 6 4 7 5 8 15 9 8 10 9 11 10 12 11 13
REMARK SMILES IDX 13 15 12 16
REMARK H PARENT
REMARK Flexibility Score: 80.00
ROOT
ATOM      1  C   UNL     1     106.506 102.703 126.192  1.00  0.00    -0.008 C 
ATOM      2  C   UNL     1     106.089 103.642 127.314  1.00  0.00     0.003 C 
ATOM      3  C   UNL     1     107.353 103.546 128.191  1.00  0.00     0.006 C 
ATOM      4  C   UNL     1     107.150 102.074 128.515  1.00  0.00     0.019 C 
ATOM      5  C   UNL     1     107.074 101.566 127.056  1.00  0.00    -0.068 C 
ATOM      6  C   UNL     1     107.500 100.375 126.625  1.00  0.00     0.009 C 
ATOM      7  C   UNL     1     105.741 102.030 129.089  1.00  0.00     0.008 C 
ATOM      8  C   UNL     1     105.001 103.082 128.261  1.00  0.00     0.005 C 
ATOM      9  C   UNL     1     105.319 102.208 125.340  1.00  0.00     0.016 C 
ENDROOT
BRANCH   3  10
ATOM     10  C   UNL     1     107.944 104.949 128.444  1.00  0.00    -0.032 C 
ATOM     11  C   UNL     1     106.965 105.827 129.255  1.00  0.00     0.011 C 
ATOM     12  C   UNL     1     109.272 104.875 129.250  1.00  0.00     0.011 C 
BRANCH  10  13
ATOM     13  C   UNL     1     108.204 105.574 126.998  1.00  0.00     0.007 CG0
ATOM     14  G   UNL     1     108.577 104.558 125.833  1.00  0.00     0.000 G0
ENDBRANCH  10  13
ENDBRANCH   3  10
BRANCH   1  15
ATOM     15  C   UNL     1     107.528 103.511 125.269  1.00  0.00     0.011 C 
BRANCH  15  16
ATOM     16  C   UNL     1     108.585 104.567 125.836  1.00  0.00     0.001 CG0
ATOM     17  G   UNL     1     108.194 105.573 127.003  1.00  0.00     0.000 G0
ENDBRANCH  15  16
ENDBRANCH   1  15
TORSDOF 0
ENDMDL
