MODEL 1
REMARK VINA RESULT:    -4.488      0.000      0.000
REMARK INTER + INTRA:          -6.991
REMARK INTER:                  -6.587
REMARK INTRA:                  -0.404
REMARK UNBOUND:                -0.404
REMARK SMILES O=C([O-])CCCCCCCC(=O)[O-]
REMARK SMILES IDX 7 1 6 2 5 3 4 4 2 5 1 6 3 7 8 8 9 9 10 10 11 11 12 12 13 13
REMARK H PARENT
REMARK Flexibility Score: inf
ROOT
ATOM      1  C   UNL     1      11.532 -14.834  16.196  1.00  0.00     0.000 C 
ENDROOT
BRANCH   1   2
ATOM      2  C   UNL     1      11.612 -13.306  16.391  1.00  0.00     0.000 C 
BRANCH   2   3
ATOM      3  C   UNL     1      11.688 -12.483  15.090  1.00  0.00     0.006 C 
BRANCH   3   4
ATOM      4  C   UNL     1      12.791 -11.413  15.080  1.00  0.00     0.053 C 
BRANCH   4   5
ATOM      5  C   UNL     1      12.229 -10.030  15.189  1.00  0.00     0.041 C 
ATOM      6  O   UNL     1      10.988  -9.857  15.315  1.00  0.00    -0.550 OA
ATOM      7  O   UNL     1      13.073  -8.928  15.119  1.00  0.00    -0.550 OA
ENDBRANCH   4   5
ENDBRANCH   3   4
ENDBRANCH   2   3
ENDBRANCH   1   2
BRANCH   1   8
ATOM      8  C   UNL     1      11.067 -15.290  14.801  1.00  0.00     0.000 C 
BRANCH   8   9
ATOM      9  C   UNL     1      11.854 -16.498  14.276  1.00  0.00     0.006 C 
BRANCH   9  10
ATOM     10  C   UNL     1      13.189 -16.645  15.012  1.00  0.00     0.053 C 
BRANCH  10  11
ATOM     11  C   UNL     1      14.180 -17.374  14.159  1.00  0.00     0.041 C 
ATOM     12  O   UNL     1      13.959 -17.539  12.931  1.00  0.00    -0.550 OA
ATOM     13  O   UNL     1      15.325 -17.913  14.732  1.00  0.00    -0.550 OA
ENDBRANCH  10  11
ENDBRANCH   9  10
ENDBRANCH   8   9
ENDBRANCH   1   8
TORSDOF 8
ENDMDL
MODEL 2
REMARK VINA RESULT:    -4.476      1.573      5.638
REMARK INTER + INTRA:          -6.974
REMARK INTER:                  -6.340
REMARK INTRA:                  -0.635
REMARK UNBOUND:                -0.404
REMARK SMILES O=C([O-])CCCCCCCC(=O)[O-]
REMARK SMILES IDX 7 1 6 2 5 3 4 4 2 5 1 6 3 7 8 8 9 9 10 10 11 11 12 12 13 13
REMARK H PARENT
REMARK Flexibility Score: inf
ROOT
ATOM      1  C   UNL     1      11.129 -15.007  14.181  1.00  0.00     0.000 C 
ENDROOT
BRANCH   1   2
ATOM      2  C   UNL     1      11.484 -16.310  13.436  1.00  0.00     0.000 C 
BRANCH   2   3
ATOM      3  C   UNL     1      12.854 -16.310  12.730  1.00  0.00     0.006 C 
BRANCH   3   4
ATOM      4  C   UNL     1      13.851 -17.340  13.280  1.00  0.00     0.053 C 
BRANCH   4   5
ATOM      5  C   UNL     1      14.156 -17.106  14.728  1.00  0.00     0.041 C 
ATOM      6  O   UNL     1      13.873 -17.982  15.586  1.00  0.00    -0.550 OA
ATOM      7  O   UNL     1      14.723 -15.903  15.133  1.00  0.00    -0.550 OA
ENDBRANCH   4   5
ENDBRANCH   3   4
ENDBRANCH   2   3
ENDBRANCH   1   2
BRANCH   1   8
ATOM      8  C   UNL     1      11.214 -15.091  15.716  1.00  0.00     0.000 C 
BRANCH   8   9
ATOM      9  C   UNL     1      11.748 -13.802  16.355  1.00  0.00     0.006 C 
BRANCH   9  10
ATOM     10  C   UNL     1      11.592 -12.613  15.403  1.00  0.00     0.053 C 
BRANCH  10  11
ATOM     11  C   UNL     1      12.919 -11.969  15.146  1.00  0.00     0.041 C 
ATOM     12  O   UNL     1      13.950 -12.678  15.008  1.00  0.00    -0.550 OA
ATOM     13  O   UNL     1      13.023 -10.585  15.107  1.00  0.00    -0.550 OA
ENDBRANCH  10  11
ENDBRANCH   9  10
ENDBRANCH   8   9
ENDBRANCH   1   8
TORSDOF 8
ENDMDL
MODEL 3
REMARK VINA RESULT:    -4.474      1.520      2.122
REMARK INTER + INTRA:          -6.971
REMARK INTER:                  -6.303
REMARK INTRA:                  -0.668
REMARK UNBOUND:                -0.404
REMARK SMILES O=C([O-])CCCCCCCC(=O)[O-]
REMARK SMILES IDX 7 1 6 2 5 3 4 4 2 5 1 6 3 7 8 8 9 9 10 10 11 11 12 12 13 13
REMARK H PARENT
REMARK Flexibility Score: inf
ROOT
ATOM      1  C   UNL     1      11.025 -15.197  14.304  1.00  0.00     0.000 C 
ENDROOT
BRANCH   1   2
ATOM      2  C   UNL     1      11.219 -15.107  15.831  1.00  0.00     0.000 C 
BRANCH   2   3
ATOM      3  C   UNL     1      11.966 -13.852  16.324  1.00  0.00     0.006 C 
BRANCH   3   4
ATOM      4  C   UNL     1      11.582 -12.557  15.592  1.00  0.00     0.053 C 
BRANCH   4   5
ATOM      5  C   UNL     1      12.786 -11.825  15.084  1.00  0.00     0.041 C 
ATOM      6  O   UNL     1      12.818 -10.566  15.102  1.00  0.00    -0.550 OA
ATOM      7  O   UNL     1      13.861 -12.533  14.560  1.00  0.00    -0.550 OA
ENDBRANCH   4   5
ENDBRANCH   3   4
ENDBRANCH   2   3
ENDBRANCH   1   2
BRANCH   1   8
ATOM      8  C   UNL     1      11.546 -16.493  13.656  1.00  0.00     0.000 C 
BRANCH   8   9
ATOM      9  C   UNL     1      12.882 -16.299  12.927  1.00  0.00     0.006 C 
BRANCH   9  10
ATOM     10  C   UNL     1      13.920 -17.319  13.404  1.00  0.00     0.053 C 
BRANCH  10  11
ATOM     11  C   UNL     1      14.288 -17.064  14.832  1.00  0.00     0.041 C 
ATOM     12  O   UNL     1      14.187 -17.983  15.686  1.00  0.00    -0.550 OA
ATOM     13  O   UNL     1      14.696 -15.797  15.228  1.00  0.00    -0.550 OA
ENDBRANCH  10  11
ENDBRANCH   9  10
ENDBRANCH   8   9
ENDBRANCH   1   8
TORSDOF 8
ENDMDL
MODEL 4
REMARK VINA RESULT:    -4.448      1.059      5.931
REMARK INTER + INTRA:          -6.932
REMARK INTER:                  -6.347
REMARK INTRA:                  -0.585
REMARK UNBOUND:                -0.404
REMARK SMILES O=C([O-])CCCCCCCC(=O)[O-]
REMARK SMILES IDX 7 1 6 2 5 3 4 4 2 5 1 6 3 7 8 8 9 9 10 10 11 11 12 12 13 13
REMARK H PARENT
REMARK Flexibility Score: inf
ROOT
ATOM      1  C   UNL     1      11.059 -15.322  15.485  1.00  0.00     0.000 C 
ENDROOT
BRANCH   1   2
ATOM      2  C   UNL     1      11.288 -15.283  13.961  1.00  0.00     0.000 C 
BRANCH   2   3
ATOM      3  C   UNL     1      12.476 -16.125  13.455  1.00  0.00     0.006 C 
BRANCH   3   4
ATOM      4  C   UNL     1      13.029 -17.124  14.482  1.00  0.00     0.053 C 
BRANCH   4   5
ATOM      5  C   UNL     1      14.424 -16.779  14.902  1.00  0.00     0.041 C 
ATOM      6  O   UNL     1      15.300 -17.678  14.993  1.00  0.00    -0.550 OA
ATOM      7  O   UNL     1      14.749 -15.466  15.225  1.00  0.00    -0.550 OA
ENDBRANCH   4   5
ENDBRANCH   3   4
ENDBRANCH   2   3
ENDBRANCH   1   2
BRANCH   1   8
ATOM      8  C   UNL     1      11.624 -14.117  16.259  1.00  0.00     0.000 C 
BRANCH   8   9
ATOM      9  C   UNL     1      11.430 -12.787  15.517  1.00  0.00     0.006 C 
BRANCH   9  10
ATOM     10  C   UNL     1      12.780 -12.162  15.152  1.00  0.00     0.053 C 
BRANCH  10  11
ATOM     11  C   UNL     1      12.672 -10.670  15.106  1.00  0.00     0.041 C 
ATOM     12  O   UNL     1      11.570 -10.108  15.340  1.00  0.00    -0.550 OA
ATOM     13  O   UNL     1      13.776  -9.904  14.756  1.00  0.00    -0.550 OA
ENDBRANCH  10  11
ENDBRANCH   9  10
ENDBRANCH   8   9
ENDBRANCH   1   8
TORSDOF 8
ENDMDL
MODEL 5
REMARK VINA RESULT:    -4.406      3.000      5.790
REMARK INTER + INTRA:          -6.871
REMARK INTER:                  -6.045
REMARK INTRA:                  -0.826
REMARK UNBOUND:                -0.404
REMARK SMILES O=C([O-])CCCCCCCC(=O)[O-]
REMARK SMILES IDX 7 1 6 2 5 3 4 4 2 5 1 6 3 7 8 8 9 9 10 10 11 11 12 12 13 13
REMARK H PARENT
REMARK Flexibility Score: inf
ROOT
ATOM      1  C   UNL     1      11.616 -16.370  11.498  1.00  0.00     0.000 C 
ENDROOT
BRANCH   1   2
ATOM      2  C   UNL     1      13.128 -16.112  11.657  1.00  0.00     0.000 C 
BRANCH   2   3
ATOM      3  C   UNL     1      13.938 -17.293  12.228  1.00  0.00     0.006 C 
BRANCH   3   4
ATOM      4  C   UNL     1      14.764 -16.952  13.476  1.00  0.00     0.053 C 
BRANCH   4   5
ATOM      5  C   UNL     1      14.283 -17.692  14.685  1.00  0.00     0.041 C 
ATOM      6  O   UNL     1      14.998 -17.752  15.719  1.00  0.00    -0.550 OA
ATOM      7  O   UNL     1      13.056 -18.345  14.658  1.00  0.00    -0.550 OA
ENDBRANCH   4   5
ENDBRANCH   3   4
ENDBRANCH   2   3
ENDBRANCH   1   2
BRANCH   1   8
ATOM      8  C   UNL     1      10.777 -16.130  12.767  1.00  0.00     0.000 C 
BRANCH   8   9
ATOM      9  C   UNL     1      11.418 -15.114  13.722  1.00  0.00     0.006 C 
BRANCH   9  10
ATOM     10  C   UNL     1      11.121 -15.470  15.181  1.00  0.00     0.053 C 
BRANCH  10  11
ATOM     11  C   UNL     1      12.128 -14.839  16.091  1.00  0.00     0.041 C 
ATOM     12  O   UNL     1      13.272 -14.542  15.659  1.00  0.00    -0.550 OA
ATOM     13  O   UNL     1      11.818 -14.624  17.428  1.00  0.00    -0.550 OA
ENDBRANCH  10  11
ENDBRANCH   9  10
ENDBRANCH   8   9
ENDBRANCH   1   8
TORSDOF 8
ENDMDL
MODEL 6
REMARK VINA RESULT:    -4.357      1.147      6.113
REMARK INTER + INTRA:          -6.799
REMARK INTER:                  -6.339
REMARK INTRA:                  -0.460
REMARK UNBOUND:                -0.404
REMARK SMILES O=C([O-])CCCCCCCC(=O)[O-]
REMARK SMILES IDX 7 1 6 2 5 3 4 4 2 5 1 6 3 7 8 8 9 9 10 10 11 11 12 12 13 13
REMARK H PARENT
REMARK Flexibility Score: inf
ROOT
ATOM      1  C   UNL     1      12.045 -13.919  16.224  1.00  0.00     0.000 C 
ENDROOT
BRANCH   1   2
ATOM      2  C   UNL     1      11.260 -15.188  15.835  1.00  0.00     0.000 C 
BRANCH   2   3
ATOM      3  C   UNL     1      11.203 -15.487  14.324  1.00  0.00     0.006 C 
BRANCH   3   4
ATOM      4  C   UNL     1      11.868 -16.809  13.913  1.00  0.00     0.053 C 
BRANCH   4   5
ATOM      5  C   UNL     1      13.256 -16.931  14.464  1.00  0.00     0.041 C 
ATOM      6  O   UNL     1      14.166 -16.158  14.067  1.00  0.00    -0.550 OA
ATOM      7  O   UNL     1      13.550 -17.922  15.393  1.00  0.00    -0.550 OA
ENDBRANCH   4   5
ENDBRANCH   3   4
ENDBRANCH   2   3
ENDBRANCH   1   2
BRANCH   1   8
ATOM      8  C   UNL     1      11.233 -12.612  16.180  1.00  0.00     0.000 C 
BRANCH   8   9
ATOM      9  C   UNL     1      11.682 -11.668  15.056  1.00  0.00     0.006 C 
BRANCH   9  10
ATOM     10  C   UNL     1      13.205 -11.508  15.051  1.00  0.00     0.053 C 
BRANCH  10  11
ATOM     11  C   UNL     1      13.581 -10.084  14.783  1.00  0.00     0.041 C 
ATOM     12  O   UNL     1      12.955  -9.147  15.343  1.00  0.00    -0.550 OA
ATOM     13  O   UNL     1      14.593  -9.792  13.877  1.00  0.00    -0.550 OA
ENDBRANCH  10  11
ENDBRANCH   9  10
ENDBRANCH   8   9
ENDBRANCH   1   8
TORSDOF 8
ENDMDL
MODEL 7
REMARK VINA RESULT:    -4.312      1.461      1.740
REMARK INTER + INTRA:          -6.734
REMARK INTER:                  -6.374
REMARK INTRA:                  -0.359
REMARK UNBOUND:                -0.404
REMARK SMILES O=C([O-])CCCCCCCC(=O)[O-]
REMARK SMILES IDX 7 1 6 2 5 3 4 4 2 5 1 6 3 7 8 8 9 9 10 10 11 11 12 12 13 13
REMARK H PARENT
REMARK Flexibility Score: inf
ROOT
ATOM      1  C   UNL     1      11.718 -13.652  16.450  1.00  0.00     0.000 C 
ENDROOT
BRANCH   1   2
ATOM      2  C   UNL     1      11.572 -12.521  15.413  1.00  0.00     0.000 C 
BRANCH   2   3
ATOM      3  C   UNL     1      12.861 -11.725  15.126  1.00  0.00     0.006 C 
BRANCH   3   4
ATOM      4  C   UNL     1      12.675 -10.200  15.116  1.00  0.00     0.053 C 
BRANCH   4   5
ATOM      5  C   UNL     1      13.971  -9.481  14.904  1.00  0.00     0.041 C 
ATOM      6  O   UNL     1      14.465  -8.778  15.825  1.00  0.00    -0.550 OA
ATOM      7  O   UNL     1      14.618  -9.560  13.676  1.00  0.00    -0.550 OA
ENDBRANCH   4   5
ENDBRANCH   3   4
ENDBRANCH   2   3
ENDBRANCH   1   2
BRANCH   1   8
ATOM      8  C   UNL     1      11.288 -15.046  15.959  1.00  0.00     0.000 C 
BRANCH   8   9
ATOM      9  C   UNL     1      12.209 -15.602  14.864  1.00  0.00     0.006 C 
BRANCH   9  10
ATOM     10  C   UNL     1      13.612 -15.877  15.415  1.00  0.00     0.053 C 
BRANCH  10  11
ATOM     11  C   UNL     1      13.933 -17.336  15.328  1.00  0.00     0.041 C 
ATOM     12  O   UNL     1      13.100 -18.139  14.833  1.00  0.00    -0.550 OA
ATOM     13  O   UNL     1      15.133 -17.815  15.838  1.00  0.00    -0.550 OA
ENDBRANCH  10  11
ENDBRANCH   9  10
ENDBRANCH   8   9
ENDBRANCH   1   8
TORSDOF 8
ENDMDL
MODEL 8
REMARK VINA RESULT:    -4.286      3.074      4.106
REMARK INTER + INTRA:          -6.695
REMARK INTER:                  -6.216
REMARK INTRA:                  -0.480
REMARK UNBOUND:                -0.404
REMARK SMILES O=C([O-])CCCCCCCC(=O)[O-]
REMARK SMILES IDX 7 1 6 2 5 3 4 4 2 5 1 6 3 7 8 8 9 9 10 10 11 11 12 12 13 13
REMARK H PARENT
REMARK Flexibility Score: inf
ROOT
ATOM      1  C   UNL     1      11.785 -16.152  11.851  1.00  0.00     0.000 C 
ENDROOT
BRANCH   1   2
ATOM      2  C   UNL     1      10.875 -15.817  13.050  1.00  0.00     0.000 C 
BRANCH   2   3
ATOM      3  C   UNL     1      11.493 -16.087  14.437  1.00  0.00     0.006 C 
BRANCH   3   4
ATOM      4  C   UNL     1      11.227 -14.986  15.474  1.00  0.00     0.053 C 
BRANCH   4   5
ATOM      5  C   UNL     1      12.212 -15.029  16.601  1.00  0.00     0.041 C 
ATOM      6  O   UNL     1      13.154 -15.865  16.588  1.00  0.00    -0.550 OA
ATOM      7  O   UNL     1      12.072 -14.168  17.682  1.00  0.00    -0.550 OA
ENDBRANCH   4   5
ENDBRANCH   3   4
ENDBRANCH   2   3
ENDBRANCH   1   2
BRANCH   1   8
ATOM      8  C   UNL     1      13.295 -16.078  12.138  1.00  0.00     0.000 C 
BRANCH   8   9
ATOM      9  C   UNL     1      14.013 -17.414  11.899  1.00  0.00     0.006 C 
BRANCH   9  10
ATOM     10  C   UNL     1      15.443 -17.373  12.446  1.00  0.00     0.053 C 
BRANCH  10  11
ATOM     11  C   UNL     1      15.435 -17.062  13.910  1.00  0.00     0.041 C 
ATOM     12  O   UNL     1      15.051 -17.927  14.740  1.00  0.00    -0.550 OA
ATOM     13  O   UNL     1      15.804 -15.798  14.354  1.00  0.00    -0.550 OA
ENDBRANCH  10  11
ENDBRANCH   9  10
ENDBRANCH   8   9
ENDBRANCH   1   8
TORSDOF 8
ENDMDL
MODEL 9
REMARK VINA RESULT:    -4.230      1.652      5.570
REMARK INTER + INTRA:          -6.613
REMARK INTER:                  -5.937
REMARK INTRA:                  -0.676
REMARK UNBOUND:                -0.404
REMARK SMILES O=C([O-])CCCCCCCC(=O)[O-]
REMARK SMILES IDX 7 1 6 2 5 3 4 4 2 5 1 6 3 7 8 8 9 9 10 10 11 11 12 12 13 13
REMARK H PARENT
REMARK Flexibility Score: inf
ROOT
ATOM      1  C   UNL     1      12.919 -15.596  16.280  1.00  0.00     0.000 C 
ENDROOT
BRANCH   1   2
ATOM      2  C   UNL     1      13.754 -16.817  15.842  1.00  0.00     0.000 C 
BRANCH   2   3
ATOM      3  C   UNL     1      13.202 -17.586  14.625  1.00  0.00     0.006 C 
BRANCH   3   4
ATOM      4  C   UNL     1      14.055 -17.458  13.354  1.00  0.00     0.053 C 
BRANCH   4   5
ATOM      5  C   UNL     1      13.689 -16.246  12.556  1.00  0.00     0.041 C 
ATOM      6  O   UNL     1      14.268 -15.148  12.767  1.00  0.00    -0.550 OA
ATOM      7  O   UNL     1      12.683 -16.321  11.599  1.00  0.00    -0.550 OA
ENDBRANCH   4   5
ENDBRANCH   3   4
ENDBRANCH   2   3
ENDBRANCH   1   2
BRANCH   1   8
ATOM      8  C   UNL     1      11.586 -15.416  15.531  1.00  0.00     0.000 C 
BRANCH   8   9
ATOM      9  C   UNL     1      11.512 -14.093  14.757  1.00  0.00     0.006 C 
BRANCH   9  10
ATOM     10  C   UNL     1      11.481 -12.898  15.716  1.00  0.00     0.053 C 
BRANCH  10  11
ATOM     11  C   UNL     1      12.366 -11.800  15.214  1.00  0.00     0.041 C 
ATOM     12  O   UNL     1      11.959 -10.609  15.215  1.00  0.00    -0.550 OA
ATOM     13  O   UNL     1      13.621 -12.100  14.699  1.00  0.00    -0.550 OA
ENDBRANCH  10  11
ENDBRANCH   9  10
ENDBRANCH   8   9
ENDBRANCH   1   8
TORSDOF 8
ENDMDL
