MODEL 1
REMARK VINA RESULT:    -3.477      0.000      0.000
REMARK INTER + INTRA:          -4.973
REMARK INTER:                  -4.798
REMARK INTRA:                  -0.175
REMARK UNBOUND:                -0.175
REMARK SMILES CCCCCCCCO
REMARK SMILES IDX 5 1 4 2 3 3 2 4 1 5 6 6 7 7 8 8 9 9
REMARK H PARENT 9 10
REMARK Flexibility Score: inf
ROOT
ATOM      1  C   UNL     1       8.766   8.124  44.058  1.00  0.00     0.000 C 
ENDROOT
BRANCH   1   2
ATOM      2  C   UNL     1       8.270   6.737  44.485  1.00  0.00    -0.000 C 
BRANCH   2   3
ATOM      3  C   UNL     1       6.830   6.804  45.005  1.00  0.00    -0.000 C 
BRANCH   3   4
ATOM      4  C   UNL     1       6.094   5.482  44.759  1.00  0.00    -0.003 C 
ATOM      5  C   UNL     1       5.361   5.016  46.014  1.00  0.00     0.004 C 
ENDBRANCH   3   4
ENDBRANCH   2   3
ENDBRANCH   1   2
BRANCH   1   6
ATOM      6  C   UNL     1       9.864   8.011  42.990  1.00  0.00     0.002 C 
BRANCH   6   7
ATOM      7  C   UNL     1       9.816   6.683  42.217  1.00  0.00     0.028 C 
BRANCH   7   8
ATOM      8  C   UNL     1      10.966   6.513  41.218  1.00  0.00     0.156 C 
BRANCH   8   9
ATOM      9  O   UNL     1      12.017   5.793  41.802  1.00  0.00    -0.396 OA
ATOM     10  H   UNL     1      12.845   6.301  41.599  1.00  0.00     0.210 HD
ENDBRANCH   8   9
ENDBRANCH   7   8
ENDBRANCH   6   7
ENDBRANCH   1   6
TORSDOF 7
ENDMDL
MODEL 2
REMARK VINA RESULT:    -3.400      1.298      1.628
REMARK INTER + INTRA:          -4.867
REMARK INTER:                  -4.408
REMARK INTRA:                  -0.459
REMARK UNBOUND:                -0.175
REMARK SMILES CCCCCCCCO
REMARK SMILES IDX 5 1 4 2 3 3 2 4 1 5 6 6 7 7 8 8 9 9
REMARK H PARENT 9 10
REMARK Flexibility Score: inf
ROOT
ATOM      1  C   UNL     1       8.731   7.853  44.536  1.00  0.00     0.000 C 
ENDROOT
BRANCH   1   2
ATOM      2  C   UNL     1       8.136   6.441  44.603  1.00  0.00    -0.000 C 
BRANCH   2   3
ATOM      3  C   UNL     1       6.655   6.487  44.996  1.00  0.00    -0.000 C 
BRANCH   3   4
ATOM      4  C   UNL     1       5.811   5.609  44.065  1.00  0.00    -0.003 C 
ATOM      5  C   UNL     1       6.077   5.942  42.600  1.00  0.00     0.004 C 
ENDBRANCH   3   4
ENDBRANCH   2   3
ENDBRANCH   1   2
BRANCH   1   6
ATOM      6  C   UNL     1       9.048   8.249  43.086  1.00  0.00     0.002 C 
BRANCH   6   7
ATOM      7  C   UNL     1      10.138   7.372  42.449  1.00  0.00     0.028 C 
BRANCH   7   8
ATOM      8  C   UNL     1       9.669   6.629  41.193  1.00  0.00     0.156 C 
BRANCH   8   9
ATOM      9  O   UNL     1       9.520   5.262  41.463  1.00  0.00    -0.396 OA
ATOM     10  H   UNL     1       8.545   5.082  41.445  1.00  0.00     0.210 HD
ENDBRANCH   8   9
ENDBRANCH   7   8
ENDBRANCH   6   7
ENDBRANCH   1   6
TORSDOF 7
ENDMDL
MODEL 3
REMARK VINA RESULT:    -3.385     11.140     13.651
REMARK INTER + INTRA:          -4.847
REMARK INTER:                  -4.629
REMARK INTRA:                  -0.217
REMARK UNBOUND:                -0.175
REMARK SMILES CCCCCCCCO
REMARK SMILES IDX 5 1 4 2 3 3 2 4 1 5 6 6 7 7 8 8 9 9
REMARK H PARENT 9 10
REMARK Flexibility Score: inf
ROOT
ATOM      1  C   UNL     1       9.317  -1.468  32.625  1.00  0.00     0.000 C 
ENDROOT
BRANCH   1   2
ATOM      2  C   UNL     1       9.181  -0.277  31.668  1.00  0.00    -0.000 C 
BRANCH   2   3
ATOM      3  C   UNL     1      10.284  -0.298  30.604  1.00  0.00    -0.000 C 
BRANCH   3   4
ATOM      4  C   UNL     1      10.959   1.073  30.485  1.00  0.00    -0.003 C 
ATOM      5  C   UNL     1      10.333   2.083  31.442  1.00  0.00     0.004 C 
ENDBRANCH   3   4
ENDBRANCH   2   3
ENDBRANCH   1   2
BRANCH   1   6
ATOM      6  C   UNL     1       9.189  -1.015  34.088  1.00  0.00     0.002 C 
BRANCH   6   7
ATOM      7  C   UNL     1       7.820  -1.350  34.702  1.00  0.00     0.028 C 
BRANCH   7   8
ATOM      8  C   UNL     1       7.565  -0.657  36.045  1.00  0.00     0.156 C 
BRANCH   8   9
ATOM      9  O   UNL     1       6.243  -0.197  36.114  1.00  0.00    -0.396 OA
ATOM     10  H   UNL     1       5.725  -0.754  35.476  1.00  0.00     0.210 HD
ENDBRANCH   8   9
ENDBRANCH   7   8
ENDBRANCH   6   7
ENDBRANCH   1   6
TORSDOF 7
ENDMDL
MODEL 4
REMARK VINA RESULT:    -3.373      2.791      5.245
REMARK INTER + INTRA:          -4.830
REMARK INTER:                  -4.550
REMARK INTRA:                  -0.280
REMARK UNBOUND:                -0.175
REMARK SMILES CCCCCCCCO
REMARK SMILES IDX 5 1 4 2 3 3 2 4 1 5 6 6 7 7 8 8 9 9
REMARK H PARENT 9 10
REMARK Flexibility Score: inf
ROOT
ATOM      1  C   UNL     1       8.044   6.442  44.664  1.00  0.00     0.000 C 
ENDROOT
BRANCH   1   2
ATOM      2  C   UNL     1       8.663   7.841  44.772  1.00  0.00    -0.000 C 
BRANCH   2   3
ATOM      3  C   UNL     1       9.377   8.228  43.472  1.00  0.00    -0.000 C 
BRANCH   3   4
ATOM      4  C   UNL     1       9.360   7.070  42.468  1.00  0.00    -0.003 C 
ATOM      5  C   UNL     1      10.749   6.819  41.889  1.00  0.00     0.004 C 
ENDBRANCH   3   4
ENDBRANCH   2   3
ENDBRANCH   1   2
BRANCH   1   6
ATOM      6  C   UNL     1       6.579   6.452  45.125  1.00  0.00     0.002 C 
BRANCH   6   7
ATOM      7  C   UNL     1       5.681   5.520  44.293  1.00  0.00     0.028 C 
BRANCH   7   8
ATOM      8  C   UNL     1       4.771   4.627  45.143  1.00  0.00     0.156 C 
BRANCH   8   9
ATOM      9  O   UNL     1       5.443   4.204  46.298  1.00  0.00    -0.396 OA
ATOM     10  H   UNL     1       6.184   4.850  46.438  1.00  0.00     0.210 HD
ENDBRANCH   8   9
ENDBRANCH   7   8
ENDBRANCH   6   7
ENDBRANCH   1   6
TORSDOF 7
ENDMDL
MODEL 5
REMARK VINA RESULT:    -3.306     13.100     14.493
REMARK INTER + INTRA:          -4.737
REMARK INTER:                  -4.488
REMARK INTRA:                  -0.249
REMARK UNBOUND:                -0.175
REMARK SMILES CCCCCCCCO
REMARK SMILES IDX 5 1 4 2 3 3 2 4 1 5 6 6 7 7 8 8 9 9
REMARK H PARENT 9 10
REMARK Flexibility Score: inf
ROOT
ATOM      1  C   UNL     1       9.595  -1.371  32.197  1.00  0.00     0.000 C 
ENDROOT
BRANCH   1   2
ATOM      2  C   UNL     1       9.426  -0.056  31.427  1.00  0.00    -0.000 C 
BRANCH   2   3
ATOM      3  C   UNL     1      10.537   0.118  30.385  1.00  0.00    -0.000 C 
BRANCH   3   4
ATOM      4  C   UNL     1      11.085   1.550  30.398  1.00  0.00    -0.003 C 
ATOM      5  C   UNL     1      10.531   2.343  31.579  1.00  0.00     0.004 C 
ENDBRANCH   3   4
ENDBRANCH   2   3
ENDBRANCH   1   2
BRANCH   1   6
ATOM      6  C   UNL     1       9.190  -1.202  33.670  1.00  0.00     0.002 C 
BRANCH   6   7
ATOM      7  C   UNL     1       8.462  -2.432  34.237  1.00  0.00     0.028 C 
BRANCH   7   8
ATOM      8  C   UNL     1       8.306  -3.572  33.225  1.00  0.00     0.156 C 
BRANCH   8   9
ATOM      9  O   UNL     1       8.876  -4.750  33.726  1.00  0.00    -0.396 OA
ATOM     10  H   UNL     1       9.833  -4.727  33.462  1.00  0.00     0.210 HD
ENDBRANCH   8   9
ENDBRANCH   7   8
ENDBRANCH   6   7
ENDBRANCH   1   6
TORSDOF 7
ENDMDL
MODEL 6
REMARK VINA RESULT:    -3.304      9.700     11.372
REMARK INTER + INTRA:          -4.735
REMARK INTER:                  -4.217
REMARK INTRA:                  -0.518
REMARK UNBOUND:                -0.175
REMARK SMILES CCCCCCCCO
REMARK SMILES IDX 5 1 4 2 3 3 2 4 1 5 6 6 7 7 8 8 9 9
REMARK H PARENT 9 10
REMARK Flexibility Score: inf
ROOT
ATOM      1  C   UNL     1       6.323  -1.211  36.626  1.00  0.00     0.000 C 
ENDROOT
BRANCH   1   2
ATOM      2  C   UNL     1       6.375  -1.429  35.109  1.00  0.00    -0.000 C 
BRANCH   2   3
ATOM      3  C   UNL     1       7.702  -2.074  34.692  1.00  0.00    -0.000 C 
BRANCH   3   4
ATOM      4  C   UNL     1       8.579  -1.080  33.922  1.00  0.00    -0.003 C 
ATOM      5  C   UNL     1      10.019  -1.109  34.426  1.00  0.00     0.004 C 
ENDBRANCH   3   4
ENDBRANCH   2   3
ENDBRANCH   1   2
BRANCH   1   6
ATOM      6  C   UNL     1       6.887   0.167  37.004  1.00  0.00     0.002 C 
BRANCH   6   7
ATOM      7  C   UNL     1       8.275   0.088  37.659  1.00  0.00     0.028 C 
BRANCH   7   8
ATOM      8  C   UNL     1       8.593  -1.287  38.258  1.00  0.00     0.156 C 
BRANCH   8   9
ATOM      9  O   UNL     1       8.866  -1.171  39.627  1.00  0.00    -0.396 OA
ATOM     10  H   UNL     1       9.744  -1.611  39.771  1.00  0.00     0.210 HD
ENDBRANCH   8   9
ENDBRANCH   7   8
ENDBRANCH   6   7
ENDBRANCH   1   6
TORSDOF 7
ENDMDL
MODEL 7
REMARK VINA RESULT:    -3.301     11.204     12.662
REMARK INTER + INTRA:          -4.730
REMARK INTER:                  -4.427
REMARK INTRA:                  -0.303
REMARK UNBOUND:                -0.175
REMARK SMILES CCCCCCCCO
REMARK SMILES IDX 5 1 4 2 3 3 2 4 1 5 6 6 7 7 8 8 9 9
REMARK H PARENT 9 10
REMARK Flexibility Score: inf
ROOT
ATOM      1  C   UNL     1       9.816  -0.919  34.065  1.00  0.00     0.000 C 
ENDROOT
BRANCH   1   2
ATOM      2  C   UNL     1       8.908  -1.422  35.193  1.00  0.00    -0.000 C 
BRANCH   2   3
ATOM      3  C   UNL     1       7.569  -1.922  34.639  1.00  0.00    -0.000 C 
BRANCH   3   4
ATOM      4  C   UNL     1       6.392  -1.227  35.333  1.00  0.00    -0.003 C 
ATOM      5  C   UNL     1       6.877  -0.280  36.427  1.00  0.00     0.004 C 
ENDBRANCH   3   4
ENDBRANCH   2   3
ENDBRANCH   1   2
BRANCH   1   6
ATOM      6  C   UNL     1       9.119  -1.040  32.701  1.00  0.00     0.002 C 
BRANCH   6   7
ATOM      7  C   UNL     1       9.464   0.114  31.746  1.00  0.00     0.028 C 
BRANCH   7   8
ATOM      8  C   UNL     1      10.372  -0.303  30.584  1.00  0.00     0.156 C 
BRANCH   8   9
ATOM      9  O   UNL     1      10.952   0.825  29.989  1.00  0.00    -0.396 OA
ATOM     10  H   UNL     1      10.895   0.681  29.009  1.00  0.00     0.210 HD
ENDBRANCH   8   9
ENDBRANCH   7   8
ENDBRANCH   6   7
ENDBRANCH   1   6
TORSDOF 7
ENDMDL
MODEL 8
REMARK VINA RESULT:    -3.246     10.750     12.992
REMARK INTER + INTRA:          -4.654
REMARK INTER:                  -4.394
REMARK INTRA:                  -0.260
REMARK UNBOUND:                -0.175
REMARK SMILES CCCCCCCCO
REMARK SMILES IDX 5 1 4 2 3 3 2 4 1 5 6 6 7 7 8 8 9 9
REMARK H PARENT 9 10
REMARK Flexibility Score: inf
ROOT
ATOM      1  C   UNL     1       9.108  -1.390  35.136  1.00  0.00     0.000 C 
ENDROOT
BRANCH   1   2
ATOM      2  C   UNL     1       9.947  -0.949  33.930  1.00  0.00    -0.000 C 
BRANCH   2   3
ATOM      3  C   UNL     1       9.161  -1.109  32.624  1.00  0.00    -0.000 C 
BRANCH   3   4
ATOM      4  C   UNL     1       9.411   0.073  31.681  1.00  0.00    -0.003 C 
ATOM      5  C   UNL     1      10.374  -0.308  30.561  1.00  0.00     0.004 C 
ENDBRANCH   3   4
ENDBRANCH   2   3
ENDBRANCH   1   2
BRANCH   1   6
ATOM      6  C   UNL     1       7.693  -1.801  34.700  1.00  0.00     0.002 C 
BRANCH   6   7
ATOM      7  C   UNL     1       6.590  -1.008  35.419  1.00  0.00     0.028 C 
BRANCH   7   8
ATOM      8  C   UNL     1       7.069  -0.314  36.699  1.00  0.00     0.156 C 
BRANCH   8   9
ATOM      9  O   UNL     1       6.147   0.662  37.099  1.00  0.00    -0.396 OA
ATOM     10  H   UNL     1       6.682   1.408  37.476  1.00  0.00     0.210 HD
ENDBRANCH   8   9
ENDBRANCH   7   8
ENDBRANCH   6   7
ENDBRANCH   1   6
TORSDOF 7
ENDMDL
MODEL 9
REMARK VINA RESULT:    -3.171     11.990     13.183
REMARK INTER + INTRA:          -4.551
REMARK INTER:                  -4.123
REMARK INTRA:                  -0.427
REMARK UNBOUND:                -0.175
REMARK SMILES CCCCCCCCO
REMARK SMILES IDX 5 1 4 2 3 3 2 4 1 5 6 6 7 7 8 8 9 9
REMARK H PARENT 9 10
REMARK Flexibility Score: inf
ROOT
ATOM      1  C   UNL     1      11.053   0.976  30.547  1.00  0.00     0.000 C 
ENDROOT
BRANCH   1   2
ATOM      2  C   UNL     1      10.287  -0.349  30.637  1.00  0.00    -0.000 C 
BRANCH   2   3
ATOM      3  C   UNL     1       9.174  -0.270  31.688  1.00  0.00    -0.000 C 
BRANCH   3   4
ATOM      4  C   UNL     1       9.370  -1.330  32.778  1.00  0.00    -0.003 C 
ATOM      5  C   UNL     1      10.302  -0.827  33.876  1.00  0.00     0.004 C 
ENDBRANCH   3   4
ENDBRANCH   2   3
ENDBRANCH   1   2
BRANCH   1   6
ATOM      6  C   UNL     1      10.424   2.040  31.460  1.00  0.00     0.002 C 
BRANCH   6   7
ATOM      7  C   UNL     1      11.463   2.984  32.087  1.00  0.00     0.028 C 
BRANCH   7   8
ATOM      8  C   UNL     1      12.314   2.321  33.176  1.00  0.00     0.156 C 
BRANCH   8   9
ATOM      9  O   UNL     1      12.879   3.293  34.012  1.00  0.00    -0.396 OA
ATOM     10  H   UNL     1      13.791   2.970  34.232  1.00  0.00     0.210 HD
ENDBRANCH   8   9
ENDBRANCH   7   8
ENDBRANCH   6   7
ENDBRANCH   1   6
TORSDOF 7
ENDMDL
