MODEL 1
REMARK VINA RESULT:    -4.632      0.000      0.000
REMARK INTER + INTRA:         -10.402
REMARK INTER:                  -8.423
REMARK INTRA:                  -1.980
REMARK UNBOUND:                -1.980
REMARK SMILES CCCCCCCCCCCCCCCC(=O)[O-]
REMARK SMILES IDX 9 1 10 2 11 3 12 4 13 5 14 6 15 7 16 8 17 9 18 10 8 11 7 12
REMARK SMILES IDX 6 13 5 14 4 15 3 16 2 17 1 18
REMARK H PARENT
REMARK Flexibility Score: inf
ROOT
ATOM      1  C   UNL     1      -6.919 -27.622  31.186  1.00  0.00     0.000 C 
ENDROOT
BRANCH   1   2
ATOM      2  C   UNL     1      -5.959 -27.800  29.994  1.00  0.00     0.000 C 
BRANCH   2   3
ATOM      3  C   UNL     1      -6.548 -27.291  28.668  1.00  0.00     0.000 C 
BRANCH   3   4
ATOM      4  C   UNL     1      -8.056 -27.004  28.765  1.00  0.00     0.000 C 
BRANCH   4   5
ATOM      5  C   UNL     1      -8.845 -27.564  27.569  1.00  0.00     0.000 C 
BRANCH   5   6
ATOM      6  C   UNL     1     -10.307 -27.082  27.543  1.00  0.00     0.006 C 
BRANCH   6   7
ATOM      7  C   UNL     1     -10.484 -25.590  27.867  1.00  0.00     0.053 C 
BRANCH   7   8
ATOM      8  C   UNL     1     -10.696 -24.767  26.634  1.00  0.00     0.041 C 
ATOM      9  O   UNL     1     -10.690 -23.509  26.702  1.00  0.00    -0.550 OA
ATOM     10  O   UNL     1     -10.938 -25.389  25.415  1.00  0.00    -0.550 OA
ENDBRANCH   7   8
ENDBRANCH   6   7
ENDBRANCH   5   6
ENDBRANCH   4   5
ENDBRANCH   3   4
ENDBRANCH   2   3
ENDBRANCH   1   2
BRANCH   1  11
ATOM     11  C   UNL     1      -6.356 -26.814  32.369  1.00  0.00     0.000 C 
BRANCH  11  12
ATOM     12  C   UNL     1      -5.673 -25.506  31.932  1.00  0.00    -0.000 C 
BRANCH  12  13
ATOM     13  C   UNL     1      -6.635 -24.556  31.202  1.00  0.00    -0.000 C 
BRANCH  13  14
ATOM     14  C   UNL     1      -7.899 -24.247  32.024  1.00  0.00    -0.000 C 
BRANCH  14  15
ATOM     15  C   UNL     1      -9.193 -24.444  31.218  1.00  0.00    -0.000 C 
BRANCH  15  16
ATOM     16  C   UNL     1     -10.001 -25.703  31.586  1.00  0.00    -0.000 C 
BRANCH  16  17
ATOM     17  C   UNL     1     -10.085 -25.967  33.104  1.00  0.00    -0.003 C 
ATOM     18  C   UNL     1     -11.526 -25.992  33.616  1.00  0.00     0.004 C 
ENDBRANCH  16  17
ENDBRANCH  15  16
ENDBRANCH  14  15
ENDBRANCH  13  14
ENDBRANCH  12  13
ENDBRANCH  11  12
ENDBRANCH   1  11
TORSDOF 14
ENDMDL
MODEL 2
REMARK VINA RESULT:    -4.627      1.623      3.338
REMARK INTER + INTRA:         -10.393
REMARK INTER:                  -7.776
REMARK INTRA:                  -2.617
REMARK UNBOUND:                -1.980
REMARK SMILES CCCCCCCCCCCCCCCC(=O)[O-]
REMARK SMILES IDX 9 1 10 2 11 3 12 4 13 5 14 6 15 7 16 8 17 9 18 10 8 11 7 12
REMARK SMILES IDX 6 13 5 14 4 15 3 16 2 17 1 18
REMARK H PARENT
REMARK Flexibility Score: inf
ROOT
ATOM      1  C   UNL     1      -6.136 -27.836  31.068  1.00  0.00     0.000 C 
ENDROOT
BRANCH   1   2
ATOM      2  C   UNL     1      -7.376 -28.063  31.953  1.00  0.00     0.000 C 
BRANCH   2   3
ATOM      3  C   UNL     1      -8.699 -27.848  31.197  1.00  0.00     0.000 C 
BRANCH   3   4
ATOM      4  C   UNL     1      -9.669 -26.932  31.960  1.00  0.00     0.000 C 
BRANCH   4   5
ATOM      5  C   UNL     1     -10.257 -25.820  31.074  1.00  0.00     0.000 C 
BRANCH   5   6
ATOM      6  C   UNL     1     -10.263 -26.192  29.580  1.00  0.00     0.006 C 
BRANCH   6   7
ATOM      7  C   UNL     1      -9.536 -25.183  28.676  1.00  0.00     0.053 C 
BRANCH   7   8
ATOM      8  C   UNL     1      -9.956 -25.306  27.244  1.00  0.00     0.041 C 
ATOM      9  O   UNL     1     -10.222 -26.436  26.756  1.00  0.00    -0.550 OA
ATOM     10  O   UNL     1     -10.017 -24.176  26.437  1.00  0.00    -0.550 OA
ENDBRANCH   7   8
ENDBRANCH   6   7
ENDBRANCH   5   6
ENDBRANCH   4   5
ENDBRANCH   3   4
ENDBRANCH   2   3
ENDBRANCH   1   2
BRANCH   1  11
ATOM     11  C   UNL     1      -6.133 -26.525  30.262  1.00  0.00     0.000 C 
BRANCH  11  12
ATOM     12  C   UNL     1      -5.721 -25.304  31.102  1.00  0.00    -0.000 C 
BRANCH  12  13
ATOM     13  C   UNL     1      -6.894 -24.341  31.352  1.00  0.00    -0.000 C 
BRANCH  13  14
ATOM     14  C   UNL     1      -7.300 -24.277  32.835  1.00  0.00    -0.000 C 
BRANCH  14  15
ATOM     15  C   UNL     1      -6.122 -24.556  33.784  1.00  0.00    -0.000 C 
BRANCH  15  16
ATOM     16  C   UNL     1      -6.314 -25.767  34.716  1.00  0.00    -0.000 C 
BRANCH  16  17
ATOM     17  C   UNL     1      -5.166 -26.795  34.646  1.00  0.00    -0.003 C 
ATOM     18  C   UNL     1      -3.844 -26.171  34.196  1.00  0.00     0.004 C 
ENDBRANCH  16  17
ENDBRANCH  15  16
ENDBRANCH  14  15
ENDBRANCH  13  14
ENDBRANCH  12  13
ENDBRANCH  11  12
ENDBRANCH   1  11
TORSDOF 14
ENDMDL
MODEL 3
REMARK VINA RESULT:    -4.617      3.540      6.307
REMARK INTER + INTRA:         -10.375
REMARK INTER:                  -8.417
REMARK INTRA:                  -1.958
REMARK UNBOUND:                -1.980
REMARK SMILES CCCCCCCCCCCCCCCC(=O)[O-]
REMARK SMILES IDX 9 1 10 2 11 3 12 4 13 5 14 6 15 7 16 8 17 9 18 10 8 11 7 12
REMARK SMILES IDX 6 13 5 14 4 15 3 16 2 17 1 18
REMARK H PARENT
REMARK Flexibility Score: inf
ROOT
ATOM      1  C   UNL     1     -10.609 -26.123  30.416  1.00  0.00     0.000 C 
ENDROOT
BRANCH   1   2
ATOM      2  C   UNL     1     -10.245 -26.575  31.843  1.00  0.00     0.000 C 
BRANCH   2   3
ATOM      3  C   UNL     1      -8.727 -26.645  32.081  1.00  0.00     0.000 C 
BRANCH   3   4
ATOM      4  C   UNL     1      -8.110 -27.952  31.558  1.00  0.00     0.000 C 
BRANCH   4   5
ATOM      5  C   UNL     1      -6.923 -27.710  30.609  1.00  0.00     0.000 C 
BRANCH   5   6
ATOM      6  C   UNL     1      -6.190 -26.388  30.900  1.00  0.00     0.006 C 
BRANCH   6   7
ATOM      7  C   UNL     1      -4.918 -26.545  31.748  1.00  0.00     0.053 C 
BRANCH   7   8
ATOM      8  C   UNL     1      -5.061 -25.917  33.100  1.00  0.00     0.041 C 
ATOM      9  O   UNL     1      -4.540 -24.795  33.336  1.00  0.00    -0.550 OA
ATOM     10  O   UNL     1      -5.739 -26.587  34.111  1.00  0.00    -0.550 OA
ENDBRANCH   7   8
ENDBRANCH   6   7
ENDBRANCH   5   6
ENDBRANCH   4   5
ENDBRANCH   3   4
ENDBRANCH   2   3
ENDBRANCH   1   2
BRANCH   1  11
ATOM     11  C   UNL     1      -9.695 -25.039  29.816  1.00  0.00     0.000 C 
BRANCH  11  12
ATOM     12  C   UNL     1      -9.016 -25.482  28.509  1.00  0.00    -0.000 C 
BRANCH  12  13
ATOM     13  C   UNL     1      -9.427 -26.902  28.086  1.00  0.00    -0.000 C 
BRANCH  13  14
ATOM     14  C   UNL     1     -10.132 -26.930  26.718  1.00  0.00    -0.000 C 
BRANCH  14  15
ATOM     15  C   UNL     1     -11.152 -25.791  26.554  1.00  0.00    -0.000 C 
BRANCH  15  16
ATOM     16  C   UNL     1     -10.912 -24.879  25.336  1.00  0.00    -0.000 C 
BRANCH  16  17
ATOM     17  C   UNL     1     -11.567 -23.487  25.462  1.00  0.00    -0.003 C 
ATOM     18  C   UNL     1     -11.146 -22.752  26.735  1.00  0.00     0.004 C 
ENDBRANCH  16  17
ENDBRANCH  15  16
ENDBRANCH  14  15
ENDBRANCH  13  14
ENDBRANCH  12  13
ENDBRANCH  11  12
ENDBRANCH   1  11
TORSDOF 14
ENDMDL
MODEL 4
REMARK VINA RESULT:    -4.517      1.550      4.010
REMARK INTER + INTRA:         -10.193
REMARK INTER:                  -8.259
REMARK INTRA:                  -1.934
REMARK UNBOUND:                -1.980
REMARK SMILES CCCCCCCCCCCCCCCC(=O)[O-]
REMARK SMILES IDX 9 1 10 2 11 3 12 4 13 5 14 6 15 7 16 8 17 9 18 10 8 11 7 12
REMARK SMILES IDX 6 13 5 14 4 15 3 16 2 17 1 18
REMARK H PARENT
REMARK Flexibility Score: inf
ROOT
ATOM      1  C   UNL     1     -10.257 -25.897  30.567  1.00  0.00     0.000 C 
ENDROOT
BRANCH   1   2
ATOM      2  C   UNL     1      -9.990 -25.047  29.311  1.00  0.00     0.000 C 
BRANCH   2   3
ATOM      3  C   UNL     1      -8.898 -25.640  28.404  1.00  0.00     0.000 C 
BRANCH   3   4
ATOM      4  C   UNL     1      -8.706 -27.149  28.627  1.00  0.00     0.000 C 
BRANCH   4   5
ATOM      5  C   UNL     1      -8.393 -27.906  27.324  1.00  0.00     0.000 C 
BRANCH   5   6
ATOM      6  C   UNL     1      -9.659 -28.440  26.628  1.00  0.00     0.006 C 
BRANCH   6   7
ATOM      7  C   UNL     1     -10.928 -28.377  27.494  1.00  0.00     0.053 C 
BRANCH   7   8
ATOM      8  C   UNL     1     -11.935 -27.414  26.946  1.00  0.00     0.041 C 
ATOM      9  O   UNL     1     -11.557 -26.374  26.346  1.00  0.00    -0.550 OA
ATOM     10  O   UNL     1     -13.293 -27.646  27.132  1.00  0.00    -0.550 OA
ENDBRANCH   7   8
ENDBRANCH   6   7
ENDBRANCH   5   6
ENDBRANCH   4   5
ENDBRANCH   3   4
ENDBRANCH   2   3
ENDBRANCH   1   2
BRANCH   1  11
ATOM     11  C   UNL     1      -9.605 -25.381  31.862  1.00  0.00     0.000 C 
BRANCH  11  12
ATOM     12  C   UNL     1      -8.609 -24.234  31.616  1.00  0.00    -0.000 C 
BRANCH  12  13
ATOM     13  C   UNL     1      -7.151 -24.720  31.581  1.00  0.00    -0.000 C 
BRANCH  13  14
ATOM     14  C   UNL     1      -6.947 -26.035  32.353  1.00  0.00    -0.000 C 
BRANCH  14  15
ATOM     15  C   UNL     1      -6.435 -27.175  31.457  1.00  0.00    -0.000 C 
BRANCH  15  16
ATOM     16  C   UNL     1      -5.268 -26.792  30.527  1.00  0.00    -0.000 C 
BRANCH  16  17
ATOM     17  C   UNL     1      -5.049 -27.781  29.363  1.00  0.00    -0.003 C 
ATOM     18  C   UNL     1      -3.610 -27.770  28.845  1.00  0.00     0.004 C 
ENDBRANCH  16  17
ENDBRANCH  15  16
ENDBRANCH  14  15
ENDBRANCH  13  14
ENDBRANCH  12  13
ENDBRANCH  11  12
ENDBRANCH   1  11
TORSDOF 14
ENDMDL
MODEL 5
REMARK VINA RESULT:    -4.511      3.635      6.178
REMARK INTER + INTRA:         -10.183
REMARK INTER:                  -8.709
REMARK INTRA:                  -1.474
REMARK UNBOUND:                -1.980
REMARK SMILES CCCCCCCCCCCCCCCC(=O)[O-]
REMARK SMILES IDX 9 1 10 2 11 3 12 4 13 5 14 6 15 7 16 8 17 9 18 10 8 11 7 12
REMARK SMILES IDX 6 13 5 14 4 15 3 16 2 17 1 18
REMARK H PARENT
REMARK Flexibility Score: inf
ROOT
ATOM      1  C   UNL     1      -8.877 -24.556  31.174  1.00  0.00     0.000 C 
ENDROOT
BRANCH   1   2
ATOM      2  C   UNL     1      -7.515 -24.881  31.814  1.00  0.00     0.000 C 
BRANCH   2   3
ATOM      3  C   UNL     1      -7.546 -26.153  32.679  1.00  0.00     0.000 C 
BRANCH   3   4
ATOM      4  C   UNL     1      -6.844 -27.342  32.003  1.00  0.00     0.000 C 
BRANCH   4   5
ATOM      5  C   UNL     1      -6.095 -26.938  30.720  1.00  0.00     0.000 C 
BRANCH   5   6
ATOM      6  C   UNL     1      -5.132 -28.032  30.225  1.00  0.00     0.006 C 
BRANCH   6   7
ATOM      7  C   UNL     1      -4.189 -27.579  29.099  1.00  0.00     0.053 C 
BRANCH   7   8
ATOM      8  C   UNL     1      -2.779 -28.029  29.330  1.00  0.00     0.041 C 
ATOM      9  O   UNL     1      -2.419 -28.424  30.471  1.00  0.00    -0.550 OA
ATOM     10  O   UNL     1      -1.852 -27.975  28.296  1.00  0.00    -0.550 OA
ENDBRANCH   7   8
ENDBRANCH   6   7
ENDBRANCH   5   6
ENDBRANCH   4   5
ENDBRANCH   3   4
ENDBRANCH   2   3
ENDBRANCH   1   2
BRANCH   1  11
ATOM     11  C   UNL     1      -9.961 -25.635  31.348  1.00  0.00     0.000 C 
BRANCH  11  12
ATOM     12  C   UNL     1     -10.483 -26.184  30.009  1.00  0.00    -0.000 C 
BRANCH  12  13
ATOM     13  C   UNL     1      -9.433 -27.033  29.273  1.00  0.00    -0.000 C 
BRANCH  13  14
ATOM     14  C   UNL     1      -8.943 -26.371  27.973  1.00  0.00    -0.000 C 
BRANCH  14  15
ATOM     15  C   UNL     1      -9.780 -25.141  27.583  1.00  0.00    -0.000 C 
BRANCH  15  16
ATOM     16  C   UNL     1     -10.718 -25.353  26.379  1.00  0.00    -0.000 C 
BRANCH  16  17
ATOM     17  C   UNL     1     -11.012 -24.064  25.584  1.00  0.00    -0.003 C 
ATOM     18  C   UNL     1     -11.093 -22.827  26.480  1.00  0.00     0.004 C 
ENDBRANCH  16  17
ENDBRANCH  15  16
ENDBRANCH  14  15
ENDBRANCH  13  14
ENDBRANCH  12  13
ENDBRANCH  11  12
ENDBRANCH   1  11
TORSDOF 14
ENDMDL
MODEL 6
REMARK VINA RESULT:    -4.499      3.509      6.261
REMARK INTER + INTRA:         -10.161
REMARK INTER:                  -7.810
REMARK INTRA:                  -2.350
REMARK UNBOUND:                -1.980
REMARK SMILES CCCCCCCCCCCCCCCC(=O)[O-]
REMARK SMILES IDX 9 1 10 2 11 3 12 4 13 5 14 6 15 7 16 8 17 9 18 10 8 11 7 12
REMARK SMILES IDX 6 13 5 14 4 15 3 16 2 17 1 18
REMARK H PARENT
REMARK Flexibility Score: inf
ROOT
ATOM      1  C   UNL     1     -10.401 -26.085  30.405  1.00  0.00     0.000 C 
ENDROOT
BRANCH   1   2
ATOM      2  C   UNL     1      -9.835 -25.702  31.786  1.00  0.00     0.000 C 
BRANCH   2   3
ATOM      3  C   UNL     1      -8.851 -24.522  31.725  1.00  0.00     0.000 C 
BRANCH   3   4
ATOM      4  C   UNL     1      -7.477 -24.871  32.320  1.00  0.00     0.000 C 
BRANCH   4   5
ATOM      5  C   UNL     1      -6.365 -24.922  31.257  1.00  0.00     0.000 C 
BRANCH   5   6
ATOM      6  C   UNL     1      -6.120 -26.344  30.720  1.00  0.00     0.006 C 
BRANCH   6   7
ATOM      7  C   UNL     1      -6.475 -27.462  31.713  1.00  0.00     0.053 C 
BRANCH   7   8
ATOM      8  C   UNL     1      -5.287 -27.904  32.511  1.00  0.00     0.041 C 
ATOM      9  O   UNL     1      -4.423 -28.661  31.994  1.00  0.00    -0.550 OA
ATOM     10  O   UNL     1      -5.153 -27.510  33.837  1.00  0.00    -0.550 OA
ENDBRANCH   7   8
ENDBRANCH   6   7
ENDBRANCH   5   6
ENDBRANCH   4   5
ENDBRANCH   3   4
ENDBRANCH   2   3
ENDBRANCH   1   2
BRANCH   1  11
ATOM     11  C   UNL     1     -10.034 -25.129  29.256  1.00  0.00     0.000 C 
BRANCH  11  12
ATOM     12  C   UNL     1      -8.967 -25.708  28.310  1.00  0.00    -0.000 C 
BRANCH  12  13
ATOM     13  C   UNL     1      -8.791 -27.225  28.483  1.00  0.00    -0.000 C 
BRANCH  13  14
ATOM     14  C   UNL     1      -8.676 -27.964  27.138  1.00  0.00    -0.000 C 
BRANCH  14  15
ATOM     15  C   UNL     1     -10.022 -28.532  26.658  1.00  0.00    -0.000 C 
BRANCH  15  16
ATOM     16  C   UNL     1     -11.120 -28.595  27.737  1.00  0.00    -0.000 C 
BRANCH  16  17
ATOM     17  C   UNL     1     -12.304 -27.641  27.476  1.00  0.00    -0.003 C 
ATOM     18  C   UNL     1     -12.006 -26.620  26.378  1.00  0.00     0.004 C 
ENDBRANCH  16  17
ENDBRANCH  15  16
ENDBRANCH  14  15
ENDBRANCH  13  14
ENDBRANCH  12  13
ENDBRANCH  11  12
ENDBRANCH   1  11
TORSDOF 14
ENDMDL
MODEL 7
REMARK VINA RESULT:    -4.485      1.487      3.646
REMARK INTER + INTRA:         -10.135
REMARK INTER:                  -8.434
REMARK INTRA:                  -1.701
REMARK UNBOUND:                -1.980
REMARK SMILES CCCCCCCCCCCCCCCC(=O)[O-]
REMARK SMILES IDX 9 1 10 2 11 3 12 4 13 5 14 6 15 7 16 8 17 9 18 10 8 11 7 12
REMARK SMILES IDX 6 13 5 14 4 15 3 16 2 17 1 18
REMARK H PARENT
REMARK Flexibility Score: inf
ROOT
ATOM      1  C   UNL     1      -9.316 -25.076  30.232  1.00  0.00     0.000 C 
ENDROOT
BRANCH   1   2
ATOM      2  C   UNL     1     -10.441 -26.128  30.211  1.00  0.00     0.000 C 
BRANCH   2   3
ATOM      3  C   UNL     1     -10.180 -27.265  29.209  1.00  0.00     0.000 C 
BRANCH   3   4
ATOM      4  C   UNL     1      -9.327 -26.811  28.013  1.00  0.00     0.000 C 
BRANCH   4   5
ATOM      5  C   UNL     1     -10.054 -26.977  26.667  1.00  0.00     0.000 C 
BRANCH   5   6
ATOM      6  C   UNL     1     -10.957 -25.777  26.328  1.00  0.00     0.006 C 
BRANCH   6   7
ATOM      7  C   UNL     1     -10.335 -24.409  26.650  1.00  0.00     0.053 C 
BRANCH   7   8
ATOM      8  C   UNL     1     -11.140 -23.278  26.090  1.00  0.00     0.041 C 
ATOM      9  O   UNL     1     -12.081 -23.508  25.284  1.00  0.00    -0.550 OA
ATOM     10  O   UNL     1     -10.829 -21.966  26.428  1.00  0.00    -0.550 OA
ENDBRANCH   7   8
ENDBRANCH   6   7
ENDBRANCH   5   6
ENDBRANCH   4   5
ENDBRANCH   3   4
ENDBRANCH   2   3
ENDBRANCH   1   2
BRANCH   1  11
ATOM     11  C   UNL     1      -8.875 -24.612  31.632  1.00  0.00     0.000 C 
BRANCH  11  12
ATOM     12  C   UNL     1      -7.392 -24.208  31.692  1.00  0.00    -0.000 C 
BRANCH  12  13
ATOM     13  C   UNL     1      -6.622 -24.960  32.790  1.00  0.00    -0.000 C 
BRANCH  13  14
ATOM     14  C   UNL     1      -5.435 -25.766  32.233  1.00  0.00    -0.000 C 
BRANCH  14  15
ATOM     15  C   UNL     1      -5.610 -27.283  32.421  1.00  0.00    -0.000 C 
BRANCH  15  16
ATOM     16  C   UNL     1      -6.418 -27.983  31.313  1.00  0.00    -0.000 C 
BRANCH  16  17
ATOM     17  C   UNL     1      -6.295 -27.308  29.931  1.00  0.00    -0.003 C 
ATOM     18  C   UNL     1      -5.138 -27.868  29.103  1.00  0.00     0.004 C 
ENDBRANCH  16  17
ENDBRANCH  15  16
ENDBRANCH  14  15
ENDBRANCH  13  14
ENDBRANCH  12  13
ENDBRANCH  11  12
ENDBRANCH   1  11
TORSDOF 14
ENDMDL
MODEL 8
REMARK VINA RESULT:    -4.469      1.325      2.241
REMARK INTER + INTRA:         -10.107
REMARK INTER:                  -8.473
REMARK INTRA:                  -1.634
REMARK UNBOUND:                -1.980
REMARK SMILES CCCCCCCCCCCCCCCC(=O)[O-]
REMARK SMILES IDX 9 1 10 2 11 3 12 4 13 5 14 6 15 7 16 8 17 9 18 10 8 11 7 12
REMARK SMILES IDX 6 13 5 14 4 15 3 16 2 17 1 18
REMARK H PARENT
REMARK Flexibility Score: inf
ROOT
ATOM      1  C   UNL     1      -6.798 -27.129  29.940  1.00  0.00     0.000 C 
ENDROOT
BRANCH   1   2
ATOM      2  C   UNL     1      -7.804 -26.806  28.819  1.00  0.00     0.000 C 
BRANCH   2   3
ATOM      3  C   UNL     1      -9.220 -27.330  29.113  1.00  0.00     0.000 C 
BRANCH   3   4
ATOM      4  C   UNL     1     -10.314 -26.451  28.485  1.00  0.00     0.000 C 
BRANCH   4   5
ATOM      5  C   UNL     1      -9.844 -25.008  28.230  1.00  0.00     0.000 C 
BRANCH   5   6
ATOM      6  C   UNL     1     -10.120 -24.539  26.790  1.00  0.00     0.006 C 
BRANCH   6   7
ATOM      7  C   UNL     1     -11.007 -25.494  25.975  1.00  0.00     0.053 C 
BRANCH   7   8
ATOM      8  C   UNL     1     -12.047 -24.760  25.185  1.00  0.00     0.041 C 
ATOM      9  O   UNL     1     -12.107 -23.502  25.231  1.00  0.00    -0.550 OA
ATOM     10  O   UNL     1     -12.974 -25.466  24.428  1.00  0.00    -0.550 OA
ENDBRANCH   7   8
ENDBRANCH   6   7
ENDBRANCH   5   6
ENDBRANCH   4   5
ENDBRANCH   3   4
ENDBRANCH   2   3
ENDBRANCH   1   2
BRANCH   1  11
ATOM     11  C   UNL     1      -6.968 -26.311  31.233  1.00  0.00     0.000 C 
BRANCH  11  12
ATOM     12  C   UNL     1      -7.516 -24.895  30.980  1.00  0.00    -0.000 C 
BRANCH  12  13
ATOM     13  C   UNL     1      -8.768 -24.592  31.819  1.00  0.00    -0.000 C 
BRANCH  13  14
ATOM     14  C   UNL     1      -9.188 -25.778  32.705  1.00  0.00    -0.000 C 
BRANCH  14  15
ATOM     15  C   UNL     1     -10.551 -26.365  32.301  1.00  0.00    -0.000 C 
BRANCH  15  16
ATOM     16  C   UNL     1     -11.697 -26.078  33.289  1.00  0.00    -0.000 C 
BRANCH  16  17
ATOM     17  C   UNL     1     -11.224 -25.830  34.737  1.00  0.00    -0.003 C 
ATOM     18  C   UNL     1     -12.265 -26.250  35.775  1.00  0.00     0.004 C 
ENDBRANCH  16  17
ENDBRANCH  15  16
ENDBRANCH  14  15
ENDBRANCH  13  14
ENDBRANCH  12  13
ENDBRANCH  11  12
ENDBRANCH   1  11
TORSDOF 14
ENDMDL
MODEL 9
REMARK VINA RESULT:    -4.451      1.360      3.834
REMARK INTER + INTRA:         -10.073
REMARK INTER:                  -7.824
REMARK INTRA:                  -2.249
REMARK UNBOUND:                -1.980
REMARK SMILES CCCCCCCCCCCCCCCC(=O)[O-]
REMARK SMILES IDX 9 1 10 2 11 3 12 4 13 5 14 6 15 7 16 8 17 9 18 10 8 11 7 12
REMARK SMILES IDX 6 13 5 14 4 15 3 16 2 17 1 18
REMARK H PARENT
REMARK Flexibility Score: inf
ROOT
ATOM      1  C   UNL     1      -7.132 -24.316  31.705  1.00  0.00     0.000 C 
ENDROOT
BRANCH   1   2
ATOM      2  C   UNL     1      -8.667 -24.385  31.596  1.00  0.00     0.000 C 
BRANCH   2   3
ATOM      3  C   UNL     1      -9.270 -25.578  32.357  1.00  0.00     0.000 C 
BRANCH   3   4
ATOM      4  C   UNL     1      -9.926 -26.603  31.417  1.00  0.00     0.000 C 
BRANCH   4   5
ATOM      5  C   UNL     1     -10.453 -25.967  30.119  1.00  0.00     0.000 C 
BRANCH   5   6
ATOM      6  C   UNL     1      -9.817 -26.578  28.857  1.00  0.00     0.006 C 
BRANCH   6   7
ATOM      7  C   UNL     1      -9.754 -25.620  27.656  1.00  0.00     0.053 C 
BRANCH   7   8
ATOM      8  C   UNL     1     -10.797 -25.936  26.629  1.00  0.00     0.041 C 
ATOM      9  O   UNL     1     -11.630 -26.858  26.834  1.00  0.00    -0.550 OA
ATOM     10  O   UNL     1     -10.825 -25.238  25.428  1.00  0.00    -0.550 OA
ENDBRANCH   7   8
ENDBRANCH   6   7
ENDBRANCH   5   6
ENDBRANCH   4   5
ENDBRANCH   3   4
ENDBRANCH   2   3
ENDBRANCH   1   2
BRANCH   1  11
ATOM     11  C   UNL     1      -6.555 -24.664  33.089  1.00  0.00     0.000 C 
BRANCH  11  12
ATOM     12  C   UNL     1      -5.019 -24.767  33.091  1.00  0.00    -0.000 C 
BRANCH  12  13
ATOM     13  C   UNL     1      -4.521 -26.096  33.682  1.00  0.00    -0.000 C 
BRANCH  13  14
ATOM     14  C   UNL     1      -5.541 -27.236  33.516  1.00  0.00    -0.000 C 
BRANCH  14  15
ATOM     15  C   UNL     1      -5.341 -28.023  32.210  1.00  0.00    -0.000 C 
BRANCH  15  16
ATOM     16  C   UNL     1      -6.571 -28.063  31.283  1.00  0.00    -0.000 C 
BRANCH  16  17
ATOM     17  C   UNL     1      -6.361 -27.341  29.936  1.00  0.00    -0.003 C 
ATOM     18  C   UNL     1      -4.901 -26.949  29.702  1.00  0.00     0.004 C 
ENDBRANCH  16  17
ENDBRANCH  15  16
ENDBRANCH  14  15
ENDBRANCH  13  14
ENDBRANCH  12  13
ENDBRANCH  11  12
ENDBRANCH   1  11
TORSDOF 14
ENDMDL
