MODEL 1
REMARK VINA RESULT:    -5.082      0.000      0.000
REMARK INTER + INTRA:          -5.725
REMARK INTER:                  -5.528
REMARK INTRA:                  -0.197
REMARK UNBOUND:                -0.197
REMARK SMILES CC(C)(C)[C@H]1C=C[C@H](O)CC1
REMARK SMILES IDX 5 1 11 2 10 3 8 4 7 5 6 6 2 7 1 8 3 9 4 10 9 11
REMARK H PARENT 9 12
REMARK Flexibility Score: inf
ROOT
ATOM      1  C   UNL     1     120.801 133.114 130.625  1.00  0.00     0.017 C 
ATOM      2  C   UNL     1     121.914 132.235 129.974  1.00  0.00     0.011 C 
ATOM      3  C   UNL     1     121.566 130.725 129.854  1.00  0.00     0.037 C 
ATOM      4  C   UNL     1     120.297 130.315 130.623  1.00  0.00     0.137 C 
ATOM      5  C   UNL     1     119.186 131.269 130.288  1.00  0.00     0.000 C 
ATOM      6  C   UNL     1     119.424 132.587 130.251  1.00  0.00    -0.025 C 
ENDROOT
BRANCH   1   7
ATOM      7  C   UNL     1     120.973 134.661 130.378  1.00  0.00    -0.032 C 
ATOM      8  C   UNL     1     119.580 135.328 130.260  1.00  0.00     0.011 C 
ATOM      9  C   UNL     1     121.778 134.967 129.092  1.00  0.00     0.011 C 
ATOM     10  C   UNL     1     121.697 135.315 131.579  1.00  0.00     0.011 C 
ENDBRANCH   1   7
BRANCH   4  11
ATOM     11  O   UNL     1     120.530 130.340 132.008  1.00  0.00    -0.389 OA
ATOM     12  H   UNL     1     119.647 130.473 132.443  1.00  0.00     0.211 HD
ENDBRANCH   4  11
TORSDOF 2
ENDMDL
MODEL 2
REMARK VINA RESULT:    -4.791      1.892      4.237
REMARK INTER + INTRA:          -5.409
REMARK INTER:                  -5.211
REMARK INTRA:                  -0.197
REMARK UNBOUND:                -0.197
REMARK SMILES CC(C)(C)[C@H]1C=C[C@H](O)CC1
REMARK SMILES IDX 5 1 11 2 10 3 8 4 7 5 6 6 2 7 1 8 3 9 4 10 9 11
REMARK H PARENT 9 12
REMARK Flexibility Score: inf
ROOT
ATOM      1  C   UNL     1     120.651 132.439 130.797  1.00  0.00     0.017 C 
ATOM      2  C   UNL     1     119.580 133.408 130.208  1.00  0.00     0.011 C 
ATOM      3  C   UNL     1     120.156 134.641 129.458  1.00  0.00     0.037 C 
ATOM      4  C   UNL     1     121.673 134.828 129.642  1.00  0.00     0.137 C 
ATOM      5  C   UNL     1     122.368 133.522 129.381  1.00  0.00     0.000 C 
ATOM      6  C   UNL     1     121.872 132.387 129.892  1.00  0.00    -0.025 C 
ENDROOT
BRANCH   1   7
ATOM      7  C   UNL     1     120.093 131.017 131.186  1.00  0.00    -0.032 C 
ATOM      8  C   UNL     1     120.165 130.830 132.721  1.00  0.00     0.011 C 
ATOM      9  C   UNL     1     120.883 129.870 130.511  1.00  0.00     0.011 C 
ATOM     10  C   UNL     1     118.606 130.897 130.775  1.00  0.00     0.011 C 
ENDBRANCH   1   7
BRANCH   4  11
ATOM     11  O   UNL     1     121.963 135.256 130.948  1.00  0.00    -0.389 OA
ATOM     12  H   UNL     1     121.808 134.477 131.544  1.00  0.00     0.211 HD
ENDBRANCH   4  11
TORSDOF 2
ENDMDL
MODEL 3
REMARK VINA RESULT:    -4.710     10.710     12.894
REMARK INTER + INTRA:          -5.321
REMARK INTER:                  -5.120
REMARK INTRA:                  -0.201
REMARK UNBOUND:                -0.197
REMARK SMILES CC(C)(C)[C@H]1C=C[C@H](O)CC1
REMARK SMILES IDX 5 1 11 2 10 3 8 4 7 5 6 6 2 7 1 8 3 9 4 10 9 11
REMARK H PARENT 9 12
REMARK Flexibility Score: inf
ROOT
ATOM      1  C   UNL     1     114.553 122.097 131.897  1.00  0.00     0.017 C 
ATOM      2  C   UNL     1     115.997 121.893 132.453  1.00  0.00     0.011 C 
ATOM      3  C   UNL     1     116.118 120.835 133.584  1.00  0.00     0.037 C 
ATOM      4  C   UNL     1     114.763 120.356 134.137  1.00  0.00     0.137 C 
ATOM      5  C   UNL     1     113.865 119.986 132.990  1.00  0.00     0.000 C 
ATOM      6  C   UNL     1     113.788 120.783 131.917  1.00  0.00    -0.025 C 
ENDROOT
BRANCH   1   7
ATOM      7  C   UNL     1     114.493 122.842 130.510  1.00  0.00    -0.032 C 
ATOM      8  C   UNL     1     115.140 121.959 129.414  1.00  0.00     0.011 C 
ATOM      9  C   UNL     1     115.225 124.205 130.541  1.00  0.00     0.011 C 
ATOM     10  C   UNL     1     113.021 123.084 130.098  1.00  0.00     0.011 C 
ENDBRANCH   1   7
BRANCH   4  11
ATOM     11  O   UNL     1     114.154 121.368 134.896  1.00  0.00    -0.389 OA
ATOM     12  H   UNL     1     113.213 121.088 135.042  1.00  0.00     0.211 HD
ENDBRANCH   4  11
TORSDOF 2
ENDMDL
MODEL 4
REMARK VINA RESULT:    -4.641     12.611     13.714
REMARK INTER + INTRA:          -5.246
REMARK INTER:                  -5.044
REMARK INTRA:                  -0.202
REMARK UNBOUND:                -0.197
REMARK SMILES CC(C)(C)[C@H]1C=C[C@H](O)CC1
REMARK SMILES IDX 5 1 11 2 10 3 8 4 7 5 6 6 2 7 1 8 3 9 4 10 9 11
REMARK H PARENT 9 12
REMARK Flexibility Score: inf
ROOT
ATOM      1  C   UNL     1     115.178 120.568 131.884  1.00  0.00     0.017 C 
ATOM      2  C   UNL     1     113.951 120.639 132.845  1.00  0.00     0.011 C 
ATOM      3  C   UNL     1     114.308 120.754 134.353  1.00  0.00     0.037 C 
ATOM      4  C   UNL     1     115.799 120.522 134.659  1.00  0.00     0.137 C 
ATOM      5  C   UNL     1     116.631 121.357 133.726  1.00  0.00     0.000 C 
ATOM      6  C   UNL     1     116.322 121.412 132.424  1.00  0.00    -0.025 C 
ENDROOT
BRANCH   1   7
ATOM      7  C   UNL     1     114.835 120.862 130.374  1.00  0.00    -0.032 C 
ATOM      8  C   UNL     1     113.665 121.874 130.292  1.00  0.00     0.011 C 
ATOM      9  C   UNL     1     114.436 119.582 129.601  1.00  0.00     0.011 C 
ATOM     10  C   UNL     1     116.051 121.504 129.666  1.00  0.00     0.011 C 
ENDBRANCH   1   7
BRANCH   4  11
ATOM     11  O   UNL     1     116.132 119.168 134.494  1.00  0.00    -0.389 OA
ATOM     12  H   UNL     1     115.598 118.660 135.160  1.00  0.00     0.211 HD
ENDBRANCH   4  11
TORSDOF 2
ENDMDL
MODEL 5
REMARK VINA RESULT:    -4.582     15.631     16.286
REMARK INTER + INTRA:          -5.182
REMARK INTER:                  -4.980
REMARK INTRA:                  -0.202
REMARK UNBOUND:                -0.197
REMARK SMILES CC(C)(C)[C@H]1C=C[C@H](O)CC1
REMARK SMILES IDX 5 1 11 2 10 3 8 4 7 5 6 6 2 7 1 8 3 9 4 10 9 11
REMARK H PARENT 9 12
REMARK Flexibility Score: inf
ROOT
ATOM      1  C   UNL     1     126.117 121.543 119.936  1.00  0.00     0.017 C 
ATOM      2  C   UNL     1     125.002 121.955 118.925  1.00  0.00     0.011 C 
ATOM      3  C   UNL     1     123.615 121.304 119.182  1.00  0.00     0.037 C 
ATOM      4  C   UNL     1     123.642 120.173 120.227  1.00  0.00     0.137 C 
ATOM      5  C   UNL     1     124.376 120.648 121.449  1.00  0.00     0.000 C 
ATOM      6  C   UNL     1     125.524 121.325 121.319  1.00  0.00    -0.025 C 
ENDROOT
BRANCH   1   7
ATOM      7  C   UNL     1     127.377 122.490 119.931  1.00  0.00    -0.032 C 
ATOM      8  C   UNL     1     126.953 123.921 119.518  1.00  0.00     0.011 C 
ATOM      9  C   UNL     1     128.478 122.002 118.959  1.00  0.00     0.011 C 
ATOM     10  C   UNL     1     127.982 122.580 121.352  1.00  0.00     0.011 C 
ENDBRANCH   1   7
BRANCH   4  11
ATOM     11  O   UNL     1     124.285 119.038 119.710  1.00  0.00    -0.389 OA
ATOM     12  H   UNL     1     124.382 118.397 120.462  1.00  0.00     0.211 HD
ENDBRANCH   4  11
TORSDOF 2
ENDMDL
MODEL 6
REMARK VINA RESULT:    -4.551     12.962     14.094
REMARK INTER + INTRA:          -5.148
REMARK INTER:                  -4.951
REMARK INTRA:                  -0.197
REMARK UNBOUND:                -0.197
REMARK SMILES CC(C)(C)[C@H]1C=C[C@H](O)CC1
REMARK SMILES IDX 5 1 11 2 10 3 8 4 7 5 6 6 2 7 1 8 3 9 4 10 9 11
REMARK H PARENT 9 12
REMARK Flexibility Score: inf
ROOT
ATOM      1  C   UNL     1     114.850 120.135 130.489  1.00  0.00     0.017 C 
ATOM      2  C   UNL     1     116.367 120.322 130.175  1.00  0.00     0.011 C 
ATOM      3  C   UNL     1     116.812 119.812 128.777  1.00  0.00     0.037 C 
ATOM      4  C   UNL     1     115.740 118.982 128.046  1.00  0.00     0.137 C 
ATOM      5  C   UNL     1     114.432 119.721 128.085  1.00  0.00     0.000 C 
ATOM      6  C   UNL     1     114.024 120.298 129.223  1.00  0.00    -0.025 C 
ENDROOT
BRANCH   1   7
ATOM      7  C   UNL     1     114.329 121.000 131.699  1.00  0.00    -0.032 C 
ATOM      8  C   UNL     1     113.638 120.082 132.738  1.00  0.00     0.011 C 
ATOM      9  C   UNL     1     113.321 122.087 131.255  1.00  0.00     0.011 C 
ATOM     10  C   UNL     1     115.515 121.692 132.411  1.00  0.00     0.011 C 
ENDBRANCH   1   7
BRANCH   4  11
ATOM     11  O   UNL     1     115.584 117.728 128.659  1.00  0.00    -0.389 OA
ATOM     12  H   UNL     1     115.424 117.073 127.930  1.00  0.00     0.211 HD
ENDBRANCH   4  11
TORSDOF 2
ENDMDL
MODEL 7
REMARK VINA RESULT:    -4.375      2.926      5.941
REMARK INTER + INTRA:          -4.956
REMARK INTER:                  -4.759
REMARK INTRA:                  -0.197
REMARK UNBOUND:                -0.197
REMARK SMILES CC(C)(C)[C@H]1C=C[C@H](O)CC1
REMARK SMILES IDX 5 1 11 2 10 3 8 4 7 5 6 6 2 7 1 8 3 9 4 10 9 11
REMARK H PARENT 9 12
REMARK Flexibility Score: inf
ROOT
ATOM      1  C   UNL     1     119.145 128.499 130.589  1.00  0.00     0.017 C 
ATOM      2  C   UNL     1     118.112 129.618 130.932  1.00  0.00     0.011 C 
ATOM      3  C   UNL     1     118.727 131.026 131.161  1.00  0.00     0.037 C 
ATOM      4  C   UNL     1     120.264 131.026 131.260  1.00  0.00     0.137 C 
ATOM      5  C   UNL     1     120.834 130.244 130.110  1.00  0.00     0.000 C 
ATOM      6  C   UNL     1     120.289 129.070 129.766  1.00  0.00    -0.025 C 
ENDROOT
BRANCH   1   7
ATOM      7  C   UNL     1     118.507 127.199 129.967  1.00  0.00    -0.032 C 
ATOM      8  C   UNL     1     118.974 127.040 128.498  1.00  0.00     0.011 C 
ATOM      9  C   UNL     1     116.960 127.231 129.992  1.00  0.00     0.011 C 
ATOM     10  C   UNL     1     118.985 125.948 130.741  1.00  0.00     0.011 C 
ENDBRANCH   1   7
BRANCH   4  11
ATOM     11  O   UNL     1     120.680 130.446 132.469  1.00  0.00    -0.389 OA
ATOM     12  H   UNL     1     121.224 131.130 132.941  1.00  0.00     0.211 HD
ENDBRANCH   4  11
TORSDOF 2
ENDMDL
MODEL 8
REMARK VINA RESULT:    -4.328     12.525     13.560
REMARK INTER + INTRA:          -4.905
REMARK INTER:                  -4.704
REMARK INTRA:                  -0.201
REMARK UNBOUND:                -0.197
REMARK SMILES CC(C)(C)[C@H]1C=C[C@H](O)CC1
REMARK SMILES IDX 5 1 11 2 10 3 8 4 7 5 6 6 2 7 1 8 3 9 4 10 9 11
REMARK H PARENT 9 12
REMARK Flexibility Score: inf
ROOT
ATOM      1  C   UNL     1     116.784 120.955 133.871  1.00  0.00     0.017 C 
ATOM      2  C   UNL     1     115.510 120.315 134.505  1.00  0.00     0.011 C 
ATOM      3  C   UNL     1     114.245 120.352 133.605  1.00  0.00     0.037 C 
ATOM      4  C   UNL     1     114.397 121.233 132.351  1.00  0.00     0.137 C 
ATOM      5  C   UNL     1     115.683 120.886 131.656  1.00  0.00     0.000 C 
ATOM      6  C   UNL     1     116.804 120.718 132.369  1.00  0.00    -0.025 C 
ENDROOT
BRANCH   1   7
ATOM      7  C   UNL     1     118.131 120.562 134.590  1.00  0.00    -0.032 C 
ATOM      8  C   UNL     1     118.232 119.020 134.702  1.00  0.00     0.011 C 
ATOM      9  C   UNL     1     118.240 121.168 136.010  1.00  0.00     0.011 C 
ATOM     10  C   UNL     1     119.341 121.044 133.756  1.00  0.00     0.011 C 
ENDBRANCH   1   7
BRANCH   4  11
ATOM     11  O   UNL     1     114.410 122.593 132.703  1.00  0.00    -0.389 OA
ATOM     12  H   UNL     1     114.572 123.102 131.866  1.00  0.00     0.211 HD
ENDBRANCH   4  11
TORSDOF 2
ENDMDL
MODEL 9
REMARK VINA RESULT:    -4.272      8.488     10.556
REMARK INTER + INTRA:          -4.844
REMARK INTER:                  -4.645
REMARK INTRA:                  -0.199
REMARK UNBOUND:                -0.197
REMARK SMILES CC(C)(C)[C@H]1C=C[C@H](O)CC1
REMARK SMILES IDX 5 1 11 2 10 3 8 4 7 5 6 6 2 7 1 8 3 9 4 10 9 11
REMARK H PARENT 9 12
REMARK Flexibility Score: inf
ROOT
ATOM      1  C   UNL     1     115.260 124.485 130.237  1.00  0.00     0.017 C 
ATOM      2  C   UNL     1     115.827 123.609 131.396  1.00  0.00     0.011 C 
ATOM      3  C   UNL     1     114.835 122.557 131.965  1.00  0.00     0.037 C 
ATOM      4  C   UNL     1     113.389 122.729 131.464  1.00  0.00     0.137 C 
ATOM      5  C   UNL     1     113.399 122.876 129.968  1.00  0.00     0.000 C 
ATOM      6  C   UNL     1     114.300 123.673 129.381  1.00  0.00    -0.025 C 
ENDROOT
BRANCH   1   7
ATOM      7  C   UNL     1     116.359 125.246 129.403  1.00  0.00    -0.032 C 
ATOM      8  C   UNL     1     117.664 125.349 130.232  1.00  0.00     0.011 C 
ATOM      9  C   UNL     1     115.914 126.674 129.005  1.00  0.00     0.011 C 
ATOM     10  C   UNL     1     116.693 124.458 128.115  1.00  0.00     0.011 C 
ENDBRANCH   1   7
BRANCH   4  11
ATOM     11  O   UNL     1     112.800 123.866 132.039  1.00  0.00    -0.389 OA
ATOM     12  H   UNL     1     111.839 123.652 132.173  1.00  0.00     0.211 HD
ENDBRANCH   4  11
TORSDOF 2
ENDMDL
