MODEL 1
REMARK VINA RESULT:    -7.166      0.000      0.000
REMARK INTER + INTRA:          -8.856
REMARK INTER:                  -8.632
REMARK INTRA:                  -0.224
REMARK UNBOUND:                -0.224
REMARK SMILES O=c1c(O)c(-c2ccc(O)c(O)c2)oc2cc(O)cc(O)c12
REMARK SMILES IDX 5 1 3 2 2 3 1 4 22 5 20 6 19 7 17 8 16 9 15 10 14 11 6 12
REMARK SMILES IDX 7 13 8 14 9 15 13 16 11 17 10 18 12 20 4 22 21 24 18 26
REMARK H PARENT 10 19 12 21 4 23 21 25 18 27
REMARK Flexibility Score: inf
ROOT
ATOM      1  C   UNL     1     -37.700   4.704  79.763  1.00  0.00     0.180 A 
ATOM      2  C   UNL     1     -38.251   4.714  81.056  1.00  0.00     0.208 A 
ATOM      3  C   UNL     1     -39.570   4.268  81.237  1.00  0.00     0.238 A 
ATOM      4  O   UNL     1     -40.032   4.211  82.407  1.00  0.00    -0.285 OA
ATOM      5  C   UNL     1     -40.340   3.870  80.118  1.00  0.00     0.111 A 
ATOM      6  C   UNL     1     -41.702   3.444  80.179  1.00  0.00     0.134 A 
ATOM      7  C   UNL     1     -42.330   2.971  79.019  1.00  0.00     0.093 A 
ATOM      8  C   UNL     1     -41.667   2.971  77.790  1.00  0.00     0.123 A 
ATOM      9  C   UNL     1     -40.357   3.437  77.710  1.00  0.00     0.094 A 
ATOM     10  C   UNL     1     -39.691   3.878  78.856  1.00  0.00     0.146 A 
ATOM     11  O   UNL     1     -38.436   4.294  78.738  1.00  0.00    -0.452 OA
ENDROOT
BRANCH   1  12
ATOM     12  C   UNL     1     -36.312   5.145  79.495  1.00  0.00     0.025 A 
ATOM     13  C   UNL     1     -35.207   4.406  79.951  1.00  0.00     0.016 A 
ATOM     14  C   UNL     1     -33.907   4.829  79.664  1.00  0.00     0.051 A 
ATOM     15  C   UNL     1     -33.691   5.986  78.905  1.00  0.00     0.157 A 
ATOM     16  C   UNL     1     -36.091   6.293  78.717  1.00  0.00     0.062 A 
ATOM     17  C   UNL     1     -34.790   6.721  78.428  1.00  0.00     0.158 A 
BRANCH  15  18
ATOM     18  O   UNL     1     -32.392   6.408  78.622  1.00  0.00    -0.504 OA
ATOM     19  H   UNL     1     -31.946   6.191  77.739  1.00  0.00     0.293 HD
ENDBRANCH  15  18
BRANCH  17  20
ATOM     20  O   UNL     1     -34.609   7.873  77.665  1.00  0.00    -0.504 OA
ATOM     21  H   UNL     1     -33.698   8.294  77.532  1.00  0.00     0.293 HD
ENDBRANCH  17  20
ENDBRANCH   1  12
BRANCH   2  22
ATOM     22  O   UNL     1     -37.500   5.183  82.138  1.00  0.00    -0.502 OA
ATOM     23  H   UNL     1     -36.490   5.117  82.167  1.00  0.00     0.293 HD
ENDBRANCH   2  22
BRANCH   6  24
ATOM     24  O   UNL     1     -42.485   3.486  81.336  1.00  0.00    -0.507 OA
ATOM     25  H   UNL     1     -42.172   3.217  82.256  1.00  0.00     0.293 HD
ENDBRANCH   6  24
BRANCH   8  26
ATOM     26  O   UNL     1     -42.305   2.516  76.639  1.00  0.00    -0.508 OA
ATOM     27  H   UNL     1     -41.781   2.202  75.829  1.00  0.00     0.293 HD
ENDBRANCH   8  26
TORSDOF 6
ENDMDL
MODEL 2
REMARK VINA RESULT:    -6.624      1.459      6.784
REMARK INTER + INTRA:          -8.203
REMARK INTER:                  -8.247
REMARK INTRA:                   0.044
REMARK UNBOUND:                -0.224
REMARK SMILES O=c1c(O)c(-c2ccc(O)c(O)c2)oc2cc(O)cc(O)c12
REMARK SMILES IDX 5 1 3 2 2 3 1 4 22 5 20 6 19 7 17 8 16 9 15 10 14 11 6 12
REMARK SMILES IDX 7 13 8 14 9 15 13 16 11 17 10 18 12 20 4 22 21 24 18 26
REMARK H PARENT 10 19 12 21 4 23 21 25 18 27
REMARK Flexibility Score: inf
ROOT
ATOM      1  C   UNL     1     -38.210   3.882  79.718  1.00  0.00     0.180 A 
ATOM      2  C   UNL     1     -37.686   3.339  80.904  1.00  0.00     0.208 A 
ATOM      3  C   UNL     1     -36.371   3.661  81.278  1.00  0.00     0.238 A 
ATOM      4  O   UNL     1     -35.935   3.231  82.377  1.00  0.00    -0.285 OA
ATOM      5  C   UNL     1     -35.579   4.478  80.436  1.00  0.00     0.111 A 
ATOM      6  C   UNL     1     -34.219   4.832  80.694  1.00  0.00     0.134 A 
ATOM      7  C   UNL     1     -33.568   5.734  79.843  1.00  0.00     0.093 A 
ATOM      8  C   UNL     1     -34.204   6.243  78.709  1.00  0.00     0.123 A 
ATOM      9  C   UNL     1     -35.511   5.861  78.419  1.00  0.00     0.094 A 
ATOM     10  C   UNL     1     -36.201   4.993  79.270  1.00  0.00     0.146 A 
ATOM     11  O   UNL     1     -37.452   4.672  78.966  1.00  0.00    -0.452 OA
ENDROOT
BRANCH   1  12
ATOM     12  C   UNL     1     -39.590   3.601  79.264  1.00  0.00     0.025 A 
ATOM     13  C   UNL     1     -39.854   3.145  77.961  1.00  0.00     0.016 A 
ATOM     14  C   UNL     1     -41.164   2.862  77.563  1.00  0.00     0.051 A 
ATOM     15  C   UNL     1     -42.225   3.016  78.464  1.00  0.00     0.157 A 
ATOM     16  C   UNL     1     -40.655   3.733  80.170  1.00  0.00     0.062 A 
ATOM     17  C   UNL     1     -41.968   3.452  79.775  1.00  0.00     0.158 A 
BRANCH  15  18
ATOM     18  O   UNL     1     -43.531   2.736  78.064  1.00  0.00    -0.504 OA
ATOM     19  H   UNL     1     -44.043   3.362  77.451  1.00  0.00     0.293 HD
ENDBRANCH  15  18
BRANCH  17  20
ATOM     20  O   UNL     1     -43.002   3.609  80.697  1.00  0.00    -0.504 OA
ATOM     21  H   UNL     1     -43.334   2.842  81.270  1.00  0.00     0.293 HD
ENDBRANCH  17  20
ENDBRANCH   1  12
BRANCH   2  22
ATOM     22  O   UNL     1     -38.459   2.473  81.683  1.00  0.00    -0.502 OA
ATOM     23  H   UNL     1     -39.375   2.152  81.392  1.00  0.00     0.293 HD
ENDBRANCH   2  22
BRANCH   6  24
ATOM     24  O   UNL     1     -33.461   4.313  81.748  1.00  0.00    -0.507 OA
ATOM     25  H   UNL     1     -32.858   4.854  82.348  1.00  0.00     0.293 HD
ENDBRANCH   6  24
BRANCH   8  26
ATOM     26  O   UNL     1     -33.542   7.126  77.859  1.00  0.00    -0.508 OA
ATOM     27  H   UNL     1     -32.638   6.899  77.458  1.00  0.00     0.293 HD
ENDBRANCH   8  26
TORSDOF 6
ENDMDL
MODEL 3
REMARK VINA RESULT:    -6.572      1.591      7.145
REMARK INTER + INTRA:          -8.140
REMARK INTER:                  -8.044
REMARK INTRA:                  -0.096
REMARK UNBOUND:                -0.224
REMARK SMILES O=c1c(O)c(-c2ccc(O)c(O)c2)oc2cc(O)cc(O)c12
REMARK SMILES IDX 5 1 3 2 2 3 1 4 22 5 20 6 19 7 17 8 16 9 15 10 14 11 6 12
REMARK SMILES IDX 7 13 8 14 9 15 13 16 11 17 10 18 12 20 4 22 21 24 18 26
REMARK H PARENT 10 19 12 21 4 23 21 25 18 27
REMARK Flexibility Score: inf
ROOT
ATOM      1  C   UNL     1     -38.306   4.409  79.341  1.00  0.00     0.180 A 
ATOM      2  C   UNL     1     -37.761   5.292  78.393  1.00  0.00     0.208 A 
ATOM      3  C   UNL     1     -36.421   5.690  78.525  1.00  0.00     0.238 A 
ATOM      4  O   UNL     1     -35.919   6.421  77.633  1.00  0.00    -0.285 OA
ATOM      5  C   UNL     1     -35.659   5.245  79.632  1.00  0.00     0.111 A 
ATOM      6  C   UNL     1     -34.305   5.621  79.890  1.00  0.00     0.134 A 
ATOM      7  C   UNL     1     -33.618   5.033  80.960  1.00  0.00     0.093 A 
ATOM      8  C   UNL     1     -34.254   4.133  81.818  1.00  0.00     0.123 A 
ATOM      9  C   UNL     1     -35.589   3.802  81.607  1.00  0.00     0.094 A 
ATOM     10  C   UNL     1     -36.291   4.342  80.526  1.00  0.00     0.146 A 
ATOM     11  O   UNL     1     -37.557   3.982  80.350  1.00  0.00    -0.452 OA
ENDROOT
BRANCH   1  12
ATOM     12  C   UNL     1     -39.706   3.932  79.261  1.00  0.00     0.025 A 
ATOM     13  C   UNL     1     -40.193   3.278  78.116  1.00  0.00     0.016 A 
ATOM     14  C   UNL     1     -41.511   2.815  78.074  1.00  0.00     0.051 A 
ATOM     15  C   UNL     1     -42.356   2.987  79.178  1.00  0.00     0.157 A 
ATOM     16  C   UNL     1     -40.550   4.083  80.373  1.00  0.00     0.062 A 
ATOM     17  C   UNL     1     -41.872   3.622  80.334  1.00  0.00     0.158 A 
BRANCH  15  18
ATOM     18  O   UNL     1     -43.672   2.527  79.132  1.00  0.00    -0.504 OA
ATOM     19  H   UNL     1     -43.981   1.748  79.703  1.00  0.00     0.293 HD
ENDBRANCH  15  18
BRANCH  17  20
ATOM     20  O   UNL     1     -42.685   3.802  81.452  1.00  0.00    -0.504 OA
ATOM     21  H   UNL     1     -43.119   3.024  81.933  1.00  0.00     0.293 HD
ENDBRANCH  17  20
ENDBRANCH   1  12
BRANCH   2  22
ATOM     22  O   UNL     1     -38.552   5.780  77.349  1.00  0.00    -0.502 OA
ATOM     23  H   UNL     1     -38.330   5.615  76.375  1.00  0.00     0.293 HD
ENDBRANCH   2  22
BRANCH   6  24
ATOM     24  O   UNL     1     -33.603   6.577  79.150  1.00  0.00    -0.507 OA
ATOM     25  H   UNL     1     -33.219   6.428  78.230  1.00  0.00     0.293 HD
ENDBRANCH   6  24
BRANCH   8  26
ATOM     26  O   UNL     1     -33.567   3.568  82.890  1.00  0.00    -0.508 OA
ATOM     27  H   UNL     1     -32.695   3.960  83.228  1.00  0.00     0.293 HD
ENDBRANCH   8  26
TORSDOF 6
ENDMDL
MODEL 4
REMARK VINA RESULT:    -6.555     10.172     11.873
REMARK INTER + INTRA:          -8.120
REMARK INTER:                  -7.797
REMARK INTRA:                  -0.323
REMARK UNBOUND:                -0.224
REMARK SMILES O=c1c(O)c(-c2ccc(O)c(O)c2)oc2cc(O)cc(O)c12
REMARK SMILES IDX 5 1 3 2 2 3 1 4 22 5 20 6 19 7 17 8 16 9 15 10 14 11 6 12
REMARK SMILES IDX 7 13 8 14 9 15 13 16 11 17 10 18 12 20 4 22 21 24 18 26
REMARK H PARENT 10 19 12 21 4 23 21 25 18 27
REMARK Flexibility Score: inf
ROOT
ATOM      1  C   UNL     1     -46.415   2.349  73.677  1.00  0.00     0.180 A 
ATOM      2  C   UNL     1     -46.969   3.234  74.618  1.00  0.00     0.208 A 
ATOM      3  C   UNL     1     -47.183   4.572  74.251  1.00  0.00     0.238 A 
ATOM      4  O   UNL     1     -47.748   5.339  75.073  1.00  0.00    -0.285 OA
ATOM      5  C   UNL     1     -46.789   5.023  72.968  1.00  0.00     0.111 A 
ATOM      6  C   UNL     1     -46.917   6.368  72.505  1.00  0.00     0.134 A 
ATOM      7  C   UNL     1     -46.592   6.675  71.178  1.00  0.00     0.093 A 
ATOM      8  C   UNL     1     -46.083   5.700  70.316  1.00  0.00     0.123 A 
ATOM      9  C   UNL     1     -45.903   4.399  70.775  1.00  0.00     0.094 A 
ATOM     10  C   UNL     1     -46.255   4.052  72.082  1.00  0.00     0.146 A 
ATOM     11  O   UNL     1     -46.086   2.794  72.470  1.00  0.00    -0.452 OA
ENDROOT
BRANCH   1  12
ATOM     12  C   UNL     1     -46.172   0.921  73.985  1.00  0.00     0.025 A 
ATOM     13  C   UNL     1     -44.969   0.492  74.572  1.00  0.00     0.016 A 
ATOM     14  C   UNL     1     -44.774  -0.858  74.876  1.00  0.00     0.051 A 
ATOM     15  C   UNL     1     -45.780  -1.795  74.610  1.00  0.00     0.157 A 
ATOM     16  C   UNL     1     -47.186  -0.019  73.740  1.00  0.00     0.062 A 
ATOM     17  C   UNL     1     -46.993  -1.372  74.041  1.00  0.00     0.158 A 
BRANCH  15  18
ATOM     18  O   UNL     1     -45.581  -3.142  74.911  1.00  0.00    -0.504 OA
ATOM     19  H   UNL     1     -45.214  -3.790  74.223  1.00  0.00     0.293 HD
ENDBRANCH  15  18
BRANCH  17  20
ATOM     20  O   UNL     1     -48.017  -2.279  73.771  1.00  0.00    -0.504 OA
ATOM     21  H   UNL     1     -47.995  -3.233  74.112  1.00  0.00     0.293 HD
ENDBRANCH  17  20
ENDBRANCH   1  12
BRANCH   2  22
ATOM     22  O   UNL     1     -47.281   2.787  75.906  1.00  0.00    -0.502 OA
ATOM     23  H   UNL     1     -46.622   2.270  76.476  1.00  0.00     0.293 HD
ENDBRANCH   2  22
BRANCH   6  24
ATOM     24  O   UNL     1     -47.331   7.436  73.307  1.00  0.00    -0.507 OA
ATOM     25  H   UNL     1     -48.241   7.522  73.731  1.00  0.00     0.293 HD
ENDBRANCH   6  24
BRANCH   8  26
ATOM     26  O   UNL     1     -45.745   6.019  69.003  1.00  0.00    -0.508 OA
ATOM     27  H   UNL     1     -45.044   5.495  68.493  1.00  0.00     0.293 HD
ENDBRANCH   8  26
TORSDOF 6
ENDMDL
MODEL 5
REMARK VINA RESULT:    -6.424      1.603      6.951
REMARK INTER + INTRA:          -7.961
REMARK INTER:                  -7.639
REMARK INTRA:                  -0.322
REMARK UNBOUND:                -0.224
REMARK SMILES O=c1c(O)c(-c2ccc(O)c(O)c2)oc2cc(O)cc(O)c12
REMARK SMILES IDX 5 1 3 2 2 3 1 4 22 5 20 6 19 7 17 8 16 9 15 10 14 11 6 12
REMARK SMILES IDX 7 13 8 14 9 15 13 16 11 17 10 18 12 20 4 22 21 24 18 26
REMARK H PARENT 10 19 12 21 4 23 21 25 18 27
REMARK Flexibility Score: inf
ROOT
ATOM      1  C   UNL     1     -38.550   4.764  78.714  1.00  0.00     0.180 A 
ATOM      2  C   UNL     1     -37.388   4.090  79.128  1.00  0.00     0.208 A 
ATOM      3  C   UNL     1     -36.150   4.746  79.031  1.00  0.00     0.238 A 
ATOM      4  O   UNL     1     -35.124   4.165  79.471  1.00  0.00    -0.285 OA
ATOM      5  C   UNL     1     -36.082   6.045  78.471  1.00  0.00     0.111 A 
ATOM      6  C   UNL     1     -34.876   6.786  78.283  1.00  0.00     0.134 A 
ATOM      7  C   UNL     1     -34.942   8.105  77.818  1.00  0.00     0.093 A 
ATOM      8  C   UNL     1     -36.164   8.688  77.474  1.00  0.00     0.123 A 
ATOM      9  C   UNL     1     -37.340   7.954  77.602  1.00  0.00     0.094 A 
ATOM     10  C   UNL     1     -37.311   6.649  78.099  1.00  0.00     0.146 A 
ATOM     11  O   UNL     1     -38.459   5.994  78.224  1.00  0.00    -0.452 OA
ENDROOT
BRANCH   1  12
ATOM     12  C   UNL     1     -39.892   4.144  78.799  1.00  0.00     0.025 A 
ATOM     13  C   UNL     1     -40.425   3.401  77.731  1.00  0.00     0.016 A 
ATOM     14  C   UNL     1     -41.684   2.805  77.844  1.00  0.00     0.051 A 
ATOM     15  C   UNL     1     -42.422   2.931  79.027  1.00  0.00     0.157 A 
ATOM     16  C   UNL     1     -40.628   4.250  79.991  1.00  0.00     0.062 A 
ATOM     17  C   UNL     1     -41.890   3.656  80.107  1.00  0.00     0.158 A 
BRANCH  15  18
ATOM     18  O   UNL     1     -43.680   2.338  79.135  1.00  0.00    -0.504 OA
ATOM     19  H   UNL     1     -43.821   1.490  79.672  1.00  0.00     0.293 HD
ENDBRANCH  15  18
BRANCH  17  20
ATOM     20  O   UNL     1     -42.597   3.794  81.300  1.00  0.00    -0.504 OA
ATOM     21  H   UNL     1     -42.505   4.614  81.888  1.00  0.00     0.293 HD
ENDBRANCH  17  20
ENDBRANCH   1  12
BRANCH   2  22
ATOM     22  O   UNL     1     -37.467   2.779  79.606  1.00  0.00    -0.502 OA
ATOM     23  H   UNL     1     -36.652   2.184  79.697  1.00  0.00     0.293 HD
ENDBRANCH   2  22
BRANCH   6  24
ATOM     24  O   UNL     1     -33.596   6.271  78.512  1.00  0.00    -0.507 OA
ATOM     25  H   UNL     1     -32.871   6.196  77.817  1.00  0.00     0.293 HD
ENDBRANCH   6  24
BRANCH   8  26
ATOM     26  O   UNL     1     -36.218   9.995  76.995  1.00  0.00    -0.508 OA
ATOM     27  H   UNL     1     -36.323  10.195  76.006  1.00  0.00     0.293 HD
ENDBRANCH   8  26
TORSDOF 6
ENDMDL
MODEL 6
REMARK VINA RESULT:    -6.399      1.915      7.254
REMARK INTER + INTRA:          -7.931
REMARK INTER:                  -7.609
REMARK INTRA:                  -0.322
REMARK UNBOUND:                -0.224
REMARK SMILES O=c1c(O)c(-c2ccc(O)c(O)c2)oc2cc(O)cc(O)c12
REMARK SMILES IDX 5 1 3 2 2 3 1 4 22 5 20 6 19 7 17 8 16 9 15 10 14 11 6 12
REMARK SMILES IDX 7 13 8 14 9 15 13 16 11 17 10 18 12 20 4 22 21 24 18 26
REMARK H PARENT 10 19 12 21 4 23 21 25 18 27
REMARK Flexibility Score: inf
ROOT
ATOM      1  C   UNL     1     -38.306   6.001  78.255  1.00  0.00     0.180 A 
ATOM      2  C   UNL     1     -38.591   7.256  77.690  1.00  0.00     0.208 A 
ATOM      3  C   UNL     1     -37.534   8.148  77.446  1.00  0.00     0.238 A 
ATOM      4  O   UNL     1     -37.788   9.240  76.873  1.00  0.00    -0.285 OA
ATOM      5  C   UNL     1     -36.215   7.798  77.820  1.00  0.00     0.111 A 
ATOM      6  C   UNL     1     -35.074   8.643  77.661  1.00  0.00     0.134 A 
ATOM      7  C   UNL     1     -33.800   8.149  77.969  1.00  0.00     0.093 A 
ATOM      8  C   UNL     1     -33.633   6.864  78.490  1.00  0.00     0.123 A 
ATOM      9  C   UNL     1     -34.744   6.053  78.700  1.00  0.00     0.094 A 
ATOM     10  C   UNL     1     -36.024   6.503  78.367  1.00  0.00     0.146 A 
ATOM     11  O   UNL     1     -37.053   5.688  78.564  1.00  0.00    -0.452 OA
ENDROOT
BRANCH   1  12
ATOM     12  C   UNL     1     -39.363   5.001  78.528  1.00  0.00     0.025 A 
ATOM     13  C   UNL     1     -39.662   3.981  77.608  1.00  0.00     0.016 A 
ATOM     14  C   UNL     1     -40.647   3.034  77.900  1.00  0.00     0.051 A 
ATOM     15  C   UNL     1     -41.337   3.083  79.118  1.00  0.00     0.157 A 
ATOM     16  C   UNL     1     -40.042   5.034  79.757  1.00  0.00     0.062 A 
ATOM     17  C   UNL     1     -41.031   4.088  80.052  1.00  0.00     0.158 A 
BRANCH  15  18
ATOM     18  O   UNL     1     -42.322   2.139  79.405  1.00  0.00    -0.504 OA
ATOM     19  H   UNL     1     -42.174   1.412  80.096  1.00  0.00     0.293 HD
ENDBRANCH  15  18
BRANCH  17  20
ATOM     20  O   UNL     1     -41.694   4.160  81.276  1.00  0.00    -0.504 OA
ATOM     21  H   UNL     1     -42.480   4.781  81.427  1.00  0.00     0.293 HD
ENDBRANCH  17  20
ENDBRANCH   1  12
BRANCH   2  22
ATOM     22  O   UNL     1     -39.910   7.614  77.398  1.00  0.00    -0.502 OA
ATOM     23  H   UNL     1     -40.441   8.253  77.978  1.00  0.00     0.293 HD
ENDBRANCH   2  22
BRANCH   6  24
ATOM     24  O   UNL     1     -35.138   9.972  77.232  1.00  0.00    -0.507 OA
ATOM     25  H   UNL     1     -34.679  10.338  76.412  1.00  0.00     0.293 HD
ENDBRANCH   6  24
BRANCH   8  26
ATOM     26  O   UNL     1     -32.364   6.387  78.811  1.00  0.00    -0.508 OA
ATOM     27  H   UNL     1     -31.693   6.138  78.092  1.00  0.00     0.293 HD
ENDBRANCH   8  26
TORSDOF 6
ENDMDL
MODEL 7
REMARK VINA RESULT:    -6.285      1.540      3.176
REMARK INTER + INTRA:          -7.795
REMARK INTER:                  -7.486
REMARK INTRA:                  -0.309
REMARK UNBOUND:                -0.224
REMARK SMILES O=c1c(O)c(-c2ccc(O)c(O)c2)oc2cc(O)cc(O)c12
REMARK SMILES IDX 5 1 3 2 2 3 1 4 22 5 20 6 19 7 17 8 16 9 15 10 14 11 6 12
REMARK SMILES IDX 7 13 8 14 9 15 13 16 11 17 10 18 12 20 4 22 21 24 18 26
REMARK H PARENT 10 19 12 21 4 23 21 25 18 27
REMARK Flexibility Score: inf
ROOT
ATOM      1  C   UNL     1     -37.587   4.987  80.129  1.00  0.00     0.180 A 
ATOM      2  C   UNL     1     -38.599   4.920  79.155  1.00  0.00     0.208 A 
ATOM      3  C   UNL     1     -39.888   4.519  79.540  1.00  0.00     0.238 A 
ATOM      4  O   UNL     1     -40.805   4.533  78.678  1.00  0.00    -0.285 OA
ATOM      5  C   UNL     1     -40.138   4.137  80.880  1.00  0.00     0.111 A 
ATOM      6  C   UNL     1     -41.396   3.671  81.371  1.00  0.00     0.134 A 
ATOM      7  C   UNL     1     -41.553   3.423  82.740  1.00  0.00     0.093 A 
ATOM      8  C   UNL     1     -40.482   3.561  83.625  1.00  0.00     0.123 A 
ATOM      9  C   UNL     1     -39.237   3.962  83.147  1.00  0.00     0.094 A 
ATOM     10  C   UNL     1     -39.058   4.254  81.793  1.00  0.00     0.146 A 
ATOM     11  O   UNL     1     -37.860   4.654  81.385  1.00  0.00    -0.452 OA
ENDROOT
BRANCH   1  12
ATOM     12  C   UNL     1     -36.207   5.414  79.805  1.00  0.00     0.025 A 
ATOM     13  C   UNL     1     -35.202   4.478  79.505  1.00  0.00     0.016 A 
ATOM     14  C   UNL     1     -33.913   4.907  79.178  1.00  0.00     0.051 A 
ATOM     15  C   UNL     1     -33.613   6.274  79.131  1.00  0.00     0.157 A 
ATOM     16  C   UNL     1     -35.907   6.784  79.735  1.00  0.00     0.062 A 
ATOM     17  C   UNL     1     -34.617   7.217  79.409  1.00  0.00     0.158 A 
BRANCH  15  18
ATOM     18  O   UNL     1     -32.325   6.698  78.807  1.00  0.00    -0.504 OA
ATOM     19  H   UNL     1     -31.506   6.288  79.242  1.00  0.00     0.293 HD
ENDBRANCH  15  18
BRANCH  17  20
ATOM     20  O   UNL     1     -34.352   8.585  79.364  1.00  0.00    -0.504 OA
ATOM     21  H   UNL     1     -34.903   9.258  79.883  1.00  0.00     0.293 HD
ENDBRANCH  17  20
ENDBRANCH   1  12
BRANCH   2  22
ATOM     22  O   UNL     1     -38.313   5.229  77.822  1.00  0.00    -0.502 OA
ATOM     23  H   UNL     1     -39.039   5.404  77.137  1.00  0.00     0.293 HD
ENDBRANCH   2  22
BRANCH   6  24
ATOM     24  O   UNL     1     -42.506   3.414  80.561  1.00  0.00    -0.507 OA
ATOM     25  H   UNL     1     -43.453   3.683  80.775  1.00  0.00     0.293 HD
ENDBRANCH   6  24
BRANCH   8  26
ATOM     26  O   UNL     1     -40.643   3.294  84.983  1.00  0.00    -0.508 OA
ATOM     27  H   UNL     1     -40.314   3.938  85.694  1.00  0.00     0.293 HD
ENDBRANCH   8  26
TORSDOF 6
ENDMDL
MODEL 8
REMARK VINA RESULT:    -6.216      9.032     10.958
REMARK INTER + INTRA:          -7.711
REMARK INTER:                  -7.389
REMARK INTRA:                  -0.323
REMARK UNBOUND:                -0.224
REMARK SMILES O=c1c(O)c(-c2ccc(O)c(O)c2)oc2cc(O)cc(O)c12
REMARK SMILES IDX 5 1 3 2 2 3 1 4 22 5 20 6 19 7 17 8 16 9 15 10 14 11 6 12
REMARK SMILES IDX 7 13 8 14 9 15 13 16 11 17 10 18 12 20 4 22 21 24 18 26
REMARK H PARENT 10 19 12 21 4 23 21 25 18 27
REMARK Flexibility Score: inf
ROOT
ATOM      1  C   UNL     1     -41.785  -4.653  82.627  1.00  0.00     0.180 A 
ATOM      2  C   UNL     1     -42.350  -5.518  83.580  1.00  0.00     0.208 A 
ATOM      3  C   UNL     1     -43.192  -6.553  83.145  1.00  0.00     0.238 A 
ATOM      4  O   UNL     1     -43.635  -7.368  83.996  1.00  0.00    -0.285 OA
ATOM      5  C   UNL     1     -43.503  -6.678  81.769  1.00  0.00     0.111 A 
ATOM      6  C   UNL     1     -44.381  -7.663  81.221  1.00  0.00     0.134 A 
ATOM      7  C   UNL     1     -44.530  -7.757  79.832  1.00  0.00     0.093 A 
ATOM      8  C   UNL     1     -43.885  -6.863  78.975  1.00  0.00     0.123 A 
ATOM      9  C   UNL     1     -43.071  -5.865  79.503  1.00  0.00     0.094 A 
ATOM     10  C   UNL     1     -42.871  -5.769  80.882  1.00  0.00     0.146 A 
ATOM     11  O   UNL     1     -42.069  -4.815  81.341  1.00  0.00    -0.452 OA
ENDROOT
BRANCH   1  12
ATOM     12  C   UNL     1     -40.876  -3.547  83.007  1.00  0.00     0.025 A 
ATOM     13  C   UNL     1     -41.368  -2.263  83.299  1.00  0.00     0.016 A 
ATOM     14  C   UNL     1     -40.493  -1.241  83.679  1.00  0.00     0.051 A 
ATOM     15  C   UNL     1     -39.119  -1.490  83.786  1.00  0.00     0.157 A 
ATOM     16  C   UNL     1     -39.500  -3.798  83.137  1.00  0.00     0.062 A 
ATOM     17  C   UNL     1     -38.621  -2.777  83.516  1.00  0.00     0.158 A 
BRANCH  15  18
ATOM     18  O   UNL     1     -38.248  -0.469  84.163  1.00  0.00    -0.504 OA
ATOM     19  H   UNL     1     -37.321  -0.668  84.521  1.00  0.00     0.293 HD
ENDBRANCH  15  18
BRANCH  17  20
ATOM     20  O   UNL     1     -37.260  -3.059  83.620  1.00  0.00    -0.504 OA
ATOM     21  H   UNL     1     -36.907  -3.799  84.214  1.00  0.00     0.293 HD
ENDBRANCH  17  20
ENDBRANCH   1  12
BRANCH   2  22
ATOM     22  O   UNL     1     -42.091  -5.331  84.941  1.00  0.00    -0.502 OA
ATOM     23  H   UNL     1     -42.013  -4.411  85.358  1.00  0.00     0.293 HD
ENDBRANCH   2  22
BRANCH   6  24
ATOM     24  O   UNL     1     -45.143  -8.548  81.990  1.00  0.00    -0.507 OA
ATOM     25  H   UNL     1     -45.684  -8.292  82.800  1.00  0.00     0.293 HD
ENDBRANCH   6  24
BRANCH   8  26
ATOM     26  O   UNL     1     -44.054  -6.953  77.595  1.00  0.00    -0.508 OA
ATOM     27  H   UNL     1     -43.830  -7.802  77.087  1.00  0.00     0.293 HD
ENDBRANCH   8  26
TORSDOF 6
ENDMDL
MODEL 9
REMARK VINA RESULT:    -6.049      1.966      2.647
REMARK INTER + INTRA:          -7.511
REMARK INTER:                  -7.182
REMARK INTRA:                  -0.329
REMARK UNBOUND:                -0.224
REMARK SMILES O=c1c(O)c(-c2ccc(O)c(O)c2)oc2cc(O)cc(O)c12
REMARK SMILES IDX 5 1 3 2 2 3 1 4 22 5 20 6 19 7 17 8 16 9 15 10 14 11 6 12
REMARK SMILES IDX 7 13 8 14 9 15 13 16 11 17 10 18 12 20 4 22 21 24 18 26
REMARK H PARENT 10 19 12 21 4 23 21 25 18 27
REMARK Flexibility Score: inf
ROOT
ATOM      1  C   UNL     1     -36.851   4.885  81.648  1.00  0.00     0.180 A 
ATOM      2  C   UNL     1     -36.821   4.664  83.036  1.00  0.00     0.208 A 
ATOM      3  C   UNL     1     -37.983   4.209  83.679  1.00  0.00     0.238 A 
ATOM      4  O   UNL     1     -37.927   3.943  84.908  1.00  0.00    -0.285 OA
ATOM      5  C   UNL     1     -39.176   4.032  82.937  1.00  0.00     0.111 A 
ATOM      6  C   UNL     1     -40.425   3.617  83.494  1.00  0.00     0.134 A 
ATOM      7  C   UNL     1     -41.511   3.373  82.645  1.00  0.00     0.093 A 
ATOM      8  C   UNL     1     -41.414   3.590  81.268  1.00  0.00     0.123 A 
ATOM      9  C   UNL     1     -40.217   4.047  80.724  1.00  0.00     0.094 A 
ATOM     10  C   UNL     1     -39.103   4.263  81.539  1.00  0.00     0.146 A 
ATOM     11  O   UNL     1     -37.976   4.679  80.974  1.00  0.00    -0.452 OA
ENDROOT
BRANCH   1  12
ATOM     12  C   UNL     1     -35.664   5.351  80.898  1.00  0.00     0.025 A 
ATOM     13  C   UNL     1     -34.775   4.443  80.295  1.00  0.00     0.016 A 
ATOM     14  C   UNL     1     -33.674   4.908  79.571  1.00  0.00     0.051 A 
ATOM     15  C   UNL     1     -33.453   6.283  79.425  1.00  0.00     0.157 A 
ATOM     16  C   UNL     1     -35.449   6.729  80.731  1.00  0.00     0.062 A 
ATOM     17  C   UNL     1     -34.347   7.198  80.007  1.00  0.00     0.158 A 
BRANCH  15  18
ATOM     18  O   UNL     1     -32.352   6.744  78.704  1.00  0.00    -0.504 OA
ATOM     19  H   UNL     1     -31.686   7.392  79.110  1.00  0.00     0.293 HD
ENDBRANCH  15  18
BRANCH  17  20
ATOM     20  O   UNL     1     -34.158   8.573  79.875  1.00  0.00    -0.504 OA
ATOM     21  H   UNL     1     -34.682   9.243  80.424  1.00  0.00     0.293 HD
ENDBRANCH  17  20
ENDBRANCH   1  12
BRANCH   2  22
ATOM     22  O   UNL     1     -35.654   4.918  83.763  1.00  0.00    -0.502 OA
ATOM     23  H   UNL     1     -35.163   4.193  84.273  1.00  0.00     0.293 HD
ENDBRANCH   2  22
BRANCH   6  24
ATOM     24  O   UNL     1     -40.657   3.456  84.863  1.00  0.00    -0.507 OA
ATOM     25  H   UNL     1     -40.066   2.936  85.492  1.00  0.00     0.293 HD
ENDBRANCH   6  24
BRANCH   8  26
ATOM     26  O   UNL     1     -42.506   3.362  80.434  1.00  0.00    -0.508 OA
ATOM     27  H   UNL     1     -43.012   2.483  80.450  1.00  0.00     0.293 HD
ENDBRANCH   8  26
TORSDOF 6
ENDMDL
