MODEL 1
REMARK VINA RESULT:    50.315      0.000      0.000
REMARK INTER + INTRA:          54.727
REMARK INTER:                  54.727
REMARK INTRA:                   0.000
REMARK UNBOUND:                 0.000
REMARK SMILES Cc1cc(O)c2c(c1)C(=O)c1cc(O)cc(O)c1C2=O
REMARK SMILES IDX 1 1 2 2 8 3 7 4 6 5 4 6 3 7 19 8 20 9 18 10 11 11 9 12 10 13
REMARK SMILES IDX 12 14 13 15 15 16 16 17 5 18 17 20 14 22
REMARK H PARENT 5 19 17 21 14 23
REMARK Flexibility Score: inf
ROOT
ATOM      1  C   UNL     1       8.095   7.242  18.290  1.00  0.00     0.044 C 
ATOM      2  C   UNL     1       9.479   7.597  17.833  1.00  0.00    -0.047 A 
ATOM      3  C   UNL     1       9.897   8.932  17.822  1.00  0.00     0.016 A 
ATOM      4  C   UNL     1      11.203   9.274  17.429  1.00  0.00     0.038 A 
ATOM      5  C   UNL     1      12.113   8.260  17.053  1.00  0.00     0.076 A 
ATOM      6  C   UNL     1      11.690   6.909  17.087  1.00  0.00     0.127 A 
ATOM      7  C   UNL     1      10.384   6.591  17.480  1.00  0.00     0.050 A 
ATOM      8  C   UNL     1      13.493   8.636  16.638  1.00  0.00     0.201 C 
ATOM      9  O   UNL     1      14.308   7.736  16.294  1.00  0.00    -0.288 OA
ATOM     10  C   UNL     1      13.919  10.063  16.621  1.00  0.00     0.076 A 
ATOM     11  C   UNL     1      12.997  11.064  17.003  1.00  0.00     0.041 A 
ATOM     12  C   UNL     1      11.624  10.694  17.413  1.00  0.00     0.194 C 
ATOM     13  O   UNL     1      10.806  11.594  17.750  1.00  0.00    -0.289 OA
ATOM     14  C   UNL     1      13.388  12.415  16.992  1.00  0.00     0.059 A 
ATOM     15  C   UNL     1      14.681  12.778  16.608  1.00  0.00     0.120 A 
ATOM     16  C   UNL     1      15.594  11.795  16.231  1.00  0.00     0.093 A 
ATOM     17  C   UNL     1      15.228  10.443  16.233  1.00  0.00     0.131 A 
ENDROOT
BRANCH   6  18
ATOM     18  O   UNL     1      12.561   5.877  16.734  1.00  0.00    -0.507 OA
ATOM     19  H   UNL     1      13.280   5.545  17.366  1.00  0.00     0.293 HD
ENDBRANCH   6  18
BRANCH  17  20
ATOM     20  O   UNL     1      16.168   9.486  15.851  1.00  0.00    -0.507 OA
ATOM     21  H   UNL     1      17.130   9.732  15.651  1.00  0.00     0.293 HD
ENDBRANCH  17  20
BRANCH  15  22
ATOM     22  O   UNL     1      15.069  14.116  16.596  1.00  0.00    -0.508 OA
ATOM     23  H   UNL     1      14.389  14.867  16.571  1.00  0.00     0.293 HD
ENDBRANCH  15  22
TORSDOF 3
ENDMDL
MODEL 2
REMARK VINA RESULT:    51.454      1.110      5.483
REMARK INTER + INTRA:          55.965
REMARK INTER:                  55.965
REMARK INTRA:                   0.000
REMARK UNBOUND:                 0.000
REMARK SMILES Cc1cc(O)c2c(c1)C(=O)c1cc(O)cc(O)c1C2=O
REMARK SMILES IDX 1 1 2 2 8 3 7 4 6 5 4 6 3 7 19 8 20 9 18 10 11 11 9 12 10 13
REMARK SMILES IDX 12 14 13 15 15 16 16 17 5 18 17 20 14 22
REMARK H PARENT 5 19 17 21 14 23
REMARK Flexibility Score: inf
ROOT
ATOM      1  C   UNL     1      14.880  14.324  16.719  1.00  0.00     0.044 C 
ATOM      2  C   UNL     1      14.548  12.860  16.712  1.00  0.00    -0.047 A 
ATOM      3  C   UNL     1      13.267  12.426  17.068  1.00  0.00     0.016 A 
ATOM      4  C   UNL     1      12.933  11.061  17.031  1.00  0.00     0.038 A 
ATOM      5  C   UNL     1      13.895  10.113  16.616  1.00  0.00     0.076 A 
ATOM      6  C   UNL     1      15.184  10.561  16.236  1.00  0.00     0.127 A 
ATOM      7  C   UNL     1      15.495  11.925  16.282  1.00  0.00     0.050 A 
ATOM      8  C   UNL     1      13.530   8.669  16.583  1.00  0.00     0.201 C 
ATOM      9  O   UNL     1      14.386   7.816  16.221  1.00  0.00    -0.288 OA
ATOM     10  C   UNL     1      12.164   8.222  16.976  1.00  0.00     0.076 A 
ATOM     11  C   UNL     1      11.213   9.185  17.386  1.00  0.00     0.041 A 
ATOM     12  C   UNL     1      11.575  10.620  17.423  1.00  0.00     0.194 C 
ATOM     13  O   UNL     1      10.720  11.473  17.792  1.00  0.00    -0.289 OA
ATOM     14  C   UNL     1       9.920   8.775  17.759  1.00  0.00     0.059 A 
ATOM     15  C   UNL     1       9.565   7.425  17.728  1.00  0.00     0.120 A 
ATOM     16  C   UNL     1      10.499   6.472  17.325  1.00  0.00     0.093 A 
ATOM     17  C   UNL     1      11.793   6.855  16.949  1.00  0.00     0.131 A 
ENDROOT
BRANCH   6  18
ATOM     18  O   UNL     1      16.159   9.657  15.811  1.00  0.00    -0.507 OA
ATOM     19  H   UNL     1      16.720   9.128  16.468  1.00  0.00     0.293 HD
ENDBRANCH   6  18
BRANCH  17  20
ATOM     20  O   UNL     1      12.701   5.875  16.550  1.00  0.00    -0.507 OA
ATOM     21  H   UNL     1      13.455   6.076  15.904  1.00  0.00     0.293 HD
ENDBRANCH  17  20
BRANCH  15  22
ATOM     22  O   UNL     1       8.285   7.018  18.097  1.00  0.00    -0.508 OA
ATOM     23  H   UNL     1       8.016   6.041  18.091  1.00  0.00     0.293 HD
ENDBRANCH  15  22
TORSDOF 3
ENDMDL
MODEL 3
REMARK VINA RESULT:    52.886     13.858     15.790
REMARK INTER + INTRA:          57.524
REMARK INTER:                  57.524
REMARK INTRA:                   0.000
REMARK UNBOUND:                 0.000
REMARK SMILES Cc1cc(O)c2c(c1)C(=O)c1cc(O)cc(O)c1C2=O
REMARK SMILES IDX 1 1 2 2 8 3 7 4 6 5 4 6 3 7 19 8 20 9 18 10 11 11 9 12 10 13
REMARK SMILES IDX 12 14 13 15 15 16 16 17 5 18 17 20 14 22
REMARK H PARENT 5 19 17 21 14 23
REMARK Flexibility Score: inf
ROOT
ATOM      1  C   UNL     1      16.905  25.014  17.540  1.00  0.00     0.044 C 
ATOM      2  C   UNL     1      17.661  24.455  18.709  1.00  0.00    -0.047 A 
ATOM      3  C   UNL     1      17.045  23.547  19.578  1.00  0.00     0.016 A 
ATOM      4  C   UNL     1      17.754  22.989  20.656  1.00  0.00     0.038 A 
ATOM      5  C   UNL     1      19.109  23.333  20.861  1.00  0.00     0.076 A 
ATOM      6  C   UNL     1      19.733  24.236  19.965  1.00  0.00     0.127 A 
ATOM      7  C   UNL     1      19.007  24.781  18.899  1.00  0.00     0.050 A 
ATOM      8  C   UNL     1      19.849  22.736  22.008  1.00  0.00     0.201 C 
ATOM      9  O   UNL     1      21.056  23.045  22.202  1.00  0.00    -0.288 OA
ATOM     10  C   UNL     1      19.175  21.779  22.930  1.00  0.00     0.076 A 
ATOM     11  C   UNL     1      17.820  21.444  22.708  1.00  0.00     0.041 A 
ATOM     12  C   UNL     1      17.082  22.039  21.571  1.00  0.00     0.194 C 
ATOM     13  O   UNL     1      15.871  21.735  21.382  1.00  0.00    -0.289 OA
ATOM     14  C   UNL     1      17.173  20.541  23.572  1.00  0.00     0.059 A 
ATOM     15  C   UNL     1      17.858  19.972  24.648  1.00  0.00     0.120 A 
ATOM     16  C   UNL     1      19.194  20.300  24.871  1.00  0.00     0.093 A 
ATOM     17  C   UNL     1      19.859  21.196  24.025  1.00  0.00     0.131 A 
ENDROOT
BRANCH   6  18
ATOM     18  O   UNL     1      21.072  24.594  20.127  1.00  0.00    -0.507 OA
ATOM     19  H   UNL     1      21.513  25.291  19.539  1.00  0.00     0.293 HD
ENDBRANCH   6  18
BRANCH  17  20
ATOM     20  O   UNL     1      21.197  21.501  24.277  1.00  0.00    -0.507 OA
ATOM     21  H   UNL     1      21.814  21.842  23.550  1.00  0.00     0.293 HD
ENDBRANCH  17  20
BRANCH  15  22
ATOM     22  O   UNL     1      17.218  19.078  25.505  1.00  0.00    -0.508 OA
ATOM     23  H   UNL     1      17.706  18.645  26.280  1.00  0.00     0.293 HD
ENDBRANCH  15  22
TORSDOF 3
ENDMDL
