MODEL 1
REMARK VINA RESULT:    -3.956      0.000      0.000
REMARK INTER + INTRA:          -4.954
REMARK INTER:                  -4.881
REMARK INTRA:                  -0.073
REMARK UNBOUND:                -0.073
REMARK SMILES CCCCCC(=O)[O-]
REMARK SMILES IDX 4 1 5 2 6 3 7 4 8 5 3 6 2 7 1 8
REMARK H PARENT
REMARK Flexibility Score: inf
ROOT
ATOM      1  C   UNL     1      24.888   3.922  13.689  1.00  0.00     0.006 C 
ENDROOT
BRANCH   1   2
ATOM      2  C   UNL     1      25.812   2.704  13.595  1.00  0.00     0.053 C 
BRANCH   2   3
ATOM      3  C   UNL     1      26.149   2.411  12.168  1.00  0.00     0.041 C 
ATOM      4  O   UNL     1      26.922   3.173  11.529  1.00  0.00    -0.550 OA
ATOM      5  O   UNL     1      25.572   1.323  11.527  1.00  0.00    -0.550 OA
ENDBRANCH   2   3
ENDBRANCH   1   2
BRANCH   1   6
ATOM      6  C   UNL     1      24.021   3.858  14.955  1.00  0.00     0.000 C 
BRANCH   6   7
ATOM      7  C   UNL     1      23.243   5.159  15.205  1.00  0.00    -0.003 C 
ATOM      8  C   UNL     1      22.901   5.900  13.913  1.00  0.00     0.004 C 
ENDBRANCH   6   7
ENDBRANCH   1   6
TORSDOF 4
ENDMDL
MODEL 2
REMARK VINA RESULT:    -3.669      1.150      1.456
REMARK INTER + INTRA:          -4.601
REMARK INTER:                  -4.508
REMARK INTRA:                  -0.093
REMARK UNBOUND:                -0.073
REMARK SMILES CCCCCC(=O)[O-]
REMARK SMILES IDX 4 1 5 2 6 3 7 4 8 5 3 6 2 7 1 8
REMARK H PARENT
REMARK Flexibility Score: inf
ROOT
ATOM      1  C   UNL     1      25.268   4.115  13.853  1.00  0.00     0.006 C 
ENDROOT
BRANCH   1   2
ATOM      2  C   UNL     1      25.544   2.825  13.074  1.00  0.00     0.053 C 
BRANCH   2   3
ATOM      3  C   UNL     1      27.017   2.616  12.910  1.00  0.00     0.041 C 
ATOM      4  O   UNL     1      27.669   1.986  13.784  1.00  0.00    -0.550 OA
ATOM      5  O   UNL     1      27.678   3.160  11.817  1.00  0.00    -0.550 OA
ENDBRANCH   2   3
ENDBRANCH   1   2
BRANCH   1   6
ATOM      6  C   UNL     1      24.072   3.938  14.800  1.00  0.00     0.000 C 
BRANCH   6   7
ATOM      7  C   UNL     1      23.306   5.249  15.033  1.00  0.00    -0.003 C 
ATOM      8  C   UNL     1      22.867   5.918  13.731  1.00  0.00     0.004 C 
ENDBRANCH   6   7
ENDBRANCH   1   6
TORSDOF 4
ENDMDL
MODEL 3
REMARK VINA RESULT:    -3.624      5.873      6.657
REMARK INTER + INTRA:          -4.545
REMARK INTER:                  -4.446
REMARK INTRA:                  -0.098
REMARK UNBOUND:                -0.073
REMARK SMILES CCCCCC(=O)[O-]
REMARK SMILES IDX 4 1 5 2 6 3 7 4 8 5 3 6 2 7 1 8
REMARK H PARENT
REMARK Flexibility Score: inf
ROOT
ATOM      1  C   UNL     1      25.790   4.357   6.143  1.00  0.00     0.006 C 
ENDROOT
BRANCH   1   2
ATOM      2  C   UNL     1      25.561   3.724   7.520  1.00  0.00     0.053 C 
BRANCH   2   3
ATOM      3  C   UNL     1      26.665   2.769   7.848  1.00  0.00     0.041 C 
ATOM      4  O   UNL     1      26.803   1.708   7.183  1.00  0.00    -0.550 OA
ATOM      5  O   UNL     1      27.511   3.025   8.917  1.00  0.00    -0.550 OA
ENDBRANCH   2   3
ENDBRANCH   1   2
BRANCH   1   6
ATOM      6  C   UNL     1      24.616   5.270   5.758  1.00  0.00     0.000 C 
BRANCH   6   7
ATOM      7  C   UNL     1      23.341   4.962   6.558  1.00  0.00    -0.003 C 
ATOM      8  C   UNL     1      22.830   6.168   7.344  1.00  0.00     0.004 C 
ENDBRANCH   6   7
ENDBRANCH   1   6
TORSDOF 4
ENDMDL
MODEL 4
REMARK VINA RESULT:    -3.544      1.715      2.681
REMARK INTER + INTRA:          -4.446
REMARK INTER:                  -4.218
REMARK INTRA:                  -0.228
REMARK UNBOUND:                -0.073
REMARK SMILES CCCCCC(=O)[O-]
REMARK SMILES IDX 4 1 5 2 6 3 7 4 8 5 3 6 2 7 1 8
REMARK H PARENT
REMARK Flexibility Score: inf
ROOT
ATOM      1  C   UNL     1      23.287   5.400  15.027  1.00  0.00     0.006 C 
ENDROOT
BRANCH   1   2
ATOM      2  C   UNL     1      23.991   4.046  14.891  1.00  0.00     0.053 C 
BRANCH   2   3
ATOM      3  C   UNL     1      25.111   4.134  13.904  1.00  0.00     0.041 C 
ATOM      4  O   UNL     1      25.988   5.030  14.019  1.00  0.00    -0.550 OA
ATOM      5  O   UNL     1      25.161   3.256  12.829  1.00  0.00    -0.550 OA
ENDBRANCH   2   3
ENDBRANCH   1   2
BRANCH   1   6
ATOM      6  C   UNL     1      22.681   5.840  13.686  1.00  0.00     0.000 C 
BRANCH   6   7
ATOM      7  C   UNL     1      22.964   7.316  13.367  1.00  0.00    -0.003 C 
ATOM      8  C   UNL     1      23.723   8.028  14.486  1.00  0.00     0.004 C 
ENDBRANCH   6   7
ENDBRANCH   1   6
TORSDOF 4
ENDMDL
MODEL 5
REMARK VINA RESULT:    -3.528      3.390      4.783
REMARK INTER + INTRA:          -4.426
REMARK INTER:                  -4.295
REMARK INTRA:                  -0.131
REMARK UNBOUND:                -0.073
REMARK SMILES CCCCCC(=O)[O-]
REMARK SMILES IDX 4 1 5 2 6 3 7 4 8 5 3 6 2 7 1 8
REMARK H PARENT
REMARK Flexibility Score: inf
ROOT
ATOM      1  C   UNL     1      23.380   4.696  15.283  1.00  0.00     0.006 C 
ENDROOT
BRANCH   1   2
ATOM      2  C   UNL     1      23.063   5.663  14.137  1.00  0.00     0.053 C 
BRANCH   2   3
ATOM      3  C   UNL     1      23.335   7.074  14.551  1.00  0.00     0.041 C 
ATOM      4  O   UNL     1      23.762   7.910  13.711  1.00  0.00    -0.550 OA
ATOM      5  O   UNL     1      23.164   7.455  15.875  1.00  0.00    -0.550 OA
ENDBRANCH   2   3
ENDBRANCH   1   2
BRANCH   1   6
ATOM      6  C   UNL     1      24.252   3.531  14.792  1.00  0.00     0.000 C 
BRANCH   6   7
ATOM      7  C   UNL     1      25.248   3.957  13.703  1.00  0.00    -0.003 C 
ATOM      8  C   UNL     1      25.618   2.814  12.759  1.00  0.00     0.004 C 
ENDBRANCH   6   7
ENDBRANCH   1   6
TORSDOF 4
ENDMDL
MODEL 6
REMARK VINA RESULT:    -3.496      7.111      8.234
REMARK INTER + INTRA:          -4.387
REMARK INTER:                  -4.265
REMARK INTRA:                  -0.121
REMARK UNBOUND:                -0.073
REMARK SMILES CCCCCC(=O)[O-]
REMARK SMILES IDX 4 1 5 2 6 3 7 4 8 5 3 6 2 7 1 8
REMARK H PARENT
REMARK Flexibility Score: inf
ROOT
ATOM      1  C   UNL     1      24.302   5.533   5.598  1.00  0.00     0.006 C 
ENDROOT
BRANCH   1   2
ATOM      2  C   UNL     1      23.326   5.442   6.775  1.00  0.00     0.053 C 
BRANCH   2   3
ATOM      3  C   UNL     1      21.924   5.271   6.283  1.00  0.00     0.041 C 
ATOM      4  O   UNL     1      21.591   5.715   5.152  1.00  0.00    -0.550 OA
ATOM      5  O   UNL     1      20.972   4.664   7.091  1.00  0.00    -0.550 OA
ENDBRANCH   2   3
ENDBRANCH   1   2
BRANCH   1   6
ATOM      6  C   UNL     1      25.557   4.689   5.859  1.00  0.00     0.000 C 
BRANCH   6   7
ATOM      7  C   UNL     1      25.434   3.824   7.123  1.00  0.00    -0.003 C 
ATOM      8  C   UNL     1      26.521   2.753   7.215  1.00  0.00     0.004 C 
ENDBRANCH   6   7
ENDBRANCH   1   6
TORSDOF 4
ENDMDL
MODEL 7
REMARK VINA RESULT:    -3.418      2.165      3.237
REMARK INTER + INTRA:          -4.291
REMARK INTER:                  -4.115
REMARK INTRA:                  -0.175
REMARK UNBOUND:                -0.073
REMARK SMILES CCCCCC(=O)[O-]
REMARK SMILES IDX 4 1 5 2 6 3 7 4 8 5 3 6 2 7 1 8
REMARK H PARENT
REMARK Flexibility Score: inf
ROOT
ATOM      1  C   UNL     1      22.938   5.758  14.089  1.00  0.00     0.006 C 
ENDROOT
BRANCH   1   2
ATOM      2  C   UNL     1      23.758   4.703  14.839  1.00  0.00     0.053 C 
BRANCH   2   3
ATOM      3  C   UNL     1      24.937   4.277  14.023  1.00  0.00     0.041 C 
ATOM      4  O   UNL     1      24.914   3.185  13.397  1.00  0.00    -0.550 OA
ATOM      5  O   UNL     1      26.082   5.063  13.993  1.00  0.00    -0.550 OA
ENDBRANCH   2   3
ENDBRANCH   1   2
BRANCH   1   6
ATOM      6  C   UNL     1      23.314   7.174  14.549  1.00  0.00     0.000 C 
BRANCH   6   7
ATOM      7  C   UNL     1      23.801   7.211  16.005  1.00  0.00    -0.003 C 
ATOM      8  C   UNL     1      22.914   8.071  16.904  1.00  0.00     0.004 C 
ENDBRANCH   6   7
ENDBRANCH   1   6
TORSDOF 4
ENDMDL
MODEL 8
REMARK VINA RESULT:    -3.382     10.712     11.510
REMARK INTER + INTRA:          -4.246
REMARK INTER:                  -4.039
REMARK INTRA:                  -0.208
REMARK UNBOUND:                -0.073
REMARK SMILES CCCCCC(=O)[O-]
REMARK SMILES IDX 4 1 5 2 6 3 7 4 8 5 3 6 2 7 1 8
REMARK H PARENT
REMARK Flexibility Score: inf
ROOT
ATOM      1  C   UNL     1      18.258  10.201   9.803  1.00  0.00     0.006 C 
ENDROOT
BRANCH   1   2
ATOM      2  C   UNL     1      16.857   9.583   9.770  1.00  0.00     0.053 C 
BRANCH   2   3
ATOM      3  C   UNL     1      15.841  10.609   9.377  1.00  0.00     0.041 C 
ATOM      4  O   UNL     1      15.491  11.501  10.195  1.00  0.00    -0.550 OA
ATOM      5  O   UNL     1      15.243  10.552   8.126  1.00  0.00    -0.550 OA
ENDBRANCH   2   3
ENDBRANCH   1   2
BRANCH   1   6
ATOM      6  C   UNL     1      18.736  10.399  11.249  1.00  0.00     0.000 C 
BRANCH   6   7
ATOM      7  C   UNL     1      19.441  11.749  11.458  1.00  0.00    -0.003 C 
ATOM      8  C   UNL     1      18.730  12.902  10.752  1.00  0.00     0.004 C 
ENDBRANCH   6   7
ENDBRANCH   1   6
TORSDOF 4
ENDMDL
MODEL 9
REMARK VINA RESULT:    -3.381     10.887     11.692
REMARK INTER + INTRA:          -4.245
REMARK INTER:                  -4.054
REMARK INTRA:                  -0.192
REMARK UNBOUND:                -0.073
REMARK SMILES CCCCCC(=O)[O-]
REMARK SMILES IDX 4 1 5 2 6 3 7 4 8 5 3 6 2 7 1 8
REMARK H PARENT
REMARK Flexibility Score: inf
ROOT
ATOM      1  C   UNL     1      18.592  10.721  10.975  1.00  0.00     0.006 C 
ENDROOT
BRANCH   1   2
ATOM      2  C   UNL     1      19.228  12.104  10.804  1.00  0.00     0.053 C 
BRANCH   2   3
ATOM      3  C   UNL     1      18.297  13.172  11.282  1.00  0.00     0.041 C 
ATOM      4  O   UNL     1      17.279  13.476  10.605  1.00  0.00    -0.550 OA
ATOM      5  O   UNL     1      18.577  13.868  12.451  1.00  0.00    -0.550 OA
ENDBRANCH   2   3
ENDBRANCH   1   2
BRANCH   1   6
ATOM      6  C   UNL     1      18.320  10.070   9.611  1.00  0.00     0.000 C 
BRANCH   6   7
ATOM      7  C   UNL     1      16.928   9.423   9.533  1.00  0.00    -0.003 C 
ATOM      8  C   UNL     1      15.812  10.366   9.983  1.00  0.00     0.004 C 
ENDBRANCH   6   7
ENDBRANCH   1   6
TORSDOF 4
ENDMDL
