MODEL 1
REMARK VINA RESULT:    -5.380      0.000      0.000
REMARK INTER + INTRA:         -14.908
REMARK INTER:                 -13.557
REMARK INTRA:                  -1.351
REMARK UNBOUND:                -1.351
REMARK SMILES CCCCCCCCCCCCCCCCCCCCCCCCCCCC(=O)[O-]
REMARK SMILES IDX 15 1 16 2 17 3 18 4 19 5 20 6 21 7 22 8 23 9 24 10 25 11
REMARK SMILES IDX 26 12 27 13 28 14 29 15 30 16 14 17 13 18 12 19 11 20 10 21
REMARK SMILES IDX 9 22 8 23 7 24 6 25 5 26 4 27 3 28 2 29 1 30
REMARK H PARENT
REMARK Flexibility Score: inf
ROOT
ATOM      1  C   UNL     1      56.162 143.311 -23.829  1.00  0.00     0.000 C 
ENDROOT
BRANCH   1   2
ATOM      2  C   UNL     1      55.978 141.795 -23.623  1.00  0.00     0.000 C 
BRANCH   2   3
ATOM      3  C   UNL     1      57.046 141.150 -22.711  1.00  0.00     0.000 C 
BRANCH   3   4
ATOM      4  C   UNL     1      57.866 142.204 -21.953  1.00  0.00     0.000 C 
BRANCH   4   5
ATOM      5  C   UNL     1      59.107 141.591 -21.298  1.00  0.00     0.000 C 
BRANCH   5   6
ATOM      6  C   UNL     1      59.780 142.606 -20.363  1.00  0.00     0.000 C 
BRANCH   6   7
ATOM      7  C   UNL     1      58.824 143.152 -19.290  1.00  0.00     0.000 C 
BRANCH   7   8
ATOM      8  C   UNL     1      59.533 144.098 -18.303  1.00  0.00     0.000 C 
BRANCH   8   9
ATOM      9  C   UNL     1      59.553 145.550 -18.807  1.00  0.00     0.000 C 
BRANCH   9  10
ATOM     10  C   UNL     1      60.673 146.376 -18.148  1.00  0.00     0.000 C 
BRANCH  10  11
ATOM     11  C   UNL     1      61.985 146.319 -18.947  1.00  0.00     0.000 C 
BRANCH  11  12
ATOM     12  C   UNL     1      62.332 147.678 -19.579  1.00  0.00     0.006 C 
BRANCH  12  13
ATOM     13  C   UNL     1      62.077 147.699 -21.093  1.00  0.00     0.053 C 
BRANCH  13  14
ATOM     14  C   UNL     1      62.133 149.088 -21.652  1.00  0.00     0.041 C 
ATOM     15  O   UNL     1      63.177 149.781 -21.532  1.00  0.00    -0.550 OA
ATOM     16  O   UNL     1      61.024 149.622 -22.300  1.00  0.00    -0.550 OA
ENDBRANCH  13  14
ENDBRANCH  12  13
ENDBRANCH  11  12
ENDBRANCH  10  11
ENDBRANCH   9  10
ENDBRANCH   8   9
ENDBRANCH   7   8
ENDBRANCH   6   7
ENDBRANCH   5   6
ENDBRANCH   4   5
ENDBRANCH   3   4
ENDBRANCH   2   3
ENDBRANCH   1   2
BRANCH   1  17
ATOM     17  C   UNL     1      55.035 144.002 -24.614  1.00  0.00     0.000 C 
BRANCH  17  18
ATOM     18  C   UNL     1      55.178 143.850 -26.137  1.00  0.00     0.000 C 
BRANCH  18  19
ATOM     19  C   UNL     1      56.662 143.864 -26.540  1.00  0.00     0.000 C 
BRANCH  19  20
ATOM     20  C   UNL     1      56.904 144.465 -27.940  1.00  0.00     0.000 C 
BRANCH  20  21
ATOM     21  C   UNL     1      56.150 143.743 -29.075  1.00  0.00     0.000 C 
BRANCH  21  22
ATOM     22  C   UNL     1      56.848 143.766 -30.449  1.00  0.00    -0.000 C 
BRANCH  22  23
ATOM     23  C   UNL     1      58.345 144.140 -30.416  1.00  0.00    -0.000 C 
BRANCH  23  24
ATOM     24  C   UNL     1      59.189 143.541 -31.560  1.00  0.00    -0.000 C 
BRANCH  24  25
ATOM     25  C   UNL     1      59.531 144.522 -32.703  1.00  0.00    -0.000 C 
BRANCH  25  26
ATOM     26  C   UNL     1      60.501 143.964 -33.764  1.00  0.00    -0.000 C 
BRANCH  26  27
ATOM     27  C   UNL     1      60.578 144.784 -35.066  1.00  0.00    -0.000 C 
BRANCH  27  28
ATOM     28  C   UNL     1      59.868 146.152 -35.020  1.00  0.00    -0.000 C 
BRANCH  28  29
ATOM     29  C   UNL     1      60.806 147.365 -34.903  1.00  0.00    -0.003 C 
ATOM     30  C   UNL     1      60.207 148.513 -34.094  1.00  0.00     0.004 C 
ENDBRANCH  28  29
ENDBRANCH  27  28
ENDBRANCH  26  27
ENDBRANCH  25  26
ENDBRANCH  24  25
ENDBRANCH  23  24
ENDBRANCH  22  23
ENDBRANCH  21  22
ENDBRANCH  20  21
ENDBRANCH  19  20
ENDBRANCH  18  19
ENDBRANCH  17  18
ENDBRANCH   1  17
TORSDOF 26
ENDMDL
MODEL 2
REMARK VINA RESULT:    -5.352      3.543     11.679
REMARK INTER + INTRA:         -14.839
REMARK INTER:                 -12.531
REMARK INTRA:                  -2.307
REMARK UNBOUND:                -1.351
REMARK SMILES CCCCCCCCCCCCCCCCCCCCCCCCCCCC(=O)[O-]
REMARK SMILES IDX 15 1 16 2 17 3 18 4 19 5 20 6 21 7 22 8 23 9 24 10 25 11
REMARK SMILES IDX 26 12 27 13 28 14 29 15 30 16 14 17 13 18 12 19 11 20 10 21
REMARK SMILES IDX 9 22 8 23 7 24 6 25 5 26 4 27 3 28 2 29 1 30
REMARK H PARENT
REMARK Flexibility Score: inf
ROOT
ATOM      1  C   UNL     1      55.419 143.777 -24.219  1.00  0.00     0.000 C 
ENDROOT
BRANCH   1   2
ATOM      2  C   UNL     1      55.447 144.120 -25.721  1.00  0.00     0.000 C 
BRANCH   2   3
ATOM      3  C   UNL     1      56.852 144.039 -26.358  1.00  0.00     0.000 C 
BRANCH   3   4
ATOM      4  C   UNL     1      56.855 144.546 -27.807  1.00  0.00     0.000 C 
BRANCH   4   5
ATOM      5  C   UNL     1      56.314 143.491 -28.777  1.00  0.00     0.000 C 
BRANCH   5   6
ATOM      6  C   UNL     1      56.826 143.754 -30.200  1.00  0.00     0.000 C 
BRANCH   6   7
ATOM      7  C   UNL     1      58.310 144.153 -30.235  1.00  0.00     0.000 C 
BRANCH   7   8
ATOM      8  C   UNL     1      59.092 143.397 -31.325  1.00  0.00     0.000 C 
BRANCH   8   9
ATOM      9  C   UNL     1      59.560 144.331 -32.452  1.00  0.00     0.000 C 
BRANCH   9  10
ATOM     10  C   UNL     1      60.148 143.552 -33.644  1.00  0.00     0.000 C 
BRANCH  10  11
ATOM     11  C   UNL     1      61.043 144.434 -34.530  1.00  0.00     0.000 C 
BRANCH  11  12
ATOM     12  C   UNL     1      61.444 145.740 -33.821  1.00  0.00     0.006 C 
BRANCH  12  13
ATOM     13  C   UNL     1      61.382 146.955 -34.759  1.00  0.00     0.053 C 
BRANCH  13  14
ATOM     14  C   UNL     1      60.236 147.860 -34.428  1.00  0.00     0.041 C 
ATOM     15  O   UNL     1      60.418 149.100 -34.307  1.00  0.00    -0.550 OA
ATOM     16  O   UNL     1      58.962 147.332 -34.244  1.00  0.00    -0.550 OA
ENDBRANCH  13  14
ENDBRANCH  12  13
ENDBRANCH  11  12
ENDBRANCH  10  11
ENDBRANCH   9  10
ENDBRANCH   8   9
ENDBRANCH   7   8
ENDBRANCH   6   7
ENDBRANCH   5   6
ENDBRANCH   4   5
ENDBRANCH   3   4
ENDBRANCH   2   3
ENDBRANCH   1   2
BRANCH   1  17
ATOM     17  C   UNL     1      54.564 142.554 -23.847  1.00  0.00     0.000 C 
BRANCH  17  18
ATOM     18  C   UNL     1      55.365 141.241 -23.824  1.00  0.00     0.000 C 
BRANCH  18  19
ATOM     19  C   UNL     1      56.844 141.521 -23.511  1.00  0.00     0.000 C 
BRANCH  19  20
ATOM     20  C   UNL     1      57.249 141.116 -22.079  1.00  0.00     0.000 C 
BRANCH  20  21
ATOM     21  C   UNL     1      58.304 142.040 -21.437  1.00  0.00     0.000 C 
BRANCH  21  22
ATOM     22  C   UNL     1      58.386 143.459 -22.033  1.00  0.00    -0.000 C 
BRANCH  22  23
ATOM     23  C   UNL     1      59.747 143.828 -22.658  1.00  0.00    -0.000 C 
BRANCH  23  24
ATOM     24  C   UNL     1      60.586 144.831 -21.840  1.00  0.00    -0.000 C 
BRANCH  24  25
ATOM     25  C   UNL     1      61.118 144.293 -20.493  1.00  0.00    -0.000 C 
BRANCH  25  26
ATOM     26  C   UNL     1      60.889 145.227 -19.289  1.00  0.00    -0.000 C 
BRANCH  26  27
ATOM     27  C   UNL     1      59.424 145.332 -18.820  1.00  0.00    -0.000 C 
BRANCH  27  28
ATOM     28  C   UNL     1      58.846 144.049 -18.189  1.00  0.00    -0.000 C 
BRANCH  28  29
ATOM     29  C   UNL     1      59.809 143.298 -17.254  1.00  0.00    -0.003 C 
ATOM     30  C   UNL     1      59.129 142.760 -15.998  1.00  0.00     0.004 C 
ENDBRANCH  28  29
ENDBRANCH  27  28
ENDBRANCH  26  27
ENDBRANCH  25  26
ENDBRANCH  24  25
ENDBRANCH  23  24
ENDBRANCH  22  23
ENDBRANCH  21  22
ENDBRANCH  20  21
ENDBRANCH  19  20
ENDBRANCH  18  19
ENDBRANCH  17  18
ENDBRANCH   1  17
TORSDOF 26
ENDMDL
MODEL 3
REMARK VINA RESULT:    -5.314      1.653      2.617
REMARK INTER + INTRA:         -14.741
REMARK INTER:                 -12.644
REMARK INTRA:                  -2.097
REMARK UNBOUND:                -1.351
REMARK SMILES CCCCCCCCCCCCCCCCCCCCCCCCCCCC(=O)[O-]
REMARK SMILES IDX 15 1 16 2 17 3 18 4 19 5 20 6 21 7 22 8 23 9 24 10 25 11
REMARK SMILES IDX 26 12 27 13 28 14 29 15 30 16 14 17 13 18 12 19 11 20 10 21
REMARK SMILES IDX 9 22 8 23 7 24 6 25 5 26 4 27 3 28 2 29 1 30
REMARK H PARENT
REMARK Flexibility Score: inf
ROOT
ATOM      1  C   UNL     1      55.589 143.338 -24.036  1.00  0.00     0.000 C 
ENDROOT
BRANCH   1   2
ATOM      2  C   UNL     1      54.722 142.095 -23.761  1.00  0.00     0.000 C 
BRANCH   2   3
ATOM      3  C   UNL     1      54.954 140.933 -24.752  1.00  0.00     0.000 C 
BRANCH   3   4
ATOM      4  C   UNL     1      56.449 140.657 -24.972  1.00  0.00     0.000 C 
BRANCH   4   5
ATOM      5  C   UNL     1      57.078 139.956 -23.763  1.00  0.00     0.000 C 
BRANCH   5   6
ATOM      6  C   UNL     1      58.128 140.861 -23.103  1.00  0.00     0.000 C 
BRANCH   6   7
ATOM      7  C   UNL     1      58.115 140.768 -21.569  1.00  0.00     0.000 C 
BRANCH   7   8
ATOM      8  C   UNL     1      58.213 142.151 -20.899  1.00  0.00     0.000 C 
BRANCH   8   9
ATOM      9  C   UNL     1      58.528 143.262 -21.912  1.00  0.00     0.000 C 
BRANCH   9  10
ATOM     10  C   UNL     1      59.462 144.336 -21.323  1.00  0.00     0.000 C 
BRANCH  10  11
ATOM     11  C   UNL     1      59.277 144.498 -19.805  1.00  0.00     0.000 C 
BRANCH  11  12
ATOM     12  C   UNL     1      60.472 145.215 -19.155  1.00  0.00     0.006 C 
BRANCH  12  13
ATOM     13  C   UNL     1      60.034 146.224 -18.084  1.00  0.00     0.053 C 
BRANCH  13  14
ATOM     14  C   UNL     1      60.470 147.619 -18.415  1.00  0.00     0.041 C 
ATOM     15  O   UNL     1      59.815 148.608 -17.994  1.00  0.00    -0.550 OA
ATOM     16  O   UNL     1      61.601 147.826 -19.199  1.00  0.00    -0.550 OA
ENDBRANCH  13  14
ENDBRANCH  12  13
ENDBRANCH  11  12
ENDBRANCH  10  11
ENDBRANCH   9  10
ENDBRANCH   8   9
ENDBRANCH   7   8
ENDBRANCH   6   7
ENDBRANCH   5   6
ENDBRANCH   4   5
ENDBRANCH   3   4
ENDBRANCH   2   3
ENDBRANCH   1   2
BRANCH   1  17
ATOM     17  C   UNL     1      54.860 144.499 -24.733  1.00  0.00     0.000 C 
BRANCH  17  18
ATOM     18  C   UNL     1      54.891 144.399 -26.267  1.00  0.00     0.000 C 
BRANCH  18  19
ATOM     19  C   UNL     1      56.262 143.892 -26.743  1.00  0.00     0.000 C 
BRANCH  19  20
ATOM     20  C   UNL     1      56.684 144.477 -28.107  1.00  0.00     0.000 C 
BRANCH  20  21
ATOM     21  C   UNL     1      56.485 143.514 -29.295  1.00  0.00     0.000 C 
BRANCH  21  22
ATOM     22  C   UNL     1      57.233 143.899 -30.586  1.00  0.00    -0.000 C 
BRANCH  22  23
ATOM     23  C   UNL     1      58.770 143.789 -30.510  1.00  0.00    -0.000 C 
BRANCH  23  24
ATOM     24  C   UNL     1      59.456 143.364 -31.824  1.00  0.00    -0.000 C 
BRANCH  24  25
ATOM     25  C   UNL     1      59.578 144.477 -32.889  1.00  0.00    -0.000 C 
BRANCH  25  26
ATOM     26  C   UNL     1      60.390 144.088 -34.140  1.00  0.00    -0.000 C 
BRANCH  26  27
ATOM     27  C   UNL     1      61.468 145.108 -34.556  1.00  0.00    -0.000 C 
BRANCH  27  28
ATOM     28  C   UNL     1      61.538 146.377 -33.682  1.00  0.00    -0.000 C 
BRANCH  28  29
ATOM     29  C   UNL     1      60.698 147.560 -34.190  1.00  0.00    -0.003 C 
ATOM     30  C   UNL     1      59.802 148.167 -33.113  1.00  0.00     0.004 C 
ENDBRANCH  28  29
ENDBRANCH  27  28
ENDBRANCH  26  27
ENDBRANCH  25  26
ENDBRANCH  24  25
ENDBRANCH  23  24
ENDBRANCH  22  23
ENDBRANCH  21  22
ENDBRANCH  20  21
ENDBRANCH  19  20
ENDBRANCH  18  19
ENDBRANCH  17  18
ENDBRANCH   1  17
TORSDOF 26
ENDMDL
MODEL 4
REMARK VINA RESULT:    -5.292      5.704      8.005
REMARK INTER + INTRA:         -14.687
REMARK INTER:                 -12.079
REMARK INTRA:                  -2.608
REMARK UNBOUND:                -1.351
REMARK SMILES CCCCCCCCCCCCCCCCCCCCCCCCCCCC(=O)[O-]
REMARK SMILES IDX 15 1 16 2 17 3 18 4 19 5 20 6 21 7 22 8 23 9 24 10 25 11
REMARK SMILES IDX 26 12 27 13 28 14 29 15 30 16 14 17 13 18 12 19 11 20 10 21
REMARK SMILES IDX 9 22 8 23 7 24 6 25 5 26 4 27 3 28 2 29 1 30
REMARK H PARENT
REMARK Flexibility Score: inf
ROOT
ATOM      1  C   UNL     1      55.345 143.938 -24.552  1.00  0.00     0.000 C 
ENDROOT
BRANCH   1   2
ATOM      2  C   UNL     1      55.062 142.638 -23.776  1.00  0.00     0.000 C 
BRANCH   2   3
ATOM      3  C   UNL     1      56.322 141.975 -23.178  1.00  0.00     0.000 C 
BRANCH   3   4
ATOM      4  C   UNL     1      56.206 140.444 -23.148  1.00  0.00     0.000 C 
BRANCH   4   5
ATOM      5  C   UNL     1      56.286 139.843 -24.555  1.00  0.00     0.000 C 
BRANCH   5   6
ATOM      6  C   UNL     1      55.020 139.033 -24.867  1.00  0.00     0.000 C 
BRANCH   6   7
ATOM      7  C   UNL     1      54.338 139.473 -26.173  1.00  0.00     0.000 C 
BRANCH   7   8
ATOM      8  C   UNL     1      52.811 139.599 -26.019  1.00  0.00     0.000 C 
BRANCH   8   9
ATOM      9  C   UNL     1      52.315 139.027 -24.683  1.00  0.00     0.000 C 
BRANCH   9  10
ATOM     10  C   UNL     1      51.432 140.028 -23.915  1.00  0.00     0.000 C 
BRANCH  10  11
ATOM     11  C   UNL     1      49.968 139.566 -23.830  1.00  0.00     0.000 C 
BRANCH  11  12
ATOM     12  C   UNL     1      49.279 140.074 -22.552  1.00  0.00     0.006 C 
BRANCH  12  13
ATOM     13  C   UNL     1      50.192 140.987 -21.721  1.00  0.00     0.053 C 
BRANCH  13  14
ATOM     14  C   UNL     1      50.468 140.417 -20.363  1.00  0.00     0.041 C 
ATOM     15  O   UNL     1      51.096 139.332 -20.244  1.00  0.00    -0.550 OA
ATOM     16  O   UNL     1      50.024 141.083 -19.226  1.00  0.00    -0.550 OA
ENDBRANCH  13  14
ENDBRANCH  12  13
ENDBRANCH  11  12
ENDBRANCH  10  11
ENDBRANCH   9  10
ENDBRANCH   8   9
ENDBRANCH   7   8
ENDBRANCH   6   7
ENDBRANCH   5   6
ENDBRANCH   4   5
ENDBRANCH   3   4
ENDBRANCH   2   3
ENDBRANCH   1   2
BRANCH   1  17
ATOM     17  C   UNL     1      56.268 143.780 -25.772  1.00  0.00     0.000 C 
BRANCH  17  18
ATOM     18  C   UNL     1      55.718 142.804 -26.825  1.00  0.00     0.000 C 
BRANCH  18  19
ATOM     19  C   UNL     1      54.783 143.539 -27.799  1.00  0.00     0.000 C 
BRANCH  19  20
ATOM     20  C   UNL     1      55.533 144.228 -28.957  1.00  0.00     0.000 C 
BRANCH  20  21
ATOM     21  C   UNL     1      56.701 143.400 -29.532  1.00  0.00     0.000 C 
BRANCH  21  22
ATOM     22  C   UNL     1      57.981 144.198 -29.846  1.00  0.00    -0.000 C 
BRANCH  22  23
ATOM     23  C   UNL     1      58.842 143.630 -30.993  1.00  0.00    -0.000 C 
BRANCH  23  24
ATOM     24  C   UNL     1      58.974 144.550 -32.223  1.00  0.00    -0.000 C 
BRANCH  24  25
ATOM     25  C   UNL     1      60.050 144.124 -33.247  1.00  0.00    -0.000 C 
BRANCH  25  26
ATOM     26  C   UNL     1      60.017 144.899 -34.579  1.00  0.00    -0.000 C 
BRANCH  26  27
ATOM     27  C   UNL     1      61.336 145.603 -34.952  1.00  0.00    -0.000 C 
BRANCH  27  28
ATOM     28  C   UNL     1      61.413 147.094 -34.567  1.00  0.00    -0.000 C 
BRANCH  28  29
ATOM     29  C   UNL     1      60.056 147.761 -34.286  1.00  0.00    -0.003 C 
ATOM     30  C   UNL     1      59.861 148.131 -32.819  1.00  0.00     0.004 C 
ENDBRANCH  28  29
ENDBRANCH  27  28
ENDBRANCH  26  27
ENDBRANCH  25  26
ENDBRANCH  24  25
ENDBRANCH  23  24
ENDBRANCH  22  23
ENDBRANCH  21  22
ENDBRANCH  20  21
ENDBRANCH  19  20
ENDBRANCH  18  19
ENDBRANCH  17  18
ENDBRANCH   1  17
TORSDOF 26
ENDMDL
MODEL 5
REMARK VINA RESULT:    -5.267      3.387      4.440
REMARK INTER + INTRA:         -14.623
REMARK INTER:                 -12.906
REMARK INTRA:                  -1.717
REMARK UNBOUND:                -1.351
REMARK SMILES CCCCCCCCCCCCCCCCCCCCCCCCCCCC(=O)[O-]
REMARK SMILES IDX 15 1 16 2 17 3 18 4 19 5 20 6 21 7 22 8 23 9 24 10 25 11
REMARK SMILES IDX 26 12 27 13 28 14 29 15 30 16 14 17 13 18 12 19 11 20 10 21
REMARK SMILES IDX 9 22 8 23 7 24 6 25 5 26 4 27 3 28 2 29 1 30
REMARK H PARENT
REMARK Flexibility Score: inf
ROOT
ATOM      1  C   UNL     1      55.749 141.941 -24.833  1.00  0.00     0.000 C 
ENDROOT
BRANCH   1   2
ATOM      2  C   UNL     1      56.903 141.167 -24.168  1.00  0.00     0.000 C 
BRANCH   2   3
ATOM      3  C   UNL     1      56.829 141.130 -22.625  1.00  0.00     0.000 C 
BRANCH   3   4
ATOM      4  C   UNL     1      58.073 141.754 -21.976  1.00  0.00     0.000 C 
BRANCH   4   5
ATOM      5  C   UNL     1      58.105 143.274 -22.160  1.00  0.00     0.000 C 
BRANCH   5   6
ATOM      6  C   UNL     1      59.509 143.822 -21.870  1.00  0.00     0.000 C 
BRANCH   6   7
ATOM      7  C   UNL     1      60.279 142.975 -20.844  1.00  0.00     0.000 C 
BRANCH   7   8
ATOM      8  C   UNL     1      61.244 143.822 -19.994  1.00  0.00     0.000 C 
BRANCH   8   9
ATOM      9  C   UNL     1      60.497 144.790 -19.064  1.00  0.00     0.000 C 
BRANCH   9  10
ATOM     10  C   UNL     1      59.422 144.075 -18.226  1.00  0.00     0.000 C 
BRANCH  10  11
ATOM     11  C   UNL     1      59.989 143.509 -16.913  1.00  0.00     0.000 C 
BRANCH  11  12
ATOM     12  C   UNL     1      58.875 143.039 -15.962  1.00  0.00     0.006 C 
BRANCH  12  13
ATOM     13  C   UNL     1      57.885 142.087 -16.650  1.00  0.00     0.053 C 
BRANCH  13  14
ATOM     14  C   UNL     1      58.173 140.652 -16.330  1.00  0.00     0.041 C 
ATOM     15  O   UNL     1      57.240 139.809 -16.292  1.00  0.00    -0.550 OA
ATOM     16  O   UNL     1      59.478 140.247 -16.065  1.00  0.00    -0.550 OA
ENDBRANCH  13  14
ENDBRANCH  12  13
ENDBRANCH  11  12
ENDBRANCH  10  11
ENDBRANCH   9  10
ENDBRANCH   8   9
ENDBRANCH   7   8
ENDBRANCH   6   7
ENDBRANCH   5   6
ENDBRANCH   4   5
ENDBRANCH   3   4
ENDBRANCH   2   3
ENDBRANCH   1   2
BRANCH   1  17
ATOM     17  C   UNL     1      55.923 143.469 -24.865  1.00  0.00     0.000 C 
BRANCH  17  18
ATOM     18  C   UNL     1      55.388 144.112 -26.155  1.00  0.00     0.000 C 
BRANCH  18  19
ATOM     19  C   UNL     1      56.403 143.944 -27.299  1.00  0.00     0.000 C 
BRANCH  19  20
ATOM     20  C   UNL     1      55.783 144.157 -28.695  1.00  0.00     0.000 C 
BRANCH  20  21
ATOM     21  C   UNL     1      56.651 143.631 -29.856  1.00  0.00     0.000 C 
BRANCH  21  22
ATOM     22  C   UNL     1      58.062 144.244 -29.954  1.00  0.00    -0.000 C 
BRANCH  22  23
ATOM     23  C   UNL     1      58.979 143.609 -31.019  1.00  0.00    -0.000 C 
BRANCH  23  24
ATOM     24  C   UNL     1      59.240 144.489 -32.259  1.00  0.00    -0.000 C 
BRANCH  24  25
ATOM     25  C   UNL     1      60.009 143.794 -33.404  1.00  0.00    -0.000 C 
BRANCH  25  26
ATOM     26  C   UNL     1      60.579 144.748 -34.472  1.00  0.00    -0.000 C 
BRANCH  26  27
ATOM     27  C   UNL     1      61.442 145.899 -33.918  1.00  0.00    -0.000 C 
BRANCH  27  28
ATOM     28  C   UNL     1      61.398 147.203 -34.741  1.00  0.00    -0.000 C 
BRANCH  28  29
ATOM     29  C   UNL     1      60.298 148.194 -34.325  1.00  0.00    -0.003 C 
ATOM     30  C   UNL     1      59.888 148.057 -32.861  1.00  0.00     0.004 C 
ENDBRANCH  28  29
ENDBRANCH  27  28
ENDBRANCH  26  27
ENDBRANCH  25  26
ENDBRANCH  24  25
ENDBRANCH  23  24
ENDBRANCH  22  23
ENDBRANCH  21  22
ENDBRANCH  20  21
ENDBRANCH  19  20
ENDBRANCH  18  19
ENDBRANCH  17  18
ENDBRANCH   1  17
TORSDOF 26
ENDMDL
MODEL 6
REMARK VINA RESULT:    -5.258      2.303      3.157
REMARK INTER + INTRA:         -14.601
REMARK INTER:                 -12.272
REMARK INTRA:                  -2.329
REMARK UNBOUND:                -1.351
REMARK SMILES CCCCCCCCCCCCCCCCCCCCCCCCCCCC(=O)[O-]
REMARK SMILES IDX 15 1 16 2 17 3 18 4 19 5 20 6 21 7 22 8 23 9 24 10 25 11
REMARK SMILES IDX 26 12 27 13 28 14 29 15 30 16 14 17 13 18 12 19 11 20 10 21
REMARK SMILES IDX 9 22 8 23 7 24 6 25 5 26 4 27 3 28 2 29 1 30
REMARK H PARENT
REMARK Flexibility Score: inf
ROOT
ATOM      1  C   UNL     1      56.801 142.988 -23.712  1.00  0.00     0.000 C 
ENDROOT
BRANCH   1   2
ATOM      2  C   UNL     1      57.868 142.514 -22.706  1.00  0.00     0.000 C 
BRANCH   2   3
ATOM      3  C   UNL     1      57.489 141.221 -21.951  1.00  0.00     0.000 C 
BRANCH   3   4
ATOM      4  C   UNL     1      58.291 141.061 -20.651  1.00  0.00     0.000 C 
BRANCH   4   5
ATOM      5  C   UNL     1      59.718 141.599 -20.797  1.00  0.00     0.000 C 
BRANCH   5   6
ATOM      6  C   UNL     1      60.529 141.326 -19.522  1.00  0.00     0.000 C 
BRANCH   6   7
ATOM      7  C   UNL     1      59.724 140.567 -18.455  1.00  0.00     0.000 C 
BRANCH   7   8
ATOM      8  C   UNL     1      60.282 140.788 -17.037  1.00  0.00     0.000 C 
BRANCH   8   9
ATOM      9  C   UNL     1      59.169 141.073 -16.016  1.00  0.00     0.000 C 
BRANCH   9  10
ATOM     10  C   UNL     1      59.130 142.554 -15.599  1.00  0.00     0.000 C 
BRANCH  10  11
ATOM     11  C   UNL     1      60.446 143.283 -15.919  1.00  0.00     0.000 C 
BRANCH  11  12
ATOM     12  C   UNL     1      60.206 144.570 -16.728  1.00  0.00     0.006 C 
BRANCH  12  13
ATOM     13  C   UNL     1      59.269 144.342 -17.923  1.00  0.00     0.053 C 
BRANCH  13  14
ATOM     14  C   UNL     1      59.816 144.935 -19.185  1.00  0.00     0.041 C 
ATOM     15  O   UNL     1      59.057 145.545 -19.983  1.00  0.00    -0.550 OA
ATOM     16  O   UNL     1      61.168 144.805 -19.485  1.00  0.00    -0.550 OA
ENDBRANCH  13  14
ENDBRANCH  12  13
ENDBRANCH  11  12
ENDBRANCH  10  11
ENDBRANCH   9  10
ENDBRANCH   8   9
ENDBRANCH   7   8
ENDBRANCH   6   7
ENDBRANCH   5   6
ENDBRANCH   4   5
ENDBRANCH   3   4
ENDBRANCH   2   3
ENDBRANCH   1   2
BRANCH   1  17
ATOM     17  C   UNL     1      55.484 142.195 -23.686  1.00  0.00     0.000 C 
BRANCH  17  18
ATOM     18  C   UNL     1      55.103 141.610 -25.056  1.00  0.00     0.000 C 
BRANCH  18  19
ATOM     19  C   UNL     1      55.858 142.341 -26.179  1.00  0.00     0.000 C 
BRANCH  19  20
ATOM     20  C   UNL     1      54.941 142.780 -27.340  1.00  0.00     0.000 C 
BRANCH  20  21
ATOM     21  C   UNL     1      55.297 144.156 -27.938  1.00  0.00     0.000 C 
BRANCH  21  22
ATOM     22  C   UNL     1      56.765 144.324 -28.374  1.00  0.00    -0.000 C 
BRANCH  22  23
ATOM     23  C   UNL     1      57.118 143.702 -29.741  1.00  0.00    -0.000 C 
BRANCH  23  24
ATOM     24  C   UNL     1      58.525 144.049 -30.270  1.00  0.00    -0.000 C 
BRANCH  24  25
ATOM     25  C   UNL     1      58.609 144.300 -31.791  1.00  0.00    -0.000 C 
BRANCH  25  26
ATOM     26  C   UNL     1      59.739 143.537 -32.511  1.00  0.00    -0.000 C 
BRANCH  26  27
ATOM     27  C   UNL     1      60.218 144.179 -33.828  1.00  0.00    -0.000 C 
BRANCH  27  28
ATOM     28  C   UNL     1      59.641 145.579 -34.119  1.00  0.00    -0.000 C 
BRANCH  28  29
ATOM     29  C   UNL     1      60.605 146.746 -33.850  1.00  0.00    -0.003 C 
ATOM     30  C   UNL     1      60.209 147.585 -32.638  1.00  0.00     0.004 C 
ENDBRANCH  28  29
ENDBRANCH  27  28
ENDBRANCH  26  27
ENDBRANCH  25  26
ENDBRANCH  24  25
ENDBRANCH  23  24
ENDBRANCH  22  23
ENDBRANCH  21  22
ENDBRANCH  20  21
ENDBRANCH  19  20
ENDBRANCH  18  19
ENDBRANCH  17  18
ENDBRANCH   1  17
TORSDOF 26
ENDMDL
MODEL 7
REMARK VINA RESULT:    -5.250      1.763      2.174
REMARK INTER + INTRA:         -14.580
REMARK INTER:                 -12.843
REMARK INTRA:                  -1.737
REMARK UNBOUND:                -1.351
REMARK SMILES CCCCCCCCCCCCCCCCCCCCCCCCCCCC(=O)[O-]
REMARK SMILES IDX 15 1 16 2 17 3 18 4 19 5 20 6 21 7 22 8 23 9 24 10 25 11
REMARK SMILES IDX 26 12 27 13 28 14 29 15 30 16 14 17 13 18 12 19 11 20 10 21
REMARK SMILES IDX 9 22 8 23 7 24 6 25 5 26 4 27 3 28 2 29 1 30
REMARK H PARENT
REMARK Flexibility Score: inf
ROOT
ATOM      1  C   UNL     1      56.062 142.962 -24.022  1.00  0.00     0.000 C 
ENDROOT
BRANCH   1   2
ATOM      2  C   UNL     1      56.898 142.548 -22.797  1.00  0.00     0.000 C 
BRANCH   2   3
ATOM      3  C   UNL     1      58.372 143.008 -22.856  1.00  0.00     0.000 C 
BRANCH   3   4
ATOM      4  C   UNL     1      59.218 142.369 -21.746  1.00  0.00     0.000 C 
BRANCH   4   5
ATOM      5  C   UNL     1      58.368 142.008 -20.524  1.00  0.00     0.000 C 
BRANCH   5   6
ATOM      6  C   UNL     1      59.204 142.101 -19.240  1.00  0.00     0.000 C 
BRANCH   6   7
ATOM      7  C   UNL     1      58.464 142.815 -18.097  1.00  0.00     0.000 C 
BRANCH   7   8
ATOM      8  C   UNL     1      59.125 144.155 -17.722  1.00  0.00     0.000 C 
BRANCH   8   9
ATOM      9  C   UNL     1      60.362 143.960 -16.833  1.00  0.00     0.000 C 
BRANCH   9  10
ATOM     10  C   UNL     1      61.637 144.535 -17.479  1.00  0.00     0.000 C 
BRANCH  10  11
ATOM     11  C   UNL     1      61.337 145.747 -18.376  1.00  0.00     0.000 C 
BRANCH  11  12
ATOM     12  C   UNL     1      61.545 147.078 -17.632  1.00  0.00     0.006 C 
BRANCH  12  13
ATOM     13  C   UNL     1      60.253 147.586 -16.975  1.00  0.00     0.053 C 
BRANCH  13  14
ATOM     14  C   UNL     1      59.692 148.778 -17.690  1.00  0.00     0.041 C 
ATOM     15  O   UNL     1      60.104 149.082 -18.840  1.00  0.00    -0.550 OA
ATOM     16  O   UNL     1      58.718 149.560 -17.079  1.00  0.00    -0.550 OA
ENDBRANCH  13  14
ENDBRANCH  12  13
ENDBRANCH  11  12
ENDBRANCH  10  11
ENDBRANCH   9  10
ENDBRANCH   8   9
ENDBRANCH   7   8
ENDBRANCH   6   7
ENDBRANCH   5   6
ENDBRANCH   4   5
ENDBRANCH   3   4
ENDBRANCH   2   3
ENDBRANCH   1   2
BRANCH   1  17
ATOM     17  C   UNL     1      55.802 141.841 -25.042  1.00  0.00     0.000 C 
BRANCH  17  18
ATOM     18  C   UNL     1      55.653 142.357 -26.483  1.00  0.00     0.000 C 
BRANCH  18  19
ATOM     19  C   UNL     1      55.683 143.894 -26.508  1.00  0.00     0.000 C 
BRANCH  19  20
ATOM     20  C   UNL     1      56.205 144.468 -27.841  1.00  0.00     0.000 C 
BRANCH  20  21
ATOM     21  C   UNL     1      55.689 143.727 -29.091  1.00  0.00     0.000 C 
BRANCH  21  22
ATOM     22  C   UNL     1      56.656 143.708 -30.291  1.00  0.00    -0.000 C 
BRANCH  22  23
ATOM     23  C   UNL     1      58.116 144.083 -29.961  1.00  0.00    -0.000 C 
BRANCH  23  24
ATOM     24  C   UNL     1      59.154 143.636 -31.009  1.00  0.00    -0.000 C 
BRANCH  24  25
ATOM     25  C   UNL     1      59.045 144.338 -32.381  1.00  0.00    -0.000 C 
BRANCH  25  26
ATOM     26  C   UNL     1      59.988 143.786 -33.467  1.00  0.00    -0.000 C 
BRANCH  26  27
ATOM     27  C   UNL     1      60.522 144.839 -34.458  1.00  0.00    -0.000 C 
BRANCH  27  28
ATOM     28  C   UNL     1      61.459 145.898 -33.843  1.00  0.00    -0.000 C 
BRANCH  28  29
ATOM     29  C   UNL     1      61.048 147.357 -34.106  1.00  0.00    -0.003 C 
ATOM     30  C   UNL     1      59.927 147.839 -33.189  1.00  0.00     0.004 C 
ENDBRANCH  28  29
ENDBRANCH  27  28
ENDBRANCH  26  27
ENDBRANCH  25  26
ENDBRANCH  24  25
ENDBRANCH  23  24
ENDBRANCH  22  23
ENDBRANCH  21  22
ENDBRANCH  20  21
ENDBRANCH  19  20
ENDBRANCH  18  19
ENDBRANCH  17  18
ENDBRANCH   1  17
TORSDOF 26
ENDMDL
MODEL 8
REMARK VINA RESULT:    -5.181      1.735      2.383
REMARK INTER + INTRA:         -14.407
REMARK INTER:                 -12.396
REMARK INTRA:                  -2.011
REMARK UNBOUND:                -1.351
REMARK SMILES CCCCCCCCCCCCCCCCCCCCCCCCCCCC(=O)[O-]
REMARK SMILES IDX 15 1 16 2 17 3 18 4 19 5 20 6 21 7 22 8 23 9 24 10 25 11
REMARK SMILES IDX 26 12 27 13 28 14 29 15 30 16 14 17 13 18 12 19 11 20 10 21
REMARK SMILES IDX 9 22 8 23 7 24 6 25 5 26 4 27 3 28 2 29 1 30
REMARK H PARENT
REMARK Flexibility Score: inf
ROOT
ATOM      1  C   UNL     1      55.950 143.644 -24.261  1.00  0.00     0.000 C 
ENDROOT
BRANCH   1   2
ATOM      2  C   UNL     1      56.696 142.644 -23.356  1.00  0.00     0.000 C 
BRANCH   2   3
ATOM      3  C   UNL     1      58.000 143.202 -22.743  1.00  0.00     0.000 C 
BRANCH   3   4
ATOM      4  C   UNL     1      58.498 142.341 -21.574  1.00  0.00     0.000 C 
BRANCH   4   5
ATOM      5  C   UNL     1      58.859 143.197 -20.355  1.00  0.00     0.000 C 
BRANCH   5   6
ATOM      6  C   UNL     1      59.309 142.308 -19.187  1.00  0.00     0.000 C 
BRANCH   6   7
ATOM      7  C   UNL     1      58.181 142.031 -18.181  1.00  0.00     0.000 C 
BRANCH   7   8
ATOM      8  C   UNL     1      58.445 142.687 -16.813  1.00  0.00     0.000 C 
BRANCH   8   9
ATOM      9  C   UNL     1      59.726 142.153 -16.154  1.00  0.00     0.000 C 
BRANCH   9  10
ATOM     10  C   UNL     1      60.634 143.289 -15.647  1.00  0.00     0.000 C 
BRANCH  10  11
ATOM     11  C   UNL     1      60.407 144.601 -16.416  1.00  0.00     0.000 C 
BRANCH  11  12
ATOM     12  C   UNL     1      61.709 145.137 -17.035  1.00  0.00     0.006 C 
BRANCH  12  13
ATOM     13  C   UNL     1      61.845 144.764 -18.519  1.00  0.00     0.053 C 
BRANCH  13  14
ATOM     14  C   UNL     1      61.487 145.907 -19.419  1.00  0.00     0.041 C 
ATOM     15  O   UNL     1      62.353 146.417 -20.175  1.00  0.00    -0.550 OA
ATOM     16  O   UNL     1      60.192 146.415 -19.415  1.00  0.00    -0.550 OA
ENDBRANCH  13  14
ENDBRANCH  12  13
ENDBRANCH  11  12
ENDBRANCH  10  11
ENDBRANCH   9  10
ENDBRANCH   8   9
ENDBRANCH   7   8
ENDBRANCH   6   7
ENDBRANCH   5   6
ENDBRANCH   4   5
ENDBRANCH   3   4
ENDBRANCH   2   3
ENDBRANCH   1   2
BRANCH   1  17
ATOM     17  C   UNL     1      56.223 143.488 -25.766  1.00  0.00     0.000 C 
BRANCH  17  18
ATOM     18  C   UNL     1      55.133 142.690 -26.499  1.00  0.00     0.000 C 
BRANCH  18  19
ATOM     19  C   UNL     1      55.184 142.975 -28.009  1.00  0.00     0.000 C 
BRANCH  19  20
ATOM     20  C   UNL     1      56.404 143.822 -28.426  1.00  0.00     0.000 C 
BRANCH  20  21
ATOM     21  C   UNL     1      56.714 143.780 -29.936  1.00  0.00     0.000 C 
BRANCH  21  22
ATOM     22  C   UNL     1      58.209 143.851 -30.302  1.00  0.00    -0.000 C 
BRANCH  22  23
ATOM     23  C   UNL     1      58.510 144.348 -31.732  1.00  0.00    -0.000 C 
BRANCH  23  24
ATOM     24  C   UNL     1      59.823 143.817 -32.341  1.00  0.00    -0.000 C 
BRANCH  24  25
ATOM     25  C   UNL     1      59.980 144.048 -33.861  1.00  0.00    -0.000 C 
BRANCH  25  26
ATOM     26  C   UNL     1      61.330 144.659 -34.285  1.00  0.00    -0.000 C 
BRANCH  26  27
ATOM     27  C   UNL     1      61.237 146.063 -34.914  1.00  0.00    -0.000 C 
BRANCH  27  28
ATOM     28  C   UNL     1      59.804 146.598 -35.108  1.00  0.00    -0.000 C 
BRANCH  28  29
ATOM     29  C   UNL     1      59.512 147.936 -34.409  1.00  0.00    -0.003 C 
ATOM     30  C   UNL     1      59.814 147.910 -32.913  1.00  0.00     0.004 C 
ENDBRANCH  28  29
ENDBRANCH  27  28
ENDBRANCH  26  27
ENDBRANCH  25  26
ENDBRANCH  24  25
ENDBRANCH  23  24
ENDBRANCH  22  23
ENDBRANCH  21  22
ENDBRANCH  20  21
ENDBRANCH  19  20
ENDBRANCH  18  19
ENDBRANCH  17  18
ENDBRANCH   1  17
TORSDOF 26
ENDMDL
MODEL 9
REMARK VINA RESULT:    -5.095      6.216     11.398
REMARK INTER + INTRA:         -14.190
REMARK INTER:                  -9.087
REMARK INTRA:                  -5.103
REMARK UNBOUND:                -1.351
REMARK SMILES CCCCCCCCCCCCCCCCCCCCCCCCCCCC(=O)[O-]
REMARK SMILES IDX 15 1 16 2 17 3 18 4 19 5 20 6 21 7 22 8 23 9 24 10 25 11
REMARK SMILES IDX 26 12 27 13 28 14 29 15 30 16 14 17 13 18 12 19 11 20 10 21
REMARK SMILES IDX 9 22 8 23 7 24 6 25 5 26 4 27 3 28 2 29 1 30
REMARK H PARENT
REMARK Flexibility Score: inf
ROOT
ATOM      1  C   UNL     1      58.888 144.156 -18.224  1.00  0.00     0.000 C 
ENDROOT
BRANCH   1   2
ATOM      2  C   UNL     1      59.255 144.949 -19.492  1.00  0.00     0.000 C 
BRANCH   2   3
ATOM      3  C   UNL     1      60.635 144.586 -20.083  1.00  0.00     0.000 C 
BRANCH   3   4
ATOM      4  C   UNL     1      60.639 144.659 -21.617  1.00  0.00     0.000 C 
BRANCH   4   5
ATOM      5  C   UNL     1      61.331 143.442 -22.239  1.00  0.00     0.000 C 
BRANCH   5   6
ATOM      6  C   UNL     1      61.579 142.362 -21.176  1.00  0.00     0.000 C 
BRANCH   6   7
ATOM      7  C   UNL     1      61.062 140.978 -21.600  1.00  0.00     0.000 C 
BRANCH   7   8
ATOM      8  C   UNL     1      60.024 141.066 -22.734  1.00  0.00     0.000 C 
BRANCH   8   9
ATOM      9  C   UNL     1      58.600 140.769 -22.239  1.00  0.00     0.000 C 
BRANCH   9  10
ATOM     10  C   UNL     1      57.873 142.041 -21.765  1.00  0.00     0.000 C 
BRANCH  10  11
ATOM     11  C   UNL     1      57.594 143.016 -22.921  1.00  0.00     0.000 C 
BRANCH  11  12
ATOM     12  C   UNL     1      56.358 142.598 -23.737  1.00  0.00     0.006 C 
BRANCH  12  13
ATOM     13  C   UNL     1      55.697 143.790 -24.445  1.00  0.00     0.053 C 
BRANCH  13  14
ATOM     14  C   UNL     1      54.421 144.202 -23.775  1.00  0.00     0.041 C 
ATOM     15  O   UNL     1      53.563 143.338 -23.454  1.00  0.00    -0.550 OA
ATOM     16  O   UNL     1      54.175 145.546 -23.514  1.00  0.00    -0.550 OA
ENDBRANCH  13  14
ENDBRANCH  12  13
ENDBRANCH  11  12
ENDBRANCH  10  11
ENDBRANCH   9  10
ENDBRANCH   8   9
ENDBRANCH   7   8
ENDBRANCH   6   7
ENDBRANCH   5   6
ENDBRANCH   4   5
ENDBRANCH   3   4
ENDBRANCH   2   3
ENDBRANCH   1   2
BRANCH   1  17
ATOM     17  C   UNL     1      58.659 142.650 -18.441  1.00  0.00     0.000 C 
BRANCH  17  18
ATOM     18  C   UNL     1      58.270 141.906 -17.153  1.00  0.00     0.000 C 
BRANCH  18  19
ATOM     19  C   UNL     1      58.906 142.585 -15.928  1.00  0.00     0.000 C 
BRANCH  19  20
ATOM     20  C   UNL     1      59.763 141.624 -15.080  1.00  0.00     0.000 C 
BRANCH  20  21
ATOM     21  C   UNL     1      60.692 140.711 -15.906  1.00  0.00     0.000 C 
BRANCH  21  22
ATOM     22  C   UNL     1      62.090 141.288 -16.200  1.00  0.00    -0.000 C 
BRANCH  22  23
ATOM     23  C   UNL     1      62.191 142.138 -17.484  1.00  0.00    -0.000 C 
BRANCH  23  24
ATOM     24  C   UNL     1      62.620 143.602 -17.260  1.00  0.00    -0.000 C 
BRANCH  24  25
ATOM     25  C   UNL     1      62.213 144.204 -15.897  1.00  0.00    -0.000 C 
BRANCH  25  26
ATOM     26  C   UNL     1      61.606 145.618 -15.970  1.00  0.00    -0.000 C 
BRANCH  26  27
ATOM     27  C   UNL     1      62.049 146.452 -17.189  1.00  0.00    -0.000 C 
BRANCH  27  28
ATOM     28  C   UNL     1      61.064 147.558 -17.617  1.00  0.00    -0.000 C 
BRANCH  28  29
ATOM     29  C   UNL     1      59.908 147.811 -16.635  1.00  0.00    -0.003 C 
ATOM     30  C   UNL     1      59.067 149.032 -16.998  1.00  0.00     0.004 C 
ENDBRANCH  28  29
ENDBRANCH  27  28
ENDBRANCH  26  27
ENDBRANCH  25  26
ENDBRANCH  24  25
ENDBRANCH  23  24
ENDBRANCH  22  23
ENDBRANCH  21  22
ENDBRANCH  20  21
ENDBRANCH  19  20
ENDBRANCH  18  19
ENDBRANCH  17  18
ENDBRANCH   1  17
TORSDOF 26
ENDMDL
