MODEL 1
REMARK VINA RESULT:    -7.045      0.000      0.000
REMARK INTER + INTRA:         -11.292
REMARK INTER:                  -9.516
REMARK INTRA:                  -1.776
REMARK UNBOUND:                -1.776
REMARK SMILES CC[C@H](CC[C@H](C)[C@@H]1CC[C@H]2[C@H]3CC(=O)C4=CC(=O)CC[C@@]4(C)[C@H]3CC[C@]21C)C(C)C
REMARK SMILES IDX 4 1 3 2 2 3 1 4 29 5 30 6 31 7 5 8 6 9 7 10 8 11 9 12 27 13
REMARK SMILES IDX 10 14 11 15 26 16 28 17 12 18 25 19 24 20 13 21 22 22 14 23
REMARK SMILES IDX 16 24 21 25 23 26 15 27 17 28 20 29 18 30 19 31
REMARK H PARENT
REMARK Flexibility Score: inf
ROOT
ATOM      1  C   UNL     1      -4.483  -0.111  -8.731  1.00  0.00     0.004 C 
ENDROOT
BRANCH   1   2
ATOM      2  C   UNL     1      -4.805   1.298  -9.313  1.00  0.00    -0.009 C 
BRANCH   2   3
ATOM      3  C   UNL     1      -4.586   1.305 -10.851  1.00  0.00     0.000 C 
ATOM      4  C   UNL     1      -3.346   2.088 -11.288  1.00  0.00     0.004 C 
ENDBRANCH   2   3
BRANCH   2   5
ATOM      5  C   UNL     1      -6.230   1.807  -8.907  1.00  0.00    -0.014 C 
ATOM      6  C   UNL     1      -7.189   0.642  -8.608  1.00  0.00     0.007 C 
ATOM      7  C   UNL     1      -6.861   2.764  -9.934  1.00  0.00     0.007 C 
ENDBRANCH   2   5
ENDBRANCH   1   2
BRANCH   1   8
ATOM      8  C   UNL     1      -4.055  -1.133  -9.803  1.00  0.00     0.004 C 
BRANCH   8   9
ATOM      9  C   UNL     1      -5.055  -2.330  -9.939  1.00  0.00    -0.011 C 
ATOM     10  C   UNL     1      -4.554  -3.491  -9.057  1.00  0.00     0.008 C 
BRANCH   9  11
ATOM     11  C   UNL     1      -5.239  -2.761 -11.438  1.00  0.00    -0.002 C 
ATOM     12  C   UNL     1      -4.200  -2.109 -12.360  1.00  0.00     0.005 C 
ATOM     13  C   UNL     1      -6.613  -2.473 -12.137  1.00  0.00    -0.026 C 
ATOM     14  C   UNL     1      -4.759  -2.166 -13.777  1.00  0.00     0.005 C 
ATOM     15  C   UNL     1      -6.266  -2.439 -13.659  1.00  0.00    -0.001 C 
ATOM     16  C   UNL     1      -7.665  -3.578 -11.826  1.00  0.00     0.007 C 
ATOM     17  C   UNL     1      -7.177  -1.081 -11.734  1.00  0.00     0.012 C 
ATOM     18  C   UNL     1      -6.748  -3.682 -14.476  1.00  0.00     0.004 C 
ATOM     19  C   UNL     1      -8.787  -3.644 -12.871  1.00  0.00     0.005 C 
ATOM     20  C   UNL     1      -8.297  -3.834 -14.342  1.00  0.00     0.003 C 
ATOM     21  C   UNL     1      -5.937  -4.996 -14.221  1.00  0.00     0.085 C 
ATOM     22  C   UNL     1      -8.835  -5.153 -15.004  1.00  0.00    -0.000 C 
ATOM     23  C   UNL     1      -6.745  -6.239 -13.950  1.00  0.00     0.159 C 
ATOM     24  C   UNL     1      -8.192  -6.327 -14.273  1.00  0.00     0.005 C 
ATOM     25  C   UNL     1     -10.419  -5.166 -15.013  1.00  0.00     0.020 C 
ATOM     26  C   UNL     1      -8.386  -5.235 -16.490  1.00  0.00     0.017 C 
ATOM     27  O   UNL     1      -6.142  -7.240 -13.464  1.00  0.00    -0.295 OA
ATOM     28  C   UNL     1      -8.883  -7.436 -13.961  1.00  0.00     0.055 C 
ATOM     29  C   UNL     1     -11.097  -6.192 -14.094  1.00  0.00     0.081 C 
ATOM     30  C   UNL     1     -10.341  -7.474 -14.073  1.00  0.00     0.156 C 
ATOM     31  O   UNL     1     -10.950  -8.576 -14.039  1.00  0.00    -0.295 OA
ENDBRANCH   9  11
ENDBRANCH   8   9
ENDBRANCH   1   8
TORSDOF 6
ENDMDL
MODEL 2
REMARK VINA RESULT:    -6.919      2.549      8.113
REMARK INTER + INTRA:         -11.122
REMARK INTER:                  -9.474
REMARK INTRA:                  -1.648
REMARK UNBOUND:                -1.776
REMARK SMILES CC[C@H](CC[C@H](C)[C@@H]1CC[C@H]2[C@H]3CC(=O)C4=CC(=O)CC[C@@]4(C)[C@H]3CC[C@]21C)C(C)C
REMARK SMILES IDX 4 1 3 2 2 3 1 4 29 5 30 6 31 7 5 8 6 9 7 10 8 11 9 12 27 13
REMARK SMILES IDX 10 14 11 15 26 16 28 17 12 18 25 19 24 20 13 21 22 22 14 23
REMARK SMILES IDX 16 24 21 25 23 26 15 27 17 28 20 29 18 30 19 31
REMARK H PARENT
REMARK Flexibility Score: inf
ROOT
ATOM      1  C   UNL     1      -8.761  -5.965 -16.228  1.00  0.00     0.004 C 
ENDROOT
BRANCH   1   2
ATOM      2  C   UNL     1     -10.207  -6.194 -15.695  1.00  0.00    -0.009 C 
BRANCH   2   3
ATOM      3  C   UNL     1     -10.168  -6.584 -14.191  1.00  0.00     0.000 C 
ATOM      4  C   UNL     1     -10.739  -7.974 -13.906  1.00  0.00     0.004 C 
ENDBRANCH   2   3
BRANCH   2   5
ATOM      5  C   UNL     1     -11.153  -4.977 -15.976  1.00  0.00    -0.014 C 
ATOM      6  C   UNL     1     -10.366  -3.733 -16.421  1.00  0.00     0.007 C 
ATOM      7  C   UNL     1     -12.078  -4.627 -14.795  1.00  0.00     0.007 C 
ENDBRANCH   2   5
ENDBRANCH   1   2
BRANCH   1   8
ATOM      8  C   UNL     1      -7.668  -6.272 -15.185  1.00  0.00     0.004 C 
BRANCH   8   9
ATOM      9  C   UNL     1      -6.618  -5.118 -15.044  1.00  0.00    -0.011 C 
ATOM     10  C   UNL     1      -5.321  -5.545 -15.759  1.00  0.00     0.008 C 
BRANCH   9  11
ATOM     11  C   UNL     1      -6.370  -4.744 -13.538  1.00  0.00    -0.002 C 
ATOM     12  C   UNL     1      -6.756  -5.885 -12.587  1.00  0.00     0.005 C 
ATOM     13  C   UNL     1      -7.096  -3.486 -12.950  1.00  0.00    -0.026 C 
ATOM     14  C   UNL     1      -6.968  -5.268 -11.210  1.00  0.00     0.005 C 
ATOM     15  C   UNL     1      -7.138  -3.755 -11.412  1.00  0.00    -0.001 C 
ATOM     16  C   UNL     1      -6.327  -2.171 -13.268  1.00  0.00     0.007 C 
ATOM     17  C   UNL     1      -8.559  -3.378 -13.466  1.00  0.00     0.012 C 
ATOM     18  C   UNL     1      -6.153  -2.890 -10.561  1.00  0.00     0.004 C 
ATOM     19  C   UNL     1      -6.667  -1.031 -12.297  1.00  0.00     0.005 C 
ATOM     20  C   UNL     1      -6.450  -1.374 -10.788  1.00  0.00     0.003 C 
ATOM     21  C   UNL     1      -4.645  -3.287 -10.688  1.00  0.00     0.085 C 
ATOM     22  C   UNL     1      -5.398  -0.439 -10.092  1.00  0.00    -0.000 C 
ATOM     23  C   UNL     1      -3.675  -2.162 -10.943  1.00  0.00     0.159 C 
ATOM     24  C   UNL     1      -4.036  -0.740 -10.712  1.00  0.00     0.005 C 
ATOM     25  C   UNL     1      -5.848   1.077 -10.187  1.00  0.00     0.020 C 
ATOM     26  C   UNL     1      -5.296  -0.773  -8.576  1.00  0.00     0.017 C 
ATOM     27  O   UNL     1      -2.509  -2.464 -11.331  1.00  0.00    -0.295 OA
ATOM     28  C   UNL     1      -3.158   0.233 -11.007  1.00  0.00     0.055 C 
ATOM     29  C   UNL     1      -5.000   1.983 -11.091  1.00  0.00     0.081 C 
ATOM     30  C   UNL     1      -3.555   1.640 -10.989  1.00  0.00     0.156 C 
ATOM     31  O   UNL     1      -2.679   2.546 -11.002  1.00  0.00    -0.295 OA
ENDBRANCH   9  11
ENDBRANCH   8   9
ENDBRANCH   1   8
TORSDOF 6
ENDMDL
MODEL 3
REMARK VINA RESULT:    -6.894      2.074      3.954
REMARK INTER + INTRA:         -11.087
REMARK INTER:                 -10.205
REMARK INTRA:                  -0.883
REMARK UNBOUND:                -1.776
REMARK SMILES CC[C@H](CC[C@H](C)[C@@H]1CC[C@H]2[C@H]3CC(=O)C4=CC(=O)CC[C@@]4(C)[C@H]3CC[C@]21C)C(C)C
REMARK SMILES IDX 4 1 3 2 2 3 1 4 29 5 30 6 31 7 5 8 6 9 7 10 8 11 9 12 27 13
REMARK SMILES IDX 10 14 11 15 26 16 28 17 12 18 25 19 24 20 13 21 22 22 14 23
REMARK SMILES IDX 16 24 21 25 23 26 15 27 17 28 20 29 18 30 19 31
REMARK H PARENT
REMARK Flexibility Score: inf
ROOT
ATOM      1  C   UNL     1      -5.108   1.530 -11.159  1.00  0.00     0.004 C 
ENDROOT
BRANCH   1   2
ATOM      2  C   UNL     1      -5.899   2.530 -10.265  1.00  0.00    -0.009 C 
BRANCH   2   3
ATOM      3  C   UNL     1      -7.012   3.227 -11.096  1.00  0.00     0.000 C 
ATOM      4  C   UNL     1      -8.012   4.010 -10.242  1.00  0.00     0.004 C 
ENDBRANCH   2   3
BRANCH   2   5
ATOM      5  C   UNL     1      -6.452   1.865  -8.958  1.00  0.00    -0.014 C 
ATOM      6  C   UNL     1      -5.396   1.839  -7.840  1.00  0.00     0.007 C 
ATOM      7  C   UNL     1      -7.029   0.455  -9.178  1.00  0.00     0.007 C 
ENDBRANCH   2   5
ENDBRANCH   1   2
BRANCH   1   8
ATOM      8  C   UNL     1      -3.583   1.753 -11.126  1.00  0.00     0.004 C 
BRANCH   8   9
ATOM      9  C   UNL     1      -2.781   0.442 -10.821  1.00  0.00    -0.011 C 
ATOM     10  C   UNL     1      -1.831   0.162 -12.003  1.00  0.00     0.008 C 
BRANCH   9  11
ATOM     11  C   UNL     1      -3.741  -0.767 -10.531  1.00  0.00    -0.002 C 
ATOM     12  C   UNL     1      -3.707  -1.193  -9.057  1.00  0.00     0.005 C 
ATOM     13  C   UNL     1      -3.525  -2.101 -11.325  1.00  0.00    -0.026 C 
ATOM     14  C   UNL     1      -4.232  -2.622  -8.991  1.00  0.00     0.005 C 
ATOM     15  C   UNL     1      -4.168  -3.195 -10.415  1.00  0.00    -0.001 C 
ATOM     16  C   UNL     1      -4.209  -2.062 -12.723  1.00  0.00     0.007 C 
ATOM     17  C   UNL     1      -2.014  -2.430 -11.488  1.00  0.00     0.012 C 
ATOM     18  C   UNL     1      -5.531  -3.765 -10.928  1.00  0.00     0.004 C 
ATOM     19  C   UNL     1      -4.495  -3.460 -13.287  1.00  0.00     0.005 C 
ATOM     20  C   UNL     1      -5.344  -4.379 -12.351  1.00  0.00     0.003 C 
ATOM     21  C   UNL     1      -6.749  -2.793 -10.788  1.00  0.00     0.085 C 
ATOM     22  C   UNL     1      -6.702  -4.829 -13.000  1.00  0.00    -0.000 C 
ATOM     23  C   UNL     1      -7.616  -2.628 -12.010  1.00  0.00     0.159 C 
ATOM     24  C   UNL     1      -7.574  -3.586 -13.144  1.00  0.00     0.005 C 
ATOM     25  C   UNL     1      -6.442  -5.616 -14.350  1.00  0.00     0.020 C 
ATOM     26  C   UNL     1      -7.453  -5.810 -12.056  1.00  0.00     0.017 C 
ATOM     27  O   UNL     1      -8.425  -1.654 -12.032  1.00  0.00    -0.295 OA
ATOM     28  C   UNL     1      -8.324  -3.366 -14.237  1.00  0.00     0.055 C 
ATOM     29  C   UNL     1      -6.875  -4.911 -15.643  1.00  0.00     0.081 C 
ATOM     30  C   UNL     1      -8.150  -4.169 -15.447  1.00  0.00     0.156 C 
ATOM     31  O   UNL     1      -9.021  -4.139 -16.357  1.00  0.00    -0.295 OA
ENDBRANCH   9  11
ENDBRANCH   8   9
ENDBRANCH   1   8
TORSDOF 6
ENDMDL
MODEL 4
REMARK VINA RESULT:    -6.843      3.041      8.429
REMARK INTER + INTRA:         -11.019
REMARK INTER:                  -9.174
REMARK INTRA:                  -1.845
REMARK UNBOUND:                -1.776
REMARK SMILES CC[C@H](CC[C@H](C)[C@@H]1CC[C@H]2[C@H]3CC(=O)C4=CC(=O)CC[C@@]4(C)[C@H]3CC[C@]21C)C(C)C
REMARK SMILES IDX 4 1 3 2 2 3 1 4 29 5 30 6 31 7 5 8 6 9 7 10 8 11 9 12 27 13
REMARK SMILES IDX 10 14 11 15 26 16 28 17 12 18 25 19 24 20 13 21 22 22 14 23
REMARK SMILES IDX 16 24 21 25 23 26 15 27 17 28 20 29 18 30 19 31
REMARK H PARENT
REMARK Flexibility Score: inf
ROOT
ATOM      1  C   UNL     1      -7.146  -7.167 -13.105  1.00  0.00     0.004 C 
ENDROOT
BRANCH   1   2
ATOM      2  C   UNL     1      -8.031  -7.163 -14.386  1.00  0.00    -0.009 C 
BRANCH   2   3
ATOM      3  C   UNL     1      -9.456  -6.639 -14.051  1.00  0.00     0.000 C 
ATOM      4  C   UNL     1     -10.552  -7.689 -14.237  1.00  0.00     0.004 C 
ENDBRANCH   2   3
BRANCH   2   5
ATOM      5  C   UNL     1      -7.370  -6.386 -15.575  1.00  0.00    -0.014 C 
ATOM      6  C   UNL     1      -5.926  -5.967 -15.250  1.00  0.00     0.007 C 
ATOM      7  C   UNL     1      -8.184  -5.168 -16.048  1.00  0.00     0.007 C 
ENDBRANCH   2   5
ENDBRANCH   1   2
BRANCH   1   8
ATOM      8  C   UNL     1      -7.762  -6.379 -11.931  1.00  0.00     0.004 C 
BRANCH   8   9
ATOM      9  C   UNL     1      -6.692  -5.618 -11.078  1.00  0.00    -0.011 C 
ATOM     10  C   UNL     1      -6.984  -5.869  -9.586  1.00  0.00     0.008 C 
BRANCH   9  11
ATOM     11  C   UNL     1      -6.660  -4.086 -11.426  1.00  0.00    -0.002 C 
ATOM     12  C   UNL     1      -7.409  -3.772 -12.728  1.00  0.00     0.005 C 
ATOM     13  C   UNL     1      -5.268  -3.387 -11.601  1.00  0.00    -0.026 C 
ATOM     14  C   UNL     1      -6.898  -2.426 -13.226  1.00  0.00     0.005 C 
ATOM     15  C   UNL     1      -5.576  -2.145 -12.496  1.00  0.00    -0.001 C 
ATOM     16  C   UNL     1      -4.659  -2.956 -10.236  1.00  0.00     0.007 C 
ATOM     17  C   UNL     1      -4.264  -4.298 -12.362  1.00  0.00     0.012 C 
ATOM     18  C   UNL     1      -5.545  -0.769 -11.754  1.00  0.00     0.004 C 
ATOM     19  C   UNL     1      -3.623  -1.832 -10.372  1.00  0.00     0.005 C 
ATOM     20  C   UNL     1      -4.142  -0.552 -11.103  1.00  0.00     0.003 C 
ATOM     21  C   UNL     1      -6.757  -0.505 -10.800  1.00  0.00     0.085 C 
ATOM     22  C   UNL     1      -4.085   0.734 -10.203  1.00  0.00    -0.000 C 
ATOM     23  C   UNL     1      -6.425  -0.016  -9.414  1.00  0.00     0.159 C 
ATOM     24  C   UNL     1      -5.094   0.549  -9.074  1.00  0.00     0.005 C 
ATOM     25  C   UNL     1      -2.601   1.015  -9.725  1.00  0.00     0.020 C 
ATOM     26  C   UNL     1      -4.529   1.983 -11.016  1.00  0.00     0.017 C 
ATOM     27  O   UNL     1      -7.336  -0.064  -8.537  1.00  0.00    -0.295 OA
ATOM     28  C   UNL     1      -4.825   0.920  -7.811  1.00  0.00     0.055 C 
ATOM     29  C   UNL     1      -2.318   0.819  -8.229  1.00  0.00     0.081 C 
ATOM     30  C   UNL     1      -3.467   1.280  -7.403  1.00  0.00     0.156 C 
ATOM     31  O   UNL     1      -3.272   1.875  -6.309  1.00  0.00    -0.295 OA
ENDBRANCH   9  11
ENDBRANCH   8   9
ENDBRANCH   1   8
TORSDOF 6
ENDMDL
MODEL 5
REMARK VINA RESULT:    -6.810      4.520      8.302
REMARK INTER + INTRA:         -10.974
REMARK INTER:                  -9.650
REMARK INTRA:                  -1.324
REMARK UNBOUND:                -1.776
REMARK SMILES CC[C@H](CC[C@H](C)[C@@H]1CC[C@H]2[C@H]3CC(=O)C4=CC(=O)CC[C@@]4(C)[C@H]3CC[C@]21C)C(C)C
REMARK SMILES IDX 4 1 3 2 2 3 1 4 29 5 30 6 31 7 5 8 6 9 7 10 8 11 9 12 27 13
REMARK SMILES IDX 10 14 11 15 26 16 28 17 12 18 25 19 24 20 13 21 22 22 14 23
REMARK SMILES IDX 16 24 21 25 23 26 15 27 17 28 20 29 18 30 19 31
REMARK H PARENT
REMARK Flexibility Score: inf
ROOT
ATOM      1  C   UNL     1      -2.640  -3.239 -17.174  1.00  0.00     0.004 C 
ENDROOT
BRANCH   1   2
ATOM      2  C   UNL     1      -1.889  -1.930 -17.560  1.00  0.00    -0.009 C 
BRANCH   2   3
ATOM      3  C   UNL     1      -0.466  -1.924 -16.935  1.00  0.00     0.000 C 
ATOM      4  C   UNL     1      -0.187  -0.700 -16.061  1.00  0.00     0.004 C 
ENDBRANCH   2   3
BRANCH   2   5
ATOM      5  C   UNL     1      -1.867  -1.680 -19.106  1.00  0.00    -0.014 C 
ATOM      6  C   UNL     1      -3.204  -2.063 -19.765  1.00  0.00     0.007 C 
ATOM      7  C   UNL     1      -0.699  -2.375 -19.829  1.00  0.00     0.007 C 
ENDBRANCH   2   5
ENDBRANCH   1   2
BRANCH   1   8
ATOM      8  C   UNL     1      -2.538  -3.584 -15.674  1.00  0.00     0.004 C 
BRANCH   8   9
ATOM      9  C   UNL     1      -3.752  -3.050 -14.841  1.00  0.00    -0.011 C 
ATOM     10  C   UNL     1      -4.612  -2.148 -15.749  1.00  0.00     0.008 C 
BRANCH   9  11
ATOM     11  C   UNL     1      -3.277  -2.304 -13.543  1.00  0.00    -0.002 C 
ATOM     12  C   UNL     1      -1.816  -2.617 -13.196  1.00  0.00     0.005 C 
ATOM     13  C   UNL     1      -4.056  -2.559 -12.206  1.00  0.00    -0.026 C 
ATOM     14  C   UNL     1      -1.624  -2.290 -11.721  1.00  0.00     0.005 C 
ATOM     15  C   UNL     1      -3.022  -2.204 -11.090  1.00  0.00    -0.001 C 
ATOM     16  C   UNL     1      -5.327  -1.668 -12.096  1.00  0.00     0.007 C 
ATOM     17  C   UNL     1      -4.447  -4.056 -12.050  1.00  0.00     0.012 C 
ATOM     18  C   UNL     1      -3.294  -0.861 -10.338  1.00  0.00     0.004 C 
ATOM     19  C   UNL     1      -5.797  -1.474 -10.648  1.00  0.00     0.005 C 
ATOM     20  C   UNL     1      -4.711  -0.900  -9.682  1.00  0.00     0.003 C 
ATOM     21  C   UNL     1      -2.992   0.433 -11.165  1.00  0.00     0.085 C 
ATOM     22  C   UNL     1      -5.121   0.475  -9.044  1.00  0.00    -0.000 C 
ATOM     23  C   UNL     1      -4.065   1.492 -11.168  1.00  0.00     0.159 C 
ATOM     24  C   UNL     1      -5.162   1.507 -10.167  1.00  0.00     0.005 C 
ATOM     25  C   UNL     1      -6.472   0.331  -8.228  1.00  0.00     0.020 C 
ATOM     26  C   UNL     1      -4.041   0.944  -8.028  1.00  0.00     0.017 C 
ATOM     27  O   UNL     1      -3.987   2.408 -12.037  1.00  0.00    -0.295 OA
ATOM     28  C   UNL     1      -6.128   2.438 -10.243  1.00  0.00     0.055 C 
ATOM     29  C   UNL     1      -7.700   1.042  -8.812  1.00  0.00     0.081 C 
ATOM     30  C   UNL     1      -7.325   2.354  -9.408  1.00  0.00     0.156 C 
ATOM     31  O   UNL     1      -8.086   3.352  -9.290  1.00  0.00    -0.295 OA
ENDBRANCH   9  11
ENDBRANCH   8   9
ENDBRANCH   1   8
TORSDOF 6
ENDMDL
MODEL 6
REMARK VINA RESULT:    -6.595      2.789      8.252
REMARK INTER + INTRA:         -10.684
REMARK INTER:                  -8.763
REMARK INTRA:                  -1.921
REMARK UNBOUND:                -1.776
REMARK SMILES CC[C@H](CC[C@H](C)[C@@H]1CC[C@H]2[C@H]3CC(=O)C4=CC(=O)CC[C@@]4(C)[C@H]3CC[C@]21C)C(C)C
REMARK SMILES IDX 4 1 3 2 2 3 1 4 29 5 30 6 31 7 5 8 6 9 7 10 8 11 9 12 27 13
REMARK SMILES IDX 10 14 11 15 26 16 28 17 12 18 25 19 24 20 13 21 22 22 14 23
REMARK SMILES IDX 16 24 21 25 23 26 15 27 17 28 20 29 18 30 19 31
REMARK H PARENT
REMARK Flexibility Score: inf
ROOT
ATOM      1  C   UNL     1      -6.760  -5.621 -15.701  1.00  0.00     0.004 C 
ENDROOT
BRANCH   1   2
ATOM      2  C   UNL     1      -8.315  -5.629 -15.620  1.00  0.00    -0.009 C 
BRANCH   2   3
ATOM      3  C   UNL     1      -8.784  -6.476 -14.404  1.00  0.00     0.000 C 
ATOM      4  C   UNL     1      -9.812  -7.549 -14.767  1.00  0.00     0.004 C 
ENDBRANCH   2   3
BRANCH   2   5
ATOM      5  C   UNL     1      -8.928  -4.187 -15.620  1.00  0.00    -0.014 C 
ATOM      6  C   UNL     1      -9.509  -3.815 -14.245  1.00  0.00     0.007 C 
ATOM      7  C   UNL     1      -9.980  -3.961 -16.720  1.00  0.00     0.007 C 
ENDBRANCH   2   5
ENDBRANCH   1   2
BRANCH   1   8
ATOM      8  C   UNL     1      -6.077  -6.091 -14.401  1.00  0.00     0.004 C 
BRANCH   8   9
ATOM      9  C   UNL     1      -4.993  -5.086 -13.883  1.00  0.00    -0.011 C 
ATOM     10  C   UNL     1      -3.668  -5.849 -13.688  1.00  0.00     0.008 C 
BRANCH   9  11
ATOM     11  C   UNL     1      -5.459  -4.361 -12.570  1.00  0.00    -0.002 C 
ATOM     12  C   UNL     1      -6.788  -4.917 -12.042  1.00  0.00     0.005 C 
ATOM     13  C   UNL     1      -5.676  -2.809 -12.608  1.00  0.00    -0.026 C 
ATOM     14  C   UNL     1      -7.386  -3.857 -11.125  1.00  0.00     0.005 C 
ATOM     15  C   UNL     1      -6.669  -2.534 -11.434  1.00  0.00    -0.001 C 
ATOM     16  C   UNL     1      -4.343  -2.031 -12.408  1.00  0.00     0.007 C 
ATOM     17  C   UNL     1      -6.355  -2.360 -13.933  1.00  0.00     0.012 C 
ATOM     18  C   UNL     1      -6.035  -1.851 -10.178  1.00  0.00     0.004 C 
ATOM     19  C   UNL     1      -4.558  -0.598 -11.904  1.00  0.00     0.005 C 
ATOM     20  C   UNL     1      -5.391  -0.489 -10.586  1.00  0.00     0.003 C 
ATOM     21  C   UNL     1      -5.117  -2.778  -9.314  1.00  0.00     0.085 C 
ATOM     22  C   UNL     1      -4.594   0.181  -9.410  1.00  0.00    -0.000 C 
ATOM     23  C   UNL     1      -3.770  -2.218  -8.933  1.00  0.00     0.159 C 
ATOM     24  C   UNL     1      -3.463  -0.768  -9.024  1.00  0.00     0.005 C 
ATOM     25  C   UNL     1      -4.127   1.640  -9.812  1.00  0.00     0.020 C 
ATOM     26  C   UNL     1      -5.506   0.340  -8.161  1.00  0.00     0.017 C 
ATOM     27  O   UNL     1      -2.900  -3.023  -8.491  1.00  0.00    -0.295 OA
ATOM     28  C   UNL     1      -2.231  -0.322  -8.728  1.00  0.00     0.055 C 
ATOM     29  C   UNL     1      -2.617   1.842 -10.006  1.00  0.00     0.081 C 
ATOM     30  C   UNL     1      -1.840   1.059  -9.006  1.00  0.00     0.156 C 
ATOM     31  O   UNL     1      -0.795   1.538  -8.490  1.00  0.00    -0.295 OA
ENDBRANCH   9  11
ENDBRANCH   8   9
ENDBRANCH   1   8
TORSDOF 6
ENDMDL
MODEL 7
REMARK VINA RESULT:    -6.488      1.493      2.286
REMARK INTER + INTRA:         -10.539
REMARK INTER:                  -8.611
REMARK INTRA:                  -1.928
REMARK UNBOUND:                -1.776
REMARK SMILES CC[C@H](CC[C@H](C)[C@@H]1CC[C@H]2[C@H]3CC(=O)C4=CC(=O)CC[C@@]4(C)[C@H]3CC[C@]21C)C(C)C
REMARK SMILES IDX 4 1 3 2 2 3 1 4 29 5 30 6 31 7 5 8 6 9 7 10 8 11 9 12 27 13
REMARK SMILES IDX 10 14 11 15 26 16 28 17 12 18 25 19 24 20 13 21 22 22 14 23
REMARK SMILES IDX 16 24 21 25 23 26 15 27 17 28 20 29 18 30 19 31
REMARK H PARENT
REMARK Flexibility Score: inf
ROOT
ATOM      1  C   UNL     1      -2.055  -1.750 -11.021  1.00  0.00     0.004 C 
ENDROOT
BRANCH   1   2
ATOM      2  C   UNL     1      -3.326  -0.918 -10.680  1.00  0.00    -0.009 C 
BRANCH   2   3
ATOM      3  C   UNL     1      -3.526  -0.852  -9.140  1.00  0.00     0.000 C 
ATOM      4  C   UNL     1      -4.752  -1.622  -8.649  1.00  0.00     0.004 C 
ENDBRANCH   2   3
BRANCH   2   5
ATOM      5  C   UNL     1      -3.316   0.500 -11.345  1.00  0.00    -0.014 C 
ATOM      6  C   UNL     1      -2.162   1.370 -10.818  1.00  0.00     0.007 C 
ATOM      7  C   UNL     1      -4.653   1.255 -11.216  1.00  0.00     0.007 C 
ENDBRANCH   2   5
ENDBRANCH   1   2
BRANCH   1   8
ATOM      8  C   UNL     1      -2.363  -3.049 -11.793  1.00  0.00     0.004 C 
BRANCH   8   9
ATOM      9  C   UNL     1      -3.828  -3.557 -11.572  1.00  0.00    -0.011 C 
ATOM     10  C   UNL     1      -3.771  -4.952 -10.918  1.00  0.00     0.008 C 
BRANCH   9  11
ATOM     11  C   UNL     1      -4.644  -3.565 -12.914  1.00  0.00    -0.002 C 
ATOM     12  C   UNL     1      -4.067  -2.589 -13.949  1.00  0.00     0.005 C 
ATOM     13  C   UNL     1      -6.172  -3.218 -12.864  1.00  0.00    -0.026 C 
ATOM     14  C   UNL     1      -5.173  -2.296 -14.955  1.00  0.00     0.005 C 
ATOM     15  C   UNL     1      -6.499  -2.726 -14.309  1.00  0.00    -0.001 C 
ATOM     16  C   UNL     1      -7.036  -4.455 -12.483  1.00  0.00     0.007 C 
ATOM     17  C   UNL     1      -6.459  -2.051 -11.877  1.00  0.00     0.012 C 
ATOM     18  C   UNL     1      -7.328  -3.728 -15.178  1.00  0.00     0.004 C 
ATOM     19  C   UNL     1      -8.496  -4.326 -12.939  1.00  0.00     0.005 C 
ATOM     20  C   UNL     1      -8.680  -4.050 -14.466  1.00  0.00     0.003 C 
ATOM     21  C   UNL     1      -6.537  -4.982 -15.678  1.00  0.00     0.085 C 
ATOM     22  C   UNL     1      -9.498  -5.173 -15.198  1.00  0.00    -0.000 C 
ATOM     23  C   UNL     1      -7.202  -6.319 -15.473  1.00  0.00     0.159 C 
ATOM     24  C   UNL     1      -8.652  -6.443 -15.178  1.00  0.00     0.005 C 
ATOM     25  C   UNL     1     -10.938  -5.326 -14.555  1.00  0.00     0.020 C 
ATOM     26  C   UNL     1      -9.722  -4.794 -16.690  1.00  0.00     0.017 C 
ATOM     27  O   UNL     1      -6.489  -7.357 -15.596  1.00  0.00    -0.295 OA
ATOM     28  C   UNL     1      -9.190  -7.652 -14.947  1.00  0.00     0.055 C 
ATOM     29  C   UNL     1     -11.203  -6.625 -13.781  1.00  0.00     0.081 C 
ATOM     30  C   UNL     1     -10.559  -7.788 -14.451  1.00  0.00     0.156 C 
ATOM     31  O   UNL     1     -11.139  -8.906 -14.492  1.00  0.00    -0.295 OA
ENDBRANCH   9  11
ENDBRANCH   8   9
ENDBRANCH   1   8
TORSDOF 6
ENDMDL
MODEL 8
REMARK VINA RESULT:    -6.485      3.560      8.491
REMARK INTER + INTRA:         -10.535
REMARK INTER:                  -8.531
REMARK INTRA:                  -2.004
REMARK UNBOUND:                -1.776
REMARK SMILES CC[C@H](CC[C@H](C)[C@@H]1CC[C@H]2[C@H]3CC(=O)C4=CC(=O)CC[C@@]4(C)[C@H]3CC[C@]21C)C(C)C
REMARK SMILES IDX 4 1 3 2 2 3 1 4 29 5 30 6 31 7 5 8 6 9 7 10 8 11 9 12 27 13
REMARK SMILES IDX 10 14 11 15 26 16 28 17 12 18 25 19 24 20 13 21 22 22 14 23
REMARK SMILES IDX 16 24 21 25 23 26 15 27 17 28 20 29 18 30 19 31
REMARK H PARENT
REMARK Flexibility Score: inf
ROOT
ATOM      1  C   UNL     1      -5.671  -7.968 -10.927  1.00  0.00     0.004 C 
ENDROOT
BRANCH   1   2
ATOM      2  C   UNL     1      -5.238  -8.251 -12.396  1.00  0.00    -0.009 C 
BRANCH   2   3
ATOM      3  C   UNL     1      -6.033  -7.341 -13.373  1.00  0.00     0.000 C 
ATOM      4  C   UNL     1      -5.144  -6.422 -14.213  1.00  0.00     0.004 C 
ENDBRANCH   2   3
BRANCH   2   5
ATOM      5  C   UNL     1      -3.688  -8.141 -12.600  1.00  0.00    -0.014 C 
ATOM      6  C   UNL     1      -3.115  -9.385 -13.300  1.00  0.00     0.007 C 
ATOM      7  C   UNL     1      -2.911  -7.857 -11.301  1.00  0.00     0.007 C 
ENDBRANCH   2   5
ENDBRANCH   1   2
BRANCH   1   8
ATOM      8  C   UNL     1      -6.682  -6.811 -10.798  1.00  0.00     0.004 C 
BRANCH   8   9
ATOM      9  C   UNL     1      -6.207  -5.693  -9.809  1.00  0.00    -0.011 C 
ATOM     10  C   UNL     1      -6.985  -5.844  -8.487  1.00  0.00     0.008 C 
BRANCH   9  11
ATOM     11  C   UNL     1      -6.373  -4.262 -10.435  1.00  0.00    -0.002 C 
ATOM     12  C   UNL     1      -7.195  -4.287 -11.730  1.00  0.00     0.005 C 
ATOM     13  C   UNL     1      -5.083  -3.454 -10.810  1.00  0.00    -0.026 C 
ATOM     14  C   UNL     1      -6.867  -3.010 -12.495  1.00  0.00     0.005 C 
ATOM     15  C   UNL     1      -5.567  -2.447 -11.901  1.00  0.00    -0.001 C 
ATOM     16  C   UNL     1      -4.489  -2.706  -9.581  1.00  0.00     0.007 C 
ATOM     17  C   UNL     1      -3.999  -4.373 -11.442  1.00  0.00     0.012 C 
ATOM     18  C   UNL     1      -5.681  -0.962 -11.427  1.00  0.00     0.004 C 
ATOM     19  C   UNL     1      -3.602  -1.518  -9.977  1.00  0.00     0.005 C 
ATOM     20  C   UNL     1      -4.296  -0.467 -10.902  1.00  0.00     0.003 C 
ATOM     21  C   UNL     1      -6.887  -0.662 -10.475  1.00  0.00     0.085 C 
ATOM     22  C   UNL     1      -4.368   0.964 -10.260  1.00  0.00    -0.000 C 
ATOM     23  C   UNL     1      -6.574   0.116  -9.222  1.00  0.00     0.159 C 
ATOM     24  C   UNL     1      -5.312   0.883  -9.064  1.00  0.00     0.005 C 
ATOM     25  C   UNL     1      -2.915   1.498  -9.922  1.00  0.00     0.020 C 
ATOM     26  C   UNL     1      -4.986   1.978 -11.264  1.00  0.00     0.017 C 
ATOM     27  O   UNL     1      -7.444   0.131  -8.304  1.00  0.00    -0.295 OA
ATOM     28  C   UNL     1      -5.051   1.514  -7.907  1.00  0.00     0.055 C 
ATOM     29  C   UNL     1      -2.565   1.622  -8.432  1.00  0.00     0.081 C 
ATOM     30  C   UNL     1      -3.735   2.098  -7.645  1.00  0.00     0.156 C 
ATOM     31  O   UNL     1      -3.580   2.907  -6.692  1.00  0.00    -0.295 OA
ENDBRANCH   9  11
ENDBRANCH   8   9
ENDBRANCH   1   8
TORSDOF 6
ENDMDL
MODEL 9
REMARK VINA RESULT:    -6.420      1.467      2.196
REMARK INTER + INTRA:         -10.448
REMARK INTER:                  -9.176
REMARK INTRA:                  -1.272
REMARK UNBOUND:                -1.776
REMARK SMILES CC[C@H](CC[C@H](C)[C@@H]1CC[C@H]2[C@H]3CC(=O)C4=CC(=O)CC[C@@]4(C)[C@H]3CC[C@]21C)C(C)C
REMARK SMILES IDX 4 1 3 2 2 3 1 4 29 5 30 6 31 7 5 8 6 9 7 10 8 11 9 12 27 13
REMARK SMILES IDX 10 14 11 15 26 16 28 17 12 18 25 19 24 20 13 21 22 22 14 23
REMARK SMILES IDX 16 24 21 25 23 26 15 27 17 28 20 29 18 30 19 31
REMARK H PARENT
REMARK Flexibility Score: inf
ROOT
ATOM      1  C   UNL     1      -4.361  -0.659 -10.477  1.00  0.00     0.004 C 
ENDROOT
BRANCH   1   2
ATOM      2  C   UNL     1      -4.761   0.829 -10.251  1.00  0.00    -0.009 C 
BRANCH   2   3
ATOM      3  C   UNL     1      -4.003   1.745 -11.252  1.00  0.00     0.000 C 
ATOM      4  C   UNL     1      -2.711   2.335 -10.683  1.00  0.00     0.004 C 
ENDBRANCH   2   3
BRANCH   2   5
ATOM      5  C   UNL     1      -6.311   1.050 -10.289  1.00  0.00    -0.014 C 
ATOM      6  C   UNL     1      -6.672   2.544 -10.367  1.00  0.00     0.007 C 
ATOM      7  C   UNL     1      -7.061   0.382  -9.122  1.00  0.00     0.007 C 
ENDBRANCH   2   5
ENDBRANCH   1   2
BRANCH   1   8
ATOM      8  C   UNL     1      -4.780  -1.203 -11.858  1.00  0.00     0.004 C 
BRANCH   8   9
ATOM      9  C   UNL     1      -5.934  -2.259 -11.773  1.00  0.00    -0.011 C 
ATOM     10  C   UNL     1      -5.872  -2.945 -10.394  1.00  0.00     0.008 C 
BRANCH   9  11
ATOM     11  C   UNL     1      -5.857  -3.293 -12.954  1.00  0.00    -0.002 C 
ATOM     12  C   UNL     1      -4.925  -2.821 -14.078  1.00  0.00     0.005 C 
ATOM     13  C   UNL     1      -7.183  -3.689 -13.689  1.00  0.00    -0.026 C 
ATOM     14  C   UNL     1      -5.310  -3.593 -15.333  1.00  0.00     0.005 C 
ATOM     15  C   UNL     1      -6.707  -4.184 -15.092  1.00  0.00    -0.001 C 
ATOM     16  C   UNL     1      -7.955  -4.808 -12.932  1.00  0.00     0.007 C 
ATOM     17  C   UNL     1      -8.110  -2.458 -13.897  1.00  0.00     0.012 C 
ATOM     18  C   UNL     1      -6.784  -5.731 -15.309  1.00  0.00     0.004 C 
ATOM     19  C   UNL     1      -8.917  -5.588 -13.839  1.00  0.00     0.005 C 
ATOM     20  C   UNL     1      -8.252  -6.220 -15.104  1.00  0.00     0.003 C 
ATOM     21  C   UNL     1      -5.703  -6.561 -14.541  1.00  0.00     0.085 C 
ATOM     22  C   UNL     1      -8.381  -7.785 -15.147  1.00  0.00    -0.000 C 
ATOM     23  C   UNL     1      -6.201  -7.753 -13.764  1.00  0.00     0.159 C 
ATOM     24  C   UNL     1      -7.543  -8.346 -14.002  1.00  0.00     0.005 C 
ATOM     25  C   UNL     1      -9.904  -8.221 -15.128  1.00  0.00     0.020 C 
ATOM     26  C   UNL     1      -7.781  -8.341 -16.470  1.00  0.00     0.017 C 
ATOM     27  O   UNL     1      -5.421  -8.272 -12.914  1.00  0.00    -0.295 OA
ATOM     28  C   UNL     1      -7.966  -9.373 -13.246  1.00  0.00     0.055 C 
ATOM     29  C   UNL     1     -10.394  -8.926 -13.856  1.00  0.00     0.081 C 
ATOM     30  C   UNL     1      -9.351  -9.838 -13.313  1.00  0.00     0.156 C 
ATOM     31  O   UNL     1      -9.670 -10.951 -12.814  1.00  0.00    -0.295 OA
ENDBRANCH   9  11
ENDBRANCH   8   9
ENDBRANCH   1   8
TORSDOF 6
ENDMDL
