MODEL 1
REMARK VINA RESULT:    -2.931      0.000      0.000
REMARK INTER + INTRA:          -3.473
REMARK INTER:                  -3.446
REMARK INTRA:                  -0.028
REMARK UNBOUND:                -0.028
REMARK SMILES O=C([O-])CCC(=O)[O-]
REMARK SMILES IDX 4 1 2 2 1 3 3 4 5 5 6 6 7 7 8 8
REMARK H PARENT
REMARK Flexibility Score: inf
ROOT
ATOM      1  C   UNL     1     -17.402 -26.778  11.567  1.00  0.00     0.059 C 
ENDROOT
BRANCH   1   2
ATOM      2  C   UNL     1     -16.061 -27.123  10.995  1.00  0.00     0.042 C 
ATOM      3  O   UNL     1     -15.979 -27.840   9.962  1.00  0.00    -0.550 OA
ATOM      4  O   UNL     1     -14.902 -26.688  11.624  1.00  0.00    -0.550 OA
ENDBRANCH   1   2
BRANCH   1   5
ATOM      5  C   UNL     1     -18.182 -28.031  11.976  1.00  0.00     0.059 C 
BRANCH   5   6
ATOM      6  C   UNL     1     -19.499 -27.683  12.601  1.00  0.00     0.042 C 
ATOM      7  O   UNL     1     -20.442 -27.249  11.888  1.00  0.00    -0.550 OA
ATOM      8  O   UNL     1     -19.671 -27.799  13.974  1.00  0.00    -0.550 OA
ENDBRANCH   5   6
ENDBRANCH   1   5
TORSDOF 3
ENDMDL
MODEL 2
REMARK VINA RESULT:    -2.856     16.629     18.262
REMARK INTER + INTRA:          -3.385
REMARK INTER:                  -3.350
REMARK INTRA:                  -0.035
REMARK UNBOUND:                -0.028
REMARK SMILES O=C([O-])CCC(=O)[O-]
REMARK SMILES IDX 4 1 2 2 1 3 3 4 5 5 6 6 7 7 8 8
REMARK H PARENT
REMARK Flexibility Score: inf
ROOT
ATOM      1  C   UNL     1     -30.772 -14.370  13.037  1.00  0.00     0.059 C 
ENDROOT
BRANCH   1   2
ATOM      2  C   UNL     1     -30.761 -13.123  13.868  1.00  0.00     0.042 C 
ATOM      3  O   UNL     1     -30.499 -12.011  13.337  1.00  0.00    -0.550 OA
ATOM      4  O   UNL     1     -31.000 -13.193  15.233  1.00  0.00    -0.550 OA
ENDBRANCH   1   2
BRANCH   1   5
ATOM      5  C   UNL     1     -30.313 -15.590  13.842  1.00  0.00     0.059 C 
BRANCH   5   6
ATOM      6  C   UNL     1     -30.562 -16.867  13.099  1.00  0.00     0.042 C 
ATOM      7  O   UNL     1     -30.228 -17.970  13.607  1.00  0.00    -0.550 OA
ATOM      8  O   UNL     1     -31.125 -16.837  11.830  1.00  0.00    -0.550 OA
ENDBRANCH   5   6
ENDBRANCH   1   5
TORSDOF 3
ENDMDL
MODEL 3
REMARK VINA RESULT:    -2.846     15.261     16.375
REMARK INTER + INTRA:          -3.373
REMARK INTER:                  -3.292
REMARK INTRA:                  -0.081
REMARK UNBOUND:                -0.028
REMARK SMILES O=C([O-])CCC(=O)[O-]
REMARK SMILES IDX 4 1 2 2 1 3 3 4 5 5 6 6 7 7 8 8
REMARK H PARENT
REMARK Flexibility Score: inf
ROOT
ATOM      1  C   UNL     1     -30.005 -18.660  13.890  1.00  0.00     0.059 C 
ENDROOT
BRANCH   1   2
ATOM      2  C   UNL     1     -30.765 -19.916  13.588  1.00  0.00     0.042 C 
ATOM      3  O   UNL     1     -31.125 -20.170  12.408  1.00  0.00    -0.550 OA
ATOM      4  O   UNL     1     -31.110 -20.785  14.615  1.00  0.00    -0.550 OA
ENDBRANCH   1   2
BRANCH   1   5
ATOM      5  C   UNL     1     -30.945 -17.498  14.226  1.00  0.00     0.059 C 
BRANCH   5   6
ATOM      6  C   UNL     1     -30.669 -16.298  13.371  1.00  0.00     0.042 C 
ATOM      7  O   UNL     1     -30.372 -15.197  13.904  1.00  0.00    -0.550 OA
ATOM      8  O   UNL     1     -30.778 -16.387  11.990  1.00  0.00    -0.550 OA
ENDBRANCH   5   6
ENDBRANCH   1   5
TORSDOF 3
ENDMDL
MODEL 4
REMARK VINA RESULT:    -2.846     15.431     16.303
REMARK INTER + INTRA:          -3.373
REMARK INTER:                  -3.271
REMARK INTRA:                  -0.101
REMARK UNBOUND:                -0.028
REMARK SMILES O=C([O-])CCC(=O)[O-]
REMARK SMILES IDX 4 1 2 2 1 3 3 4 5 5 6 6 7 7 8 8
REMARK H PARENT
REMARK Flexibility Score: inf
ROOT
ATOM      1  C   UNL     1     -29.908 -17.583  13.872  1.00  0.00     0.059 C 
ENDROOT
BRANCH   1   2
ATOM      2  C   UNL     1     -30.471 -16.302  13.333  1.00  0.00     0.042 C 
ATOM      3  O   UNL     1     -30.955 -16.264  12.171  1.00  0.00    -0.550 OA
ATOM      4  O   UNL     1     -30.422 -15.144  14.097  1.00  0.00    -0.550 OA
ENDBRANCH   1   2
BRANCH   1   5
ATOM      5  C   UNL     1     -30.995 -18.454  14.511  1.00  0.00     0.059 C 
BRANCH   5   6
ATOM      6  C   UNL     1     -31.066 -19.806  13.870  1.00  0.00     0.042 C 
ATOM      7  O   UNL     1     -31.124 -19.910  12.616  1.00  0.00    -0.550 OA
ATOM      8  O   UNL     1     -31.110 -20.949  14.657  1.00  0.00    -0.550 OA
ENDBRANCH   5   6
ENDBRANCH   1   5
TORSDOF 3
ENDMDL
MODEL 5
REMARK VINA RESULT:    -2.837     15.614     17.367
REMARK INTER + INTRA:          -3.362
REMARK INTER:                  -3.255
REMARK INTRA:                  -0.107
REMARK UNBOUND:                -0.028
REMARK SMILES O=C([O-])CCC(=O)[O-]
REMARK SMILES IDX 4 1 2 2 1 3 3 4 5 5 6 6 7 7 8 8
REMARK H PARENT
REMARK Flexibility Score: inf
ROOT
ATOM      1  C   UNL     1     -29.794 -16.871  13.470  1.00  0.00     0.059 C 
ENDROOT
BRANCH   1   2
ATOM      2  C   UNL     1     -30.425 -18.117  14.014  1.00  0.00     0.042 C 
ATOM      3  O   UNL     1     -31.125 -18.067  15.060  1.00  0.00    -0.550 OA
ATOM      4  O   UNL     1     -30.205 -19.338  13.391  1.00  0.00    -0.550 OA
ENDBRANCH   1   2
BRANCH   1   5
ATOM      5  C   UNL     1     -30.826 -15.966  12.789  1.00  0.00     0.059 C 
BRANCH   5   6
ATOM      6  C   UNL     1     -30.851 -14.599  13.401  1.00  0.00     0.042 C 
ATOM      7  O   UNL     1     -31.086 -14.461  14.631  1.00  0.00    -0.550 OA
ATOM      8  O   UNL     1     -30.657 -13.476  12.607  1.00  0.00    -0.550 OA
ENDBRANCH   5   6
ENDBRANCH   1   5
TORSDOF 3
ENDMDL
MODEL 6
REMARK VINA RESULT:    -2.768     15.869     17.312
REMARK INTER + INTRA:          -3.282
REMARK INTER:                  -3.214
REMARK INTRA:                  -0.068
REMARK UNBOUND:                -0.028
REMARK SMILES O=C([O-])CCC(=O)[O-]
REMARK SMILES IDX 4 1 2 2 1 3 3 4 5 5 6 6 7 7 8 8
REMARK H PARENT
REMARK Flexibility Score: inf
ROOT
ATOM      1  C   UNL     1     -30.594 -15.960  12.770  1.00  0.00     0.059 C 
ENDROOT
BRANCH   1   2
ATOM      2  C   UNL     1     -30.707 -14.583  13.349  1.00  0.00     0.042 C 
ATOM      3  O   UNL     1     -30.592 -14.407  14.591  1.00  0.00    -0.550 OA
ATOM      4  O   UNL     1     -30.979 -13.500  12.524  1.00  0.00    -0.550 OA
ENDBRANCH   1   2
BRANCH   1   5
ATOM      5  C   UNL     1     -29.809 -16.899  13.692  1.00  0.00     0.059 C 
BRANCH   5   6
ATOM      6  C   UNL     1     -30.579 -18.149  13.993  1.00  0.00     0.042 C 
ATOM      7  O   UNL     1     -31.025 -18.353  15.153  1.00  0.00    -0.550 OA
ATOM      8  O   UNL     1     -30.769 -19.105  13.005  1.00  0.00    -0.550 OA
ENDBRANCH   5   6
ENDBRANCH   1   5
TORSDOF 3
ENDMDL
MODEL 7
REMARK VINA RESULT:    -2.699      2.379      3.821
REMARK INTER + INTRA:          -3.200
REMARK INTER:                  -3.173
REMARK INTRA:                  -0.028
REMARK UNBOUND:                -0.028
REMARK SMILES O=C([O-])CCC(=O)[O-]
REMARK SMILES IDX 4 1 2 2 1 3 3 4 5 5 6 6 7 7 8 8
REMARK H PARENT
REMARK Flexibility Score: inf
ROOT
ATOM      1  C   UNL     1     -14.403 -27.955  12.372  1.00  0.00     0.059 C 
ENDROOT
BRANCH   1   2
ATOM      2  C   UNL     1     -13.253 -27.469  13.201  1.00  0.00     0.042 C 
ATOM      3  O   UNL     1     -13.297 -27.557  14.457  1.00  0.00    -0.550 OA
ATOM      4  O   UNL     1     -12.152 -26.883  12.591  1.00  0.00    -0.550 OA
ENDBRANCH   1   2
BRANCH   1   5
ATOM      5  C   UNL     1     -15.274 -26.795  11.880  1.00  0.00     0.059 C 
BRANCH   5   6
ATOM      6  C   UNL     1     -16.380 -27.275  10.990  1.00  0.00     0.042 C 
ATOM      7  O   UNL     1     -16.113 -27.847   9.900  1.00  0.00    -0.550 OA
ATOM      8  O   UNL     1     -17.705 -27.054  11.344  1.00  0.00    -0.550 OA
ENDBRANCH   5   6
ENDBRANCH   1   5
TORSDOF 3
ENDMDL
MODEL 8
REMARK VINA RESULT:    -2.697      2.402      4.727
REMARK INTER + INTRA:          -3.198
REMARK INTER:                  -3.170
REMARK INTRA:                  -0.028
REMARK UNBOUND:                -0.028
REMARK SMILES O=C([O-])CCC(=O)[O-]
REMARK SMILES IDX 4 1 2 2 1 3 3 4 5 5 6 6 7 7 8 8
REMARK H PARENT
REMARK Flexibility Score: inf
ROOT
ATOM      1  C   UNL     1     -15.344 -26.754  12.026  1.00  0.00     0.059 C 
ENDROOT
BRANCH   1   2
ATOM      2  C   UNL     1     -16.424 -27.182  11.079  1.00  0.00     0.042 C 
ATOM      3  O   UNL     1     -17.633 -26.965  11.356  1.00  0.00    -0.550 OA
ATOM      4  O   UNL     1     -16.097 -27.857   9.910  1.00  0.00    -0.550 OA
ENDBRANCH   1   2
BRANCH   1   5
ATOM      5  C   UNL     1     -14.419 -27.918  12.393  1.00  0.00     0.059 C 
BRANCH   5   6
ATOM      6  C   UNL     1     -13.256 -27.460  13.220  1.00  0.00     0.042 C 
ATOM      7  O   UNL     1     -12.255 -26.934  12.667  1.00  0.00    -0.550 OA
ATOM      8  O   UNL     1     -13.261 -27.652  14.595  1.00  0.00    -0.550 OA
ENDBRANCH   5   6
ENDBRANCH   1   5
TORSDOF 3
ENDMDL
MODEL 9
REMARK VINA RESULT:    -2.415     14.299     15.617
REMARK INTER + INTRA:          -2.867
REMARK INTER:                  -2.831
REMARK INTRA:                  -0.035
REMARK UNBOUND:                -0.028
REMARK SMILES O=C([O-])CCC(=O)[O-]
REMARK SMILES IDX 4 1 2 2 1 3 3 4 5 5 6 6 7 7 8 8
REMARK H PARENT
REMARK Flexibility Score: inf
ROOT
ATOM      1  C   UNL     1     -30.552 -20.326  13.812  1.00  0.00     0.059 C 
ENDROOT
BRANCH   1   2
ATOM      2  C   UNL     1     -30.782 -21.658  13.162  1.00  0.00     0.042 C 
ATOM      3  O   UNL     1     -30.760 -22.711  13.853  1.00  0.00    -0.550 OA
ATOM      4  O   UNL     1     -30.978 -21.738  11.791  1.00  0.00    -0.550 OA
ENDBRANCH   1   2
BRANCH   1   5
ATOM      5  C   UNL     1     -31.057 -19.175  12.936  1.00  0.00     0.059 C 
BRANCH   5   6
ATOM      6  C   UNL     1     -31.010 -17.866  13.664  1.00  0.00     0.042 C 
ATOM      7  O   UNL     1     -31.125 -17.835  14.918  1.00  0.00    -0.550 OA
ATOM      8  O   UNL     1     -30.880 -16.679  12.955  1.00  0.00    -0.550 OA
ENDBRANCH   5   6
ENDBRANCH   1   5
TORSDOF 3
ENDMDL
