MODEL 1
REMARK VINA RESULT:    -4.923      0.000      0.000
REMARK INTER + INTRA:          -5.664
REMARK INTER:                  -5.642
REMARK INTRA:                  -0.022
REMARK UNBOUND:                -0.022
REMARK SMILES CC=Cc1ccc(O)c(OC)c1
REMARK SMILES IDX 4 1 12 2 9 3 7 4 6 5 5 6 3 7 1 8 2 9 10 10 11 11 8 12
REMARK H PARENT 8 13
REMARK Flexibility Score: inf
ROOT
ATOM      1  C   UNL     1       3.173  27.908  56.947  1.00  0.00    -0.022 A 
ATOM      2  C   UNL     1       1.909  28.197  57.490  1.00  0.00     0.058 A 
ATOM      3  C   UNL     1       0.877  28.703  56.674  1.00  0.00     0.161 A 
ATOM      4  C   UNL     1       1.117  28.896  55.301  1.00  0.00     0.157 A 
ATOM      5  C   UNL     1       2.366  28.575  54.759  1.00  0.00     0.051 A 
ATOM      6  C   UNL     1       3.384  28.076  55.573  1.00  0.00     0.012 A 
ENDROOT
BRANCH   1   7
ATOM      7  C   UNL     1       4.260  27.357  57.780  1.00  0.00     0.003 C 
ATOM      8  C   UNL     1       5.843  29.256  57.350  1.00  0.00     0.035 C 
ATOM      9  C   UNL     1       5.441  27.958  57.983  1.00  0.00    -0.030 C 
ENDBRANCH   1   7
BRANCH   3  10
ATOM     10  O   UNL     1      -0.391  29.019  57.190  1.00  0.00    -0.493 OA
ATOM     11  C   UNL     1      -0.727  30.260  57.803  1.00  0.00     0.278 C 
ENDBRANCH   3  10
BRANCH   4  12
ATOM     12  O   UNL     1       0.126  29.397  54.459  1.00  0.00    -0.504 OA
ATOM     13  H   UNL     1      -0.719  29.826  54.816  1.00  0.00     0.293 HD
ENDBRANCH   4  12
TORSDOF 3
ENDMDL
MODEL 2
REMARK VINA RESULT:    -4.826      2.497      4.734
REMARK INTER + INTRA:          -5.553
REMARK INTER:                  -5.998
REMARK INTRA:                   0.445
REMARK UNBOUND:                -0.022
REMARK SMILES CC=Cc1ccc(O)c(OC)c1
REMARK SMILES IDX 4 1 12 2 9 3 7 4 6 5 5 6 3 7 1 8 2 9 10 10 11 11 8 12
REMARK H PARENT 8 13
REMARK Flexibility Score: inf
ROOT
ATOM      1  C   UNL     1       1.657  28.408  56.620  1.00  0.00    -0.022 A 
ATOM      2  C   UNL     1       2.268  28.371  55.355  1.00  0.00     0.058 A 
ATOM      3  C   UNL     1       3.647  28.109  55.232  1.00  0.00     0.161 A 
ATOM      4  C   UNL     1       4.405  27.861  56.391  1.00  0.00     0.157 A 
ATOM      5  C   UNL     1       3.787  27.866  57.645  1.00  0.00     0.051 A 
ATOM      6  C   UNL     1       2.420  28.129  57.759  1.00  0.00     0.012 A 
ENDROOT
BRANCH   1   7
ATOM      7  C   UNL     1       0.209  28.660  56.767  1.00  0.00     0.003 C 
ATOM      8  C   UNL     1       0.059  30.206  54.796  1.00  0.00     0.035 C 
ATOM      9  C   UNL     1      -0.514  29.439  55.949  1.00  0.00    -0.030 C 
ENDBRANCH   1   7
BRANCH   3  10
ATOM     10  O   UNL     1       4.291  28.083  53.984  1.00  0.00    -0.493 OA
ATOM     11  C   UNL     1       4.118  29.063  52.965  1.00  0.00     0.278 C 
ENDBRANCH   3  10
BRANCH   4  12
ATOM     12  O   UNL     1       5.773  27.600  56.317  1.00  0.00    -0.504 OA
ATOM     13  H   UNL     1       6.148  26.837  55.766  1.00  0.00     0.293 HD
ENDBRANCH   4  12
TORSDOF 3
ENDMDL
MODEL 3
REMARK VINA RESULT:    -4.790      1.398      2.946
REMARK INTER + INTRA:          -5.512
REMARK INTER:                  -5.563
REMARK INTRA:                   0.051
REMARK UNBOUND:                -0.022
REMARK SMILES CC=Cc1ccc(O)c(OC)c1
REMARK SMILES IDX 4 1 12 2 9 3 7 4 6 5 5 6 3 7 1 8 2 9 10 10 11 11 8 12
REMARK H PARENT 8 13
REMARK Flexibility Score: inf
ROOT
ATOM      1  C   UNL     1       3.364  27.702  57.243  1.00  0.00    -0.022 A 
ATOM      2  C   UNL     1       3.793  27.883  55.917  1.00  0.00     0.058 A 
ATOM      3  C   UNL     1       2.970  28.538  54.979  1.00  0.00     0.161 A 
ATOM      4  C   UNL     1       1.718  29.032  55.391  1.00  0.00     0.157 A 
ATOM      5  C   UNL     1       1.309  28.879  56.719  1.00  0.00     0.051 A 
ATOM      6  C   UNL     1       2.129  28.228  57.642  1.00  0.00     0.012 A 
ENDROOT
BRANCH   1   7
ATOM      7  C   UNL     1       4.221  27.038  58.246  1.00  0.00     0.003 C 
ATOM      8  C   UNL     1       6.125  28.655  58.001  1.00  0.00     0.035 C 
ATOM      9  C   UNL     1       5.440  27.466  58.605  1.00  0.00    -0.030 C 
ENDBRANCH   1   7
BRANCH   3  10
ATOM     10  O   UNL     1       3.362  28.718  53.643  1.00  0.00    -0.493 OA
ATOM     11  C   UNL     1       4.592  29.310  53.235  1.00  0.00     0.278 C 
ENDBRANCH   3  10
BRANCH   4  12
ATOM     12  O   UNL     1       0.870  29.683  54.496  1.00  0.00    -0.504 OA
ATOM     13  H   UNL     1       0.555  29.249  53.637  1.00  0.00     0.293 HD
ENDBRANCH   4  12
TORSDOF 3
ENDMDL
MODEL 4
REMARK VINA RESULT:    -4.742      7.942     10.676
REMARK INTER + INTRA:          -5.457
REMARK INTER:                  -5.207
REMARK INTRA:                  -0.250
REMARK UNBOUND:                -0.022
REMARK SMILES CC=Cc1ccc(O)c(OC)c1
REMARK SMILES IDX 4 1 12 2 9 3 7 4 6 5 5 6 3 7 1 8 2 9 10 10 11 11 8 12
REMARK H PARENT 8 13
REMARK Flexibility Score: inf
ROOT
ATOM      1  C   UNL     1      -7.607  31.770  57.915  1.00  0.00    -0.022 A 
ATOM      2  C   UNL     1      -6.603  31.867  58.892  1.00  0.00     0.058 A 
ATOM      3  C   UNL     1      -5.728  30.788  59.132  1.00  0.00     0.161 A 
ATOM      4  C   UNL     1      -5.857  29.616  58.364  1.00  0.00     0.157 A 
ATOM      5  C   UNL     1      -6.837  29.536  57.369  1.00  0.00     0.051 A 
ATOM      6  C   UNL     1      -7.701  30.608  57.139  1.00  0.00     0.012 A 
ENDROOT
BRANCH   1   7
ATOM      7  C   UNL     1      -8.519  32.898  57.634  1.00  0.00     0.003 C 
ATOM      8  C   UNL     1     -10.220  32.231  59.355  1.00  0.00     0.035 C 
ATOM      9  C   UNL     1      -9.670  33.123  58.283  1.00  0.00    -0.030 C 
ENDBRANCH   1   7
BRANCH   3  10
ATOM     10  O   UNL     1      -4.726  30.847  60.114  1.00  0.00    -0.493 OA
ATOM     11  C   UNL     1      -3.659  31.791  60.123  1.00  0.00     0.278 C 
ENDBRANCH   3  10
BRANCH   4  12
ATOM     12  O   UNL     1      -5.015  28.523  58.569  1.00  0.00    -0.504 OA
ATOM     13  H   UNL     1      -5.363  27.572  58.595  1.00  0.00     0.293 HD
ENDBRANCH   4  12
TORSDOF 3
ENDMDL
MODEL 5
REMARK VINA RESULT:    -4.679      1.243      2.453
REMARK INTER + INTRA:          -5.384
REMARK INTER:                  -5.296
REMARK INTRA:                  -0.089
REMARK UNBOUND:                -0.022
REMARK SMILES CC=Cc1ccc(O)c(OC)c1
REMARK SMILES IDX 4 1 12 2 9 3 7 4 6 5 5 6 3 7 1 8 2 9 10 10 11 11 8 12
REMARK H PARENT 8 13
REMARK Flexibility Score: inf
ROOT
ATOM      1  C   UNL     1       2.802  28.276  56.033  1.00  0.00    -0.022 A 
ATOM      2  C   UNL     1       2.119  29.028  55.063  1.00  0.00     0.058 A 
ATOM      3  C   UNL     1       0.860  29.593  55.348  1.00  0.00     0.161 A 
ATOM      4  C   UNL     1       0.301  29.415  56.627  1.00  0.00     0.157 A 
ATOM      5  C   UNL     1       0.998  28.694  57.601  1.00  0.00     0.051 A 
ATOM      6  C   UNL     1       2.245  28.135  57.310  1.00  0.00     0.012 A 
ENDROOT
BRANCH   1   7
ATOM      7  C   UNL     1       4.132  27.694  55.761  1.00  0.00     0.003 C 
ATOM      8  C   UNL     1       5.370  29.287  57.253  1.00  0.00     0.035 C 
ATOM      9  C   UNL     1       5.276  28.122  56.314  1.00  0.00    -0.030 C 
ENDBRANCH   1   7
BRANCH   3  10
ATOM     10  O   UNL     1       0.144  30.334  54.394  1.00  0.00    -0.493 OA
ATOM     11  C   UNL     1       0.656  31.470  53.704  1.00  0.00     0.278 C 
ENDBRANCH   3  10
BRANCH   4  12
ATOM     12  O   UNL     1      -0.944  29.953  56.951  1.00  0.00    -0.504 OA
ATOM     13  H   UNL     1      -1.571  29.505  57.608  1.00  0.00     0.293 HD
ENDBRANCH   4  12
TORSDOF 3
ENDMDL
MODEL 6
REMARK VINA RESULT:    -4.544      8.583     10.815
REMARK INTER + INTRA:          -5.230
REMARK INTER:                  -4.994
REMARK INTRA:                  -0.236
REMARK UNBOUND:                -0.022
REMARK SMILES CC=Cc1ccc(O)c(OC)c1
REMARK SMILES IDX 4 1 12 2 9 3 7 4 6 5 5 6 3 7 1 8 2 9 10 10 11 11 8 12
REMARK H PARENT 8 13
REMARK Flexibility Score: inf
ROOT
ATOM      1  C   UNL     1      -7.460  31.822  57.844  1.00  0.00    -0.022 A 
ATOM      2  C   UNL     1      -7.591  30.613  57.141  1.00  0.00     0.058 A 
ATOM      3  C   UNL     1      -6.722  29.534  57.401  1.00  0.00     0.161 A 
ATOM      4  C   UNL     1      -5.732  29.673  58.392  1.00  0.00     0.157 A 
ATOM      5  C   UNL     1      -5.627  30.866  59.112  1.00  0.00     0.051 A 
ATOM      6  C   UNL     1      -6.490  31.931  58.848  1.00  0.00     0.012 A 
ENDROOT
BRANCH   1   7
ATOM      7  C   UNL     1      -8.375  32.956  57.601  1.00  0.00     0.003 C 
ATOM      8  C   UNL     1     -10.057  32.245  59.322  1.00  0.00     0.035 C 
ATOM      9  C   UNL     1      -9.519  33.164  58.267  1.00  0.00    -0.030 C 
ENDBRANCH   1   7
BRANCH   3  10
ATOM     10  O   UNL     1      -6.815  28.319  56.703  1.00  0.00    -0.493 OA
ATOM     11  C   UNL     1      -7.692  27.252  57.053  1.00  0.00     0.278 C 
ENDBRANCH   3  10
BRANCH   4  12
ATOM     12  O   UNL     1      -4.849  28.632  58.679  1.00  0.00    -0.504 OA
ATOM     13  H   UNL     1      -4.081  28.391  58.065  1.00  0.00     0.293 HD
ENDBRANCH   4  12
TORSDOF 3
ENDMDL
MODEL 7
REMARK VINA RESULT:    -4.381      8.368      9.782
REMARK INTER + INTRA:          -5.043
REMARK INTER:                  -5.087
REMARK INTRA:                   0.044
REMARK UNBOUND:                -0.022
REMARK SMILES CC=Cc1ccc(O)c(OC)c1
REMARK SMILES IDX 4 1 12 2 9 3 7 4 6 5 5 6 3 7 1 8 2 9 10 10 11 11 8 12
REMARK H PARENT 8 13
REMARK Flexibility Score: inf
ROOT
ATOM      1  C   UNL     1      -7.331  28.321  57.156  1.00  0.00    -0.022 A 
ATOM      2  C   UNL     1      -6.152  28.680  57.832  1.00  0.00     0.058 A 
ATOM      3  C   UNL     1      -5.863  30.033  58.100  1.00  0.00     0.161 A 
ATOM      4  C   UNL     1      -6.780  31.023  57.703  1.00  0.00     0.157 A 
ATOM      5  C   UNL     1      -7.967  30.659  57.060  1.00  0.00     0.051 A 
ATOM      6  C   UNL     1      -8.246  29.317  56.796  1.00  0.00     0.012 A 
ENDROOT
BRANCH   1   7
ATOM      7  C   UNL     1      -7.662  26.907  56.886  1.00  0.00     0.003 C 
ATOM      8  C   UNL     1      -6.728  26.911  54.557  1.00  0.00     0.035 C 
ATOM      9  C   UNL     1      -7.379  26.266  55.743  1.00  0.00    -0.030 C 
ENDBRANCH   1   7
BRANCH   3  10
ATOM     10  O   UNL     1      -4.685  30.425  58.757  1.00  0.00    -0.493 OA
ATOM     11  C   UNL     1      -4.648  31.160  59.977  1.00  0.00     0.278 C 
ENDBRANCH   3  10
BRANCH   4  12
ATOM     12  O   UNL     1      -6.532  32.374  57.944  1.00  0.00    -0.504 OA
ATOM     13  H   UNL     1      -6.030  32.692  58.764  1.00  0.00     0.293 HD
ENDBRANCH   4  12
TORSDOF 3
ENDMDL
MODEL 8
REMARK VINA RESULT:    -4.316      2.047      3.529
REMARK INTER + INTRA:          -4.968
REMARK INTER:                  -4.794
REMARK INTRA:                  -0.175
REMARK UNBOUND:                -0.022
REMARK SMILES CC=Cc1ccc(O)c(OC)c1
REMARK SMILES IDX 4 1 12 2 9 3 7 4 6 5 5 6 3 7 1 8 2 9 10 10 11 11 8 12
REMARK H PARENT 8 13
REMARK Flexibility Score: inf
ROOT
ATOM      1  C   UNL     1       3.697  28.495  54.314  1.00  0.00    -0.022 A 
ATOM      2  C   UNL     1       2.320  28.477  54.594  1.00  0.00     0.058 A 
ATOM      3  C   UNL     1       1.860  28.303  55.915  1.00  0.00     0.161 A 
ATOM      4  C   UNL     1       2.796  28.170  56.957  1.00  0.00     0.157 A 
ATOM      5  C   UNL     1       4.165  28.222  56.678  1.00  0.00     0.051 A 
ATOM      6  C   UNL     1       4.614  28.393  55.367  1.00  0.00     0.012 A 
ENDROOT
BRANCH   1   7
ATOM      7  C   UNL     1       4.199  28.699  52.939  1.00  0.00     0.003 C 
ATOM      8  C   UNL     1       3.745  31.166  52.910  1.00  0.00     0.035 C 
ATOM      9  C   UNL     1       4.245  29.884  52.316  1.00  0.00    -0.030 C 
ENDBRANCH   1   7
BRANCH   3  10
ATOM     10  O   UNL     1       0.490  28.262  56.226  1.00  0.00    -0.493 OA
ATOM     11  C   UNL     1      -0.308  29.407  56.507  1.00  0.00     0.278 C 
ENDBRANCH   3  10
BRANCH   4  12
ATOM     12  O   UNL     1       2.384  27.993  58.278  1.00  0.00    -0.504 OA
ATOM     13  H   UNL     1       1.410  27.879  58.529  1.00  0.00     0.293 HD
ENDBRANCH   4  12
TORSDOF 3
ENDMDL
MODEL 9
REMARK VINA RESULT:    -4.310      8.614     10.038
REMARK INTER + INTRA:          -4.961
REMARK INTER:                  -4.726
REMARK INTRA:                  -0.235
REMARK UNBOUND:                -0.022
REMARK SMILES CC=Cc1ccc(O)c(OC)c1
REMARK SMILES IDX 4 1 12 2 9 3 7 4 6 5 5 6 3 7 1 8 2 9 10 10 11 11 8 12
REMARK H PARENT 8 13
REMARK Flexibility Score: inf
ROOT
ATOM      1  C   UNL     1      -7.225  28.255  57.240  1.00  0.00    -0.022 A 
ATOM      2  C   UNL     1      -7.998  29.409  57.028  1.00  0.00     0.058 A 
ATOM      3  C   UNL     1      -7.571  30.659  57.519  1.00  0.00     0.161 A 
ATOM      4  C   UNL     1      -6.346  30.745  58.206  1.00  0.00     0.157 A 
ATOM      5  C   UNL     1      -5.563  29.600  58.386  1.00  0.00     0.051 A 
ATOM      6  C   UNL     1      -5.994  28.365  57.898  1.00  0.00     0.012 A 
ENDROOT
BRANCH   1   7
ATOM      7  C   UNL     1      -7.645  26.940  56.714  1.00  0.00     0.003 C 
ATOM      8  C   UNL     1      -6.401  27.170  54.547  1.00  0.00     0.035 C 
ATOM      9  C   UNL     1      -7.267  26.440  55.529  1.00  0.00    -0.030 C 
ENDBRANCH   1   7
BRANCH   3  10
ATOM     10  O   UNL     1      -8.330  31.827  57.340  1.00  0.00    -0.493 OA
ATOM     11  C   UNL     1      -9.466  32.180  58.123  1.00  0.00     0.278 C 
ENDBRANCH   3  10
BRANCH   4  12
ATOM     12  O   UNL     1      -5.887  31.961  58.711  1.00  0.00    -0.504 OA
ATOM     13  H   UNL     1      -6.248  32.359  59.569  1.00  0.00     0.293 HD
ENDBRANCH   4  12
TORSDOF 3
ENDMDL
