MODEL 1
REMARK VINA RESULT:    -3.028      0.000      0.000
REMARK INTER + INTRA:          -7.002
REMARK INTER:                  -5.240
REMARK INTRA:                  -1.762
REMARK UNBOUND:                -1.762
REMARK SMILES CCCCCCCCCCCCCCO
REMARK SMILES IDX 8 1 7 2 6 3 5 4 4 5 3 6 2 7 1 8 9 9 10 10 11 11 12 12 13 13
REMARK SMILES IDX 14 14 15 15
REMARK H PARENT 15 16
REMARK Flexibility Score: inf
ROOT
ATOM      1  C   UNL     1      27.833 -23.681  22.579  1.00  0.00     0.000 C 
ENDROOT
BRANCH   1   2
ATOM      2  C   UNL     1      28.932 -23.571  21.511  1.00  0.00    -0.000 C 
BRANCH   2   3
ATOM      3  C   UNL     1      30.318 -23.470  22.160  1.00  0.00    -0.000 C 
BRANCH   3   4
ATOM      4  C   UNL     1      31.076 -22.233  21.655  1.00  0.00    -0.000 C 
BRANCH   4   5
ATOM      5  C   UNL     1      30.165 -20.991  21.552  1.00  0.00    -0.000 C 
BRANCH   5   6
ATOM      6  C   UNL     1      29.943 -20.277  22.895  1.00  0.00    -0.000 C 
BRANCH   6   7
ATOM      7  C   UNL     1      28.473 -19.906  23.139  1.00  0.00    -0.003 C 
ATOM      8  C   UNL     1      27.647 -20.067  21.866  1.00  0.00     0.004 C 
ENDBRANCH   6   7
ENDBRANCH   5   6
ENDBRANCH   4   5
ENDBRANCH   3   4
ENDBRANCH   2   3
ENDBRANCH   1   2
BRANCH   1   9
ATOM      9  C   UNL     1      28.399 -23.797  24.004  1.00  0.00     0.000 C 
BRANCH   9  10
ATOM     10  C   UNL     1      27.462 -23.187  25.061  1.00  0.00     0.000 C 
BRANCH  10  11
ATOM     11  C   UNL     1      28.197 -22.789  26.354  1.00  0.00     0.000 C 
BRANCH  11  12
ATOM     12  C   UNL     1      29.381 -21.820  26.165  1.00  0.00     0.002 C 
BRANCH  12  13
ATOM     13  C   UNL     1      30.329 -21.696  27.373  1.00  0.00     0.028 C 
BRANCH  13  14
ATOM     14  C   UNL     1      29.629 -21.874  28.725  1.00  0.00     0.156 C 
BRANCH  14  15
ATOM     15  O   UNL     1      30.329 -22.788  29.521  1.00  0.00    -0.396 OA
ATOM     16  H   UNL     1      30.320 -23.648  29.027  1.00  0.00     0.210 HD
ENDBRANCH  14  15
ENDBRANCH  13  14
ENDBRANCH  12  13
ENDBRANCH  11  12
ENDBRANCH  10  11
ENDBRANCH   9  10
ENDBRANCH   1   9
TORSDOF 13
ENDMDL
MODEL 2
REMARK VINA RESULT:    -2.873      0.879      2.560
REMARK INTER + INTRA:          -6.736
REMARK INTER:                  -5.116
REMARK INTRA:                  -1.619
REMARK UNBOUND:                -1.762
REMARK SMILES CCCCCCCCCCCCCCO
REMARK SMILES IDX 8 1 7 2 6 3 5 4 4 5 3 6 2 7 1 8 9 9 10 10 11 11 12 12 13 13
REMARK SMILES IDX 14 14 15 15
REMARK H PARENT 15 16
REMARK Flexibility Score: inf
ROOT
ATOM      1  C   UNL     1      27.407 -20.845  24.206  1.00  0.00     0.000 C 
ENDROOT
BRANCH   1   2
ATOM      2  C   UNL     1      27.471 -20.434  22.727  1.00  0.00    -0.000 C 
BRANCH   2   3
ATOM      3  C   UNL     1      28.622 -19.452  22.480  1.00  0.00    -0.000 C 
BRANCH   3   4
ATOM      4  C   UNL     1      29.979 -20.101  22.792  1.00  0.00    -0.000 C 
BRANCH   4   5
ATOM      5  C   UNL     1      30.455 -21.033  21.657  1.00  0.00    -0.000 C 
BRANCH   5   6
ATOM      6  C   UNL     1      30.991 -22.385  22.156  1.00  0.00    -0.000 C 
BRANCH   6   7
ATOM      7  C   UNL     1      30.415 -23.579  21.380  1.00  0.00    -0.003 C 
ATOM      8  C   UNL     1      28.912 -23.424  21.168  1.00  0.00     0.004 C 
ENDBRANCH   6   7
ENDBRANCH   5   6
ENDBRANCH   4   5
ENDBRANCH   3   4
ENDBRANCH   2   3
ENDBRANCH   1   2
BRANCH   1   9
ATOM      9  C   UNL     1      27.439 -22.370  24.401  1.00  0.00     0.000 C 
BRANCH   9  10
ATOM     10  C   UNL     1      28.756 -22.856  25.031  1.00  0.00     0.000 C 
BRANCH  10  11
ATOM     11  C   UNL     1      28.987 -22.291  26.444  1.00  0.00     0.000 C 
BRANCH  11  12
ATOM     12  C   UNL     1      30.155 -21.293  26.571  1.00  0.00     0.002 C 
BRANCH  12  13
ATOM     13  C   UNL     1      30.856 -21.272  27.942  1.00  0.00     0.028 C 
BRANCH  13  14
ATOM     14  C   UNL     1      29.932 -21.637  29.110  1.00  0.00     0.156 C 
BRANCH  14  15
ATOM     15  O   UNL     1      30.311 -22.865  29.666  1.00  0.00    -0.396 OA
ATOM     16  H   UNL     1      30.766 -22.652  30.522  1.00  0.00     0.210 HD
ENDBRANCH  14  15
ENDBRANCH  13  14
ENDBRANCH  12  13
ENDBRANCH  11  12
ENDBRANCH  10  11
ENDBRANCH   9  10
ENDBRANCH   1   9
TORSDOF 13
ENDMDL
MODEL 3
REMARK VINA RESULT:    -2.860      1.169      2.210
REMARK INTER + INTRA:          -6.713
REMARK INTER:                  -5.278
REMARK INTRA:                  -1.435
REMARK UNBOUND:                -1.762
REMARK SMILES CCCCCCCCCCCCCCO
REMARK SMILES IDX 8 1 7 2 6 3 5 4 4 5 3 6 2 7 1 8 9 9 10 10 11 11 12 12 13 13
REMARK SMILES IDX 14 14 15 15
REMARK H PARENT 15 16
REMARK Flexibility Score: inf
ROOT
ATOM      1  C   UNL     1      26.934 -22.522  23.463  1.00  0.00     0.000 C 
ENDROOT
BRANCH   1   2
ATOM      2  C   UNL     1      26.855 -22.783  21.952  1.00  0.00    -0.000 C 
BRANCH   2   3
ATOM      3  C   UNL     1      27.526 -24.112  21.589  1.00  0.00    -0.000 C 
BRANCH   3   4
ATOM      4  C   UNL     1      28.554 -23.923  20.462  1.00  0.00    -0.000 C 
BRANCH   4   5
ATOM      5  C   UNL     1      30.006 -24.064  20.966  1.00  0.00    -0.000 C 
BRANCH   5   6
ATOM      6  C   UNL     1      30.847 -22.789  20.784  1.00  0.00    -0.000 C 
BRANCH   6   7
ATOM      7  C   UNL     1      30.936 -21.945  22.064  1.00  0.00    -0.003 C 
ATOM      8  C   UNL     1      30.085 -20.684  21.952  1.00  0.00     0.004 C 
ENDBRANCH   6   7
ENDBRANCH   5   6
ENDBRANCH   4   5
ENDBRANCH   3   4
ENDBRANCH   2   3
ENDBRANCH   1   2
BRANCH   1   9
ATOM      9  C   UNL     1      28.001 -23.384  24.159  1.00  0.00     0.000 C 
BRANCH   9  10
ATOM     10  C   UNL     1      28.349 -22.869  25.567  1.00  0.00     0.000 C 
BRANCH  10  11
ATOM     11  C   UNL     1      29.530 -21.882  25.567  1.00  0.00     0.000 C 
BRANCH  11  12
ATOM     12  C   UNL     1      29.539 -20.865  26.726  1.00  0.00     0.002 C 
BRANCH  12  13
ATOM     13  C   UNL     1      30.551 -21.158  27.850  1.00  0.00     0.028 C 
BRANCH  13  14
ATOM     14  C   UNL     1      29.897 -21.585  29.169  1.00  0.00     0.156 C 
BRANCH  14  15
ATOM     15  O   UNL     1      30.371 -22.842  29.564  1.00  0.00    -0.396 OA
ATOM     16  H   UNL     1      29.777 -23.142  30.300  1.00  0.00     0.210 HD
ENDBRANCH  14  15
ENDBRANCH  13  14
ENDBRANCH  12  13
ENDBRANCH  11  12
ENDBRANCH  10  11
ENDBRANCH   9  10
ENDBRANCH   1   9
TORSDOF 13
ENDMDL
MODEL 4
REMARK VINA RESULT:    -2.765      9.889     12.295
REMARK INTER + INTRA:          -6.548
REMARK INTER:                  -4.852
REMARK INTRA:                  -1.696
REMARK UNBOUND:                -1.762
REMARK SMILES CCCCCCCCCCCCCCO
REMARK SMILES IDX 8 1 7 2 6 3 5 4 4 5 3 6 2 7 1 8 9 9 10 10 11 11 12 12 13 13
REMARK SMILES IDX 14 14 15 15
REMARK H PARENT 15 16
REMARK Flexibility Score: inf
ROOT
ATOM      1  C   UNL     1      28.574 -22.019  33.308  1.00  0.00     0.000 C 
ENDROOT
BRANCH   1   2
ATOM      2  C   UNL     1      29.219 -23.291  33.879  1.00  0.00    -0.000 C 
BRANCH   2   3
ATOM      3  C   UNL     1      29.667 -23.075  35.329  1.00  0.00    -0.000 C 
BRANCH   3   4
ATOM      4  C   UNL     1      28.855 -23.952  36.295  1.00  0.00    -0.000 C 
BRANCH   4   5
ATOM      5  C   UNL     1      27.845 -23.128  37.122  1.00  0.00    -0.000 C 
BRANCH   5   6
ATOM      6  C   UNL     1      26.402 -23.220  36.599  1.00  0.00    -0.000 C 
BRANCH   6   7
ATOM      7  C   UNL     1      25.875 -21.882  36.060  1.00  0.00    -0.003 C 
ATOM      8  C   UNL     1      25.598 -20.902  37.196  1.00  0.00     0.004 C 
ENDBRANCH   6   7
ENDBRANCH   5   6
ENDBRANCH   4   5
ENDBRANCH   3   4
ENDBRANCH   2   3
ENDBRANCH   1   2
BRANCH   1   9
ATOM      9  C   UNL     1      28.947 -20.756  34.103  1.00  0.00     0.000 C 
BRANCH   9  10
ATOM     10  C   UNL     1      27.930 -19.618  33.912  1.00  0.00     0.000 C 
BRANCH  10  11
ATOM     11  C   UNL     1      27.742 -18.766  35.180  1.00  0.00     0.000 C 
BRANCH  11  12
ATOM     12  C   UNL     1      28.816 -18.960  36.269  1.00  0.00     0.002 C 
BRANCH  12  13
ATOM     13  C   UNL     1      29.763 -17.764  36.480  1.00  0.00     0.028 C 
BRANCH  13  14
ATOM     14  C   UNL     1      29.102 -16.572  37.181  1.00  0.00     0.156 C 
BRANCH  14  15
ATOM     15  O   UNL     1      28.420 -16.998  38.327  1.00  0.00    -0.396 OA
ATOM     16  H   UNL     1      28.448 -17.989  38.313  1.00  0.00     0.210 HD
ENDBRANCH  14  15
ENDBRANCH  13  14
ENDBRANCH  12  13
ENDBRANCH  11  12
ENDBRANCH  10  11
ENDBRANCH   9  10
ENDBRANCH   1   9
TORSDOF 13
ENDMDL
MODEL 5
REMARK VINA RESULT:    -2.759     13.790     15.855
REMARK INTER + INTRA:          -6.537
REMARK INTER:                  -5.993
REMARK INTRA:                  -0.544
REMARK UNBOUND:                -1.762
REMARK SMILES CCCCCCCCCCCCCCO
REMARK SMILES IDX 8 1 7 2 6 3 5 4 4 5 3 6 2 7 1 8 9 9 10 10 11 11 12 12 13 13
REMARK SMILES IDX 14 14 15 15
REMARK H PARENT 15 16
REMARK Flexibility Score: inf
ROOT
ATOM      1  C   UNL     1      32.543 -10.280  25.113  1.00  0.00     0.000 C 
ENDROOT
BRANCH   1   2
ATOM      2  C   UNL     1      32.828 -10.927  26.476  1.00  0.00    -0.000 C 
BRANCH   2   3
ATOM      3  C   UNL     1      31.601 -10.838  27.392  1.00  0.00    -0.000 C 
BRANCH   3   4
ATOM      4  C   UNL     1      31.433  -9.418  27.955  1.00  0.00    -0.000 C 
BRANCH   4   5
ATOM      5  C   UNL     1      31.818  -9.333  29.448  1.00  0.00    -0.000 C 
BRANCH   5   6
ATOM      6  C   UNL     1      31.026  -8.270  30.228  1.00  0.00    -0.000 C 
BRANCH   6   7
ATOM      7  C   UNL     1      31.894  -7.493  31.228  1.00  0.00    -0.003 C 
ATOM      8  C   UNL     1      31.042  -6.876  32.332  1.00  0.00     0.004 C 
ENDBRANCH   6   7
ENDBRANCH   5   6
ENDBRANCH   4   5
ENDBRANCH   3   4
ENDBRANCH   2   3
ENDBRANCH   1   2
BRANCH   1   9
ATOM      9  C   UNL     1      33.460  -9.079  24.822  1.00  0.00     0.000 C 
BRANCH   9  10
ATOM     10  C   UNL     1      34.951  -9.456  24.846  1.00  0.00     0.000 C 
BRANCH  10  11
ATOM     11  C   UNL     1      35.873  -8.239  25.044  1.00  0.00     0.000 C 
BRANCH  11  12
ATOM     12  C   UNL     1      35.239  -6.873  24.715  1.00  0.00     0.002 C 
BRANCH  12  13
ATOM     13  C   UNL     1      36.162  -5.877  23.989  1.00  0.00     0.028 C 
BRANCH  13  14
ATOM     14  C   UNL     1      35.411  -4.726  23.310  1.00  0.00     0.156 C 
BRANCH  14  15
ATOM     15  O   UNL     1      34.035  -4.837  23.542  1.00  0.00    -0.396 OA
ATOM     16  H   UNL     1      33.918  -5.618  24.142  1.00  0.00     0.210 HD
ENDBRANCH  14  15
ENDBRANCH  13  14
ENDBRANCH  12  13
ENDBRANCH  11  12
ENDBRANCH  10  11
ENDBRANCH   9  10
ENDBRANCH   1   9
TORSDOF 13
ENDMDL
MODEL 6
REMARK VINA RESULT:    -2.742     10.496     13.073
REMARK INTER + INTRA:          -6.508
REMARK INTER:                  -4.700
REMARK INTRA:                  -1.807
REMARK UNBOUND:                -1.762
REMARK SMILES CCCCCCCCCCCCCCO
REMARK SMILES IDX 8 1 7 2 6 3 5 4 4 5 3 6 2 7 1 8 9 9 10 10 11 11 12 12 13 13
REMARK SMILES IDX 14 14 15 15
REMARK H PARENT 15 16
REMARK Flexibility Score: inf
ROOT
ATOM      1  C   UNL     1      25.280 -17.230  36.811  1.00  0.00     0.000 C 
ENDROOT
BRANCH   1   2
ATOM      2  C   UNL     1      26.678 -16.623  36.625  1.00  0.00    -0.000 C 
BRANCH   2   3
ATOM      3  C   UNL     1      27.675 -17.228  37.621  1.00  0.00    -0.000 C 
BRANCH   3   4
ATOM      4  C   UNL     1      28.903 -17.799  36.897  1.00  0.00    -0.000 C 
BRANCH   4   5
ATOM      5  C   UNL     1      28.591 -18.190  35.436  1.00  0.00    -0.000 C 
BRANCH   5   6
ATOM      6  C   UNL     1      28.937 -19.651  35.102  1.00  0.00    -0.000 C 
BRANCH   6   7
ATOM      7  C   UNL     1      28.085 -20.220  33.959  1.00  0.00    -0.003 C 
ATOM      8  C   UNL     1      26.896 -19.314  33.655  1.00  0.00     0.004 C 
ENDBRANCH   6   7
ENDBRANCH   5   6
ENDBRANCH   4   5
ENDBRANCH   3   4
ENDBRANCH   2   3
ENDBRANCH   1   2
BRANCH   1   9
ATOM      9  C   UNL     1      25.290 -18.487  37.698  1.00  0.00     0.000 C 
BRANCH   9  10
ATOM     10  C   UNL     1      25.129 -19.783  36.886  1.00  0.00     0.000 C 
BRANCH  10  11
ATOM     11  C   UNL     1      26.270 -20.788  37.130  1.00  0.00     0.000 C 
BRANCH  11  12
ATOM     12  C   UNL     1      25.831 -22.258  37.278  1.00  0.00     0.002 C 
BRANCH  12  13
ATOM     13  C   UNL     1      26.546 -23.255  36.347  1.00  0.00     0.028 C 
BRANCH  13  14
ATOM     14  C   UNL     1      28.069 -23.273  36.520  1.00  0.00     0.156 C 
BRANCH  14  15
ATOM     15  O   UNL     1      28.406 -23.516  37.857  1.00  0.00    -0.396 OA
ATOM     16  H   UNL     1      27.728 -24.152  38.201  1.00  0.00     0.210 HD
ENDBRANCH  14  15
ENDBRANCH  13  14
ENDBRANCH  12  13
ENDBRANCH  11  12
ENDBRANCH  10  11
ENDBRANCH   9  10
ENDBRANCH   1   9
TORSDOF 13
ENDMDL
MODEL 7
REMARK VINA RESULT:    -2.703      2.669      6.175
REMARK INTER + INTRA:          -6.441
REMARK INTER:                  -5.131
REMARK INTRA:                  -1.310
REMARK UNBOUND:                -1.762
REMARK SMILES CCCCCCCCCCCCCCO
REMARK SMILES IDX 8 1 7 2 6 3 5 4 4 5 3 6 2 7 1 8 9 9 10 10 11 11 12 12 13 13
REMARK SMILES IDX 14 14 15 15
REMARK H PARENT 15 16
REMARK Flexibility Score: inf
ROOT
ATOM      1  C   UNL     1      28.881 -18.577  25.795  1.00  0.00     0.000 C 
ENDROOT
BRANCH   1   2
ATOM      2  C   UNL     1      29.842 -17.817  26.721  1.00  0.00    -0.000 C 
BRANCH   2   3
ATOM      3  C   UNL     1      31.209 -18.508  26.779  1.00  0.00    -0.000 C 
BRANCH   3   4
ATOM      4  C   UNL     1      31.720 -18.604  28.225  1.00  0.00    -0.000 C 
BRANCH   4   5
ATOM      5  C   UNL     1      31.235 -19.888  28.932  1.00  0.00    -0.000 C 
BRANCH   5   6
ATOM      6  C   UNL     1      31.046 -21.081  27.980  1.00  0.00    -0.000 C 
BRANCH   6   7
ATOM      7  C   UNL     1      29.736 -21.842  28.229  1.00  0.00    -0.003 C 
ATOM      8  C   UNL     1      28.690 -20.940  28.877  1.00  0.00     0.004 C 
ENDBRANCH   6   7
ENDBRANCH   5   6
ENDBRANCH   4   5
ENDBRANCH   3   4
ENDBRANCH   2   3
ENDBRANCH   1   2
BRANCH   1   9
ATOM      9  C   UNL     1      29.588 -19.662  24.966  1.00  0.00     0.000 C 
BRANCH   9  10
ATOM     10  C   UNL     1      29.627 -19.327  23.465  1.00  0.00     0.000 C 
BRANCH  10  11
ATOM     11  C   UNL     1      29.403 -20.559  22.571  1.00  0.00     0.000 C 
BRANCH  11  12
ATOM     12  C   UNL     1      30.634 -21.024  21.768  1.00  0.00     0.002 C 
BRANCH  12  13
ATOM     13  C   UNL     1      31.142 -22.439  22.102  1.00  0.00     0.028 C 
BRANCH  13  14
ATOM     14  C   UNL     1      30.065 -23.523  21.975  1.00  0.00     0.156 C 
BRANCH  14  15
ATOM     15  O   UNL     1      29.829 -24.124  23.217  1.00  0.00    -0.396 OA
ATOM     16  H   UNL     1      28.941 -24.560  23.148  1.00  0.00     0.210 HD
ENDBRANCH  14  15
ENDBRANCH  13  14
ENDBRANCH  12  13
ENDBRANCH  11  12
ENDBRANCH  10  11
ENDBRANCH   9  10
ENDBRANCH   1   9
TORSDOF 13
ENDMDL
MODEL 8
REMARK VINA RESULT:    -2.702      1.836      3.143
REMARK INTER + INTRA:          -6.438
REMARK INTER:                  -5.501
REMARK INTRA:                  -0.937
REMARK UNBOUND:                -1.762
REMARK SMILES CCCCCCCCCCCCCCO
REMARK SMILES IDX 8 1 7 2 6 3 5 4 4 5 3 6 2 7 1 8 9 9 10 10 11 11 12 12 13 13
REMARK SMILES IDX 14 14 15 15
REMARK H PARENT 15 16
REMARK Flexibility Score: inf
ROOT
ATOM      1  C   UNL     1      28.342 -22.141  25.005  1.00  0.00     0.000 C 
ENDROOT
BRANCH   1   2
ATOM      2  C   UNL     1      28.615 -23.484  24.311  1.00  0.00    -0.000 C 
BRANCH   2   3
ATOM      3  C   UNL     1      27.728 -23.651  23.072  1.00  0.00    -0.000 C 
BRANCH   3   4
ATOM      4  C   UNL     1      28.574 -23.730  21.792  1.00  0.00    -0.000 C 
BRANCH   4   5
ATOM      5  C   UNL     1      30.085 -23.613  22.083  1.00  0.00    -0.000 C 
BRANCH   5   6
ATOM      6  C   UNL     1      30.777 -22.481  21.303  1.00  0.00    -0.000 C 
BRANCH   6   7
ATOM      7  C   UNL     1      30.592 -21.105  21.958  1.00  0.00    -0.003 C 
ATOM      8  C   UNL     1      29.525 -20.290  21.233  1.00  0.00     0.004 C 
ENDBRANCH   6   7
ENDBRANCH   5   6
ENDBRANCH   4   5
ENDBRANCH   3   4
ENDBRANCH   2   3
ENDBRANCH   1   2
BRANCH   1   9
ATOM      9  C   UNL     1      29.629 -21.451  25.490  1.00  0.00     0.000 C 
BRANCH   9  10
ATOM     10  C   UNL     1      29.924 -21.729  26.974  1.00  0.00     0.000 C 
BRANCH  10  11
ATOM     11  C   UNL     1      30.638 -20.557  27.671  1.00  0.00     0.000 C 
BRANCH  11  12
ATOM     12  C   UNL     1      31.196 -20.867  29.075  1.00  0.00     0.002 C 
BRANCH  12  13
ATOM     13  C   UNL     1      31.419 -19.642  29.980  1.00  0.00     0.028 C 
BRANCH  13  14
ATOM     14  C   UNL     1      31.370 -19.967  31.477  1.00  0.00     0.156 C 
BRANCH  14  15
ATOM     15  O   UNL     1      32.601 -20.478  31.907  1.00  0.00    -0.396 OA
ATOM     16  H   UNL     1      32.818 -21.227  31.294  1.00  0.00     0.210 HD
ENDBRANCH  14  15
ENDBRANCH  13  14
ENDBRANCH  12  13
ENDBRANCH  11  12
ENDBRANCH  10  11
ENDBRANCH   9  10
ENDBRANCH   1   9
TORSDOF 13
ENDMDL
MODEL 9
REMARK VINA RESULT:    -2.658      2.868      3.680
REMARK INTER + INTRA:          -6.363
REMARK INTER:                  -4.830
REMARK INTRA:                  -1.532
REMARK UNBOUND:                -1.762
REMARK SMILES CCCCCCCCCCCCCCO
REMARK SMILES IDX 8 1 7 2 6 3 5 4 4 5 3 6 2 7 1 8 9 9 10 10 11 11 12 12 13 13
REMARK SMILES IDX 14 14 15 15
REMARK H PARENT 15 16
REMARK Flexibility Score: inf
ROOT
ATOM      1  C   UNL     1      28.480 -23.361  24.793  1.00  0.00     0.000 C 
ENDROOT
BRANCH   1   2
ATOM      2  C   UNL     1      27.752 -23.005  23.488  1.00  0.00    -0.000 C 
BRANCH   2   3
ATOM      3  C   UNL     1      28.430 -23.667  22.283  1.00  0.00    -0.000 C 
BRANCH   3   4
ATOM      4  C   UNL     1      29.959 -23.534  22.367  1.00  0.00    -0.000 C 
BRANCH   4   5
ATOM      5  C   UNL     1      30.510 -22.498  21.364  1.00  0.00    -0.000 C 
BRANCH   5   6
ATOM      6  C   UNL     1      30.667 -21.088  21.958  1.00  0.00    -0.000 C 
BRANCH   6   7
ATOM      7  C   UNL     1      29.477 -20.171  21.644  1.00  0.00    -0.003 C 
ATOM      8  C   UNL     1      28.816 -20.560  20.325  1.00  0.00     0.004 C 
ENDBRANCH   6   7
ENDBRANCH   5   6
ENDBRANCH   4   5
ENDBRANCH   3   4
ENDBRANCH   2   3
ENDBRANCH   1   2
BRANCH   1   9
ATOM      9  C   UNL     1      28.584 -22.170  25.760  1.00  0.00     0.000 C 
BRANCH   9  10
ATOM     10  C   UNL     1      29.857 -21.336  25.534  1.00  0.00     0.000 C 
BRANCH  10  11
ATOM     11  C   UNL     1      29.572 -19.827  25.424  1.00  0.00     0.000 C 
BRANCH  11  12
ATOM     12  C   UNL     1      30.501 -18.920  26.254  1.00  0.00     0.002 C 
BRANCH  12  13
ATOM     13  C   UNL     1      30.904 -17.596  25.579  1.00  0.00     0.028 C 
BRANCH  13  14
ATOM     14  C   UNL     1      30.650 -17.576  24.067  1.00  0.00     0.156 C 
BRANCH  14  15
ATOM     15  O   UNL     1      31.564 -16.729  23.430  1.00  0.00    -0.396 OA
ATOM     16  H   UNL     1      32.337 -16.642  24.046  1.00  0.00     0.210 HD
ENDBRANCH  14  15
ENDBRANCH  13  14
ENDBRANCH  12  13
ENDBRANCH  11  12
ENDBRANCH  10  11
ENDBRANCH   9  10
ENDBRANCH   1   9
TORSDOF 13
ENDMDL
