MODEL 1
REMARK VINA RESULT:    24.699      0.000      0.000
REMARK INTER + INTRA:          28.014
REMARK INTER:                  28.308
REMARK INTRA:                  -0.294
REMARK UNBOUND:                -0.294
REMARK SMILES O=C1C[C@@H](c2ccc(O)cc2)Oc2cc(O)cc(O)c21
REMARK SMILES IDX 3 1 4 2 12 3 13 4 14 5 15 6 17 7 18 8 20 9 2 10 1 11 5 12
REMARK SMILES IDX 6 13 11 14 7 15 10 16 8 17 9 18 19 20 16 22
REMARK H PARENT 9 19 19 21 16 23
REMARK Flexibility Score: inf
ROOT
ATOM      1  C   UNL     1      -3.022   0.069   3.739  1.00  0.00     0.131 C 
ATOM      2  C   UNL     1      -2.164   0.085   2.464  1.00  0.00     0.211 C 
ATOM      3  O   UNL     1      -2.563  -0.960   1.575  1.00  0.00    -0.484 OA
ATOM      4  C   UNL     1      -3.911  -1.257   1.335  1.00  0.00     0.138 A 
ATOM      5  C   UNL     1      -4.254  -2.054   0.239  1.00  0.00     0.093 A 
ATOM      6  C   UNL     1      -5.597  -2.341  -0.030  1.00  0.00     0.123 A 
ATOM      7  C   UNL     1      -6.596  -1.833   0.805  1.00  0.00     0.093 A 
ATOM      8  C   UNL     1      -6.265  -1.048   1.920  1.00  0.00     0.133 A 
ATOM      9  C   UNL     1      -4.910  -0.761   2.194  1.00  0.00     0.102 A 
ATOM     10  C   UNL     1      -4.479   0.019   3.380  1.00  0.00     0.174 C 
ATOM     11  O   UNL     1      -5.319   0.595   4.122  1.00  0.00    -0.294 OA
ENDROOT
BRANCH   2  12
ATOM     12  C   UNL     1      -0.700  -0.054   2.803  1.00  0.00    -0.007 A 
ATOM     13  C   UNL     1       0.279   0.035   1.796  1.00  0.00     0.011 A 
ATOM     14  C   UNL     1      -0.301  -0.329   4.122  1.00  0.00     0.011 A 
ATOM     15  C   UNL     1       1.632  -0.125   2.109  1.00  0.00     0.046 A 
ATOM     16  C   UNL     1       1.053  -0.489   4.432  1.00  0.00     0.046 A 
ATOM     17  C   UNL     1       2.022  -0.386   3.430  1.00  0.00     0.115 A 
BRANCH  17  18
ATOM     18  O   UNL     1       3.367  -0.547   3.754  1.00  0.00    -0.508 OA
ATOM     19  H   UNL     1       3.758  -0.151   4.601  1.00  0.00     0.293 HD
ENDBRANCH  17  18
ENDBRANCH   2  12
BRANCH   8  20
ATOM     20  O   UNL     1      -7.277  -0.567   2.751  1.00  0.00    -0.507 OA
ATOM     21  H   UNL     1      -8.070  -1.141   3.010  1.00  0.00     0.293 HD
ENDBRANCH   8  20
BRANCH   6  22
ATOM     22  O   UNL     1      -5.950  -3.125  -1.125  1.00  0.00    -0.508 OA
ATOM     23  H   UNL     1      -6.820  -3.644  -1.147  1.00  0.00     0.293 HD
ENDBRANCH   6  22
TORSDOF 4
ENDMDL
