MODEL 1
REMARK VINA RESULT:    -4.864      0.000      0.000
REMARK INTER + INTRA:          -8.301
REMARK INTER:                  -7.423
REMARK INTRA:                  -0.878
REMARK UNBOUND:                -0.878
REMARK SMILES CCCCCCCCCC=CC(=O)[O-]
REMARK SMILES IDX 7 1 8 2 9 3 10 4 11 5 12 6 13 7 14 8 6 9 5 10 4 11 3 12 2 13
REMARK SMILES IDX 1 14
REMARK H PARENT
REMARK Flexibility Score: inf
ROOT
ATOM      1  C   UNL     1      14.912  17.057  25.888  1.00  0.00     0.000 C 
ENDROOT
BRANCH   1   2
ATOM      2  C   UNL     1      16.121  16.991  26.835  1.00  0.00     0.004 C 
BRANCH   2   3
ATOM      3  C   UNL     1      15.801  16.223  28.127  1.00  0.00     0.027 C 
BRANCH   3   4
ATOM      4  C   UNL     1      14.323  15.985  28.301  1.00  0.00    -0.025 C 
ATOM      5  C   UNL     1      13.758  15.097  29.134  1.00  0.00     0.020 C 
BRANCH   5   6
ATOM      6  C   UNL     1      14.464  14.139  30.010  1.00  0.00     0.064 C 
ATOM      7  O   UNL     1      14.564  14.396  31.238  1.00  0.00    -0.545 OA
ATOM      8  O   UNL     1      14.995  12.948  29.531  1.00  0.00    -0.545 OA
ENDBRANCH   5   6
ENDBRANCH   3   4
ENDBRANCH   2   3
ENDBRANCH   1   2
BRANCH   1   9
ATOM      9  C   UNL     1      15.149  18.071  24.762  1.00  0.00     0.000 C 
BRANCH   9  10
ATOM     10  C   UNL     1      14.005  18.033  23.738  1.00  0.00     0.000 C 
BRANCH  10  11
ATOM     11  C   UNL     1      13.025  16.877  23.991  1.00  0.00    -0.000 C 
BRANCH  11  12
ATOM     12  C   UNL     1      11.556  17.295  23.804  1.00  0.00    -0.000 C 
BRANCH  12  13
ATOM     13  C   UNL     1      11.024  18.118  24.988  1.00  0.00    -0.003 C 
ATOM     14  C   UNL     1      11.490  17.578  26.339  1.00  0.00     0.004 C 
ENDBRANCH  12  13
ENDBRANCH  11  12
ENDBRANCH  10  11
ENDBRANCH   9  10
ENDBRANCH   1   9
TORSDOF 9
ENDMDL
MODEL 2
REMARK VINA RESULT:    -4.840      3.306      6.285
REMARK INTER + INTRA:          -8.264
REMARK INTER:                  -7.568
REMARK INTRA:                  -0.697
REMARK UNBOUND:                -0.878
REMARK SMILES CCCCCCCCCC=CC(=O)[O-]
REMARK SMILES IDX 7 1 8 2 9 3 10 4 11 5 12 6 13 7 14 8 6 9 5 10 4 11 3 12 2 13
REMARK SMILES IDX 1 14
REMARK H PARENT
REMARK Flexibility Score: inf
ROOT
ATOM      1  C   UNL     1      13.842  15.871  26.587  1.00  0.00     0.000 C 
ENDROOT
BRANCH   1   2
ATOM      2  C   UNL     1      12.618  16.625  27.132  1.00  0.00     0.004 C 
BRANCH   2   3
ATOM      3  C   UNL     1      12.412  17.975  26.427  1.00  0.00     0.027 C 
BRANCH   3   4
ATOM      4  C   UNL     1      11.019  18.125  25.872  1.00  0.00    -0.025 C 
ATOM      5  C   UNL     1      10.599  17.707  24.667  1.00  0.00     0.020 C 
BRANCH   5   6
ATOM      6  C   UNL     1      11.421  17.063  23.622  1.00  0.00     0.064 C 
ATOM      7  O   UNL     1      11.661  15.830  23.709  1.00  0.00    -0.545 OA
ATOM      8  O   UNL     1      11.916  17.765  22.530  1.00  0.00    -0.545 OA
ENDBRANCH   5   6
ENDBRANCH   3   4
ENDBRANCH   2   3
ENDBRANCH   1   2
BRANCH   1   9
ATOM      9  C   UNL     1      15.145  16.495  27.100  1.00  0.00     0.000 C 
BRANCH   9  10
ATOM     10  C   UNL     1      15.361  16.174  28.586  1.00  0.00     0.000 C 
BRANCH  10  11
ATOM     11  C   UNL     1      15.037  14.712  28.928  1.00  0.00    -0.000 C 
BRANCH  11  12
ATOM     12  C   UNL     1      14.007  14.583  30.064  1.00  0.00    -0.000 C 
BRANCH  12  13
ATOM     13  C   UNL     1      14.620  14.007  31.350  1.00  0.00    -0.003 C 
ATOM     14  C   UNL     1      15.383  12.705  31.108  1.00  0.00     0.004 C 
ENDBRANCH  12  13
ENDBRANCH  11  12
ENDBRANCH  10  11
ENDBRANCH   9  10
ENDBRANCH   1   9
TORSDOF 9
ENDMDL
MODEL 3
REMARK VINA RESULT:    -4.827      2.758      5.879
REMARK INTER + INTRA:          -8.245
REMARK INTER:                  -7.420
REMARK INTRA:                  -0.825
REMARK UNBOUND:                -0.878
REMARK SMILES CCCCCCCCCC=CC(=O)[O-]
REMARK SMILES IDX 7 1 8 2 9 3 10 4 11 5 12 6 13 7 14 8 6 9 5 10 4 11 3 12 2 13
REMARK SMILES IDX 1 14
REMARK H PARENT
REMARK Flexibility Score: inf
ROOT
ATOM      1  C   UNL     1      15.114  16.993  27.759  1.00  0.00     0.000 C 
ENDROOT
BRANCH   1   2
ATOM      2  C   UNL     1      15.348  16.954  26.240  1.00  0.00     0.004 C 
BRANCH   2   3
ATOM      3  C   UNL     1      14.401  17.901  25.486  1.00  0.00     0.027 C 
BRANCH   3   4
ATOM      4  C   UNL     1      13.895  17.302  24.200  1.00  0.00    -0.025 C 
ATOM      5  C   UNL     1      12.689  16.744  24.008  1.00  0.00     0.020 C 
BRANCH   5   6
ATOM      6  C   UNL     1      11.632  16.558  25.024  1.00  0.00     0.064 C 
ATOM      7  O   UNL     1      11.593  15.479  25.670  1.00  0.00    -0.545 OA
ATOM      8  O   UNL     1      10.698  17.545  25.312  1.00  0.00    -0.545 OA
ENDBRANCH   5   6
ENDBRANCH   3   4
ENDBRANCH   2   3
ENDBRANCH   1   2
BRANCH   1   9
ATOM      9  C   UNL     1      13.620  16.892  28.088  1.00  0.00     0.000 C 
BRANCH   9  10
ATOM     10  C   UNL     1      13.299  15.560  28.784  1.00  0.00     0.000 C 
BRANCH  10  11
ATOM     11  C   UNL     1      14.561  14.831  29.273  1.00  0.00    -0.000 C 
BRANCH  11  12
ATOM     12  C   UNL     1      14.450  14.375  30.739  1.00  0.00    -0.000 C 
BRANCH  12  13
ATOM     13  C   UNL     1      15.244  13.088  31.016  1.00  0.00    -0.003 C 
ATOM     14  C   UNL     1      15.250  12.132  29.824  1.00  0.00     0.004 C 
ENDBRANCH  12  13
ENDBRANCH  11  12
ENDBRANCH  10  11
ENDBRANCH   9  10
ENDBRANCH   1   9
TORSDOF 9
ENDMDL
MODEL 4
REMARK VINA RESULT:    -4.812      1.370      2.252
REMARK INTER + INTRA:          -8.223
REMARK INTER:                  -7.436
REMARK INTRA:                  -0.787
REMARK UNBOUND:                -0.878
REMARK SMILES CCCCCCCCCC=CC(=O)[O-]
REMARK SMILES IDX 7 1 8 2 9 3 10 4 11 5 12 6 13 7 14 8 6 9 5 10 4 11 3 12 2 13
REMARK SMILES IDX 1 14
REMARK H PARENT
REMARK Flexibility Score: inf
ROOT
ATOM      1  C   UNL     1      14.919  16.992  26.775  1.00  0.00     0.000 C 
ENDROOT
BRANCH   1   2
ATOM      2  C   UNL     1      16.000  16.442  27.720  1.00  0.00     0.004 C 
BRANCH   2   3
ATOM      3  C   UNL     1      15.393  15.773  28.963  1.00  0.00     0.027 C 
BRANCH   3   4
ATOM      4  C   UNL     1      14.836  14.405  28.664  1.00  0.00    -0.025 C 
ATOM      5  C   UNL     1      14.690  13.402  29.544  1.00  0.00     0.020 C 
BRANCH   5   6
ATOM      6  C   UNL     1      15.089  13.412  30.967  1.00  0.00     0.064 C 
ATOM      7  O   UNL     1      16.048  12.685  31.335  1.00  0.00    -0.545 OA
ATOM      8  O   UNL     1      14.462  14.220  31.907  1.00  0.00    -0.545 OA
ENDBRANCH   5   6
ENDBRANCH   3   4
ENDBRANCH   2   3
ENDBRANCH   1   2
BRANCH   1   9
ATOM      9  C   UNL     1      13.684  17.451  27.559  1.00  0.00     0.000 C 
BRANCH   9  10
ATOM     10  C   UNL     1      12.414  17.330  26.704  1.00  0.00     0.000 C 
BRANCH  10  11
ATOM     11  C   UNL     1      12.259  15.937  26.072  1.00  0.00    -0.000 C 
BRANCH  11  12
ATOM     12  C   UNL     1      11.825  16.002  24.597  1.00  0.00    -0.000 C 
BRANCH  12  13
ATOM     13  C   UNL     1      12.635  17.029  23.790  1.00  0.00    -0.003 C 
ATOM     14  C   UNL     1      11.748  18.018  23.036  1.00  0.00     0.004 C 
ENDBRANCH  12  13
ENDBRANCH  11  12
ENDBRANCH  10  11
ENDBRANCH   9  10
ENDBRANCH   1   9
TORSDOF 9
ENDMDL
MODEL 5
REMARK VINA RESULT:    -4.762      1.406      3.612
REMARK INTER + INTRA:          -8.145
REMARK INTER:                  -7.202
REMARK INTRA:                  -0.943
REMARK UNBOUND:                -0.878
REMARK SMILES CCCCCCCCCC=CC(=O)[O-]
REMARK SMILES IDX 7 1 8 2 9 3 10 4 11 5 12 6 13 7 14 8 6 9 5 10 4 11 3 12 2 13
REMARK SMILES IDX 1 14
REMARK H PARENT
REMARK Flexibility Score: inf
ROOT
ATOM      1  C   UNL     1      13.699  15.696  25.894  1.00  0.00     0.000 C 
ENDROOT
BRANCH   1   2
ATOM      2  C   UNL     1      12.550  15.867  26.900  1.00  0.00     0.004 C 
BRANCH   2   3
ATOM      3  C   UNL     1      13.000  15.589  28.343  1.00  0.00     0.027 C 
BRANCH   3   4
ATOM      4  C   UNL     1      14.488  15.744  28.519  1.00  0.00    -0.025 C 
ATOM      5  C   UNL     1      15.258  15.056  29.376  1.00  0.00     0.020 C 
BRANCH   5   6
ATOM      6  C   UNL     1      14.803  14.047  30.356  1.00  0.00     0.064 C 
ATOM      7  O   UNL     1      14.955  12.827  30.088  1.00  0.00    -0.545 OA
ATOM      8  O   UNL     1      14.238  14.400  31.575  1.00  0.00    -0.545 OA
ENDBRANCH   5   6
ENDBRANCH   3   4
ENDBRANCH   2   3
ENDBRANCH   1   2
BRANCH   1   9
ATOM      9  C   UNL     1      13.479  16.570  24.653  1.00  0.00     0.000 C 
BRANCH   9  10
ATOM     10  C   UNL     1      14.457  17.754  24.635  1.00  0.00     0.000 C 
BRANCH  10  11
ATOM     11  C   UNL     1      15.668  17.534  25.555  1.00  0.00    -0.000 C 
BRANCH  11  12
ATOM     12  C   UNL     1      16.966  18.121  24.976  1.00  0.00    -0.000 C 
BRANCH  12  13
ATOM     13  C   UNL     1      18.219  17.382  25.474  1.00  0.00    -0.003 C 
ATOM     14  C   UNL     1      18.024  16.758  26.855  1.00  0.00     0.004 C 
ENDBRANCH  12  13
ENDBRANCH  11  12
ENDBRANCH  10  11
ENDBRANCH   9  10
ENDBRANCH   1   9
TORSDOF 9
ENDMDL
MODEL 6
REMARK VINA RESULT:    -4.742      1.172      2.118
REMARK INTER + INTRA:          -8.116
REMARK INTER:                  -7.508
REMARK INTRA:                  -0.608
REMARK UNBOUND:                -0.878
REMARK SMILES CCCCCCCCCC=CC(=O)[O-]
REMARK SMILES IDX 7 1 8 2 9 3 10 4 11 5 12 6 13 7 14 8 6 9 5 10 4 11 3 12 2 13
REMARK SMILES IDX 1 14
REMARK H PARENT
REMARK Flexibility Score: inf
ROOT
ATOM      1  C   UNL     1      13.987  17.368  27.728  1.00  0.00     0.000 C 
ENDROOT
BRANCH   1   2
ATOM      2  C   UNL     1      13.079  16.367  28.460  1.00  0.00     0.004 C 
BRANCH   2   3
ATOM      3  C   UNL     1      13.854  15.130  28.940  1.00  0.00     0.027 C 
BRANCH   3   4
ATOM      4  C   UNL     1      13.855  15.000  30.441  1.00  0.00    -0.025 C 
ATOM      5  C   UNL     1      14.493  14.058  31.153  1.00  0.00     0.020 C 
BRANCH   5   6
ATOM      6  C   UNL     1      15.280  12.929  30.615  1.00  0.00     0.064 C 
ATOM      7  O   UNL     1      16.206  12.444  31.316  1.00  0.00    -0.545 OA
ATOM      8  O   UNL     1      15.016  12.366  29.373  1.00  0.00    -0.545 OA
ENDBRANCH   5   6
ENDBRANCH   3   4
ENDBRANCH   2   3
ENDBRANCH   1   2
BRANCH   1   9
ATOM      9  C   UNL     1      14.880  16.656  26.705  1.00  0.00     0.000 C 
BRANCH   9  10
ATOM     10  C   UNL     1      15.110  17.537  25.469  1.00  0.00     0.000 C 
BRANCH  10  11
ATOM     11  C   UNL     1      13.835  17.724  24.631  1.00  0.00    -0.000 C 
BRANCH  11  12
ATOM     12  C   UNL     1      13.077  16.404  24.406  1.00  0.00    -0.000 C 
BRANCH  12  13
ATOM     13  C   UNL     1      11.552  16.586  24.458  1.00  0.00    -0.003 C 
ATOM     14  C   UNL     1      11.129  17.772  25.323  1.00  0.00     0.004 C 
ENDBRANCH  12  13
ENDBRANCH  11  12
ENDBRANCH  10  11
ENDBRANCH   9  10
ENDBRANCH   1   9
TORSDOF 9
ENDMDL
MODEL 7
REMARK VINA RESULT:    -4.670      3.246      5.442
REMARK INTER + INTRA:          -8.006
REMARK INTER:                  -7.306
REMARK INTRA:                  -0.700
REMARK UNBOUND:                -0.878
REMARK SMILES CCCCCCCCCC=CC(=O)[O-]
REMARK SMILES IDX 7 1 8 2 9 3 10 4 11 5 12 6 13 7 14 8 6 9 5 10 4 11 3 12 2 13
REMARK SMILES IDX 1 14
REMARK H PARENT
REMARK Flexibility Score: inf
ROOT
ATOM      1  C   UNL     1      13.955  16.580  25.638  1.00  0.00     0.000 C 
ENDROOT
BRANCH   1   2
ATOM      2  C   UNL     1      14.573  17.760  24.870  1.00  0.00     0.004 C 
BRANCH   2   3
ATOM      3  C   UNL     1      16.067  17.934  25.186  1.00  0.00     0.027 C 
BRANCH   3   4
ATOM      4  C   UNL     1      16.509  17.088  26.351  1.00  0.00    -0.025 C 
ATOM      5  C   UNL     1      17.772  16.733  26.637  1.00  0.00     0.020 C 
BRANCH   5   6
ATOM      6  C   UNL     1      18.978  17.053  25.844  1.00  0.00     0.064 C 
ATOM      7  O   UNL     1      20.027  17.401  26.446  1.00  0.00    -0.545 OA
ATOM      8  O   UNL     1      19.002  16.955  24.459  1.00  0.00    -0.545 OA
ENDBRANCH   5   6
ENDBRANCH   3   4
ENDBRANCH   2   3
ENDBRANCH   1   2
BRANCH   1   9
ATOM      9  C   UNL     1      12.839  17.057  26.574  1.00  0.00     0.000 C 
BRANCH   9  10
ATOM     10  C   UNL     1      13.288  16.994  28.041  1.00  0.00     0.000 C 
BRANCH  10  11
ATOM     11  C   UNL     1      13.322  15.558  28.587  1.00  0.00    -0.000 C 
BRANCH  11  12
ATOM     12  C   UNL     1      14.743  15.102  28.965  1.00  0.00    -0.000 C 
BRANCH  12  13
ATOM     13  C   UNL     1      14.740  13.906  29.929  1.00  0.00    -0.003 C 
ATOM     14  C   UNL     1      14.335  14.296  31.350  1.00  0.00     0.004 C 
ENDBRANCH  12  13
ENDBRANCH  11  12
ENDBRANCH  10  11
ENDBRANCH   9  10
ENDBRANCH   1   9
TORSDOF 9
ENDMDL
MODEL 8
REMARK VINA RESULT:    -4.611      1.317      2.545
REMARK INTER + INTRA:          -7.916
REMARK INTER:                  -7.109
REMARK INTRA:                  -0.807
REMARK UNBOUND:                -0.878
REMARK SMILES CCCCCCCCCC=CC(=O)[O-]
REMARK SMILES IDX 7 1 8 2 9 3 10 4 11 5 12 6 13 7 14 8 6 9 5 10 4 11 3 12 2 13
REMARK SMILES IDX 1 14
REMARK H PARENT
REMARK Flexibility Score: inf
ROOT
ATOM      1  C   UNL     1      13.176  16.609  27.902  1.00  0.00     0.000 C 
ENDROOT
BRANCH   1   2
ATOM      2  C   UNL     1      14.618  17.006  28.260  1.00  0.00     0.004 C 
BRANCH   2   3
ATOM      3  C   UNL     1      15.357  15.882  29.003  1.00  0.00     0.027 C 
BRANCH   3   4
ATOM      4  C   UNL     1      14.867  14.513  28.607  1.00  0.00    -0.025 C 
ATOM      5  C   UNL     1      14.713  13.461  29.426  1.00  0.00     0.020 C 
BRANCH   5   6
ATOM      6  C   UNL     1      15.039  13.411  30.867  1.00  0.00     0.064 C 
ATOM      7  O   UNL     1      15.902  12.587  31.267  1.00  0.00    -0.545 OA
ATOM      8  O   UNL     1      14.448  14.262  31.791  1.00  0.00    -0.545 OA
ENDBRANCH   5   6
ENDBRANCH   3   4
ENDBRANCH   2   3
ENDBRANCH   1   2
BRANCH   1   9
ATOM      9  C   UNL     1      12.342  17.841  27.531  1.00  0.00     0.000 C 
BRANCH   9  10
ATOM     10  C   UNL     1      11.801  17.728  26.099  1.00  0.00     0.000 C 
BRANCH  10  11
ATOM     11  C   UNL     1      12.046  16.342  25.482  1.00  0.00    -0.000 C 
BRANCH  11  12
ATOM     12  C   UNL     1      13.194  16.345  24.457  1.00  0.00    -0.000 C 
BRANCH  12  13
ATOM     13  C   UNL     1      13.570  17.764  24.000  1.00  0.00    -0.003 C 
ATOM     14  C   UNL     1      15.019  18.123  24.328  1.00  0.00     0.004 C 
ENDBRANCH  12  13
ENDBRANCH  11  12
ENDBRANCH  10  11
ENDBRANCH   9  10
ENDBRANCH   1   9
TORSDOF 9
ENDMDL
MODEL 9
REMARK VINA RESULT:    -4.517      3.443      6.570
REMARK INTER + INTRA:          -7.772
REMARK INTER:                  -6.988
REMARK INTRA:                  -0.783
REMARK UNBOUND:                -0.878
REMARK SMILES CCCCCCCCCC=CC(=O)[O-]
REMARK SMILES IDX 7 1 8 2 9 3 10 4 11 5 12 6 13 7 14 8 6 9 5 10 4 11 3 12 2 13
REMARK SMILES IDX 1 14
REMARK H PARENT
REMARK Flexibility Score: inf
ROOT
ATOM      1  C   UNL     1      14.715  15.403  28.129  1.00  0.00     0.000 C 
ENDROOT
BRANCH   1   2
ATOM      2  C   UNL     1      14.694  16.830  27.558  1.00  0.00     0.004 C 
BRANCH   2   3
ATOM      3  C   UNL     1      13.297  17.231  27.059  1.00  0.00     0.027 C 
BRANCH   3   4
ATOM      4  C   UNL     1      12.497  16.047  26.582  1.00  0.00    -0.025 C 
ATOM      5  C   UNL     1      11.858  15.947  25.405  1.00  0.00     0.020 C 
BRANCH   5   6
ATOM      6  C   UNL     1      11.765  16.990  24.362  1.00  0.00     0.064 C 
ATOM      7  O   UNL     1      10.729  17.701  24.303  1.00  0.00    -0.545 OA
ATOM      8  O   UNL     1      12.794  17.232  23.461  1.00  0.00    -0.545 OA
ENDBRANCH   5   6
ENDBRANCH   3   4
ENDBRANCH   2   3
ENDBRANCH   1   2
BRANCH   1   9
ATOM      9  C   UNL     1      15.133  15.407  29.605  1.00  0.00     0.000 C 
BRANCH   9  10
ATOM     10  C   UNL     1      14.092  14.685  30.472  1.00  0.00     0.000 C 
BRANCH  10  11
ATOM     11  C   UNL     1      14.734  13.825  31.572  1.00  0.00    -0.000 C 
BRANCH  11  12
ATOM     12  C   UNL     1      15.605  12.691  31.004  1.00  0.00    -0.000 C 
BRANCH  12  13
ATOM     13  C   UNL     1      14.876  11.874  29.925  1.00  0.00    -0.003 C 
ATOM     14  C   UNL     1      15.646  11.823  28.606  1.00  0.00     0.004 C 
ENDBRANCH  12  13
ENDBRANCH  11  12
ENDBRANCH  10  11
ENDBRANCH   9  10
ENDBRANCH   1   9
TORSDOF 9
ENDMDL
