MODEL 1
REMARK VINA RESULT:    -4.742      0.000      0.000
REMARK INTER + INTRA:          -6.219
REMARK INTER:                  -6.682
REMARK INTRA:                   0.463
REMARK UNBOUND:                 0.463
REMARK SMILES CC1=CCC(=C(C)C)C(=O)CC(C)=CCC1
REMARK SMILES IDX 12 1 14 2 13 3 15 4 16 5 2 6 1 7 3 8 11 10 9 11 10 12 5 13
REMARK SMILES IDX 6 14 7 15 8 16 4 17
REMARK H PARENT
REMARK Flexibility Score: 60.00
ROOT
ATOM      1  C   UNL     1       2.960  11.860  47.131  1.00  0.00    -0.070 C 
ATOM      2  C   UNL     1       3.304  13.167  47.044  1.00  0.00    -0.027 C 
ATOM      3  C   UNL     1       4.036  10.838  46.856  1.00  0.00     0.039 C 
ENDROOT
BRANCH   2   4
ATOM      4  C   UNL     1       2.371  14.347  47.174  1.00  0.00     0.032 C 
BRANCH   4   5
ATOM      5  C   UNL     1       1.481  14.540  45.932  1.00  0.00     0.034 C 
BRANCH   5   6
ATOM      6  C   UNL     1       0.043  14.846  46.301  1.00  0.00    -0.077 C 
ATOM      7  C   UNL     1      -0.242  16.101  47.087  1.00  0.00     0.039 C 
ATOM      8  C   UNL     1      -1.005  14.070  45.943  1.00  0.00    -0.023 CG0
ATOM      9  G   UNL     1      -0.926  12.801  45.129  1.00  0.00     0.000 G0
ENDBRANCH   5   6
ENDBRANCH   4   5
ENDBRANCH   2   4
BRANCH   1  10
ATOM     10  C   UNL     1       1.549  11.376  47.423  1.00  0.00     0.111 C 
BRANCH  10  11
ATOM     11  C   UNL     1       0.763  11.158  46.154  1.00  0.00     0.163 C 
ATOM     12  O   UNL     1       1.323  10.543  45.207  1.00  0.00    -0.294 OA
BRANCH  11  13
ATOM     13  C   UNL     1      -0.658  11.603  46.018  1.00  0.00    -0.002 C 
ATOM     14  C   UNL     1      -1.684  10.928  46.621  1.00  0.00    -0.069 C 
ATOM     15  C   UNL     1      -1.446   9.653  47.396  1.00  0.00     0.039 C 
ATOM     16  C   UNL     1      -3.116  11.408  46.509  1.00  0.00     0.039 C 
BRANCH  13  17
ATOM     17  C   UNL     1      -0.924  12.797  45.118  1.00  0.00     0.066 CG0
ATOM     18  G   UNL     1      -1.005  14.055  45.948  1.00  0.00     0.000 G0
ENDBRANCH  13  17
ENDBRANCH  11  13
ENDBRANCH  10  11
ENDBRANCH   1  10
TORSDOF 0
ENDMDL
MODEL 2
REMARK VINA RESULT:    -4.581      1.372      3.541
REMARK INTER + INTRA:          -5.992
REMARK INTER:                  -6.634
REMARK INTRA:                   0.641
REMARK UNBOUND:                 0.463
REMARK SMILES CC1=CCC(=C(C)C)C(=O)CC(C)=CCC1
REMARK SMILES IDX 12 1 14 2 13 3 15 4 16 5 2 6 1 7 3 8 11 10 9 11 10 12 5 13
REMARK SMILES IDX 6 14 7 15 8 16 4 17
REMARK H PARENT
REMARK Flexibility Score: 60.00
ROOT
ATOM      1  C   UNL     1       2.604  13.183  47.073  1.00  0.00    -0.070 C 
ATOM      2  C   UNL     1       2.695  11.835  46.986  1.00  0.00    -0.027 C 
ATOM      3  C   UNL     1       3.893  13.967  47.079  1.00  0.00     0.039 C 
ENDROOT
BRANCH   2   4
ATOM      4  C   UNL     1       1.549  10.855  47.067  1.00  0.00     0.032 C 
BRANCH   4   5
ATOM      5  C   UNL     1       0.580  10.975  45.875  1.00  0.00     0.034 C 
BRANCH   5   6
ATOM      6  C   UNL     1      -0.863  11.101  46.322  1.00  0.00    -0.077 C 
ATOM      7  C   UNL     1      -1.384  10.121  47.343  1.00  0.00     0.039 C 
ATOM      8  C   UNL     1      -1.706  12.059  45.876  1.00  0.00    -0.023 CG0
ATOM      9  G   UNL     1      -1.362  13.145  44.885  1.00  0.00     0.000 G0
ENDBRANCH   5   6
ENDBRANCH   4   5
ENDBRANCH   2   4
BRANCH   1  10
ATOM     10  C   UNL     1       1.291  13.933  47.228  1.00  0.00     0.111 C 
BRANCH  10  11
ATOM     11  C   UNL     1       0.715  14.327  45.890  1.00  0.00     0.163 C 
ATOM     12  O   UNL     1       1.517  14.606  44.958  1.00  0.00    -0.294 OA
BRANCH  11  13
ATOM     13  C   UNL     1      -0.759  14.342  45.637  1.00  0.00    -0.002 C 
ATOM     14  C   UNL     1      -1.559  15.348  46.108  1.00  0.00    -0.069 C 
ATOM     15  C   UNL     1      -1.009  16.459  46.971  1.00  0.00     0.039 C 
ATOM     16  C   UNL     1      -3.044  15.376  45.814  1.00  0.00     0.039 C 
BRANCH  13  17
ATOM     17  C   UNL     1      -1.345  13.153  44.897  1.00  0.00     0.066 CG0
ATOM     18  G   UNL     1      -1.706  12.066  45.881  1.00  0.00     0.000 G0
ENDBRANCH  13  17
ENDBRANCH  11  13
ENDBRANCH  10  11
ENDBRANCH   1  10
TORSDOF 0
ENDMDL
MODEL 3
REMARK VINA RESULT:    -4.371      1.626      4.120
REMARK INTER + INTRA:          -5.696
REMARK INTER:                  -7.039
REMARK INTRA:                   1.343
REMARK UNBOUND:                 0.463
REMARK SMILES CC1=CCC(=C(C)C)C(=O)CC(C)=CCC1
REMARK SMILES IDX 12 1 14 2 13 3 15 4 16 5 2 6 1 7 3 8 11 10 9 11 10 12 5 13
REMARK SMILES IDX 6 14 7 15 8 16 4 17
REMARK H PARENT
REMARK Flexibility Score: 60.00
ROOT
ATOM      1  C   UNL     1      -0.392  11.389  46.218  1.00  0.00    -0.070 C 
ATOM      2  C   UNL     1      -0.940  12.547  45.782  1.00  0.00    -0.027 C 
ATOM      3  C   UNL     1      -1.287  10.437  46.974  1.00  0.00     0.039 C 
ENDROOT
BRANCH   2   4
ATOM      4  C   UNL     1      -0.211  13.681  45.102  1.00  0.00     0.032 C 
BRANCH   4   5
ATOM      5  C   UNL     1      -0.512  15.049  45.744  1.00  0.00     0.034 C 
BRANCH   5   6
ATOM      6  C   UNL     1       0.297  15.279  47.006  1.00  0.00    -0.077 C 
ATOM      7  C   UNL     1      -0.338  16.058  48.130  1.00  0.00     0.039 C 
ATOM      8  C   UNL     1       1.549  14.802  47.193  1.00  0.00    -0.023 CG0
ATOM      9  G   UNL     1       2.334  13.974  46.204  1.00  0.00     0.000 G0
ENDBRANCH   5   6
ENDBRANCH   4   5
ENDBRANCH   2   4
BRANCH   1  10
ATOM     10  C   UNL     1       1.075  11.031  46.045  1.00  0.00     0.111 C 
BRANCH  10  11
ATOM     11  C   UNL     1       1.921  11.607  47.153  1.00  0.00     0.163 C 
ATOM     12  O   UNL     1       1.832  11.089  48.298  1.00  0.00    -0.294 OA
BRANCH  11  13
ATOM     13  C   UNL     1       2.884  12.726  46.912  1.00  0.00    -0.002 C 
ATOM     14  C   UNL     1       4.178  12.670  47.356  1.00  0.00    -0.069 C 
ATOM     15  C   UNL     1       4.684  11.507  48.177  1.00  0.00     0.039 C 
ATOM     16  C   UNL     1       5.156  13.790  47.074  1.00  0.00     0.039 C 
BRANCH  13  17
ATOM     17  C   UNL     1       2.345  13.964  46.218  1.00  0.00     0.066 CG0
ATOM     18  G   UNL     1       1.564  14.802  47.200  1.00  0.00     0.000 G0
ENDBRANCH  13  17
ENDBRANCH  11  13
ENDBRANCH  10  11
ENDBRANCH   1  10
TORSDOF 0
ENDMDL
MODEL 4
REMARK VINA RESULT:    -3.605      1.696      3.439
REMARK INTER + INTRA:          -4.617
REMARK INTER:                  -5.891
REMARK INTRA:                   1.273
REMARK UNBOUND:                 0.463
REMARK SMILES CC1=CCC(=C(C)C)C(=O)CC(C)=CCC1
REMARK SMILES IDX 12 1 14 2 13 3 15 4 16 5 2 6 1 7 3 8 11 10 9 11 10 12 5 13
REMARK SMILES IDX 6 14 7 15 8 16 4 17
REMARK H PARENT
REMARK Flexibility Score: 60.00
ROOT
ATOM      1  C   UNL     1       1.716  14.393  46.682  1.00  0.00    -0.070 C 
ATOM      2  C   UNL     1       2.823  14.191  47.435  1.00  0.00    -0.027 C 
ATOM      3  C   UNL     1       0.616  15.239  47.275  1.00  0.00     0.039 C 
ENDROOT
BRANCH   2   4
ATOM      4  C   UNL     1       3.991  13.300  47.086  1.00  0.00     0.032 C 
BRANCH   4   5
ATOM      5  C   UNL     1       3.553  11.878  46.685  1.00  0.00     0.034 C 
BRANCH   5   6
ATOM      6  C   UNL     1       2.556  11.290  47.663  1.00  0.00    -0.077 C 
ATOM      7  C   UNL     1       2.936  11.226  49.121  1.00  0.00     0.039 C 
ATOM      8  C   UNL     1       1.331  10.841  47.308  1.00  0.00    -0.023 CG0
ATOM      9  G   UNL     1       0.758  10.854  45.911  1.00  0.00     0.000 G0
ENDBRANCH   5   6
ENDBRANCH   4   5
ENDBRANCH   2   4
BRANCH   1  10
ATOM     10  C   UNL     1       1.499  13.765  45.315  1.00  0.00     0.111 C 
BRANCH  10  11
ATOM     11  C   UNL     1       0.098  13.223  45.169  1.00  0.00     0.163 C 
ATOM     12  O   UNL     1      -0.723  13.882  44.476  1.00  0.00    -0.294 OA
BRANCH  11  13
ATOM     13  C   UNL     1      -0.312  11.919  45.774  1.00  0.00    -0.002 C 
ATOM     14  C   UNL     1      -1.577  11.716  46.255  1.00  0.00    -0.069 C 
ATOM     15  C   UNL     1      -2.606  12.822  46.270  1.00  0.00     0.039 C 
ATOM     16  C   UNL     1      -1.995  10.379  46.831  1.00  0.00     0.039 C 
BRANCH  13  17
ATOM     17  C   UNL     1       0.758  10.849  45.900  1.00  0.00     0.066 CG0
ATOM     18  G   UNL     1       1.303  10.835  47.308  1.00  0.00     0.000 G0
ENDBRANCH  13  17
ENDBRANCH  11  13
ENDBRANCH  10  11
ENDBRANCH   1  10
TORSDOF 0
ENDMDL
MODEL 5
REMARK VINA RESULT:    -3.460      2.608      4.479
REMARK INTER + INTRA:          -4.414
REMARK INTER:                  -6.320
REMARK INTRA:                   1.906
REMARK UNBOUND:                 0.463
REMARK SMILES CC1=CCC(=C(C)C)C(=O)CC(C)=CCC1
REMARK SMILES IDX 12 1 14 2 13 3 15 4 16 5 2 6 1 7 3 8 11 10 9 11 10 12 5 13
REMARK SMILES IDX 6 14 7 15 8 16 4 17
REMARK H PARENT
REMARK Flexibility Score: 60.00
ROOT
ATOM      1  C   UNL     1       3.759  11.432  48.725  1.00  0.00    -0.070 C 
ATOM      2  C   UNL     1       4.790  11.941  49.440  1.00  0.00    -0.027 C 
ATOM      3  C   UNL     1       2.546  10.964  49.491  1.00  0.00     0.039 C 
ENDROOT
BRANCH   2   4
ATOM      4  C   UNL     1       6.132  12.369  48.894  1.00  0.00     0.032 C 
BRANCH   4   5
ATOM      5  C   UNL     1       6.152  13.848  48.463  1.00  0.00     0.034 C 
BRANCH   5   6
ATOM      6  C   UNL     1       5.830  14.018  46.991  1.00  0.00    -0.077 C 
ATOM      7  C   UNL     1       6.966  13.977  46.001  1.00  0.00     0.039 C 
ATOM      8  C   UNL     1       4.576  14.179  46.511  1.00  0.00    -0.023 CG0
ATOM      9  G   UNL     1       3.313  14.211  47.336  1.00  0.00     0.000 G0
ENDBRANCH   5   6
ENDBRANCH   4   5
ENDBRANCH   2   4
BRANCH   1  10
ATOM     10  C   UNL     1       3.787  11.250  47.217  1.00  0.00     0.111 C 
BRANCH  10  11
ATOM     11  C   UNL     1       2.575  11.864  46.561  1.00  0.00     0.163 C 
ATOM     12  O   UNL     1       1.808  11.109  45.905  1.00  0.00    -0.294 OA
BRANCH  11  13
ATOM     13  C   UNL     1       2.243  13.315  46.714  1.00  0.00    -0.002 C 
ATOM     14  C   UNL     1       1.064  13.835  46.253  1.00  0.00    -0.069 C 
ATOM     15  C   UNL     1       0.065  12.988  45.499  1.00  0.00     0.039 C 
ATOM     16  C   UNL     1       0.719  15.296  46.447  1.00  0.00     0.039 C 
BRANCH  13  17
ATOM     17  C   UNL     1       3.304  14.204  47.337  1.00  0.00     0.066 CG0
ATOM     18  G   UNL     1       4.555  14.174  46.494  1.00  0.00     0.000 G0
ENDBRANCH  13  17
ENDBRANCH  11  13
ENDBRANCH  10  11
ENDBRANCH   1  10
TORSDOF 0
ENDMDL
MODEL 6
REMARK VINA RESULT:    -3.443      1.760      4.111
REMARK INTER + INTRA:          -4.389
REMARK INTER:                  -5.160
REMARK INTRA:                   0.772
REMARK UNBOUND:                 0.463
REMARK SMILES CC1=CCC(=C(C)C)C(=O)CC(C)=CCC1
REMARK SMILES IDX 12 1 14 2 13 3 15 4 16 5 2 6 1 7 3 8 11 10 9 11 10 12 5 13
REMARK SMILES IDX 6 14 7 15 8 16 4 17
REMARK H PARENT
REMARK Flexibility Score: 60.00
ROOT
ATOM      1  C   UNL     1       0.545  11.227  46.376  1.00  0.00    -0.070 C 
ATOM      2  C   UNL     1       1.606  10.877  47.141  1.00  0.00    -0.027 C 
ATOM      3  C   UNL     1      -0.743  10.469  46.587  1.00  0.00     0.039 C 
ENDROOT
BRANCH   2   4
ATOM      4  C   UNL     1       3.009  11.426  47.027  1.00  0.00     0.032 C 
BRANCH   4   5
ATOM      5  C   UNL     1       3.230  12.675  47.902  1.00  0.00     0.034 C 
BRANCH   5   6
ATOM      6  C   UNL     1       3.379  13.935  47.073  1.00  0.00    -0.077 C 
ATOM      7  C   UNL     1       4.726  14.237  46.466  1.00  0.00     0.039 C 
ATOM      8  C   UNL     1       2.365  14.794  46.822  1.00  0.00    -0.023 CG0
ATOM      9  G   UNL     1       0.944  14.646  47.309  1.00  0.00     0.000 G0
ENDBRANCH   5   6
ENDBRANCH   4   5
ENDBRANCH   2   4
BRANCH   1  10
ATOM     10  C   UNL     1       0.600  12.285  45.287  1.00  0.00     0.111 C 
BRANCH  10  11
ATOM     11  C   UNL     1      -0.409  13.381  45.525  1.00  0.00     0.163 C 
ATOM     12  O   UNL     1      -1.616  13.148  45.245  1.00  0.00    -0.294 OA
BRANCH  11  13
ATOM     13  C   UNL     1      -0.023  14.696  46.125  1.00  0.00    -0.002 C 
ATOM     14  C   UNL     1      -0.453  15.882  45.596  1.00  0.00    -0.069 C 
ATOM     15  C   UNL     1      -1.282  15.932  44.333  1.00  0.00     0.039 C 
ATOM     16  C   UNL     1      -0.089  17.207  46.232  1.00  0.00     0.039 C 
BRANCH  13  17
ATOM     17  C   UNL     1       0.931  14.663  47.305  1.00  0.00     0.066 CG0
ATOM     18  G   UNL     1       2.354  14.791  46.817  1.00  0.00     0.000 G0
ENDBRANCH  13  17
ENDBRANCH  11  13
ENDBRANCH  10  11
ENDBRANCH   1  10
TORSDOF 0
ENDMDL
MODEL 7
REMARK VINA RESULT:    -3.412      1.700      4.632
REMARK INTER + INTRA:          -4.346
REMARK INTER:                  -6.485
REMARK INTRA:                   2.139
REMARK UNBOUND:                 0.463
REMARK SMILES CC1=CCC(=C(C)C)C(=O)CC(C)=CCC1
REMARK SMILES IDX 12 1 14 2 13 3 15 4 16 5 2 6 1 7 3 8 11 10 9 11 10 12 5 13
REMARK SMILES IDX 6 14 7 15 8 16 4 17
REMARK H PARENT
REMARK Flexibility Score: 60.00
ROOT
ATOM      1  C   UNL     1      -0.261  15.065  46.548  1.00  0.00    -0.070 C 
ATOM      2  C   UNL     1      -0.911  14.585  45.462  1.00  0.00    -0.027 C 
ATOM      3  C   UNL     1      -0.314  16.554  46.787  1.00  0.00     0.039 C 
ENDROOT
BRANCH   2   4
ATOM      4  C   UNL     1      -0.903  13.155  44.975  1.00  0.00     0.032 C 
BRANCH   4   5
ATOM      5  C   UNL     1      -1.820  12.240  45.809  1.00  0.00     0.034 C 
BRANCH   5   6
ATOM      6  C   UNL     1      -1.044  11.146  46.516  1.00  0.00    -0.077 C 
ATOM      7  C   UNL     1      -1.805  10.177  47.386  1.00  0.00     0.039 C 
ATOM      8  C   UNL     1       0.291  10.972  46.392  1.00  0.00    -0.023 CG0
ATOM      9  G   UNL     1       1.215  11.812  45.545  1.00  0.00     0.000 G0
ENDBRANCH   5   6
ENDBRANCH   4   5
ENDBRANCH   2   4
BRANCH   1  10
ATOM     10  C   UNL     1       0.564  14.203  47.488  1.00  0.00     0.111 C 
BRANCH  10  11
ATOM     11  C   UNL     1       1.914  13.873  46.900  1.00  0.00     0.163 C 
ATOM     12  O   UNL     1       2.782  14.786  46.858  1.00  0.00    -0.294 OA
BRANCH  11  13
ATOM     13  C   UNL     1       2.254  12.497  46.422  1.00  0.00    -0.002 C 
ATOM     14  C   UNL     1       3.458  11.914  46.706  1.00  0.00    -0.069 C 
ATOM     15  C   UNL     1       4.540  12.656  47.456  1.00  0.00     0.039 C 
ATOM     16  C   UNL     1       3.779  10.506  46.251  1.00  0.00     0.039 C 
BRANCH  13  17
ATOM     17  C   UNL     1       1.232  11.800  45.541  1.00  0.00     0.066 CG0
ATOM     18  G   UNL     1       0.303  10.971  46.394  1.00  0.00     0.000 G0
ENDBRANCH  13  17
ENDBRANCH  11  13
ENDBRANCH  10  11
ENDBRANCH   1  10
TORSDOF 0
ENDMDL
MODEL 8
REMARK VINA RESULT:    -3.042      1.773      4.228
REMARK INTER + INTRA:          -3.824
REMARK INTER:                  -5.547
REMARK INTRA:                   1.723
REMARK UNBOUND:                 0.463
REMARK SMILES CC1=CCC(=C(C)C)C(=O)CC(C)=CCC1
REMARK SMILES IDX 12 1 14 2 13 3 15 4 16 5 2 6 1 7 3 8 11 10 9 11 10 12 5 13
REMARK SMILES IDX 6 14 7 15 8 16 4 17
REMARK H PARENT
REMARK Flexibility Score: 60.00
ROOT
ATOM      1  C   UNL     1      -0.211  10.846  46.212  1.00  0.00    -0.070 C 
ATOM      2  C   UNL     1       1.003  10.273  46.386  1.00  0.00    -0.027 C 
ATOM      3  C   UNL     1      -1.329  10.395  47.120  1.00  0.00     0.039 C 
ENDROOT
BRANCH   2   4
ATOM      4  C   UNL     1       2.227  10.494  45.529  1.00  0.00     0.032 C 
BRANCH   4   5
ATOM      5  C   UNL     1       3.301  11.343  46.236  1.00  0.00     0.034 C 
BRANCH   5   6
ATOM      6  C   UNL     1       2.745  12.079  47.440  1.00  0.00    -0.077 C 
ATOM      7  C   UNL     1       3.112  11.581  48.815  1.00  0.00     0.039 C 
ATOM      8  C   UNL     1       1.957  13.175  47.352  1.00  0.00    -0.023 CG0
ATOM      9  G   UNL     1       1.512  13.841  46.072  1.00  0.00     0.000 G0
ENDBRANCH   5   6
ENDBRANCH   4   5
ENDBRANCH   2   4
BRANCH   1  10
ATOM     10  C   UNL     1      -0.518  11.858  45.121  1.00  0.00     0.111 C 
BRANCH  10  11
ATOM     11  C   UNL     1      -0.966  13.178  45.698  1.00  0.00     0.163 C 
ATOM     12  O   UNL     1      -2.204  13.388  45.811  1.00  0.00    -0.294 OA
BRANCH  11  13
ATOM     13  C   UNL     1       0.012  14.203  46.180  1.00  0.00    -0.002 C 
ATOM     14  C   UNL     1      -0.395  15.430  46.627  1.00  0.00    -0.069 C 
ATOM     15  C   UNL     1      -1.847  15.846  46.590  1.00  0.00     0.039 C 
ATOM     16  C   UNL     1       0.598  16.447  47.149  1.00  0.00     0.039 C 
BRANCH  13  17
ATOM     17  C   UNL     1       1.485  13.851  46.081  1.00  0.00     0.066 CG0
ATOM     18  G   UNL     1       1.938  13.185  47.358  1.00  0.00     0.000 G0
ENDBRANCH  13  17
ENDBRANCH  11  13
ENDBRANCH  10  11
ENDBRANCH   1  10
TORSDOF 0
ENDMDL
MODEL 9
REMARK VINA RESULT:    -2.972      1.771      3.644
REMARK INTER + INTRA:          -3.725
REMARK INTER:                  -4.428
REMARK INTRA:                   0.703
REMARK UNBOUND:                 0.463
REMARK SMILES CC1=CCC(=C(C)C)C(=O)CC(C)=CCC1
REMARK SMILES IDX 12 1 14 2 13 3 15 4 16 5 2 6 1 7 3 8 11 10 9 11 10 12 5 13
REMARK SMILES IDX 6 14 7 15 8 16 4 17
REMARK H PARENT
REMARK Flexibility Score: 60.00
ROOT
ATOM      1  C   UNL     1       3.013  13.754  47.146  1.00  0.00    -0.070 C 
ATOM      2  C   UNL     1       3.243  12.508  47.625  1.00  0.00    -0.027 C 
ATOM      3  C   UNL     1       4.197  14.524  46.616  1.00  0.00     0.039 C 
ENDROOT
BRANCH   2   4
ATOM      4  C   UNL     1       2.233  11.607  48.294  1.00  0.00     0.032 C 
BRANCH   4   5
ATOM      5  C   UNL     1       1.915  10.351  47.460  1.00  0.00     0.034 C 
BRANCH   5   6
ATOM      6  C   UNL     1       1.874  10.648  45.974  1.00  0.00    -0.077 C 
ATOM      7  C   UNL     1       2.973  10.091  45.103  1.00  0.00     0.039 C 
ATOM      8  C   UNL     1       0.894  11.363  45.378  1.00  0.00    -0.023 CG0
ATOM      9  G   UNL     1      -0.302  11.969  46.071  1.00  0.00     0.000 G0
ENDBRANCH   5   6
ENDBRANCH   4   5
ENDBRANCH   2   4
BRANCH   1  10
ATOM     10  C   UNL     1       1.653  14.431  47.175  1.00  0.00     0.111 C 
BRANCH  10  11
ATOM     11  C   UNL     1       0.903  14.226  45.881  1.00  0.00     0.163 C 
ATOM     12  O   UNL     1       1.413  14.681  44.822  1.00  0.00    -0.294 OA
BRANCH  11  13
ATOM     13  C   UNL     1      -0.382  13.463  45.824  1.00  0.00    -0.002 C 
ATOM     14  C   UNL     1      -1.580  14.087  45.611  1.00  0.00    -0.069 C 
ATOM     15  C   UNL     1      -1.681  15.591  45.497  1.00  0.00     0.039 C 
ATOM     16  C   UNL     1      -2.871  13.302  45.516  1.00  0.00     0.039 C 
BRANCH  13  17
ATOM     17  C   UNL     1      -0.309  11.969  46.086  1.00  0.00     0.066 CG0
ATOM     18  G   UNL     1       0.891  11.384  45.383  1.00  0.00     0.000 G0
ENDBRANCH  13  17
ENDBRANCH  11  13
ENDBRANCH  10  11
ENDBRANCH   1  10
TORSDOF 0
ENDMDL
