MODEL 1
REMARK VINA RESULT:    -2.896      0.000      0.000
REMARK INTER + INTRA:          -3.577
REMARK INTER:                  -3.404
REMARK INTRA:                  -0.173
REMARK UNBOUND:                -0.173
REMARK SMILES O=C([O-])CCC(=O)[O-]
REMARK SMILES IDX 4 1 2 2 1 3 3 4 5 5 6 6 7 7 8 8
REMARK H PARENT
REMARK Flexibility Score: inf
ROOT
ATOM      1  C   UNL     1      -7.360  -6.249  36.110  1.00  0.00     0.059 C 
ENDROOT
BRANCH   1   2
ATOM      2  C   UNL     1      -7.053  -7.251  35.039  1.00  0.00     0.042 C 
ATOM      3  O   UNL     1      -5.876  -7.669  34.882  1.00  0.00    -0.550 OA
ATOM      4  O   UNL     1      -8.058  -7.690  34.187  1.00  0.00    -0.550 OA
ENDBRANCH   1   2
BRANCH   1   5
ATOM      5  C   UNL     1      -6.539  -4.967  35.938  1.00  0.00     0.059 C 
BRANCH   5   6
ATOM      6  C   UNL     1      -6.868  -4.269  34.654  1.00  0.00     0.042 C 
ATOM      7  O   UNL     1      -7.977  -3.690  34.514  1.00  0.00    -0.550 OA
ATOM      8  O   UNL     1      -5.965  -4.292  33.598  1.00  0.00    -0.550 OA
ENDBRANCH   5   6
ENDBRANCH   1   5
TORSDOF 3
ENDMDL
MODEL 2
REMARK VINA RESULT:    -2.875     24.224     25.671
REMARK INTER + INTRA:          -3.552
REMARK INTER:                  -3.388
REMARK INTRA:                  -0.164
REMARK UNBOUND:                -0.173
REMARK SMILES O=C([O-])CCC(=O)[O-]
REMARK SMILES IDX 4 1 2 2 1 3 3 4 5 5 6 6 7 7 8 8
REMARK H PARENT
REMARK Flexibility Score: inf
ROOT
ATOM      1  C   UNL     1     -21.737   7.629  17.449  1.00  0.00     0.059 C 
ENDROOT
BRANCH   1   2
ATOM      2  C   UNL     1     -22.140   8.412  18.661  1.00  0.00     0.042 C 
ATOM      3  O   UNL     1     -21.293   9.112  19.274  1.00  0.00    -0.550 OA
ATOM      4  O   UNL     1     -23.443   8.335  19.139  1.00  0.00    -0.550 OA
ENDBRANCH   1   2
BRANCH   1   5
ATOM      5  C   UNL     1     -22.240   6.183  17.517  1.00  0.00     0.059 C 
BRANCH   5   6
ATOM      6  C   UNL     1     -21.644   5.445  18.676  1.00  0.00     0.042 C 
ATOM      7  O   UNL     1     -22.390   4.893  19.527  1.00  0.00    -0.550 OA
ATOM      8  O   UNL     1     -20.264   5.400  18.837  1.00  0.00    -0.550 OA
ENDBRANCH   5   6
ENDBRANCH   1   5
TORSDOF 3
ENDMDL
MODEL 3
REMARK VINA RESULT:    -2.863     25.410     26.150
REMARK INTER + INTRA:          -3.538
REMARK INTER:                  -3.463
REMARK INTRA:                  -0.075
REMARK UNBOUND:                -0.173
REMARK SMILES O=C([O-])CCC(=O)[O-]
REMARK SMILES IDX 4 1 2 2 1 3 3 4 5 5 6 6 7 7 8 8
REMARK H PARENT
REMARK Flexibility Score: inf
ROOT
ATOM      1  C   UNL     1     -21.795   8.238  18.449  1.00  0.00     0.059 C 
ENDROOT
BRANCH   1   2
ATOM      2  C   UNL     1     -21.716   7.202  17.369  1.00  0.00     0.042 C 
ATOM      3  O   UNL     1     -22.465   6.192  17.404  1.00  0.00    -0.550 OA
ATOM      4  O   UNL     1     -20.783   7.332  16.346  1.00  0.00    -0.550 OA
ENDBRANCH   1   2
BRANCH   1   5
ATOM      5  C   UNL     1     -23.219   8.375  18.997  1.00  0.00     0.059 C 
BRANCH   5   6
ATOM      6  C   UNL     1     -23.294   7.986  20.442  1.00  0.00     0.042 C 
ATOM      7  O   UNL     1     -22.347   8.264  21.223  1.00  0.00    -0.550 OA
ATOM      8  O   UNL     1     -24.394   7.280  20.916  1.00  0.00    -0.550 OA
ENDBRANCH   5   6
ENDBRANCH   1   5
TORSDOF 3
ENDMDL
MODEL 4
REMARK VINA RESULT:    -2.862      0.144      3.328
REMARK INTER + INTRA:          -3.536
REMARK INTER:                  -3.369
REMARK INTRA:                  -0.168
REMARK UNBOUND:                -0.173
REMARK SMILES O=C([O-])CCC(=O)[O-]
REMARK SMILES IDX 4 1 2 2 1 3 3 4 5 5 6 6 7 7 8 8
REMARK H PARENT
REMARK Flexibility Score: inf
ROOT
ATOM      1  C   UNL     1      -6.550  -4.985  35.805  1.00  0.00     0.059 C 
ENDROOT
BRANCH   1   2
ATOM      2  C   UNL     1      -6.876  -4.359  34.483  1.00  0.00     0.042 C 
ATOM      3  O   UNL     1      -6.012  -4.325  33.568  1.00  0.00    -0.550 OA
ATOM      4  O   UNL     1      -8.119  -3.775  34.277  1.00  0.00    -0.550 OA
ENDBRANCH   1   2
BRANCH   1   5
ATOM      5  C   UNL     1      -7.350  -6.272  36.033  1.00  0.00     0.059 C 
BRANCH   5   6
ATOM      6  C   UNL     1      -7.049  -7.302  34.988  1.00  0.00     0.042 C 
ATOM      7  O   UNL     1      -5.875  -7.735  34.844  1.00  0.00    -0.550 OA
ATOM      8  O   UNL     1      -8.058  -7.754  34.146  1.00  0.00    -0.550 OA
ENDBRANCH   5   6
ENDBRANCH   1   5
TORSDOF 3
ENDMDL
MODEL 5
REMARK VINA RESULT:    -2.846     25.483     26.132
REMARK INTER + INTRA:          -3.517
REMARK INTER:                  -3.446
REMARK INTRA:                  -0.071
REMARK UNBOUND:                -0.173
REMARK SMILES O=C([O-])CCC(=O)[O-]
REMARK SMILES IDX 4 1 2 2 1 3 3 4 5 5 6 6 7 7 8 8
REMARK H PARENT
REMARK Flexibility Score: inf
ROOT
ATOM      1  C   UNL     1     -23.138   8.352  18.904  1.00  0.00     0.059 C 
ENDROOT
BRANCH   1   2
ATOM      2  C   UNL     1     -23.283   8.002  20.354  1.00  0.00     0.042 C 
ATOM      3  O   UNL     1     -22.393   8.337  21.178  1.00  0.00    -0.550 OA
ATOM      4  O   UNL     1     -24.381   7.268  20.786  1.00  0.00    -0.550 OA
ENDBRANCH   1   2
BRANCH   1   5
ATOM      5  C   UNL     1     -21.698   8.158  18.417  1.00  0.00     0.059 C 
BRANCH   5   6
ATOM      6  C   UNL     1     -21.619   7.145  17.316  1.00  0.00     0.042 C 
ATOM      7  O   UNL     1     -22.407   6.163  17.301  1.00  0.00    -0.550 OA
ATOM      8  O   UNL     1     -20.648   7.265  16.329  1.00  0.00    -0.550 OA
ENDBRANCH   5   6
ENDBRANCH   1   5
TORSDOF 3
ENDMDL
MODEL 6
REMARK VINA RESULT:    -2.831     24.189     25.496
REMARK INTER + INTRA:          -3.500
REMARK INTER:                  -3.333
REMARK INTRA:                  -0.167
REMARK UNBOUND:                -0.173
REMARK SMILES O=C([O-])CCC(=O)[O-]
REMARK SMILES IDX 4 1 2 2 1 3 3 4 5 5 6 6 7 7 8 8
REMARK H PARENT
REMARK Flexibility Score: inf
ROOT
ATOM      1  C   UNL     1     -22.346   6.183  17.643  1.00  0.00     0.059 C 
ENDROOT
BRANCH   1   2
ATOM      2  C   UNL     1     -21.670   5.463  18.770  1.00  0.00     0.042 C 
ATOM      3  O   UNL     1     -22.354   4.935  19.685  1.00  0.00    -0.550 OA
ATOM      4  O   UNL     1     -20.283   5.411  18.830  1.00  0.00    -0.550 OA
ENDBRANCH   1   2
BRANCH   1   5
ATOM      5  C   UNL     1     -21.840   7.623  17.508  1.00  0.00     0.059 C 
BRANCH   5   6
ATOM      6  C   UNL     1     -22.141   8.431  18.733  1.00  0.00     0.042 C 
ATOM      7  O   UNL     1     -21.238   9.123  19.273  1.00  0.00    -0.550 OA
ATOM      8  O   UNL     1     -23.408   8.388  19.301  1.00  0.00    -0.550 OA
ENDBRANCH   5   6
ENDBRANCH   1   5
TORSDOF 3
ENDMDL
MODEL 7
REMARK VINA RESULT:    -2.778     24.900     25.702
REMARK INTER + INTRA:          -3.438
REMARK INTER:                  -3.361
REMARK INTRA:                  -0.077
REMARK UNBOUND:                -0.173
REMARK SMILES O=C([O-])CCC(=O)[O-]
REMARK SMILES IDX 4 1 2 2 1 3 3 4 5 5 6 6 7 7 8 8
REMARK H PARENT
REMARK Flexibility Score: inf
ROOT
ATOM      1  C   UNL     1     -23.052   8.082  20.710  1.00  0.00     0.059 C 
ENDROOT
BRANCH   1   2
ATOM      2  C   UNL     1     -23.877   6.868  21.009  1.00  0.00     0.042 C 
ATOM      3  O   UNL     1     -25.032   6.990  21.492  1.00  0.00    -0.550 OA
ATOM      4  O   UNL     1     -23.352   5.599  20.793  1.00  0.00    -0.550 OA
ENDBRANCH   1   2
BRANCH   1   5
ATOM      5  C   UNL     1     -23.097   8.445  19.221  1.00  0.00     0.059 C 
BRANCH   5   6
ATOM      6  C   UNL     1     -21.782   8.189  18.551  1.00  0.00     0.042 C 
ATOM      7  O   UNL     1     -21.744   7.855  17.337  1.00  0.00    -0.550 OA
ATOM      8  O   UNL     1     -20.601   8.281  19.278  1.00  0.00    -0.550 OA
ENDBRANCH   5   6
ENDBRANCH   1   5
TORSDOF 3
ENDMDL
MODEL 8
REMARK VINA RESULT:    -2.769     24.690     25.878
REMARK INTER + INTRA:          -3.427
REMARK INTER:                  -3.328
REMARK INTRA:                  -0.099
REMARK UNBOUND:                -0.173
REMARK SMILES O=C([O-])CCC(=O)[O-]
REMARK SMILES IDX 4 1 2 2 1 3 3 4 5 5 6 6 7 7 8 8
REMARK H PARENT
REMARK Flexibility Score: inf
ROOT
ATOM      1  C   UNL     1     -21.220   7.380  16.949  1.00  0.00     0.059 C 
ENDROOT
BRANCH   1   2
ATOM      2  C   UNL     1     -19.976   6.597  17.237  1.00  0.00     0.042 C 
ATOM      3  O   UNL     1     -19.887   5.914  18.290  1.00  0.00    -0.550 OA
ATOM      4  O   UNL     1     -18.898   6.655  16.362  1.00  0.00    -0.550 OA
ENDBRANCH   1   2
BRANCH   1   5
ATOM      5  C   UNL     1     -22.378   6.960  17.861  1.00  0.00     0.059 C 
BRANCH   5   6
ATOM      6  C   UNL     1     -22.741   8.045  18.827  1.00  0.00     0.042 C 
ATOM      7  O   UNL     1     -22.094   9.125  18.840  1.00  0.00    -0.550 OA
ATOM      8  O   UNL     1     -23.771   7.848  19.740  1.00  0.00    -0.550 OA
ENDBRANCH   5   6
ENDBRANCH   1   5
TORSDOF 3
ENDMDL
MODEL 9
REMARK VINA RESULT:    -2.686     24.708     25.941
REMARK INTER + INTRA:          -3.330
REMARK INTER:                  -3.223
REMARK INTRA:                  -0.108
REMARK UNBOUND:                -0.173
REMARK SMILES O=C([O-])CCC(=O)[O-]
REMARK SMILES IDX 4 1 2 2 1 3 3 4 5 5 6 6 7 7 8 8
REMARK H PARENT
REMARK Flexibility Score: inf
ROOT
ATOM      1  C   UNL     1     -22.311   7.079  17.871  1.00  0.00     0.059 C 
ENDROOT
BRANCH   1   2
ATOM      2  C   UNL     1     -22.477   8.205  18.845  1.00  0.00     0.042 C 
ATOM      3  O   UNL     1     -21.621   9.125  18.902  1.00  0.00    -0.550 OA
ATOM      4  O   UNL     1     -23.557   8.214  19.720  1.00  0.00    -0.550 OA
ENDBRANCH   1   2
BRANCH   1   5
ATOM      5  C   UNL     1     -21.204   7.371  16.852  1.00  0.00     0.059 C 
BRANCH   5   6
ATOM      6  C   UNL     1     -20.013   6.488  17.063  1.00  0.00     0.042 C 
ATOM      7  O   UNL     1     -19.197   6.289  16.124  1.00  0.00    -0.550 OA
ATOM      8  O   UNL     1     -19.825   5.854  18.285  1.00  0.00    -0.550 OA
ENDBRANCH   5   6
ENDBRANCH   1   5
TORSDOF 3
ENDMDL
