MODEL 1
REMARK VINA RESULT:     2.553      0.000      0.000
REMARK INTER + INTRA:           4.821
REMARK INTER:                   6.731
REMARK INTRA:                  -1.910
REMARK UNBOUND:                -1.910
REMARK SMILES CCCCCCCCCCCCCCCCCCCCCCCCCCCCCC(=O)[O-]
REMARK SMILES IDX 16 1 17 2 18 3 19 4 20 5 21 6 22 7 23 8 24 9 25 10 26 11
REMARK SMILES IDX 27 12 28 13 29 14 30 15 31 16 32 17 15 18 14 19 13 20 12 21
REMARK SMILES IDX 11 22 10 23 9 24 8 25 7 26 6 27 5 28 4 29 3 30 2 31 1 32
REMARK H PARENT
REMARK Flexibility Score: inf
ROOT
ATOM      1  C   UNL     1      -4.226  35.575  23.260  1.00  0.00     0.000 C 
ENDROOT
BRANCH   1   2
ATOM      2  C   UNL     1      -5.747  35.678  23.051  1.00  0.00     0.000 C 
BRANCH   2   3
ATOM      3  C   UNL     1      -6.120  36.720  21.993  1.00  0.00     0.000 C 
BRANCH   3   4
ATOM      4  C   UNL     1      -5.126  37.891  21.943  1.00  0.00     0.000 C 
BRANCH   4   5
ATOM      5  C   UNL     1      -5.756  39.173  21.369  1.00  0.00     0.000 C 
BRANCH   5   6
ATOM      6  C   UNL     1      -5.048  40.491  21.769  1.00  0.00     0.000 C 
BRANCH   6   7
ATOM      7  C   UNL     1      -4.980  40.739  23.289  1.00  0.00     0.000 C 
BRANCH   7   8
ATOM      8  C   UNL     1      -4.225  39.619  24.024  1.00  0.00     0.000 C 
BRANCH   8   9
ATOM      9  C   UNL     1      -4.949  39.191  25.303  1.00  0.00     0.000 C 
BRANCH   9  10
ATOM     10  C   UNL     1      -4.257  38.020  26.047  1.00  0.00     0.000 C 
BRANCH  10  11
ATOM     11  C   UNL     1      -2.766  38.299  26.340  1.00  0.00     0.000 C 
BRANCH  11  12
ATOM     12  C   UNL     1      -2.305  37.838  27.738  1.00  0.00     0.000 C 
BRANCH  12  13
ATOM     13  C   UNL     1      -1.677  36.429  27.751  1.00  0.00     0.006 C 
BRANCH  13  14
ATOM     14  C   UNL     1      -2.358  35.487  28.754  1.00  0.00     0.053 C 
BRANCH  14  15
ATOM     15  C   UNL     1      -1.353  34.808  29.625  1.00  0.00     0.041 C 
ATOM     16  O   UNL     1      -0.137  34.769  29.278  1.00  0.00    -0.550 OA
ATOM     17  O   UNL     1      -1.747  34.211  30.816  1.00  0.00    -0.550 OA
ENDBRANCH  14  15
ENDBRANCH  13  14
ENDBRANCH  12  13
ENDBRANCH  11  12
ENDBRANCH  10  11
ENDBRANCH   9  10
ENDBRANCH   8   9
ENDBRANCH   7   8
ENDBRANCH   6   7
ENDBRANCH   5   6
ENDBRANCH   4   5
ENDBRANCH   3   4
ENDBRANCH   2   3
ENDBRANCH   1   2
BRANCH   1  18
ATOM     18  C   UNL     1      -3.534  34.655  22.244  1.00  0.00     0.000 C 
BRANCH  18  19
ATOM     19  C   UNL     1      -3.126  35.325  20.914  1.00  0.00     0.000 C 
BRANCH  19  20
ATOM     20  C   UNL     1      -4.036  34.923  19.743  1.00  0.00     0.000 C 
BRANCH  20  21
ATOM     21  C   UNL     1      -4.071  35.982  18.636  1.00  0.00     0.000 C 
BRANCH  21  22
ATOM     22  C   UNL     1      -4.336  37.399  19.172  1.00  0.00     0.000 C 
BRANCH  22  23
ATOM     23  C   UNL     1      -3.440  38.436  18.493  1.00  0.00     0.000 C 
BRANCH  23  24
ATOM     24  C   UNL     1      -2.125  38.642  19.269  1.00  0.00    -0.000 C 
BRANCH  24  25
ATOM     25  C   UNL     1      -0.932  37.877  18.652  1.00  0.00    -0.000 C 
BRANCH  25  26
ATOM     26  C   UNL     1      -0.803  38.073  17.122  1.00  0.00    -0.000 C 
BRANCH  26  27
ATOM     27  C   UNL     1      -1.427  36.916  16.296  1.00  0.00    -0.000 C 
BRANCH  27  28
ATOM     28  C   UNL     1      -1.805  37.350  14.855  1.00  0.00    -0.000 C 
BRANCH  28  29
ATOM     29  C   UNL     1      -3.229  36.923  14.414  1.00  0.00    -0.000 C 
BRANCH  29  30
ATOM     30  C   UNL     1      -4.142  38.079  13.959  1.00  0.00    -0.000 C 
BRANCH  30  31
ATOM     31  C   UNL     1      -3.617  39.456  14.401  1.00  0.00    -0.003 C 
ATOM     32  C   UNL     1      -4.529  40.561  13.886  1.00  0.00     0.004 C 
ENDBRANCH  30  31
ENDBRANCH  29  30
ENDBRANCH  28  29
ENDBRANCH  27  28
ENDBRANCH  26  27
ENDBRANCH  25  26
ENDBRANCH  24  25
ENDBRANCH  23  24
ENDBRANCH  22  23
ENDBRANCH  21  22
ENDBRANCH  20  21
ENDBRANCH  19  20
ENDBRANCH  18  19
ENDBRANCH   1  18
TORSDOF 28
ENDMDL
MODEL 2
REMARK VINA RESULT:     4.244      2.926      9.410
REMARK INTER + INTRA:           9.280
REMARK INTER:                   9.187
REMARK INTRA:                   0.093
REMARK UNBOUND:                -1.910
REMARK SMILES CCCCCCCCCCCCCCCCCCCCCCCCCCCCCC(=O)[O-]
REMARK SMILES IDX 16 1 17 2 18 3 19 4 20 5 21 6 22 7 23 8 24 9 25 10 26 11
REMARK SMILES IDX 27 12 28 13 29 14 30 15 31 16 32 17 15 18 14 19 13 20 12 21
REMARK SMILES IDX 11 22 10 23 9 24 8 25 7 26 6 27 5 28 4 29 3 30 2 31 1 32
REMARK H PARENT
REMARK Flexibility Score: inf
ROOT
ATOM      1  C   UNL     1      -4.737  37.121  22.058  1.00  0.00     0.000 C 
ENDROOT
BRANCH   1   2
ATOM      2  C   UNL     1      -5.238  35.866  22.794  1.00  0.00     0.000 C 
BRANCH   2   3
ATOM      3  C   UNL     1      -4.331  34.654  22.564  1.00  0.00     0.000 C 
BRANCH   3   4
ATOM      4  C   UNL     1      -3.073  35.006  21.754  1.00  0.00     0.000 C 
BRANCH   4   5
ATOM      5  C   UNL     1      -3.408  35.541  20.350  1.00  0.00     0.000 C 
BRANCH   5   6
ATOM      6  C   UNL     1      -4.463  34.722  19.567  1.00  0.00     0.000 C 
BRANCH   6   7
ATOM      7  C   UNL     1      -4.903  35.363  18.236  1.00  0.00     0.000 C 
BRANCH   7   8
ATOM      8  C   UNL     1      -3.715  35.614  17.294  1.00  0.00     0.000 C 
BRANCH   8   9
ATOM      9  C   UNL     1      -3.525  37.105  17.003  1.00  0.00     0.000 C 
BRANCH   9  10
ATOM     10  C   UNL     1      -3.773  37.486  15.521  1.00  0.00     0.000 C 
BRANCH  10  11
ATOM     11  C   UNL     1      -2.545  37.218  14.623  1.00  0.00     0.000 C 
BRANCH  11  12
ATOM     12  C   UNL     1      -1.193  37.525  15.300  1.00  0.00     0.000 C 
BRANCH  12  13
ATOM     13  C   UNL     1      -1.328  38.248  16.655  1.00  0.00     0.006 C 
BRANCH  13  14
ATOM     14  C   UNL     1      -0.382  37.683  17.724  1.00  0.00     0.053 C 
BRANCH  14  15
ATOM     15  C   UNL     1      -0.689  38.250  19.071  1.00  0.00     0.041 C 
ATOM     16  O   UNL     1      -1.686  39.016  19.224  1.00  0.00    -0.550 OA
ATOM     17  O   UNL     1       0.118  37.948  20.161  1.00  0.00    -0.550 OA
ENDBRANCH  14  15
ENDBRANCH  13  14
ENDBRANCH  12  13
ENDBRANCH  11  12
ENDBRANCH  10  11
ENDBRANCH   9  10
ENDBRANCH   8   9
ENDBRANCH   7   8
ENDBRANCH   6   7
ENDBRANCH   5   6
ENDBRANCH   4   5
ENDBRANCH   3   4
ENDBRANCH   2   3
ENDBRANCH   1   2
BRANCH   1  18
ATOM     18  C   UNL     1      -5.721  37.640  21.001  1.00  0.00     0.000 C 
BRANCH  18  19
ATOM     19  C   UNL     1      -5.144  38.672  20.008  1.00  0.00     0.000 C 
BRANCH  19  20
ATOM     20  C   UNL     1      -5.772  40.065  20.169  1.00  0.00     0.000 C 
BRANCH  20  21
ATOM     21  C   UNL     1      -5.974  40.452  21.638  1.00  0.00     0.000 C 
BRANCH  21  22
ATOM     22  C   UNL     1      -4.648  40.605  22.403  1.00  0.00     0.000 C 
BRANCH  22  23
ATOM     23  C   UNL     1      -4.796  40.214  23.874  1.00  0.00     0.000 C 
BRANCH  23  24
ATOM     24  C   UNL     1      -6.055  39.356  24.105  1.00  0.00    -0.000 C 
BRANCH  24  25
ATOM     25  C   UNL     1      -5.837  38.231  25.142  1.00  0.00    -0.000 C 
BRANCH  25  26
ATOM     26  C   UNL     1      -4.344  37.932  25.418  1.00  0.00    -0.000 C 
BRANCH  26  27
ATOM     27  C   UNL     1      -3.884  38.346  26.842  1.00  0.00    -0.000 C 
BRANCH  27  28
ATOM     28  C   UNL     1      -2.358  38.612  26.921  1.00  0.00    -0.000 C 
BRANCH  28  29
ATOM     29  C   UNL     1      -1.539  37.448  27.534  1.00  0.00    -0.000 C 
BRANCH  29  30
ATOM     30  C   UNL     1      -2.365  36.421  28.333  1.00  0.00    -0.000 C 
BRANCH  30  31
ATOM     31  C   UNL     1      -1.573  35.139  28.643  1.00  0.00    -0.003 C 
ATOM     32  C   UNL     1      -1.771  34.732  30.098  1.00  0.00     0.004 C 
ENDBRANCH  30  31
ENDBRANCH  29  30
ENDBRANCH  28  29
ENDBRANCH  27  28
ENDBRANCH  26  27
ENDBRANCH  25  26
ENDBRANCH  24  25
ENDBRANCH  23  24
ENDBRANCH  22  23
ENDBRANCH  21  22
ENDBRANCH  20  21
ENDBRANCH  19  20
ENDBRANCH  18  19
ENDBRANCH   1  18
TORSDOF 28
ENDMDL
MODEL 3
REMARK VINA RESULT:     4.408      1.347      3.178
REMARK INTER + INTRA:           9.712
REMARK INTER:                   9.431
REMARK INTRA:                   0.282
REMARK UNBOUND:                -1.910
REMARK SMILES CCCCCCCCCCCCCCCCCCCCCCCCCCCCCC(=O)[O-]
REMARK SMILES IDX 16 1 17 2 18 3 19 4 20 5 21 6 22 7 23 8 24 9 25 10 26 11
REMARK SMILES IDX 27 12 28 13 29 14 30 15 31 16 32 17 15 18 14 19 13 20 12 21
REMARK SMILES IDX 11 22 10 23 9 24 8 25 7 26 6 27 5 28 4 29 3 30 2 31 1 32
REMARK H PARENT
REMARK Flexibility Score: inf
ROOT
ATOM      1  C   UNL     1      -4.858  38.121  22.513  1.00  0.00     0.000 C 
ENDROOT
BRANCH   1   2
ATOM      2  C   UNL     1      -6.115  37.547  21.836  1.00  0.00     0.000 C 
BRANCH   2   3
ATOM      3  C   UNL     1      -5.975  36.057  21.515  1.00  0.00     0.000 C 
BRANCH   3   4
ATOM      4  C   UNL     1      -4.652  35.466  22.028  1.00  0.00     0.000 C 
BRANCH   4   5
ATOM      5  C   UNL     1      -4.547  35.506  23.563  1.00  0.00     0.000 C 
BRANCH   5   6
ATOM      6  C   UNL     1      -5.872  35.251  24.322  1.00  0.00     0.000 C 
BRANCH   6   7
ATOM      7  C   UNL     1      -6.094  36.173  25.537  1.00  0.00     0.000 C 
BRANCH   7   8
ATOM      8  C   UNL     1      -6.124  37.658  25.140  1.00  0.00     0.000 C 
BRANCH   8   9
ATOM      9  C   UNL     1      -5.518  38.550  26.227  1.00  0.00     0.000 C 
BRANCH   9  10
ATOM     10  C   UNL     1      -4.037  38.925  25.969  1.00  0.00     0.000 C 
BRANCH  10  11
ATOM     11  C   UNL     1      -3.057  37.804  26.382  1.00  0.00     0.000 C 
BRANCH  11  12
ATOM     12  C   UNL     1      -2.004  38.243  27.420  1.00  0.00     0.000 C 
BRANCH  12  13
ATOM     13  C   UNL     1      -1.253  37.067  28.078  1.00  0.00     0.006 C 
BRANCH  13  14
ATOM     14  C   UNL     1      -2.173  35.879  28.391  1.00  0.00     0.053 C 
BRANCH  14  15
ATOM     15  C   UNL     1      -1.567  34.984  29.422  1.00  0.00     0.041 C 
ATOM     16  O   UNL     1      -2.251  34.616  30.422  1.00  0.00    -0.550 OA
ATOM     17  O   UNL     1      -0.252  34.556  29.294  1.00  0.00    -0.550 OA
ENDBRANCH  14  15
ENDBRANCH  13  14
ENDBRANCH  12  13
ENDBRANCH  11  12
ENDBRANCH  10  11
ENDBRANCH   9  10
ENDBRANCH   8   9
ENDBRANCH   7   8
ENDBRANCH   6   7
ENDBRANCH   5   6
ENDBRANCH   4   5
ENDBRANCH   3   4
ENDBRANCH   2   3
ENDBRANCH   1   2
BRANCH   1  18
ATOM     18  C   UNL     1      -4.924  39.640  22.728  1.00  0.00     0.000 C 
BRANCH  18  19
ATOM     19  C   UNL     1      -5.760  40.420  21.691  1.00  0.00     0.000 C 
BRANCH  19  20
ATOM     20  C   UNL     1      -5.564  39.900  20.259  1.00  0.00     0.000 C 
BRANCH  20  21
ATOM     21  C   UNL     1      -4.087  39.694  19.906  1.00  0.00     0.000 C 
BRANCH  21  22
ATOM     22  C   UNL     1      -3.847  38.435  19.055  1.00  0.00     0.000 C 
BRANCH  22  23
ATOM     23  C   UNL     1      -2.658  37.623  19.573  1.00  0.00     0.000 C 
BRANCH  23  24
ATOM     24  C   UNL     1      -1.473  38.534  19.947  1.00  0.00    -0.000 C 
BRANCH  24  25
ATOM     25  C   UNL     1      -0.254  38.354  19.014  1.00  0.00    -0.000 C 
BRANCH  25  26
ATOM     26  C   UNL     1      -0.598  38.532  17.515  1.00  0.00    -0.000 C 
BRANCH  26  27
ATOM     27  C   UNL     1      -0.756  37.187  16.755  1.00  0.00    -0.000 C 
BRANCH  27  28
ATOM     28  C   UNL     1      -1.641  37.321  15.488  1.00  0.00    -0.000 C 
BRANCH  28  29
ATOM     29  C   UNL     1      -3.164  37.234  15.762  1.00  0.00    -0.000 C 
BRANCH  29  30
ATOM     30  C   UNL     1      -3.645  35.888  16.339  1.00  0.00    -0.000 C 
BRANCH  30  31
ATOM     31  C   UNL     1      -3.874  35.945  17.860  1.00  0.00    -0.003 C 
ATOM     32  C   UNL     1      -4.892  34.894  18.283  1.00  0.00     0.004 C 
ENDBRANCH  30  31
ENDBRANCH  29  30
ENDBRANCH  28  29
ENDBRANCH  27  28
ENDBRANCH  26  27
ENDBRANCH  25  26
ENDBRANCH  24  25
ENDBRANCH  23  24
ENDBRANCH  22  23
ENDBRANCH  21  22
ENDBRANCH  20  21
ENDBRANCH  19  20
ENDBRANCH  18  19
ENDBRANCH   1  18
TORSDOF 28
ENDMDL
MODEL 4
REMARK VINA RESULT:     4.524      4.570      8.151
REMARK INTER + INTRA:          10.018
REMARK INTER:                   7.577
REMARK INTRA:                   2.441
REMARK UNBOUND:                -1.910
REMARK SMILES CCCCCCCCCCCCCCCCCCCCCCCCCCCCCC(=O)[O-]
REMARK SMILES IDX 16 1 17 2 18 3 19 4 20 5 21 6 22 7 23 8 24 9 25 10 26 11
REMARK SMILES IDX 27 12 28 13 29 14 30 15 31 16 32 17 15 18 14 19 13 20 12 21
REMARK SMILES IDX 11 22 10 23 9 24 8 25 7 26 6 27 5 28 4 29 3 30 2 31 1 32
REMARK H PARENT
REMARK Flexibility Score: inf
ROOT
ATOM      1  C   UNL     1      -4.102  38.358  25.721  1.00  0.00     0.000 C 
ENDROOT
BRANCH   1   2
ATOM      2  C   UNL     1      -3.665  39.356  24.633  1.00  0.00     0.000 C 
BRANCH   2   3
ATOM      3  C   UNL     1      -4.857  40.024  23.942  1.00  0.00     0.000 C 
BRANCH   3   4
ATOM      4  C   UNL     1      -4.542  40.436  22.495  1.00  0.00     0.000 C 
BRANCH   4   5
ATOM      5  C   UNL     1      -4.448  39.228  21.547  1.00  0.00     0.000 C 
BRANCH   5   6
ATOM      6  C   UNL     1      -5.402  39.271  20.328  1.00  0.00     0.000 C 
BRANCH   6   7
ATOM      7  C   UNL     1      -5.099  38.213  19.248  1.00  0.00     0.000 C 
BRANCH   7   8
ATOM      8  C   UNL     1      -5.962  36.952  19.416  1.00  0.00     0.000 C 
BRANCH   8   9
ATOM      9  C   UNL     1      -5.663  35.910  18.335  1.00  0.00     0.000 C 
BRANCH   9  10
ATOM     10  C   UNL     1      -4.164  35.528  18.237  1.00  0.00     0.000 C 
BRANCH  10  11
ATOM     11  C   UNL     1      -3.601  35.678  16.806  1.00  0.00     0.000 C 
BRANCH  11  12
ATOM     12  C   UNL     1      -3.076  37.092  16.485  1.00  0.00     0.000 C 
BRANCH  12  13
ATOM     13  C   UNL     1      -1.923  37.109  15.461  1.00  0.00     0.006 C 
BRANCH  13  14
ATOM     14  C   UNL     1      -2.341  37.701  14.108  1.00  0.00     0.053 C 
BRANCH  14  15
ATOM     15  C   UNL     1      -3.710  38.294  14.178  1.00  0.00     0.041 C 
ATOM     16  O   UNL     1      -4.721  37.587  13.894  1.00  0.00    -0.550 OA
ATOM     17  O   UNL     1      -3.882  39.622  14.547  1.00  0.00    -0.550 OA
ENDBRANCH  14  15
ENDBRANCH  13  14
ENDBRANCH  12  13
ENDBRANCH  11  12
ENDBRANCH  10  11
ENDBRANCH   9  10
ENDBRANCH   8   9
ENDBRANCH   7   8
ENDBRANCH   6   7
ENDBRANCH   5   6
ENDBRANCH   4   5
ENDBRANCH   3   4
ENDBRANCH   2   3
ENDBRANCH   1   2
BRANCH   1  18
ATOM     18  C   UNL     1      -5.619  38.129  25.762  1.00  0.00     0.000 C 
BRANCH  18  19
ATOM     19  C   UNL     1      -6.124  36.893  24.987  1.00  0.00     0.000 C 
BRANCH  19  20
ATOM     20  C   UNL     1      -5.901  35.580  25.753  1.00  0.00     0.000 C 
BRANCH  20  21
ATOM     21  C   UNL     1      -6.102  34.344  24.870  1.00  0.00     0.000 C 
BRANCH  21  22
ATOM     22  C   UNL     1      -5.785  34.610  23.388  1.00  0.00     0.000 C 
BRANCH  22  23
ATOM     23  C   UNL     1      -5.424  36.075  23.142  1.00  0.00     0.000 C 
BRANCH  23  24
ATOM     24  C   UNL     1      -4.457  36.227  21.952  1.00  0.00    -0.000 C 
BRANCH  24  25
ATOM     25  C   UNL     1      -3.389  35.112  21.896  1.00  0.00    -0.000 C 
BRANCH  25  26
ATOM     26  C   UNL     1      -2.238  35.414  20.905  1.00  0.00    -0.000 C 
BRANCH  26  27
ATOM     27  C   UNL     1      -2.548  36.590  19.939  1.00  0.00    -0.000 C 
BRANCH  27  28
ATOM     28  C   UNL     1      -1.684  37.843  20.233  1.00  0.00    -0.000 C 
BRANCH  28  29
ATOM     29  C   UNL     1      -1.791  38.957  19.160  1.00  0.00    -0.000 C 
BRANCH  29  30
ATOM     30  C   UNL     1      -0.442  39.505  18.654  1.00  0.00    -0.000 C 
BRANCH  30  31
ATOM     31  C   UNL     1       0.613  38.400  18.471  1.00  0.00    -0.003 C 
ATOM     32  C   UNL     1      -0.062  37.060  18.208  1.00  0.00     0.004 C 
ENDBRANCH  30  31
ENDBRANCH  29  30
ENDBRANCH  28  29
ENDBRANCH  27  28
ENDBRANCH  26  27
ENDBRANCH  25  26
ENDBRANCH  24  25
ENDBRANCH  23  24
ENDBRANCH  22  23
ENDBRANCH  21  22
ENDBRANCH  20  21
ENDBRANCH  19  20
ENDBRANCH  18  19
ENDBRANCH   1  18
TORSDOF 28
ENDMDL
MODEL 5
REMARK VINA RESULT:     4.584      4.066     10.058
REMARK INTER + INTRA:          10.178
REMARK INTER:                   9.964
REMARK INTRA:                   0.214
REMARK UNBOUND:                -1.910
REMARK SMILES CCCCCCCCCCCCCCCCCCCCCCCCCCCCCC(=O)[O-]
REMARK SMILES IDX 16 1 17 2 18 3 19 4 20 5 21 6 22 7 23 8 24 9 25 10 26 11
REMARK SMILES IDX 27 12 28 13 29 14 30 15 31 16 32 17 15 18 14 19 13 20 12 21
REMARK SMILES IDX 11 22 10 23 9 24 8 25 7 26 6 27 5 28 4 29 3 30 2 31 1 32
REMARK H PARENT
REMARK Flexibility Score: inf
ROOT
ATOM      1  C   UNL     1      -5.264  37.093  21.758  1.00  0.00     0.000 C 
ENDROOT
BRANCH   1   2
ATOM      2  C   UNL     1      -6.091  36.111  22.607  1.00  0.00     0.000 C 
BRANCH   2   3
ATOM      3  C   UNL     1      -5.254  34.937  23.121  1.00  0.00     0.000 C 
BRANCH   3   4
ATOM      4  C   UNL     1      -3.843  34.909  22.512  1.00  0.00     0.000 C 
BRANCH   4   5
ATOM      5  C   UNL     1      -3.785  35.583  21.130  1.00  0.00     0.000 C 
BRANCH   5   6
ATOM      6  C   UNL     1      -4.416  34.770  19.973  1.00  0.00     0.000 C 
BRANCH   6   7
ATOM      7  C   UNL     1      -4.951  35.631  18.811  1.00  0.00     0.000 C 
BRANCH   7   8
ATOM      8  C   UNL     1      -3.816  36.271  17.995  1.00  0.00     0.000 C 
BRANCH   8   9
ATOM      9  C   UNL     1      -2.955  37.203  18.853  1.00  0.00     0.000 C 
BRANCH   9  10
ATOM     10  C   UNL     1      -2.109  38.203  18.025  1.00  0.00     0.000 C 
BRANCH  10  11
ATOM     11  C   UNL     1      -0.793  37.583  17.504  1.00  0.00     0.000 C 
BRANCH  11  12
ATOM     12  C   UNL     1      -0.944  36.816  16.175  1.00  0.00     0.000 C 
BRANCH  12  13
ATOM     13  C   UNL     1      -1.355  37.708  14.987  1.00  0.00     0.006 C 
BRANCH  13  14
ATOM     14  C   UNL     1      -2.652  37.237  14.313  1.00  0.00     0.053 C 
BRANCH  14  15
ATOM     15  C   UNL     1      -3.743  38.244  14.478  1.00  0.00     0.041 C 
ATOM     16  O   UNL     1      -4.845  38.087  13.876  1.00  0.00    -0.550 OA
ATOM     17  O   UNL     1      -3.553  39.359  15.284  1.00  0.00    -0.550 OA
ENDBRANCH  14  15
ENDBRANCH  13  14
ENDBRANCH  12  13
ENDBRANCH  11  12
ENDBRANCH  10  11
ENDBRANCH   9  10
ENDBRANCH   8   9
ENDBRANCH   7   8
ENDBRANCH   6   7
ENDBRANCH   5   6
ENDBRANCH   4   5
ENDBRANCH   3   4
ENDBRANCH   2   3
ENDBRANCH   1   2
BRANCH   1  18
ATOM     18  C   UNL     1      -6.117  37.936  20.800  1.00  0.00     0.000 C 
BRANCH  18  19
ATOM     19  C   UNL     1      -5.372  39.086  20.087  1.00  0.00     0.000 C 
BRANCH  19  20
ATOM     20  C   UNL     1      -5.990  40.462  20.378  1.00  0.00     0.000 C 
BRANCH  20  21
ATOM     21  C   UNL     1      -5.954  40.819  21.868  1.00  0.00     0.000 C 
BRANCH  21  22
ATOM     22  C   UNL     1      -4.527  40.842  22.443  1.00  0.00     0.000 C 
BRANCH  22  23
ATOM     23  C   UNL     1      -4.455  40.143  23.802  1.00  0.00     0.000 C 
BRANCH  23  24
ATOM     24  C   UNL     1      -5.783  39.442  24.147  1.00  0.00    -0.000 C 
BRANCH  24  25
ATOM     25  C   UNL     1      -5.626  38.348  25.227  1.00  0.00    -0.000 C 
BRANCH  25  26
ATOM     26  C   UNL     1      -4.214  37.713  25.255  1.00  0.00    -0.000 C 
BRANCH  26  27
ATOM     27  C   UNL     1      -3.807  37.176  26.654  1.00  0.00    -0.000 C 
BRANCH  27  28
ATOM     28  C   UNL     1      -2.481  37.797  27.166  1.00  0.00    -0.000 C 
BRANCH  28  29
ATOM     29  C   UNL     1      -1.526  36.785  27.850  1.00  0.00    -0.000 C 
BRANCH  29  30
ATOM     30  C   UNL     1      -2.182  35.894  28.923  1.00  0.00    -0.000 C 
BRANCH  30  31
ATOM     31  C   UNL     1      -1.534  34.501  29.011  1.00  0.00    -0.003 C 
ATOM     32  C   UNL     1      -0.057  34.625  29.362  1.00  0.00     0.004 C 
ENDBRANCH  30  31
ENDBRANCH  29  30
ENDBRANCH  28  29
ENDBRANCH  27  28
ENDBRANCH  26  27
ENDBRANCH  25  26
ENDBRANCH  24  25
ENDBRANCH  23  24
ENDBRANCH  22  23
ENDBRANCH  21  22
ENDBRANCH  20  21
ENDBRANCH  19  20
ENDBRANCH  18  19
ENDBRANCH   1  18
TORSDOF 28
ENDMDL
MODEL 6
REMARK VINA RESULT:     4.814      1.131      2.637
REMARK INTER + INTRA:          10.783
REMARK INTER:                  11.149
REMARK INTRA:                  -0.366
REMARK UNBOUND:                -1.910
REMARK SMILES CCCCCCCCCCCCCCCCCCCCCCCCCCCCCC(=O)[O-]
REMARK SMILES IDX 16 1 17 2 18 3 19 4 20 5 21 6 22 7 23 8 24 9 25 10 26 11
REMARK SMILES IDX 27 12 28 13 29 14 30 15 31 16 32 17 15 18 14 19 13 20 12 21
REMARK SMILES IDX 11 22 10 23 9 24 8 25 7 26 6 27 5 28 4 29 3 30 2 31 1 32
REMARK H PARENT
REMARK Flexibility Score: inf
ROOT
ATOM      1  C   UNL     1      -5.058  36.127  23.339  1.00  0.00     0.000 C 
ENDROOT
BRANCH   1   2
ATOM      2  C   UNL     1      -6.027  37.135  22.697  1.00  0.00     0.000 C 
BRANCH   2   3
ATOM      3  C   UNL     1      -5.819  37.262  21.185  1.00  0.00     0.000 C 
BRANCH   3   4
ATOM      4  C   UNL     1      -5.371  38.672  20.769  1.00  0.00     0.000 C 
BRANCH   4   5
ATOM      5  C   UNL     1      -4.318  39.260  21.724  1.00  0.00     0.000 C 
BRANCH   5   6
ATOM      6  C   UNL     1      -4.840  40.355  22.687  1.00  0.00     0.000 C 
BRANCH   6   7
ATOM      7  C   UNL     1      -4.617  40.045  24.181  1.00  0.00     0.000 C 
BRANCH   7   8
ATOM      8  C   UNL     1      -5.838  39.363  24.819  1.00  0.00     0.000 C 
BRANCH   8   9
ATOM      9  C   UNL     1      -5.447  38.511  26.029  1.00  0.00     0.000 C 
BRANCH   9  10
ATOM     10  C   UNL     1      -4.015  37.924  25.939  1.00  0.00     0.000 C 
BRANCH  10  11
ATOM     11  C   UNL     1      -2.959  38.819  26.625  1.00  0.00     0.000 C 
BRANCH  11  12
ATOM     12  C   UNL     1      -1.788  38.037  27.254  1.00  0.00     0.000 C 
BRANCH  12  13
ATOM     13  C   UNL     1      -2.213  37.104  28.407  1.00  0.00     0.006 C 
BRANCH  13  14
ATOM     14  C   UNL     1      -1.852  35.636  28.142  1.00  0.00     0.053 C 
BRANCH  14  15
ATOM     15  C   UNL     1      -1.355  34.970  29.384  1.00  0.00     0.041 C 
ATOM     16  O   UNL     1      -2.116  34.855  30.389  1.00  0.00    -0.550 OA
ATOM     17  O   UNL     1      -0.057  34.480  29.445  1.00  0.00    -0.550 OA
ENDBRANCH  14  15
ENDBRANCH  13  14
ENDBRANCH  12  13
ENDBRANCH  11  12
ENDBRANCH  10  11
ENDBRANCH   9  10
ENDBRANCH   8   9
ENDBRANCH   7   8
ENDBRANCH   6   7
ENDBRANCH   5   6
ENDBRANCH   4   5
ENDBRANCH   3   4
ENDBRANCH   2   3
ENDBRANCH   1   2
BRANCH   1  18
ATOM     18  C   UNL     1      -4.630  35.002  22.386  1.00  0.00     0.000 C 
BRANCH  18  19
ATOM     19  C   UNL     1      -3.107  34.842  22.191  1.00  0.00     0.000 C 
BRANCH  19  20
ATOM     20  C   UNL     1      -2.685  34.927  20.716  1.00  0.00     0.000 C 
BRANCH  20  21
ATOM     21  C   UNL     1      -3.534  35.924  19.919  1.00  0.00     0.000 C 
BRANCH  21  22
ATOM     22  C   UNL     1      -4.551  35.235  18.992  1.00  0.00     0.000 C 
BRANCH  22  23
ATOM     23  C   UNL     1      -4.625  35.921  17.627  1.00  0.00     0.000 C 
BRANCH  23  24
ATOM     24  C   UNL     1      -3.261  35.902  16.911  1.00  0.00    -0.000 C 
BRANCH  24  25
ATOM     25  C   UNL     1      -3.361  36.261  15.411  1.00  0.00    -0.000 C 
BRANCH  25  26
ATOM     26  C   UNL     1      -3.394  37.785  15.145  1.00  0.00    -0.000 C 
BRANCH  26  27
ATOM     27  C   UNL     1      -2.215  38.552  15.805  1.00  0.00    -0.000 C 
BRANCH  27  28
ATOM     28  C   UNL     1      -0.955  37.666  15.982  1.00  0.00    -0.000 C 
BRANCH  28  29
ATOM     29  C   UNL     1      -0.698  37.206  17.440  1.00  0.00    -0.000 C 
BRANCH  29  30
ATOM     30  C   UNL     1       0.034  38.233  18.326  1.00  0.00    -0.000 C 
BRANCH  30  31
ATOM     31  C   UNL     1      -0.822  38.706  19.514  1.00  0.00    -0.003 C 
ATOM     32  C   UNL     1      -2.303  38.622  19.166  1.00  0.00     0.004 C 
ENDBRANCH  30  31
ENDBRANCH  29  30
ENDBRANCH  28  29
ENDBRANCH  27  28
ENDBRANCH  26  27
ENDBRANCH  25  26
ENDBRANCH  24  25
ENDBRANCH  23  24
ENDBRANCH  22  23
ENDBRANCH  21  22
ENDBRANCH  20  21
ENDBRANCH  19  20
ENDBRANCH  18  19
ENDBRANCH   1  18
TORSDOF 28
ENDMDL
MODEL 7
REMARK VINA RESULT:     4.943      2.218      8.202
REMARK INTER + INTRA:          11.123
REMARK INTER:                  11.621
REMARK INTRA:                  -0.498
REMARK UNBOUND:                -1.910
REMARK SMILES CCCCCCCCCCCCCCCCCCCCCCCCCCCCCC(=O)[O-]
REMARK SMILES IDX 16 1 17 2 18 3 19 4 20 5 21 6 22 7 23 8 24 9 25 10 26 11
REMARK SMILES IDX 27 12 28 13 29 14 30 15 31 16 32 17 15 18 14 19 13 20 12 21
REMARK SMILES IDX 11 22 10 23 9 24 8 25 7 26 6 27 5 28 4 29 3 30 2 31 1 32
REMARK H PARENT
REMARK Flexibility Score: inf
ROOT
ATOM      1  C   UNL     1      -3.773  35.405  17.267  1.00  0.00     0.000 C 
ENDROOT
BRANCH   1   2
ATOM      2  C   UNL     1      -3.959  36.925  17.117  1.00  0.00     0.000 C 
BRANCH   2   3
ATOM      3  C   UNL     1      -3.750  37.400  15.677  1.00  0.00     0.000 C 
BRANCH   3   4
ATOM      4  C   UNL     1      -2.420  38.147  15.490  1.00  0.00     0.000 C 
BRANCH   4   5
ATOM      5  C   UNL     1      -1.214  37.194  15.422  1.00  0.00     0.000 C 
BRANCH   5   6
ATOM      6  C   UNL     1      -0.530  36.898  16.780  1.00  0.00     0.000 C 
BRANCH   6   7
ATOM      7  C   UNL     1      -0.102  38.156  17.561  1.00  0.00     0.000 C 
BRANCH   7   8
ATOM      8  C   UNL     1       0.014  37.888  19.070  1.00  0.00     0.000 C 
BRANCH   8   9
ATOM      9  C   UNL     1      -1.099  38.583  19.859  1.00  0.00     0.000 C 
BRANCH   9  10
ATOM     10  C   UNL     1      -2.522  38.091  19.489  1.00  0.00     0.000 C 
BRANCH  10  11
ATOM     11  C   UNL     1      -3.222  37.358  20.655  1.00  0.00     0.000 C 
BRANCH  11  12
ATOM     12  C   UNL     1      -2.645  35.959  20.952  1.00  0.00     0.000 C 
BRANCH  12  13
ATOM     13  C   UNL     1      -3.424  35.182  22.032  1.00  0.00     0.006 C 
BRANCH  13  14
ATOM     14  C   UNL     1      -4.434  36.063  22.782  1.00  0.00     0.053 C 
BRANCH  14  15
ATOM     15  C   UNL     1      -5.296  35.245  23.687  1.00  0.00     0.041 C 
ATOM     16  O   UNL     1      -5.765  35.755  24.746  1.00  0.00    -0.550 OA
ATOM     17  O   UNL     1      -5.582  33.921  23.377  1.00  0.00    -0.550 OA
ENDBRANCH  14  15
ENDBRANCH  13  14
ENDBRANCH  12  13
ENDBRANCH  11  12
ENDBRANCH  10  11
ENDBRANCH   9  10
ENDBRANCH   8   9
ENDBRANCH   7   8
ENDBRANCH   6   7
ENDBRANCH   5   6
ENDBRANCH   4   5
ENDBRANCH   3   4
ENDBRANCH   2   3
ENDBRANCH   1   2
BRANCH   1  18
ATOM     18  C   UNL     1      -4.656  34.789  18.361  1.00  0.00     0.000 C 
BRANCH  18  19
ATOM     19  C   UNL     1      -5.980  35.532  18.641  1.00  0.00     0.000 C 
BRANCH  19  20
ATOM     20  C   UNL     1      -6.029  36.148  20.047  1.00  0.00     0.000 C 
BRANCH  20  21
ATOM     21  C   UNL     1      -5.719  37.649  20.042  1.00  0.00     0.000 C 
BRANCH  21  22
ATOM     22  C   UNL     1      -6.123  38.347  21.352  1.00  0.00     0.000 C 
BRANCH  22  23
ATOM     23  C   UNL     1      -5.503  39.740  21.465  1.00  0.00     0.000 C 
BRANCH  23  24
ATOM     24  C   UNL     1      -4.365  39.769  22.504  1.00  0.00    -0.000 C 
BRANCH  24  25
ATOM     25  C   UNL     1      -4.861  40.082  23.934  1.00  0.00    -0.000 C 
BRANCH  25  26
ATOM     26  C   UNL     1      -4.914  38.836  24.851  1.00  0.00    -0.000 C 
BRANCH  26  27
ATOM     27  C   UNL     1      -4.129  39.014  26.179  1.00  0.00    -0.000 C 
BRANCH  27  28
ATOM     28  C   UNL     1      -3.258  37.778  26.525  1.00  0.00    -0.000 C 
BRANCH  28  29
ATOM     29  C   UNL     1      -1.996  38.102  27.364  1.00  0.00    -0.000 C 
BRANCH  29  30
ATOM     30  C   UNL     1      -1.284  36.876  27.968  1.00  0.00    -0.000 C 
BRANCH  30  31
ATOM     31  C   UNL     1      -2.267  35.773  28.395  1.00  0.00    -0.003 C 
ATOM     32  C   UNL     1      -1.680  34.951  29.535  1.00  0.00     0.004 C 
ENDBRANCH  30  31
ENDBRANCH  29  30
ENDBRANCH  28  29
ENDBRANCH  27  28
ENDBRANCH  26  27
ENDBRANCH  25  26
ENDBRANCH  24  25
ENDBRANCH  23  24
ENDBRANCH  22  23
ENDBRANCH  21  22
ENDBRANCH  20  21
ENDBRANCH  19  20
ENDBRANCH  18  19
ENDBRANCH   1  18
TORSDOF 28
ENDMDL
