MODEL 1
REMARK VINA RESULT:    -6.810      0.000      0.000
REMARK INTER + INTRA:          -9.111
REMARK INTER:                  -8.601
REMARK INTRA:                  -0.510
REMARK UNBOUND:                -0.510
REMARK SMILES O=C(C=Cc1ccc(O)cc1)c1ccc(O)cc1O
REMARK SMILES IDX 4 1 3 2 5 3 6 4 7 5 8 6 11 7 10 8 9 9 2 11 1 12 12 13 18 14
REMARK SMILES IDX 13 15 17 16 14 17 15 18 19 19 16 21
REMARK H PARENT 9 10 19 20 16 22
REMARK Flexibility Score: inf
ROOT
ATOM      1  C   UNL     1      -6.321  -9.377  64.061  1.00  0.00     0.012 C 
ATOM      2  C   UNL     1      -6.202  -8.057  64.269  1.00  0.00     0.053 C 
ENDROOT
BRANCH   1   3
ATOM      3  C   UNL     1      -5.867 -10.058  62.825  1.00  0.00    -0.025 A 
ATOM      4  C   UNL     1      -4.823  -9.554  62.022  1.00  0.00     0.012 A 
ATOM      5  C   UNL     1      -4.421 -10.240  60.872  1.00  0.00     0.047 A 
ATOM      6  C   UNL     1      -5.046 -11.440  60.512  1.00  0.00     0.115 A 
ATOM      7  C   UNL     1      -6.475 -11.272  62.461  1.00  0.00     0.012 A 
ATOM      8  C   UNL     1      -6.071 -11.954  61.310  1.00  0.00     0.047 A 
BRANCH   6   9
ATOM      9  O   UNL     1      -4.653 -12.131  59.367  1.00  0.00    -0.508 OA
ATOM     10  H   UNL     1      -4.171 -11.666  58.608  1.00  0.00     0.293 HD
ENDBRANCH   6   9
ENDBRANCH   1   3
BRANCH   2  11
ATOM     11  C   UNL     1      -6.681  -7.392  65.499  1.00  0.00     0.189 C 
ATOM     12  O   UNL     1      -6.669  -8.044  66.576  1.00  0.00    -0.289 OA
BRANCH  11  13
ATOM     13  C   UNL     1      -7.219  -6.013  65.503  1.00  0.00     0.064 A 
ATOM     14  C   UNL     1      -7.454  -5.311  66.709  1.00  0.00     0.130 A 
ATOM     15  C   UNL     1      -7.547  -5.403  64.280  1.00  0.00     0.020 A 
ATOM     16  C   UNL     1      -8.022  -4.031  66.667  1.00  0.00     0.093 A 
ATOM     17  C   UNL     1      -8.102  -4.122  64.251  1.00  0.00     0.047 A 
ATOM     18  C   UNL     1      -8.344  -3.434  65.443  1.00  0.00     0.119 A 
BRANCH  14  19
ATOM     19  O   UNL     1      -7.118  -5.844  67.955  1.00  0.00    -0.507 OA
ATOM     20  H   UNL     1      -6.638  -5.313  68.671  1.00  0.00     0.293 HD
ENDBRANCH  14  19
BRANCH  18  21
ATOM     21  O   UNL     1      -8.903  -2.159  65.399  1.00  0.00    -0.508 OA
ATOM     22  H   UNL     1      -9.682  -1.943  64.787  1.00  0.00     0.293 HD
ENDBRANCH  18  21
ENDBRANCH  11  13
ENDBRANCH   2  11
TORSDOF 6
ENDMDL
MODEL 2
REMARK VINA RESULT:    -6.698      3.137      7.186
REMARK INTER + INTRA:          -8.970
REMARK INTER:                  -8.367
REMARK INTRA:                  -0.603
REMARK UNBOUND:                -0.510
REMARK SMILES O=C(C=Cc1ccc(O)cc1)c1ccc(O)cc1O
REMARK SMILES IDX 4 1 3 2 5 3 6 4 7 5 8 6 11 7 10 8 9 9 2 11 1 12 12 13 18 14
REMARK SMILES IDX 13 15 17 16 14 17 15 18 19 19 16 21
REMARK H PARENT 9 10 19 20 16 22
REMARK Flexibility Score: inf
ROOT
ATOM      1  C   UNL     1      -7.270  -6.887  65.980  1.00  0.00     0.012 C 
ATOM      2  C   UNL     1      -6.967  -8.190  65.879  1.00  0.00     0.053 C 
ENDROOT
BRANCH   1   3
ATOM      3  C   UNL     1      -7.465  -6.186  67.273  1.00  0.00    -0.025 A 
ATOM      4  C   UNL     1      -7.632  -6.877  68.491  1.00  0.00     0.012 A 
ATOM      5  C   UNL     1      -7.799  -6.173  69.686  1.00  0.00     0.047 A 
ATOM      6  C   UNL     1      -7.791  -4.772  69.687  1.00  0.00     0.115 A 
ATOM      7  C   UNL     1      -7.443  -4.781  67.289  1.00  0.00     0.012 A 
ATOM      8  C   UNL     1      -7.611  -4.081  68.487  1.00  0.00     0.047 A 
BRANCH   6   9
ATOM      9  O   UNL     1      -7.958  -4.060  70.873  1.00  0.00    -0.508 OA
ATOM     10  H   UNL     1      -8.878  -3.859  71.245  1.00  0.00     0.293 HD
ENDBRANCH   6   9
ENDBRANCH   1   3
BRANCH   2  11
ATOM     11  C   UNL     1      -6.800  -8.875  64.580  1.00  0.00     0.189 C 
ATOM     12  O   UNL     1      -6.398 -10.069  64.579  1.00  0.00    -0.289 OA
BRANCH  11  13
ATOM     13  C   UNL     1      -7.037  -8.199  63.285  1.00  0.00     0.064 A 
ATOM     14  C   UNL     1      -8.329  -8.116  62.715  1.00  0.00     0.130 A 
ATOM     15  C   UNL     1      -5.943  -7.667  62.581  1.00  0.00     0.020 A 
ATOM     16  C   UNL     1      -8.497  -7.522  61.458  1.00  0.00     0.093 A 
ATOM     17  C   UNL     1      -6.125  -7.066  61.334  1.00  0.00     0.047 A 
ATOM     18  C   UNL     1      -7.399  -6.994  60.767  1.00  0.00     0.119 A 
BRANCH  14  19
ATOM     19  O   UNL     1      -9.463  -8.592  63.377  1.00  0.00    -0.507 OA
ATOM     20  H   UNL     1      -9.443  -9.383  64.008  1.00  0.00     0.293 HD
ENDBRANCH  14  19
BRANCH  18  21
ATOM     21  O   UNL     1      -7.565  -6.397  59.520  1.00  0.00    -0.508 OA
ATOM     22  H   UNL     1      -8.217  -5.633  59.381  1.00  0.00     0.293 HD
ENDBRANCH  18  21
ENDBRANCH  11  13
ENDBRANCH   2  11
TORSDOF 6
ENDMDL
MODEL 3
REMARK VINA RESULT:    -6.671      2.366      7.528
REMARK INTER + INTRA:          -8.935
REMARK INTER:                  -8.340
REMARK INTRA:                  -0.596
REMARK UNBOUND:                -0.510
REMARK SMILES O=C(C=Cc1ccc(O)cc1)c1ccc(O)cc1O
REMARK SMILES IDX 4 1 3 2 5 3 6 4 7 5 8 6 11 7 10 8 9 9 2 11 1 12 12 13 18 14
REMARK SMILES IDX 13 15 17 16 14 17 15 18 19 19 16 21
REMARK H PARENT 9 10 19 20 16 22
REMARK Flexibility Score: inf
ROOT
ATOM      1  C   UNL     1      -7.269  -6.267  64.876  1.00  0.00     0.012 C 
ATOM      2  C   UNL     1      -8.081  -5.920  63.866  1.00  0.00     0.053 C 
ENDROOT
BRANCH   1   3
ATOM      3  C   UNL     1      -7.372  -5.705  66.244  1.00  0.00    -0.025 A 
ATOM      4  C   UNL     1      -7.191  -4.333  66.514  1.00  0.00     0.012 A 
ATOM      5  C   UNL     1      -7.311  -3.848  67.820  1.00  0.00     0.047 A 
ATOM      6  C   UNL     1      -7.624  -4.719  68.870  1.00  0.00     0.115 A 
ATOM      7  C   UNL     1      -7.701  -6.566  67.304  1.00  0.00     0.012 A 
ATOM      8  C   UNL     1      -7.820  -6.077  68.608  1.00  0.00     0.047 A 
BRANCH   6   9
ATOM      9  O   UNL     1      -7.745  -4.245  70.175  1.00  0.00    -0.508 OA
ATOM     10  H   UNL     1      -8.071  -3.306  70.369  1.00  0.00     0.293 HD
ENDBRANCH   6   9
ENDBRANCH   1   3
BRANCH   2  11
ATOM     11  C   UNL     1      -7.948  -6.475  62.503  1.00  0.00     0.189 C 
ATOM     12  O   UNL     1      -8.370  -5.792  61.533  1.00  0.00    -0.289 OA
BRANCH  11  13
ATOM     13  C   UNL     1      -7.386  -7.819  62.240  1.00  0.00     0.064 A 
ATOM     14  C   UNL     1      -8.156  -8.993  62.411  1.00  0.00     0.130 A 
ATOM     15  C   UNL     1      -6.039  -7.934  61.855  1.00  0.00     0.020 A 
ATOM     16  C   UNL     1      -7.565 -10.247  62.210  1.00  0.00     0.093 A 
ATOM     17  C   UNL     1      -5.464  -9.189  61.646  1.00  0.00     0.047 A 
ATOM     18  C   UNL     1      -6.222 -10.348  61.826  1.00  0.00     0.119 A 
BRANCH  14  19
ATOM     19  O   UNL     1      -9.509  -8.950  62.757  1.00  0.00    -0.507 OA
ATOM     20  H   UNL     1     -10.253  -8.912  62.072  1.00  0.00     0.293 HD
ENDBRANCH  14  19
BRANCH  18  21
ATOM     21  O   UNL     1      -5.634 -11.593  61.619  1.00  0.00    -0.508 OA
ATOM     22  H   UNL     1      -4.627 -11.700  61.559  1.00  0.00     0.293 HD
ENDBRANCH  18  21
ENDBRANCH  11  13
ENDBRANCH   2  11
TORSDOF 6
ENDMDL
MODEL 4
REMARK VINA RESULT:    -6.628      1.770      2.291
REMARK INTER + INTRA:          -8.882
REMARK INTER:                  -8.358
REMARK INTRA:                  -0.524
REMARK UNBOUND:                -0.510
REMARK SMILES O=C(C=Cc1ccc(O)cc1)c1ccc(O)cc1O
REMARK SMILES IDX 4 1 3 2 5 3 6 4 7 5 8 6 11 7 10 8 9 9 2 11 1 12 12 13 18 14
REMARK SMILES IDX 13 15 17 16 14 17 15 18 19 19 16 21
REMARK H PARENT 9 10 19 20 16 22
REMARK Flexibility Score: inf
ROOT
ATOM      1  C   UNL     1      -6.627  -8.491  63.152  1.00  0.00     0.012 C 
ATOM      2  C   UNL     1      -7.824  -8.527  63.759  1.00  0.00     0.053 C 
ENDROOT
BRANCH   1   3
ATOM      3  C   UNL     1      -6.084  -9.607  62.340  1.00  0.00    -0.025 A 
ATOM      4  C   UNL     1      -4.966  -9.453  61.494  1.00  0.00     0.012 A 
ATOM      5  C   UNL     1      -4.482 -10.538  60.758  1.00  0.00     0.047 A 
ATOM      6  C   UNL     1      -5.097 -11.792  60.862  1.00  0.00     0.115 A 
ATOM      7  C   UNL     1      -6.682 -10.874  62.448  1.00  0.00     0.012 A 
ATOM      8  C   UNL     1      -6.195 -11.956  61.710  1.00  0.00     0.047 A 
BRANCH   6   9
ATOM      9  O   UNL     1      -4.623 -12.880  60.132  1.00  0.00    -0.508 OA
ATOM     10  H   UNL     1      -3.632 -13.079  60.063  1.00  0.00     0.293 HD
ENDBRANCH   6   9
ENDBRANCH   1   3
BRANCH   2  11
ATOM     11  C   UNL     1      -8.338  -7.414  64.583  1.00  0.00     0.189 C 
ATOM     12  O   UNL     1      -9.204  -7.669  65.462  1.00  0.00    -0.289 OA
BRANCH  11  13
ATOM     13  C   UNL     1      -7.915  -6.010  64.382  1.00  0.00     0.064 A 
ATOM     14  C   UNL     1      -8.255  -5.291  63.212  1.00  0.00     0.130 A 
ATOM     15  C   UNL     1      -7.115  -5.391  65.358  1.00  0.00     0.020 A 
ATOM     16  C   UNL     1      -7.779  -3.985  63.036  1.00  0.00     0.093 A 
ATOM     17  C   UNL     1      -6.657  -4.084  65.177  1.00  0.00     0.047 A 
ATOM     18  C   UNL     1      -6.985  -3.379  64.016  1.00  0.00     0.119 A 
BRANCH  14  19
ATOM     19  O   UNL     1      -9.074  -5.834  62.220  1.00  0.00    -0.507 OA
ATOM     20  H   UNL     1     -10.078  -5.705  62.201  1.00  0.00     0.293 HD
ENDBRANCH  14  19
BRANCH  18  21
ATOM     21  O   UNL     1      -6.517  -2.078  63.847  1.00  0.00    -0.508 OA
ATOM     22  H   UNL     1      -5.994  -1.806  63.022  1.00  0.00     0.293 HD
ENDBRANCH  18  21
ENDBRANCH  11  13
ENDBRANCH   2  11
TORSDOF 6
ENDMDL
MODEL 5
REMARK VINA RESULT:    -6.614      3.277      7.717
REMARK INTER + INTRA:          -8.864
REMARK INTER:                  -8.161
REMARK INTRA:                  -0.703
REMARK UNBOUND:                -0.510
REMARK SMILES O=C(C=Cc1ccc(O)cc1)c1ccc(O)cc1O
REMARK SMILES IDX 4 1 3 2 5 3 6 4 7 5 8 6 11 7 10 8 9 9 2 11 1 12 12 13 18 14
REMARK SMILES IDX 13 15 17 16 14 17 15 18 19 19 16 21
REMARK H PARENT 9 10 19 20 16 22
REMARK Flexibility Score: inf
ROOT
ATOM      1  C   UNL     1      -9.330  -5.510  66.444  1.00  0.00     0.012 C 
ATOM      2  C   UNL     1      -8.626  -4.377  66.296  1.00  0.00     0.053 C 
ENDROOT
BRANCH   1   3
ATOM      3  C   UNL     1      -9.974  -5.918  67.716  1.00  0.00    -0.025 A 
ATOM      4  C   UNL     1     -11.168  -6.666  67.754  1.00  0.00     0.012 A 
ATOM      5  C   UNL     1     -11.730  -7.038  68.979  1.00  0.00     0.047 A 
ATOM      6  C   UNL     1     -11.105  -6.680  70.180  1.00  0.00     0.115 A 
ATOM      7  C   UNL     1      -9.348  -5.578  68.927  1.00  0.00     0.012 A 
ATOM      8  C   UNL     1      -9.914  -5.952  70.150  1.00  0.00     0.047 A 
BRANCH   6   9
ATOM      9  O   UNL     1     -11.658  -7.045  71.406  1.00  0.00    -0.508 OA
ATOM     10  H   UNL     1     -11.256  -6.733  72.281  1.00  0.00     0.293 HD
ENDBRANCH   6   9
ENDBRANCH   1   3
BRANCH   2  11
ATOM     11  C   UNL     1      -7.972  -4.000  65.026  1.00  0.00     0.189 C 
ATOM     12  O   UNL     1      -7.799  -2.776  64.781  1.00  0.00    -0.289 OA
BRANCH  11  13
ATOM     13  C   UNL     1      -7.562  -4.997  64.012  1.00  0.00     0.064 A 
ATOM     14  C   UNL     1      -8.306  -5.202  62.826  1.00  0.00     0.130 A 
ATOM     15  C   UNL     1      -6.429  -5.793  64.255  1.00  0.00     0.020 A 
ATOM     16  C   UNL     1      -7.915  -6.200  61.924  1.00  0.00     0.093 A 
ATOM     17  C   UNL     1      -6.042  -6.777  63.342  1.00  0.00     0.047 A 
ATOM     18  C   UNL     1      -6.784  -6.985  62.178  1.00  0.00     0.119 A 
BRANCH  14  19
ATOM     19  O   UNL     1      -9.420  -4.423  62.506  1.00  0.00    -0.507 OA
ATOM     20  H   UNL     1      -9.438  -3.416  62.609  1.00  0.00     0.293 HD
ENDBRANCH  14  19
BRANCH  18  21
ATOM     21  O   UNL     1      -6.390  -7.973  61.279  1.00  0.00    -0.508 OA
ATOM     22  H   UNL     1      -5.656  -8.635  61.508  1.00  0.00     0.293 HD
ENDBRANCH  18  21
ENDBRANCH  11  13
ENDBRANCH   2  11
TORSDOF 6
ENDMDL
MODEL 6
REMARK VINA RESULT:    -6.597      1.671      2.929
REMARK INTER + INTRA:          -8.843
REMARK INTER:                  -8.103
REMARK INTRA:                  -0.739
REMARK UNBOUND:                -0.510
REMARK SMILES O=C(C=Cc1ccc(O)cc1)c1ccc(O)cc1O
REMARK SMILES IDX 4 1 3 2 5 3 6 4 7 5 8 6 11 7 10 8 9 9 2 11 1 12 12 13 18 14
REMARK SMILES IDX 13 15 17 16 14 17 15 18 19 19 16 21
REMARK H PARENT 9 10 19 20 16 22
REMARK Flexibility Score: inf
ROOT
ATOM      1  C   UNL     1      -6.234  -7.108  62.662  1.00  0.00     0.012 C 
ATOM      2  C   UNL     1      -7.486  -6.657  62.487  1.00  0.00     0.053 C 
ENDROOT
BRANCH   1   3
ATOM      3  C   UNL     1      -5.705  -8.335  62.018  1.00  0.00    -0.025 A 
ATOM      4  C   UNL     1      -6.321  -9.594  62.166  1.00  0.00     0.012 A 
ATOM      5  C   UNL     1      -5.792 -10.720  61.528  1.00  0.00     0.047 A 
ATOM      6  C   UNL     1      -4.650 -10.604  60.726  1.00  0.00     0.115 A 
ATOM      7  C   UNL     1      -4.569  -8.229  61.197  1.00  0.00     0.012 A 
ATOM      8  C   UNL     1      -4.043  -9.357  60.561  1.00  0.00     0.047 A 
BRANCH   6   9
ATOM      9  O   UNL     1      -4.114 -11.720  60.086  1.00  0.00    -0.508 OA
ATOM     10  H   UNL     1      -4.507 -12.645  60.218  1.00  0.00     0.293 HD
ENDBRANCH   6   9
ENDBRANCH   1   3
BRANCH   2  11
ATOM     11  C   UNL     1      -8.002  -5.445  63.156  1.00  0.00     0.189 C 
ATOM     12  O   UNL     1      -8.588  -4.577  62.456  1.00  0.00    -0.289 OA
BRANCH  11  13
ATOM     13  C   UNL     1      -7.813  -5.190  64.602  1.00  0.00     0.064 A 
ATOM     14  C   UNL     1      -7.090  -4.067  65.070  1.00  0.00     0.130 A 
ATOM     15  C   UNL     1      -8.326  -6.110  65.532  1.00  0.00     0.020 A 
ATOM     16  C   UNL     1      -6.883  -3.899  66.445  1.00  0.00     0.093 A 
ATOM     17  C   UNL     1      -8.123  -5.925  66.901  1.00  0.00     0.047 A 
ATOM     18  C   UNL     1      -7.400  -4.823  67.361  1.00  0.00     0.119 A 
BRANCH  14  19
ATOM     19  O   UNL     1      -6.584  -3.096  64.203  1.00  0.00    -0.507 OA
ATOM     20  H   UNL     1      -7.023  -2.860  63.322  1.00  0.00     0.293 HD
ENDBRANCH  14  19
BRANCH  18  21
ATOM     21  O   UNL     1      -7.201  -4.654  68.729  1.00  0.00    -0.508 OA
ATOM     22  H   UNL     1      -7.453  -5.376  69.395  1.00  0.00     0.293 HD
ENDBRANCH  18  21
ENDBRANCH  11  13
ENDBRANCH   2  11
TORSDOF 6
ENDMDL
MODEL 7
REMARK VINA RESULT:    -6.540      1.539      7.647
REMARK INTER + INTRA:          -8.770
REMARK INTER:                  -8.278
REMARK INTRA:                  -0.492
REMARK UNBOUND:                -0.510
REMARK SMILES O=C(C=Cc1ccc(O)cc1)c1ccc(O)cc1O
REMARK SMILES IDX 4 1 3 2 5 3 6 4 7 5 8 6 11 7 10 8 9 9 2 11 1 12 12 13 18 14
REMARK SMILES IDX 13 15 17 16 14 17 15 18 19 19 16 21
REMARK H PARENT 9 10 19 20 16 22
REMARK Flexibility Score: inf
ROOT
ATOM      1  C   UNL     1      -6.246  -7.260  65.009  1.00  0.00     0.012 C 
ATOM      2  C   UNL     1      -5.320  -7.488  64.065  1.00  0.00     0.053 C 
ENDROOT
BRANCH   1   3
ATOM      3  C   UNL     1      -6.955  -5.967  65.169  1.00  0.00    -0.025 A 
ATOM      4  C   UNL     1      -7.859  -5.725  66.224  1.00  0.00     0.012 A 
ATOM      5  C   UNL     1      -8.494  -4.485  66.341  1.00  0.00     0.047 A 
ATOM      6  C   UNL     1      -8.229  -3.467  65.416  1.00  0.00     0.115 A 
ATOM      7  C   UNL     1      -6.686  -4.932  64.257  1.00  0.00     0.012 A 
ATOM      8  C   UNL     1      -7.323  -3.694  64.378  1.00  0.00     0.047 A 
BRANCH   6   9
ATOM      9  O   UNL     1      -8.857  -2.228  65.524  1.00  0.00    -0.508 OA
ATOM     10  H   UNL     1      -8.375  -1.421  65.901  1.00  0.00     0.293 HD
ENDBRANCH   6   9
ENDBRANCH   1   3
BRANCH   2  11
ATOM     11  C   UNL     1      -4.608  -8.776  63.936  1.00  0.00     0.189 C 
ATOM     12  O   UNL     1      -3.847  -9.137  64.872  1.00  0.00    -0.289 OA
BRANCH  11  13
ATOM     13  C   UNL     1      -4.714  -9.629  62.731  1.00  0.00     0.064 A 
ATOM     14  C   UNL     1      -5.761 -10.568  62.576  1.00  0.00     0.130 A 
ATOM     15  C   UNL     1      -3.725  -9.536  61.737  1.00  0.00     0.020 A 
ATOM     16  C   UNL     1      -5.787 -11.399  61.448  1.00  0.00     0.093 A 
ATOM     17  C   UNL     1      -3.769 -10.362  60.611  1.00  0.00     0.047 A 
ATOM     18  C   UNL     1      -4.796 -11.296  60.465  1.00  0.00     0.119 A 
BRANCH  14  19
ATOM     19  O   UNL     1      -6.795 -10.687  63.507  1.00  0.00    -0.507 OA
ATOM     20  H   UNL     1      -6.634 -10.835  64.495  1.00  0.00     0.293 HD
ENDBRANCH  14  19
BRANCH  18  21
ATOM     21  O   UNL     1      -4.824 -12.116  59.339  1.00  0.00    -0.508 OA
ATOM     22  H   UNL     1      -4.320 -12.995  59.312  1.00  0.00     0.293 HD
ENDBRANCH  18  21
ENDBRANCH  11  13
ENDBRANCH   2  11
TORSDOF 6
ENDMDL
MODEL 8
REMARK VINA RESULT:    -6.526      1.389      7.594
REMARK INTER + INTRA:          -8.752
REMARK INTER:                  -8.316
REMARK INTRA:                  -0.436
REMARK UNBOUND:                -0.510
REMARK SMILES O=C(C=Cc1ccc(O)cc1)c1ccc(O)cc1O
REMARK SMILES IDX 4 1 3 2 5 3 6 4 7 5 8 6 11 7 10 8 9 9 2 11 1 12 12 13 18 14
REMARK SMILES IDX 13 15 17 16 14 17 15 18 19 19 16 21
REMARK H PARENT 9 10 19 20 16 22
REMARK Flexibility Score: inf
ROOT
ATOM      1  C   UNL     1      -6.472  -7.346  65.223  1.00  0.00     0.012 C 
ATOM      2  C   UNL     1      -6.737  -8.255  64.272  1.00  0.00     0.053 C 
ENDROOT
BRANCH   1   3
ATOM      3  C   UNL     1      -7.077  -5.992  65.256  1.00  0.00    -0.025 A 
ATOM      4  C   UNL     1      -6.503  -4.890  64.591  1.00  0.00     0.012 A 
ATOM      5  C   UNL     1      -7.117  -3.635  64.640  1.00  0.00     0.047 A 
ATOM      6  C   UNL     1      -8.316  -3.464  65.344  1.00  0.00     0.115 A 
ATOM      7  C   UNL     1      -8.288  -5.811  65.946  1.00  0.00     0.012 A 
ATOM      8  C   UNL     1      -8.899  -4.555  65.993  1.00  0.00     0.047 A 
BRANCH   6   9
ATOM      9  O   UNL     1      -8.936  -2.217  65.400  1.00  0.00    -0.508 OA
ATOM     10  H   UNL     1      -8.440  -1.368  65.157  1.00  0.00     0.293 HD
ENDBRANCH   6   9
ENDBRANCH   1   3
BRANCH   2  11
ATOM     11  C   UNL     1      -6.107  -9.591  64.244  1.00  0.00     0.189 C 
ATOM     12  O   UNL     1      -5.868 -10.166  65.339  1.00  0.00    -0.289 OA
BRANCH  11  13
ATOM     13  C   UNL     1      -5.701 -10.255  62.985  1.00  0.00     0.064 A 
ATOM     14  C   UNL     1      -4.545  -9.856  62.272  1.00  0.00     0.130 A 
ATOM     15  C   UNL     1      -6.509 -11.278  62.460  1.00  0.00     0.020 A 
ATOM     16  C   UNL     1      -4.234 -10.471  61.053  1.00  0.00     0.093 A 
ATOM     17  C   UNL     1      -6.182 -11.892  61.249  1.00  0.00     0.047 A 
ATOM     18  C   UNL     1      -5.047 -11.490  60.541  1.00  0.00     0.119 A 
BRANCH  14  19
ATOM     19  O   UNL     1      -3.680  -8.872  62.755  1.00  0.00    -0.507 OA
ATOM     20  H   UNL     1      -3.672  -8.569  63.721  1.00  0.00     0.293 HD
ENDBRANCH  14  19
BRANCH  18  21
ATOM     21  O   UNL     1      -4.736 -12.107  59.332  1.00  0.00    -0.508 OA
ATOM     22  H   UNL     1      -5.458 -12.377  58.674  1.00  0.00     0.293 HD
ENDBRANCH  18  21
ENDBRANCH  11  13
ENDBRANCH   2  11
TORSDOF 6
ENDMDL
MODEL 9
REMARK VINA RESULT:    -6.509      4.259      7.474
REMARK INTER + INTRA:          -8.731
REMARK INTER:                  -8.084
REMARK INTRA:                  -0.647
REMARK UNBOUND:                -0.510
REMARK SMILES O=C(C=Cc1ccc(O)cc1)c1ccc(O)cc1O
REMARK SMILES IDX 4 1 3 2 5 3 6 4 7 5 8 6 11 7 10 8 9 9 2 11 1 12 12 13 18 14
REMARK SMILES IDX 13 15 17 16 14 17 15 18 19 19 16 21
REMARK H PARENT 9 10 19 20 16 22
REMARK Flexibility Score: inf
ROOT
ATOM      1  C   UNL     1     -10.563  -7.406  67.053  1.00  0.00     0.012 C 
ATOM      2  C   UNL     1      -9.312  -7.721  66.684  1.00  0.00     0.053 C 
ENDROOT
BRANCH   1   3
ATOM      3  C   UNL     1     -11.114  -7.677  68.403  1.00  0.00    -0.025 A 
ATOM      4  C   UNL     1     -11.061  -6.730  69.446  1.00  0.00     0.012 A 
ATOM      5  C   UNL     1     -11.607  -7.027  70.699  1.00  0.00     0.047 A 
ATOM      6  C   UNL     1     -12.221  -8.265  70.925  1.00  0.00     0.115 A 
ATOM      7  C   UNL     1     -11.747  -8.909  68.638  1.00  0.00     0.012 A 
ATOM      8  C   UNL     1     -12.291  -9.202  69.892  1.00  0.00     0.047 A 
BRANCH   6   9
ATOM      9  O   UNL     1     -12.767  -8.571  72.170  1.00  0.00    -0.508 OA
ATOM     10  H   UNL     1     -12.860  -9.529  72.487  1.00  0.00     0.293 HD
ENDBRANCH   6   9
ENDBRANCH   1   3
BRANCH   2  11
ATOM     11  C   UNL     1      -8.787  -7.463  65.327  1.00  0.00     0.189 C 
ATOM     12  O   UNL     1      -8.728  -8.424  64.515  1.00  0.00    -0.289 OA
BRANCH  11  13
ATOM     13  C   UNL     1      -8.286  -6.137  64.903  1.00  0.00     0.064 A 
ATOM     14  C   UNL     1      -8.288  -5.740  63.545  1.00  0.00     0.130 A 
ATOM     15  C   UNL     1      -7.751  -5.267  65.870  1.00  0.00     0.020 A 
ATOM     16  C   UNL     1      -7.746  -4.500  63.183  1.00  0.00     0.093 A 
ATOM     17  C   UNL     1      -7.225  -4.028  65.498  1.00  0.00     0.047 A 
ATOM     18  C   UNL     1      -7.218  -3.643  64.156  1.00  0.00     0.119 A 
BRANCH  14  19
ATOM     19  O   UNL     1      -8.836  -6.540  62.540  1.00  0.00    -0.507 OA
ATOM     20  H   UNL     1      -9.831  -6.689  62.434  1.00  0.00     0.293 HD
ENDBRANCH  14  19
BRANCH  18  21
ATOM     21  O   UNL     1      -6.684  -2.407  63.799  1.00  0.00    -0.508 OA
ATOM     22  H   UNL     1      -5.783  -2.331  63.341  1.00  0.00     0.293 HD
ENDBRANCH  18  21
ENDBRANCH  11  13
ENDBRANCH   2  11
TORSDOF 6
ENDMDL
