MODEL 1
REMARK VINA RESULT:    -5.790      0.000      0.000
REMARK INTER + INTRA:          -7.091
REMARK INTER:                  -6.806
REMARK INTRA:                  -0.285
REMARK UNBOUND:                -0.285
REMARK SMILES O=c1c(O)c(-c2ccc(O)cc2)oc2cc(O)cc(O)c12
REMARK SMILES IDX 5 1 3 2 2 3 1 4 21 5 19 6 18 7 16 8 15 9 14 10 13 11 6 12
REMARK SMILES IDX 7 13 8 14 9 15 12 16 11 17 10 18 4 20 20 22 17 24
REMARK H PARENT 10 19 4 21 20 23 17 25
REMARK Flexibility Score: inf
ROOT
ATOM      1  C   UNL     1      17.707  41.148   6.063  1.00  0.00     0.180 A 
ATOM      2  C   UNL     1      17.876  41.908   4.893  1.00  0.00     0.208 A 
ATOM      3  C   UNL     1      18.754  41.445   3.901  1.00  0.00     0.238 A 
ATOM      4  O   UNL     1      18.942  42.156   2.879  1.00  0.00    -0.285 OA
ATOM      5  C   UNL     1      19.441  40.221   4.083  1.00  0.00     0.111 A 
ATOM      6  C   UNL     1      20.324  39.636   3.126  1.00  0.00     0.134 A 
ATOM      7  C   UNL     1      21.050  38.488   3.468  1.00  0.00     0.093 A 
ATOM      8  C   UNL     1      20.876  37.867   4.703  1.00  0.00     0.123 A 
ATOM      9  C   UNL     1      19.971  38.396   5.624  1.00  0.00     0.094 A 
ATOM     10  C   UNL     1      19.259  39.561   5.327  1.00  0.00     0.146 A 
ATOM     11  O   UNL     1      18.415  40.038   6.234  1.00  0.00    -0.452 OA
ENDROOT
BRANCH   1  12
ATOM     12  C   UNL     1      16.780  41.559   7.143  1.00  0.00     0.021 A 
ATOM     13  C   UNL     1      17.187  42.437   8.164  1.00  0.00     0.016 A 
ATOM     14  C   UNL     1      16.286  42.830   9.158  1.00  0.00     0.047 A 
ATOM     15  C   UNL     1      14.966  42.362   9.138  1.00  0.00     0.115 A 
ATOM     16  C   UNL     1      15.448  41.111   7.118  1.00  0.00     0.016 A 
ATOM     17  C   UNL     1      14.550  41.504   8.115  1.00  0.00     0.047 A 
BRANCH  15  18
ATOM     18  O   UNL     1      14.060  42.745  10.125  1.00  0.00    -0.508 OA
ATOM     19  H   UNL     1      13.295  42.142  10.404  1.00  0.00     0.293 HD
ENDBRANCH  15  18
ENDBRANCH   1  12
BRANCH   2  20
ATOM     20  O   UNL     1      17.205  43.125   4.743  1.00  0.00    -0.502 OA
ATOM     21  H   UNL     1      16.276  43.188   4.343  1.00  0.00     0.293 HD
ENDBRANCH   2  20
BRANCH   6  22
ATOM     22  O   UNL     1      20.502  40.124   1.828  1.00  0.00    -0.507 OA
ATOM     23  H   UNL     1      20.796  41.063   1.602  1.00  0.00     0.293 HD
ENDBRANCH   6  22
BRANCH   8  24
ATOM     24  O   UNL     1      21.603  36.717   5.002  1.00  0.00    -0.508 OA
ATOM     25  H   UNL     1      22.588  36.640   4.776  1.00  0.00     0.293 HD
ENDBRANCH   8  24
TORSDOF 5
ENDMDL
MODEL 2
REMARK VINA RESULT:    -5.275      1.451      3.423
REMARK INTER + INTRA:          -6.486
REMARK INTER:                  -6.197
REMARK INTRA:                  -0.288
REMARK UNBOUND:                -0.285
REMARK SMILES O=c1c(O)c(-c2ccc(O)cc2)oc2cc(O)cc(O)c12
REMARK SMILES IDX 5 1 3 2 2 3 1 4 21 5 19 6 18 7 16 8 15 9 14 10 13 11 6 12
REMARK SMILES IDX 7 13 8 14 9 15 12 16 11 17 10 18 4 20 20 22 17 24
REMARK H PARENT 10 19 4 21 20 23 17 25
REMARK Flexibility Score: inf
ROOT
ATOM      1  C   UNL     1      17.592  41.433   5.658  1.00  0.00     0.180 A 
ATOM      2  C   UNL     1      18.494  40.359   5.753  1.00  0.00     0.208 A 
ATOM      3  C   UNL     1      19.313  40.058   4.654  1.00  0.00     0.238 A 
ATOM      4  O   UNL     1      20.080  39.063   4.726  1.00  0.00    -0.285 OA
ATOM      5  C   UNL     1      19.232  40.843   3.479  1.00  0.00     0.111 A 
ATOM      6  C   UNL     1      20.043  40.653   2.319  1.00  0.00     0.134 A 
ATOM      7  C   UNL     1      19.786  41.405   1.166  1.00  0.00     0.093 A 
ATOM      8  C   UNL     1      18.794  42.385   1.151  1.00  0.00     0.123 A 
ATOM      9  C   UNL     1      18.035  42.620   2.298  1.00  0.00     0.094 A 
ATOM     10  C   UNL     1      18.243  41.861   3.453  1.00  0.00     0.146 A 
ATOM     11  O   UNL     1      17.492  42.109   4.519  1.00  0.00    -0.452 OA
ENDROOT
BRANCH   1  12
ATOM     12  C   UNL     1      16.713  41.827   6.783  1.00  0.00     0.021 A 
ATOM     13  C   UNL     1      15.438  41.256   6.953  1.00  0.00     0.016 A 
ATOM     14  C   UNL     1      14.637  41.627   8.037  1.00  0.00     0.047 A 
ATOM     15  C   UNL     1      15.104  42.559   8.972  1.00  0.00     0.115 A 
ATOM     16  C   UNL     1      17.182  42.746   7.737  1.00  0.00     0.016 A 
ATOM     17  C   UNL     1      16.378  43.115   8.820  1.00  0.00     0.047 A 
BRANCH  15  18
ATOM     18  O   UNL     1      14.313  42.936  10.056  1.00  0.00    -0.508 OA
ATOM     19  H   UNL     1      13.361  43.259   9.929  1.00  0.00     0.293 HD
ENDBRANCH  15  18
ENDBRANCH   1  12
BRANCH   2  20
ATOM     20  O   UNL     1      18.542  39.584   6.915  1.00  0.00    -0.502 OA
ATOM     21  H   UNL     1      19.000  39.900   7.761  1.00  0.00     0.293 HD
ENDBRANCH   2  20
BRANCH   6  22
ATOM     22  O   UNL     1      21.121  39.766   2.258  1.00  0.00    -0.507 OA
ATOM     23  H   UNL     1      21.092  38.854   1.826  1.00  0.00     0.293 HD
ENDBRANCH   6  22
BRANCH   8  24
ATOM     24  O   UNL     1      18.577  43.125  -0.009  1.00  0.00    -0.508 OA
ATOM     25  H   UNL     1      18.703  42.717  -0.928  1.00  0.00     0.293 HD
ENDBRANCH   8  24
TORSDOF 5
ENDMDL
MODEL 3
REMARK VINA RESULT:    -5.005      2.184      2.423
REMARK INTER + INTRA:          -6.168
REMARK INTER:                  -5.937
REMARK INTRA:                  -0.231
REMARK UNBOUND:                -0.285
REMARK SMILES O=c1c(O)c(-c2ccc(O)cc2)oc2cc(O)cc(O)c12
REMARK SMILES IDX 5 1 3 2 2 3 1 4 21 5 19 6 18 7 16 8 15 9 14 10 13 11 6 12
REMARK SMILES IDX 7 13 8 14 9 15 12 16 11 17 10 18 4 20 20 22 17 24
REMARK H PARENT 10 19 4 21 20 23 17 25
REMARK Flexibility Score: inf
ROOT
ATOM      1  C   UNL     1      18.469  41.107   6.881  1.00  0.00     0.180 A 
ATOM      2  C   UNL     1      19.399  42.150   7.040  1.00  0.00     0.208 A 
ATOM      3  C   UNL     1      20.539  42.176   6.222  1.00  0.00     0.238 A 
ATOM      4  O   UNL     1      21.395  43.081   6.406  1.00  0.00    -0.285 OA
ATOM      5  C   UNL     1      20.730  41.169   5.245  1.00  0.00     0.111 A 
ATOM      6  C   UNL     1      21.829  41.119   4.335  1.00  0.00     0.134 A 
ATOM      7  C   UNL     1      21.983  40.006   3.500  1.00  0.00     0.093 A 
ATOM      8  C   UNL     1      21.046  38.975   3.493  1.00  0.00     0.123 A 
ATOM      9  C   UNL     1      19.936  39.041   4.337  1.00  0.00     0.094 A 
ATOM     10  C   UNL     1      19.772  40.121   5.208  1.00  0.00     0.146 A 
ATOM     11  O   UNL     1      18.708  40.141   6.001  1.00  0.00    -0.452 OA
ENDROOT
BRANCH   1  12
ATOM     12  C   UNL     1      17.230  41.026   7.688  1.00  0.00     0.021 A 
ATOM     13  C   UNL     1      15.974  41.335   7.136  1.00  0.00     0.016 A 
ATOM     14  C   UNL     1      14.815  41.227   7.912  1.00  0.00     0.047 A 
ATOM     15  C   UNL     1      14.896  40.795   9.242  1.00  0.00     0.115 A 
ATOM     16  C   UNL     1      17.299  40.573   9.016  1.00  0.00     0.016 A 
ATOM     17  C   UNL     1      16.140  40.466   9.790  1.00  0.00     0.047 A 
BRANCH  15  18
ATOM     18  O   UNL     1      13.748  40.684  10.024  1.00  0.00    -0.508 OA
ATOM     19  H   UNL     1      13.533  39.833  10.531  1.00  0.00     0.293 HD
ENDBRANCH  15  18
ENDBRANCH   1  12
BRANCH   2  20
ATOM     20  O   UNL     1      19.203  43.121   8.025  1.00  0.00    -0.502 OA
ATOM     21  H   UNL     1      19.890  43.838   8.226  1.00  0.00     0.293 HD
ENDBRANCH   2  20
BRANCH   6  22
ATOM     22  O   UNL     1      22.772  42.141   4.195  1.00  0.00    -0.507 OA
ATOM     23  H   UNL     1      22.554  43.095   3.949  1.00  0.00     0.293 HD
ENDBRANCH   6  22
BRANCH   8  24
ATOM     24  O   UNL     1      21.224  37.890   2.637  1.00  0.00    -0.508 OA
ATOM     25  H   UNL     1      20.820  37.878   1.707  1.00  0.00     0.293 HD
ENDBRANCH   8  24
TORSDOF 5
ENDMDL
MODEL 4
REMARK VINA RESULT:    -4.652      2.379      3.041
REMARK INTER + INTRA:          -5.753
REMARK INTER:                  -5.461
REMARK INTRA:                  -0.292
REMARK UNBOUND:                -0.285
REMARK SMILES O=c1c(O)c(-c2ccc(O)cc2)oc2cc(O)cc(O)c12
REMARK SMILES IDX 5 1 3 2 2 3 1 4 21 5 19 6 18 7 16 8 15 9 14 10 13 11 6 12
REMARK SMILES IDX 7 13 8 14 9 15 12 16 11 17 10 18 4 20 20 22 17 24
REMARK H PARENT 10 19 4 21 20 23 17 25
REMARK Flexibility Score: inf
ROOT
ATOM      1  C   UNL     1      18.323  41.929   6.561  1.00  0.00     0.180 A 
ATOM      2  C   UNL     1      19.606  42.332   6.972  1.00  0.00     0.208 A 
ATOM      3  C   UNL     1      20.632  42.417   6.018  1.00  0.00     0.238 A 
ATOM      4  O   UNL     1      21.790  42.726   6.401  1.00  0.00    -0.285 OA
ATOM      5  C   UNL     1      20.360  42.114   4.662  1.00  0.00     0.111 A 
ATOM      6  C   UNL     1      21.314  42.206   3.604  1.00  0.00     0.134 A 
ATOM      7  C   UNL     1      20.969  41.756   2.323  1.00  0.00     0.093 A 
ATOM      8  C   UNL     1      19.688  41.281   2.047  1.00  0.00     0.123 A 
ATOM      9  C   UNL     1      18.730  41.243   3.061  1.00  0.00     0.094 A 
ATOM     10  C   UNL     1      19.053  41.650   4.357  1.00  0.00     0.146 A 
ATOM     11  O   UNL     1      18.116  41.588   5.295  1.00  0.00    -0.452 OA
ENDROOT
BRANCH   1  12
ATOM     12  C   UNL     1      17.185  41.840   7.504  1.00  0.00     0.021 A 
ATOM     13  C   UNL     1      16.413  42.970   7.830  1.00  0.00     0.016 A 
ATOM     14  C   UNL     1      15.327  42.855   8.705  1.00  0.00     0.047 A 
ATOM     15  C   UNL     1      14.992  41.610   9.251  1.00  0.00     0.115 A 
ATOM     16  C   UNL     1      16.829  40.591   8.041  1.00  0.00     0.016 A 
ATOM     17  C   UNL     1      15.744  40.480   8.915  1.00  0.00     0.047 A 
BRANCH  15  18
ATOM     18  O   UNL     1      13.913  41.484  10.125  1.00  0.00    -0.508 OA
ATOM     19  H   UNL     1      13.052  41.033   9.840  1.00  0.00     0.293 HD
ENDBRANCH  15  18
ENDBRANCH   1  12
BRANCH   2  20
ATOM     20  O   UNL     1      19.858  42.604   8.320  1.00  0.00    -0.502 OA
ATOM     21  H   UNL     1      20.539  42.085   8.861  1.00  0.00     0.293 HD
ENDBRANCH   2  20
BRANCH   6  22
ATOM     22  O   UNL     1      22.593  42.751   3.751  1.00  0.00    -0.507 OA
ATOM     23  H   UNL     1      23.179  43.054   2.988  1.00  0.00     0.293 HD
ENDBRANCH   6  22
BRANCH   8  24
ATOM     24  O   UNL     1      19.376  40.857   0.757  1.00  0.00    -0.508 OA
ATOM     25  H   UNL     1      19.600  39.921   0.439  1.00  0.00     0.293 HD
ENDBRANCH   8  24
TORSDOF 5
ENDMDL
MODEL 5
REMARK VINA RESULT:    -4.346      2.780      6.381
REMARK INTER + INTRA:          -5.393
REMARK INTER:                  -5.246
REMARK INTRA:                  -0.147
REMARK UNBOUND:                -0.285
REMARK SMILES O=c1c(O)c(-c2ccc(O)cc2)oc2cc(O)cc(O)c12
REMARK SMILES IDX 5 1 3 2 2 3 1 4 21 5 19 6 18 7 16 8 15 9 14 10 13 11 6 12
REMARK SMILES IDX 7 13 8 14 9 15 12 16 11 17 10 18 4 20 20 22 17 24
REMARK H PARENT 10 19 4 21 20 23 17 25
REMARK Flexibility Score: inf
ROOT
ATOM      1  C   UNL     1      18.267  42.029   4.981  1.00  0.00     0.180 A 
ATOM      2  C   UNL     1      19.258  42.452   5.884  1.00  0.00     0.208 A 
ATOM      3  C   UNL     1      19.063  42.240   7.257  1.00  0.00     0.238 A 
ATOM      4  O   UNL     1      19.928  42.669   8.065  1.00  0.00    -0.285 OA
ATOM      5  C   UNL     1      17.888  41.593   7.711  1.00  0.00     0.111 A 
ATOM      6  C   UNL     1      17.605  41.290   9.077  1.00  0.00     0.134 A 
ATOM      7  C   UNL     1      16.353  40.766   9.423  1.00  0.00     0.093 A 
ATOM      8  C   UNL     1      15.401  40.472   8.448  1.00  0.00     0.123 A 
ATOM      9  C   UNL     1      15.690  40.709   7.104  1.00  0.00     0.094 A 
ATOM     10  C   UNL     1      16.916  41.265   6.730  1.00  0.00     0.146 A 
ATOM     11  O   UNL     1      17.147  41.485   5.441  1.00  0.00    -0.452 OA
ENDROOT
BRANCH   1  12
ATOM     12  C   UNL     1      18.412  42.196   3.516  1.00  0.00     0.021 A 
ATOM     13  C   UNL     1      19.435  41.545   2.802  1.00  0.00     0.016 A 
ATOM     14  C   UNL     1      19.536  41.698   1.416  1.00  0.00     0.047 A 
ATOM     15  C   UNL     1      18.611  42.491   0.726  1.00  0.00     0.115 A 
ATOM     16  C   UNL     1      17.476  42.972   2.813  1.00  0.00     0.016 A 
ATOM     17  C   UNL     1      17.581  43.124   1.427  1.00  0.00     0.047 A 
BRANCH  15  18
ATOM     18  O   UNL     1      18.704  42.652  -0.655  1.00  0.00    -0.508 OA
ATOM     19  H   UNL     1      18.013  43.184  -1.174  1.00  0.00     0.293 HD
ENDBRANCH  15  18
ENDBRANCH   1  12
BRANCH   2  20
ATOM     20  O   UNL     1      20.400  43.108   5.417  1.00  0.00    -0.502 OA
ATOM     21  H   UNL     1      21.337  42.799   5.647  1.00  0.00     0.293 HD
ENDBRANCH   2  20
BRANCH   6  22
ATOM     22  O   UNL     1      18.521  41.457  10.120  1.00  0.00    -0.507 OA
ATOM     23  H   UNL     1      19.185  42.214  10.185  1.00  0.00     0.293 HD
ENDBRANCH   6  22
BRANCH   8  24
ATOM     24  O   UNL     1      14.172  39.937   8.828  1.00  0.00    -0.508 OA
ATOM     25  H   UNL     1      13.347  40.518   8.921  1.00  0.00     0.293 HD
ENDBRANCH   8  24
TORSDOF 5
ENDMDL
MODEL 6
REMARK VINA RESULT:    -4.197     12.401     14.577
REMARK INTER + INTRA:          -5.218
REMARK INTER:                  -5.791
REMARK INTRA:                   0.573
REMARK UNBOUND:                -0.285
REMARK SMILES O=c1c(O)c(-c2ccc(O)cc2)oc2cc(O)cc(O)c12
REMARK SMILES IDX 5 1 3 2 2 3 1 4 21 5 19 6 18 7 16 8 15 9 14 10 13 11 6 12
REMARK SMILES IDX 7 13 8 14 9 15 12 16 11 17 10 18 4 20 20 22 17 24
REMARK H PARENT 10 19 4 21 20 23 17 25
REMARK Flexibility Score: inf
ROOT
ATOM      1  C   UNL     1      14.738  42.909  -7.761  1.00  0.00     0.180 A 
ATOM      2  C   UNL     1      15.063  42.964  -6.394  1.00  0.00     0.208 A 
ATOM      3  C   UNL     1      16.414  42.942  -6.014  1.00  0.00     0.238 A 
ATOM      4  O   UNL     1      16.697  42.938  -4.787  1.00  0.00    -0.285 OA
ATOM      5  C   UNL     1      17.424  42.883  -7.003  1.00  0.00     0.111 A 
ATOM      6  C   UNL     1      18.826  42.897  -6.733  1.00  0.00     0.134 A 
ATOM      7  C   UNL     1      19.733  42.701  -7.782  1.00  0.00     0.093 A 
ATOM      8  C   UNL     1      19.293  42.559  -9.097  1.00  0.00     0.123 A 
ATOM      9  C   UNL     1      17.928  42.603  -9.381  1.00  0.00     0.094 A 
ATOM     10  C   UNL     1      16.996  42.761  -8.352  1.00  0.00     0.146 A 
ATOM     11  O   UNL     1      15.706  42.787  -8.662  1.00  0.00    -0.452 OA
ENDROOT
BRANCH   1  12
ATOM     12  C   UNL     1      13.338  42.953  -8.240  1.00  0.00     0.021 A 
ATOM     13  C   UNL     1      13.024  42.785  -9.602  1.00  0.00     0.016 A 
ATOM     14  C   UNL     1      11.692  42.805 -10.027  1.00  0.00     0.047 A 
ATOM     15  C   UNL     1      10.659  42.978  -9.098  1.00  0.00     0.115 A 
ATOM     16  C   UNL     1      12.293  43.105  -7.313  1.00  0.00     0.016 A 
ATOM     17  C   UNL     1      10.963  43.125  -7.741  1.00  0.00     0.047 A 
BRANCH  15  18
ATOM     18  O   UNL     1       9.328  43.001  -9.511  1.00  0.00    -0.508 OA
ATOM     19  H   UNL     1       8.689  43.723  -9.197  1.00  0.00     0.293 HD
ENDBRANCH  15  18
ENDBRANCH   1  12
BRANCH   2  20
ATOM     20  O   UNL     1      14.050  43.000  -5.432  1.00  0.00    -0.502 OA
ATOM     21  H   UNL     1      13.692  43.869  -5.052  1.00  0.00     0.293 HD
ENDBRANCH   2  20
BRANCH   6  22
ATOM     22  O   UNL     1      19.375  43.124  -5.468  1.00  0.00    -0.507 OA
ATOM     23  H   UNL     1      19.606  44.034  -5.097  1.00  0.00     0.293 HD
ENDBRANCH   6  22
BRANCH   8  24
ATOM     24  O   UNL     1      20.225  42.382 -10.118  1.00  0.00    -0.508 OA
ATOM     25  H   UNL     1      21.195  42.654 -10.002  1.00  0.00     0.293 HD
ENDBRANCH   8  24
TORSDOF 5
ENDMDL
MODEL 7
REMARK VINA RESULT:    -4.067      1.840      6.827
REMARK INTER + INTRA:          -5.065
REMARK INTER:                  -4.882
REMARK INTRA:                  -0.183
REMARK UNBOUND:                -0.285
REMARK SMILES O=c1c(O)c(-c2ccc(O)cc2)oc2cc(O)cc(O)c12
REMARK SMILES IDX 5 1 3 2 2 3 1 4 21 5 19 6 18 7 16 8 15 9 14 10 13 11 6 12
REMARK SMILES IDX 7 13 8 14 9 15 12 16 11 17 10 18 4 20 20 22 17 24
REMARK H PARENT 10 19 4 21 20 23 17 25
REMARK Flexibility Score: inf
ROOT
ATOM      1  C   UNL     1      19.189  40.644   6.094  1.00  0.00     0.180 A 
ATOM      2  C   UNL     1      19.727  41.606   6.966  1.00  0.00     0.208 A 
ATOM      3  C   UNL     1      18.894  42.193   7.931  1.00  0.00     0.238 A 
ATOM      4  O   UNL     1      19.368  43.093   8.673  1.00  0.00    -0.285 OA
ATOM      5  C   UNL     1      17.537  41.800   8.024  1.00  0.00     0.111 A 
ATOM      6  C   UNL     1      16.612  42.300   8.990  1.00  0.00     0.134 A 
ATOM      7  C   UNL     1      15.262  41.938   8.904  1.00  0.00     0.093 A 
ATOM      8  C   UNL     1      14.816  41.045   7.931  1.00  0.00     0.123 A 
ATOM      9  C   UNL     1      15.722  40.505   7.018  1.00  0.00     0.094 A 
ATOM     10  C   UNL     1      17.069  40.874   7.055  1.00  0.00     0.146 A 
ATOM     11  O   UNL     1      17.897  40.345   6.162  1.00  0.00    -0.452 OA
ENDROOT
BRANCH   1  12
ATOM     12  C   UNL     1      20.011  39.963   5.067  1.00  0.00     0.021 A 
ATOM     13  C   UNL     1      20.489  40.651   3.937  1.00  0.00     0.016 A 
ATOM     14  C   UNL     1      21.284  39.993   2.994  1.00  0.00     0.047 A 
ATOM     15  C   UNL     1      21.622  38.646   3.175  1.00  0.00     0.115 A 
ATOM     16  C   UNL     1      20.372  38.618   5.251  1.00  0.00     0.016 A 
ATOM     17  C   UNL     1      21.166  37.962   4.306  1.00  0.00     0.047 A 
BRANCH  15  18
ATOM     18  O   UNL     1      22.412  37.979   2.240  1.00  0.00    -0.508 OA
ATOM     19  H   UNL     1      23.398  38.190   2.135  1.00  0.00     0.293 HD
ENDBRANCH  15  18
ENDBRANCH   1  12
BRANCH   2  20
ATOM     20  O   UNL     1      21.064  41.996   6.843  1.00  0.00    -0.502 OA
ATOM     21  H   UNL     1      21.575  42.431   7.602  1.00  0.00     0.293 HD
ENDBRANCH   2  20
BRANCH   6  22
ATOM     22  O   UNL     1      16.971  43.125  10.060  1.00  0.00    -0.507 OA
ATOM     23  H   UNL     1      17.067  44.128  10.005  1.00  0.00     0.293 HD
ENDBRANCH   6  22
BRANCH   8  24
ATOM     24  O   UNL     1      13.468  40.695   7.887  1.00  0.00    -0.508 OA
ATOM     25  H   UNL     1      12.997  40.513   7.008  1.00  0.00     0.293 HD
ENDBRANCH   8  24
TORSDOF 5
ENDMDL
MODEL 8
REMARK VINA RESULT:    -3.792      2.648      6.766
REMARK INTER + INTRA:          -4.742
REMARK INTER:                  -4.504
REMARK INTRA:                  -0.238
REMARK UNBOUND:                -0.285
REMARK SMILES O=c1c(O)c(-c2ccc(O)cc2)oc2cc(O)cc(O)c12
REMARK SMILES IDX 5 1 3 2 2 3 1 4 21 5 19 6 18 7 16 8 15 9 14 10 13 11 6 12
REMARK SMILES IDX 7 13 8 14 9 15 12 16 11 17 10 18 4 20 20 22 17 24
REMARK H PARENT 10 19 4 21 20 23 17 25
REMARK Flexibility Score: inf
ROOT
ATOM      1  C   UNL     1      19.563  42.170   5.125  1.00  0.00     0.180 A 
ATOM      2  C   UNL     1      20.799  42.391   5.758  1.00  0.00     0.208 A 
ATOM      3  C   UNL     1      20.819  42.679   7.131  1.00  0.00     0.238 A 
ATOM      4  O   UNL     1      21.924  42.929   7.681  1.00  0.00    -0.285 OA
ATOM      5  C   UNL     1      19.606  42.727   7.860  1.00  0.00     0.111 A 
ATOM      6  C   UNL     1      19.512  42.970   9.263  1.00  0.00     0.134 A 
ATOM      7  C   UNL     1      18.251  43.125   9.853  1.00  0.00     0.093 A 
ATOM      8  C   UNL     1      17.083  42.980   9.107  1.00  0.00     0.123 A 
ATOM      9  C   UNL     1      17.163  42.684   7.746  1.00  0.00     0.094 A 
ATOM     10  C   UNL     1      18.406  42.559   7.120  1.00  0.00     0.146 A 
ATOM     11  O   UNL     1      18.438  42.287   5.821  1.00  0.00    -0.452 OA
ENDROOT
BRANCH   1  12
ATOM     12  C   UNL     1      19.463  41.837   3.686  1.00  0.00     0.021 A 
ATOM     13  C   UNL     1      19.098  42.806   2.733  1.00  0.00     0.016 A 
ATOM     14  C   UNL     1      19.034  42.473   1.376  1.00  0.00     0.047 A 
ATOM     15  C   UNL     1      19.348  41.175   0.954  1.00  0.00     0.115 A 
ATOM     16  C   UNL     1      19.796  40.543   3.250  1.00  0.00     0.016 A 
ATOM     17  C   UNL     1      19.731  40.214   1.894  1.00  0.00     0.047 A 
BRANCH  15  18
ATOM     18  O   UNL     1      19.286  40.832  -0.396  1.00  0.00    -0.508 OA
ATOM     19  H   UNL     1      19.806  41.348  -1.097  1.00  0.00     0.293 HD
ENDBRANCH  15  18
ENDBRANCH   1  12
BRANCH   2  20
ATOM     20  O   UNL     1      21.983  42.361   5.016  1.00  0.00    -0.502 OA
ATOM     21  H   UNL     1      22.121  42.929   4.189  1.00  0.00     0.293 HD
ENDBRANCH   2  20
BRANCH   6  22
ATOM     22  O   UNL     1      20.615  43.040  10.119  1.00  0.00    -0.507 OA
ATOM     23  H   UNL     1      21.561  43.224   9.823  1.00  0.00     0.293 HD
ENDBRANCH   6  22
BRANCH   8  24
ATOM     24  O   UNL     1      15.846  43.125   9.731  1.00  0.00    -0.508 OA
ATOM     25  H   UNL     1      15.111  42.437   9.616  1.00  0.00     0.293 HD
ENDBRANCH   8  24
TORSDOF 5
ENDMDL
MODEL 9
REMARK VINA RESULT:    -3.592      1.665      6.507
REMARK INTER + INTRA:          -4.507
REMARK INTER:                  -4.516
REMARK INTRA:                   0.008
REMARK UNBOUND:                -0.285
REMARK SMILES O=c1c(O)c(-c2ccc(O)cc2)oc2cc(O)cc(O)c12
REMARK SMILES IDX 5 1 3 2 2 3 1 4 21 5 19 6 18 7 16 8 15 9 14 10 13 11 6 12
REMARK SMILES IDX 7 13 8 14 9 15 12 16 11 17 10 18 4 20 20 22 17 24
REMARK H PARENT 10 19 4 21 20 23 17 25
REMARK Flexibility Score: inf
ROOT
ATOM      1  C   UNL     1      18.520  40.501   5.215  1.00  0.00     0.180 A 
ATOM      2  C   UNL     1      17.824  41.627   4.740  1.00  0.00     0.208 A 
ATOM      3  C   UNL     1      16.740  42.119   5.482  1.00  0.00     0.238 A 
ATOM      4  O   UNL     1      16.087  43.094   5.026  1.00  0.00    -0.285 OA
ATOM      5  C   UNL     1      16.373  41.492   6.697  1.00  0.00     0.111 A 
ATOM      6  C   UNL     1      15.317  41.931   7.551  1.00  0.00     0.134 A 
ATOM      7  C   UNL     1      14.959  41.156   8.661  1.00  0.00     0.093 A 
ATOM      8  C   UNL     1      15.660  39.997   8.986  1.00  0.00     0.123 A 
ATOM      9  C   UNL     1      16.733  39.590   8.192  1.00  0.00     0.094 A 
ATOM     10  C   UNL     1      17.091  40.321   7.058  1.00  0.00     0.146 A 
ATOM     11  O   UNL     1      18.111  39.894   6.323  1.00  0.00    -0.452 OA
ENDROOT
BRANCH   1  12
ATOM     12  C   UNL     1      19.689  39.938   4.500  1.00  0.00     0.021 A 
ATOM     13  C   UNL     1      19.726  38.588   4.104  1.00  0.00     0.016 A 
ATOM     14  C   UNL     1      20.830  38.086   3.409  1.00  0.00     0.047 A 
ATOM     15  C   UNL     1      21.903  38.928   3.089  1.00  0.00     0.115 A 
ATOM     16  C   UNL     1      20.760  40.780   4.157  1.00  0.00     0.016 A 
ATOM     17  C   UNL     1      21.863  40.274   3.463  1.00  0.00     0.047 A 
BRANCH  15  18
ATOM     18  O   UNL     1      23.010  38.437   2.398  1.00  0.00    -0.508 OA
ATOM     19  H   UNL     1      23.124  37.446   2.218  1.00  0.00     0.293 HD
ENDBRANCH  15  18
ENDBRANCH   1  12
BRANCH   2  20
ATOM     20  O   UNL     1      18.188  42.217   3.527  1.00  0.00    -0.502 OA
ATOM     21  H   UNL     1      17.637  42.947   3.091  1.00  0.00     0.293 HD
ENDBRANCH   2  20
BRANCH   6  22
ATOM     22  O   UNL     1      14.612  43.125   7.369  1.00  0.00    -0.507 OA
ATOM     23  H   UNL     1      13.964  43.301   6.616  1.00  0.00     0.293 HD
ENDBRANCH   6  22
BRANCH   8  24
ATOM     24  O   UNL     1      15.286  39.260  10.108  1.00  0.00    -0.508 OA
ATOM     25  H   UNL     1      15.949  38.674  10.602  1.00  0.00     0.293 HD
ENDBRANCH   8  24
TORSDOF 5
ENDMDL
