MODEL 1
REMARK VINA RESULT:    -3.506      0.000      0.000
REMARK INTER + INTRA:          -4.011
REMARK INTER:                  -4.018
REMARK INTRA:                   0.007
REMARK UNBOUND:                 0.007
REMARK SMILES CC(C)[C@@H]([NH3+])C(=O)[O-]
REMARK SMILES IDX 4 1 5 2 6 6 7 7 8 8 2 9 1 10 3 11
REMARK H PARENT 5 3 5 4 5 5
REMARK Flexibility Score: inf
ROOT
ATOM      1  C   UNL     1      18.678  32.466  42.928  1.00  0.00     0.230 C 
ENDROOT
BRANCH   1   2
ATOM      2  N   UNL     1      19.958  32.518  42.204  1.00  0.00    -0.350 N 
ATOM      3  H   UNL     1      19.806  32.814  41.214  1.00  0.00     0.345 HD
ATOM      4  H   UNL     1      20.386  31.564  42.187  1.00  0.00     0.345 HD
ATOM      5  H   UNL     1      20.630  33.174  42.663  1.00  0.00     0.345 HD
ENDBRANCH   1   2
BRANCH   1   6
ATOM      6  C   UNL     1      17.621  31.783  42.094  1.00  0.00     0.099 C 
ATOM      7  O   UNL     1      17.877  30.684  41.535  1.00  0.00    -0.544 OA
ATOM      8  O   UNL     1      16.380  32.375  41.897  1.00  0.00    -0.544 OA
ENDBRANCH   1   6
BRANCH   1   9
ATOM      9  C   UNL     1      18.797  31.798  44.331  1.00  0.00     0.047 C 
ATOM     10  C   UNL     1      17.462  31.257  44.869  1.00  0.00     0.014 C 
ATOM     11  C   UNL     1      19.863  30.693  44.351  1.00  0.00     0.014 C 
ENDBRANCH   1   9
TORSDOF 3
ENDMDL
MODEL 2
REMARK VINA RESULT:    -3.502      2.647      3.442
REMARK INTER + INTRA:          -4.008
REMARK INTER:                  -3.966
REMARK INTRA:                  -0.041
REMARK UNBOUND:                 0.007
REMARK SMILES CC(C)[C@@H]([NH3+])C(=O)[O-]
REMARK SMILES IDX 4 1 5 2 6 6 7 7 8 8 2 9 1 10 3 11
REMARK H PARENT 5 3 5 4 5 5
REMARK Flexibility Score: inf
ROOT
ATOM      1  C   UNL     1      18.973  29.839  43.204  1.00  0.00     0.230 C 
ENDROOT
BRANCH   1   2
ATOM      2  N   UNL     1      18.398  30.053  41.867  1.00  0.00    -0.350 N 
ATOM      3  H   UNL     1      18.571  31.032  41.547  1.00  0.00     0.345 HD
ATOM      4  H   UNL     1      17.362  29.913  41.908  1.00  0.00     0.345 HD
ATOM      5  H   UNL     1      18.794  29.384  41.169  1.00  0.00     0.345 HD
ENDBRANCH   1   2
BRANCH   1   6
ATOM      6  C   UNL     1      20.399  29.354  43.100  1.00  0.00     0.099 C 
ATOM      7  O   UNL     1      21.225  29.981  42.386  1.00  0.00    -0.544 OA
ATOM      8  O   UNL     1      20.802  28.193  43.749  1.00  0.00    -0.544 OA
ENDBRANCH   1   6
BRANCH   1   9
ATOM      9  C   UNL     1      18.881  31.100  44.117  1.00  0.00     0.047 C 
ATOM     10  C   UNL     1      18.850  32.423  43.336  1.00  0.00     0.014 C 
ATOM     11  C   UNL     1      17.688  31.024  45.080  1.00  0.00     0.014 C 
ENDBRANCH   1   9
TORSDOF 3
ENDMDL
MODEL 3
REMARK VINA RESULT:    -3.496      2.126      2.969
REMARK INTER + INTRA:          -4.000
REMARK INTER:                  -3.955
REMARK INTRA:                  -0.046
REMARK UNBOUND:                 0.007
REMARK SMILES CC(C)[C@@H]([NH3+])C(=O)[O-]
REMARK SMILES IDX 4 1 5 2 6 6 7 7 8 8 2 9 1 10 3 11
REMARK H PARENT 5 3 5 4 5 5
REMARK Flexibility Score: inf
ROOT
ATOM      1  C   UNL     1      19.346  31.003  43.308  1.00  0.00     0.230 C 
ENDROOT
BRANCH   1   2
ATOM      2  N   UNL     1      20.047  31.157  44.592  1.00  0.00    -0.350 N 
ATOM      3  H   UNL     1      20.305  32.157  44.749  1.00  0.00     0.345 HD
ATOM      4  H   UNL     1      20.934  30.602  44.572  1.00  0.00     0.345 HD
ATOM      5  H   UNL     1      19.464  30.819  45.390  1.00  0.00     0.345 HD
ENDBRANCH   1   2
BRANCH   1   6
ATOM      6  C   UNL     1      19.827  29.771  42.581  1.00  0.00     0.099 C 
ATOM      7  O   UNL     1      19.553  29.615  41.362  1.00  0.00    -0.544 OA
ATOM      8  O   UNL     1      20.532  28.780  43.253  1.00  0.00    -0.544 OA
ENDBRANCH   1   6
BRANCH   1   9
ATOM      9  C   UNL     1      17.794  30.988  43.458  1.00  0.00     0.047 C 
ATOM     10  C   UNL     1      17.313  31.242  44.896  1.00  0.00     0.014 C 
ATOM     11  C   UNL     1      17.116  31.970  42.491  1.00  0.00     0.014 C 
ENDBRANCH   1   9
TORSDOF 3
ENDMDL
MODEL 4
REMARK VINA RESULT:    -3.491      2.819      3.433
REMARK INTER + INTRA:          -3.994
REMARK INTER:                  -3.927
REMARK INTRA:                  -0.067
REMARK UNBOUND:                 0.007
REMARK SMILES CC(C)[C@@H]([NH3+])C(=O)[O-]
REMARK SMILES IDX 4 1 5 2 6 6 7 7 8 8 2 9 1 10 3 11
REMARK H PARENT 5 3 5 4 5 5
REMARK Flexibility Score: inf
ROOT
ATOM      1  C   UNL     1      19.529  31.201  43.551  1.00  0.00     0.230 C 
ENDROOT
BRANCH   1   2
ATOM      2  N   UNL     1      18.962  31.645  44.834  1.00  0.00    -0.350 N 
ATOM      3  H   UNL     1      18.607  30.828  45.378  1.00  0.00     0.345 HD
ATOM      4  H   UNL     1      18.152  32.281  44.653  1.00  0.00     0.345 HD
ATOM      5  H   UNL     1      19.668  32.162  45.405  1.00  0.00     0.345 HD
ENDBRANCH   1   2
BRANCH   1   6
ATOM      6  C   UNL     1      20.289  29.908  43.721  1.00  0.00     0.099 C 
ATOM      7  O   UNL     1      21.093  29.530  42.828  1.00  0.00    -0.544 OA
ATOM      8  O   UNL     1      20.079  29.103  44.834  1.00  0.00    -0.544 OA
ENDBRANCH   1   6
BRANCH   1   9
ATOM      9  C   UNL     1      18.461  31.072  42.423  1.00  0.00     0.047 C 
ATOM     10  C   UNL     1      17.477  29.910  42.638  1.00  0.00     0.014 C 
ATOM     11  C   UNL     1      17.692  32.384  42.209  1.00  0.00     0.014 C 
ENDBRANCH   1   9
TORSDOF 3
ENDMDL
MODEL 5
REMARK VINA RESULT:    -3.480      1.835      2.614
REMARK INTER + INTRA:          -3.982
REMARK INTER:                  -4.006
REMARK INTRA:                   0.023
REMARK UNBOUND:                 0.007
REMARK SMILES CC(C)[C@@H]([NH3+])C(=O)[O-]
REMARK SMILES IDX 4 1 5 2 6 6 7 7 8 8 2 9 1 10 3 11
REMARK H PARENT 5 3 5 4 5 5
REMARK Flexibility Score: inf
ROOT
ATOM      1  C   UNL     1      18.769  30.710  44.284  1.00  0.00     0.230 C 
ENDROOT
BRANCH   1   2
ATOM      2  N   UNL     1      18.717  31.948  45.076  1.00  0.00    -0.350 N 
ATOM      3  H   UNL     1      18.078  31.832  45.894  1.00  0.00     0.345 HD
ATOM      4  H   UNL     1      18.337  32.723  44.485  1.00  0.00     0.345 HD
ATOM      5  H   UNL     1      19.666  32.226  45.414  1.00  0.00     0.345 HD
ENDBRANCH   1   2
BRANCH   1   6
ATOM      6  C   UNL     1      17.764  30.754  43.158  1.00  0.00     0.099 C 
ATOM      7  O   UNL     1      17.259  31.854  42.811  1.00  0.00    -0.544 OA
ATOM      8  O   UNL     1      17.353  29.586  42.528  1.00  0.00    -0.544 OA
ENDBRANCH   1   6
BRANCH   1   9
ATOM      9  C   UNL     1      20.196  30.390  43.742  1.00  0.00     0.047 C 
ATOM     10  C   UNL     1      20.469  28.886  43.579  1.00  0.00     0.014 C 
ATOM     11  C   UNL     1      20.487  31.128  42.427  1.00  0.00     0.014 C 
ENDBRANCH   1   9
TORSDOF 3
ENDMDL
MODEL 6
REMARK VINA RESULT:    -3.474      2.678      3.153
REMARK INTER + INTRA:          -3.975
REMARK INTER:                  -4.031
REMARK INTRA:                   0.056
REMARK UNBOUND:                 0.007
REMARK SMILES CC(C)[C@@H]([NH3+])C(=O)[O-]
REMARK SMILES IDX 4 1 5 2 6 6 7 7 8 8 2 9 1 10 3 11
REMARK H PARENT 5 3 5 4 5 5
REMARK Flexibility Score: inf
ROOT
ATOM      1  C   UNL     1      19.881  30.119  44.306  1.00  0.00     0.230 C 
ENDROOT
BRANCH   1   2
ATOM      2  N   UNL     1      20.405  28.804  44.706  1.00  0.00    -0.350 N 
ATOM      3  H   UNL     1      20.851  28.325  43.892  1.00  0.00     0.345 HD
ATOM      4  H   UNL     1      19.616  28.201  45.034  1.00  0.00     0.345 HD
ATOM      5  H   UNL     1      21.100  28.889  45.482  1.00  0.00     0.345 HD
ENDBRANCH   1   2
BRANCH   1   6
ATOM      6  C   UNL     1      20.518  30.577  43.016  1.00  0.00     0.099 C 
ATOM      7  O   UNL     1      21.200  29.770  42.332  1.00  0.00    -0.544 OA
ATOM      8  O   UNL     1      20.398  31.896  42.595  1.00  0.00    -0.544 OA
ENDBRANCH   1   6
BRANCH   1   9
ATOM      9  C   UNL     1      18.326  30.150  44.199  1.00  0.00     0.047 C 
ATOM     10  C   UNL     1      17.700  31.455  44.716  1.00  0.00     0.014 C 
ATOM     11  C   UNL     1      17.844  29.860  42.770  1.00  0.00     0.014 C 
ENDBRANCH   1   9
TORSDOF 3
ENDMDL
MODEL 7
REMARK VINA RESULT:    -3.385      2.334      3.004
REMARK INTER + INTRA:          -3.873
REMARK INTER:                  -3.907
REMARK INTRA:                   0.034
REMARK UNBOUND:                 0.007
REMARK SMILES CC(C)[C@@H]([NH3+])C(=O)[O-]
REMARK SMILES IDX 4 1 5 2 6 6 7 7 8 8 2 9 1 10 3 11
REMARK H PARENT 5 3 5 4 5 5
REMARK Flexibility Score: inf
ROOT
ATOM      1  C   UNL     1      18.670  32.001  43.653  1.00  0.00     0.230 C 
ENDROOT
BRANCH   1   2
ATOM      2  N   UNL     1      18.578  31.803  45.108  1.00  0.00    -0.350 N 
ATOM      3  H   UNL     1      19.410  32.216  45.585  1.00  0.00     0.345 HD
ATOM      4  H   UNL     1      18.570  30.779  45.319  1.00  0.00     0.345 HD
ATOM      5  H   UNL     1      17.707  32.228  45.497  1.00  0.00     0.345 HD
ENDBRANCH   1   2
BRANCH   1   6
ATOM      6  C   UNL     1      19.907  31.335  43.100  1.00  0.00     0.099 C 
ATOM      7  O   UNL     1      20.456  30.400  43.741  1.00  0.00    -0.544 OA
ATOM      8  O   UNL     1      20.478  31.774  41.911  1.00  0.00    -0.544 OA
ENDBRANCH   1   6
BRANCH   1   9
ATOM      9  C   UNL     1      17.396  31.524  42.890  1.00  0.00     0.047 C 
ATOM     10  C   UNL     1      17.081  32.359  41.638  1.00  0.00     0.014 C 
ATOM     11  C   UNL     1      17.468  30.034  42.529  1.00  0.00     0.014 C 
ENDBRANCH   1   9
TORSDOF 3
ENDMDL
MODEL 8
REMARK VINA RESULT:    -3.297     21.230     22.243
REMARK INTER + INTRA:          -3.772
REMARK INTER:                  -3.745
REMARK INTRA:                  -0.028
REMARK UNBOUND:                 0.007
REMARK SMILES CC(C)[C@@H]([NH3+])C(=O)[O-]
REMARK SMILES IDX 4 1 5 2 6 6 7 7 8 8 2 9 1 10 3 11
REMARK H PARENT 5 3 5 4 5 5
REMARK Flexibility Score: inf
ROOT
ATOM      1  C   UNL     1      16.628  46.169  26.294  1.00  0.00     0.230 C 
ENDROOT
BRANCH   1   2
ATOM      2  N   UNL     1      16.695  46.519  27.721  1.00  0.00    -0.350 N 
ATOM      3  H   UNL     1      16.374  47.501  27.872  1.00  0.00     0.345 HD
ATOM      4  H   UNL     1      17.687  46.457  28.048  1.00  0.00     0.345 HD
ATOM      5  H   UNL     1      16.116  45.871  28.301  1.00  0.00     0.345 HD
ENDBRANCH   1   2
BRANCH   1   6
ATOM      6  C   UNL     1      17.867  46.639  25.570  1.00  0.00     0.099 C 
ATOM      7  O   UNL     1      18.538  45.825  24.881  1.00  0.00    -0.544 OA
ATOM      8  O   UNL     1      18.305  47.952  25.691  1.00  0.00    -0.544 OA
ENDBRANCH   1   6
BRANCH   1   9
ATOM      9  C   UNL     1      16.385  44.649  26.048  1.00  0.00     0.047 C 
ATOM     10  C   UNL     1      15.905  43.894  27.297  1.00  0.00     0.014 C 
ATOM     11  C   UNL     1      15.422  44.405  24.877  1.00  0.00     0.014 C 
ENDBRANCH   1   9
TORSDOF 3
ENDMDL
MODEL 9
REMARK VINA RESULT:    -3.224     20.915     21.801
REMARK INTER + INTRA:          -3.688
REMARK INTER:                  -3.697
REMARK INTRA:                   0.009
REMARK UNBOUND:                 0.007
REMARK SMILES CC(C)[C@@H]([NH3+])C(=O)[O-]
REMARK SMILES IDX 4 1 5 2 6 6 7 7 8 8 2 9 1 10 3 11
REMARK H PARENT 5 3 5 4 5 5
REMARK Flexibility Score: inf
ROOT
ATOM      1  C   UNL     1      17.113  45.557  27.129  1.00  0.00     0.230 C 
ENDROOT
BRANCH   1   2
ATOM      2  N   UNL     1      17.441  46.888  27.663  1.00  0.00    -0.350 N 
ATOM      3  H   UNL     1      16.826  47.117  28.475  1.00  0.00     0.345 HD
ATOM      4  H   UNL     1      17.272  47.609  26.925  1.00  0.00     0.345 HD
ATOM      5  H   UNL     1      18.442  46.945  27.959  1.00  0.00     0.345 HD
ENDBRANCH   1   2
BRANCH   1   6
ATOM      6  C   UNL     1      15.626  45.308  27.190  1.00  0.00     0.099 C 
ATOM      7  O   UNL     1      14.825  46.193  26.786  1.00  0.00    -0.544 OA
ATOM      8  O   UNL     1      15.124  44.130  27.730  1.00  0.00    -0.544 OA
ENDBRANCH   1   6
BRANCH   1   9
ATOM      9  C   UNL     1      17.656  45.327  25.685  1.00  0.00     0.047 C 
ATOM     10  C   UNL     1      16.887  44.250  24.904  1.00  0.00     0.014 C 
ATOM     11  C   UNL     1      17.707  46.633  24.878  1.00  0.00     0.014 C 
ENDBRANCH   1   9
TORSDOF 3
ENDMDL
