MODEL 1
REMARK VINA RESULT:    -8.033      0.000      0.000
REMARK INTER + INTRA:         -13.972
REMARK INTER:                 -13.198
REMARK INTRA:                  -0.773
REMARK UNBOUND:                -0.773
REMARK SMILES C[C@H]1O[C@H](OC[C@H]2O[C@H](Oc3c(-c4ccc(O)c(O)c4)oc4cc(O)cc(O)c4c3=O)[C@@H](O)[C@@H](O)[C@@H]2O)[C@@H](O)[C@H](O)[C@H]1O
REMARK SMILES IDX 7 1 36 2 34 3 32 4 9 5 8 6 6 7 5 8 4 9 1 10 2 11 42 12 3 13
REMARK SMILES IDX 40 14 38 15 43 16 41 18 39 20 37 22 35 24 10 26 11 27 12 28
REMARK SMILES IDX 30 29 21 30 29 31 31 32 22 33 27 34 23 35 26 36 24 37 13 38
REMARK SMILES IDX 20 39 14 40 18 41 15 42 16 43 19 44 17 46 28 48 25 50 33 52
REMARK H PARENT 43 17 41 19 39 21 37 23 35 25 19 45 17 47 28 49 25 51 33 53
REMARK Flexibility Score: inf
ROOT
ATOM      1  C   UNL     1      -1.542  -1.272  23.707  1.00  0.00     0.180 C 
ATOM      2  C   UNL     1      -2.591  -0.866  24.769  1.00  0.00     0.177 C 
ATOM      3  C   UNL     1      -3.867  -0.379  24.069  1.00  0.00     0.180 C 
ATOM      4  C   UNL     1      -4.340  -1.417  23.033  1.00  0.00     0.214 C 
ATOM      5  C   UNL     1      -3.177  -1.803  22.104  1.00  0.00     0.339 C 
ATOM      6  O   UNL     1      -2.062  -2.273  22.842  1.00  0.00    -0.332 OA
ENDROOT
BRANCH   1   7
ATOM      7  C   UNL     1      -0.276  -1.824  24.368  1.00  0.00     0.198 C 
BRANCH   7   8
ATOM      8  O   UNL     1       0.157  -2.964  23.654  1.00  0.00    -0.347 OA
BRANCH   8   9
ATOM      9  C   UNL     1       1.525  -2.853  23.282  1.00  0.00     0.281 C 
ATOM     10  C   UNL     1       2.991  -3.921  26.491  1.00  0.00     0.041 C 
ATOM     11  C   UNL     1       2.215  -4.058  25.179  1.00  0.00     0.150 C 
ATOM     12  C   UNL     1       2.721  -5.262  24.359  1.00  0.00     0.174 C 
ATOM     13  O   UNL     1       2.347  -2.852  24.441  1.00  0.00    -0.344 OA
ATOM     14  C   UNL     1       1.934  -5.356  23.038  1.00  0.00     0.179 C 
ATOM     15  C   UNL     1       1.926  -3.992  22.314  1.00  0.00     0.202 C 
BRANCH  12  16
ATOM     16  O   UNL     1       4.095  -5.118  24.096  1.00  0.00    -0.388 OA
ATOM     17  H   UNL     1       4.312  -5.740  23.352  1.00  0.00     0.211 HD
ENDBRANCH  12  16
BRANCH  14  18
ATOM     18  O   UNL     1       0.618  -5.770  23.308  1.00  0.00    -0.387 OA
ATOM     19  H   UNL     1       0.549  -5.891  24.291  1.00  0.00     0.211 HD
ENDBRANCH  14  18
BRANCH  15  20
ATOM     20  O   UNL     1       3.199  -3.714  21.786  1.00  0.00    -0.385 OA
ATOM     21  H   UNL     1       3.060  -3.389  20.858  1.00  0.00     0.211 HD
ENDBRANCH  15  20
ENDBRANCH   8   9
ENDBRANCH   7   8
ENDBRANCH   1   7
BRANCH   2  22
ATOM     22  O   UNL     1      -2.091   0.177  25.570  1.00  0.00    -0.387 OA
ATOM     23  H   UNL     1      -1.361  -0.204  26.126  1.00  0.00     0.211 HD
ENDBRANCH   2  22
BRANCH   3  24
ATOM     24  O   UNL     1      -4.868  -0.143  25.023  1.00  0.00    -0.387 OA
ATOM     25  H   UNL     1      -5.376   0.652  24.714  1.00  0.00     0.211 HD
ENDBRANCH   3  24
BRANCH   5  26
ATOM     26  O   UNL     1      -2.812  -0.689  21.284  1.00  0.00    -0.454 OA
BRANCH  26  27
ATOM     27  C   UNL     1      -3.435  -0.381  20.067  1.00  0.00     0.214 A 
ATOM     28  C   UNL     1      -2.821  -0.742  18.854  1.00  0.00     0.180 A 
ATOM     29  C   UNL     1      -4.668   0.289  20.030  1.00  0.00     0.239 A 
ATOM     30  O   UNL     1      -3.380  -0.396  17.700  1.00  0.00    -0.452 OA
ATOM     31  C   UNL     1      -5.237   0.629  18.785  1.00  0.00     0.111 A 
ATOM     32  O   UNL     1      -5.256   0.565  21.110  1.00  0.00    -0.285 OA
ATOM     33  C   UNL     1      -4.531   0.260  17.617  1.00  0.00     0.146 A 
ATOM     34  C   UNL     1      -6.468   1.317  18.660  1.00  0.00     0.134 A 
ATOM     35  C   UNL     1      -5.042   0.580  16.355  1.00  0.00     0.094 A 
ATOM     36  C   UNL     1      -6.965   1.627  17.386  1.00  0.00     0.093 A 
ATOM     37  C   UNL     1      -6.258   1.264  16.239  1.00  0.00     0.123 A 
BRANCH  28  38
ATOM     38  C   UNL     1      -1.531  -1.468  18.823  1.00  0.00     0.025 A 
ATOM     39  C   UNL     1      -1.183  -2.295  17.741  1.00  0.00     0.062 A 
ATOM     40  C   UNL     1      -0.625  -1.313  19.883  1.00  0.00     0.016 A 
ATOM     41  C   UNL     1       0.030  -2.997  17.740  1.00  0.00     0.158 A 
ATOM     42  C   UNL     1       0.589  -2.006  19.881  1.00  0.00     0.051 A 
ATOM     43  C   UNL     1       0.918  -2.853  18.819  1.00  0.00     0.157 A 
BRANCH  41  44
ATOM     44  O   UNL     1       0.354  -3.835  16.674  1.00  0.00    -0.504 OA
ATOM     45  H   UNL     1       0.991  -4.616  16.788  1.00  0.00     0.293 HD
ENDBRANCH  41  44
BRANCH  43  46
ATOM     46  O   UNL     1       2.132  -3.541  18.851  1.00  0.00    -0.504 OA
ATOM     47  H   UNL     1       2.236  -4.429  19.329  1.00  0.00     0.293 HD
ENDBRANCH  43  46
ENDBRANCH  28  38
BRANCH  34  48
ATOM     48  O   UNL     1      -7.198   1.696  19.788  1.00  0.00    -0.507 OA
ATOM     49  H   UNL     1      -7.856   1.066  20.232  1.00  0.00     0.293 HD
ENDBRANCH  34  48
BRANCH  37  50
ATOM     50  O   UNL     1      -6.772   1.585  14.984  1.00  0.00    -0.508 OA
ATOM     51  H   UNL     1      -6.169   1.874  14.223  1.00  0.00     0.293 HD
ENDBRANCH  37  50
ENDBRANCH  26  27
ENDBRANCH   5  26
BRANCH   4  52
ATOM     52  O   UNL     1      -4.816  -2.572  23.678  1.00  0.00    -0.384 OA
ATOM     53  H   UNL     1      -5.001  -2.322  24.620  1.00  0.00     0.211 HD
ENDBRANCH   4  52
TORSDOF 16
ENDMDL
MODEL 2
REMARK VINA RESULT:    -7.400      2.200      8.970
REMARK INTER + INTRA:         -12.931
REMARK INTER:                 -12.803
REMARK INTRA:                  -0.129
REMARK UNBOUND:                -0.773
REMARK SMILES C[C@H]1O[C@H](OC[C@H]2O[C@H](Oc3c(-c4ccc(O)c(O)c4)oc4cc(O)cc(O)c4c3=O)[C@@H](O)[C@@H](O)[C@@H]2O)[C@@H](O)[C@H](O)[C@H]1O
REMARK SMILES IDX 7 1 36 2 34 3 32 4 9 5 8 6 6 7 5 8 4 9 1 10 2 11 42 12 3 13
REMARK SMILES IDX 40 14 38 15 43 16 41 18 39 20 37 22 35 24 10 26 11 27 12 28
REMARK SMILES IDX 30 29 21 30 29 31 31 32 22 33 27 34 23 35 26 36 24 37 13 38
REMARK SMILES IDX 20 39 14 40 18 41 15 42 16 43 19 44 17 46 28 48 25 50 33 52
REMARK H PARENT 43 17 41 19 39 21 37 23 35 25 19 45 17 47 28 49 25 51 33 53
REMARK Flexibility Score: inf
ROOT
ATOM      1  C   UNL     1      -2.652  -0.983  23.205  1.00  0.00     0.180 C 
ATOM      2  C   UNL     1      -3.815  -1.999  23.109  1.00  0.00     0.177 C 
ATOM      3  C   UNL     1      -3.465  -3.256  23.917  1.00  0.00     0.180 C 
ATOM      4  C   UNL     1      -3.036  -2.873  25.347  1.00  0.00     0.214 C 
ATOM      5  C   UNL     1      -1.946  -1.789  25.297  1.00  0.00     0.339 C 
ATOM      6  O   UNL     1      -2.378  -0.657  24.561  1.00  0.00    -0.332 OA
ENDROOT
BRANCH   1   7
ATOM      7  C   UNL     1      -2.991   0.312  22.462  1.00  0.00     0.198 C 
BRANCH   7   8
ATOM      8  O   UNL     1      -4.117   0.088  21.637  1.00  0.00    -0.347 OA
BRANCH   8   9
ATOM      9  C   UNL     1      -4.132   0.980  20.529  1.00  0.00     0.281 C 
ATOM     10  C   UNL     1      -2.312  -1.169  18.150  1.00  0.00     0.041 C 
ATOM     11  C   UNL     1      -3.465  -0.725  19.054  1.00  0.00     0.150 C 
ATOM     12  C   UNL     1      -4.804  -0.731  18.289  1.00  0.00     0.174 C 
ATOM     13  O   UNL     1      -3.177   0.570  19.560  1.00  0.00    -0.344 OA
ATOM     14  C   UNL     1      -5.935  -0.259  19.221  1.00  0.00     0.179 C 
ATOM     15  C   UNL     1      -5.549   1.068  19.914  1.00  0.00     0.202 C 
BRANCH  12  16
ATOM     16  O   UNL     1      -4.716   0.113  17.166  1.00  0.00    -0.388 OA
ATOM     17  H   UNL     1      -5.575   0.026  16.674  1.00  0.00     0.211 HD
ENDBRANCH  12  16
BRANCH  14  18
ATOM     18  O   UNL     1      -6.190  -1.251  20.183  1.00  0.00    -0.387 OA
ATOM     19  H   UNL     1      -5.701  -0.989  21.005  1.00  0.00     0.211 HD
ENDBRANCH  14  18
BRANCH  15  20
ATOM     20  O   UNL     1      -5.579   2.125  18.987  1.00  0.00    -0.385 OA
ATOM     21  H   UNL     1      -6.491   2.516  19.028  1.00  0.00     0.211 HD
ENDBRANCH  15  20
ENDBRANCH   8   9
ENDBRANCH   7   8
ENDBRANCH   1   7
BRANCH   2  22
ATOM     22  O   UNL     1      -4.026  -2.370  21.768  1.00  0.00    -0.387 OA
ATOM     23  H   UNL     1      -3.334  -3.044  21.538  1.00  0.00     0.211 HD
ENDBRANCH   2  22
BRANCH   3  24
ATOM     24  O   UNL     1      -4.572  -4.119  23.949  1.00  0.00    -0.387 OA
ATOM     25  H   UNL     1      -4.518  -4.619  24.806  1.00  0.00     0.211 HD
ENDBRANCH   3  24
BRANCH   5  26
ATOM     26  O   UNL     1      -0.742  -2.327  24.744  1.00  0.00    -0.454 OA
BRANCH  26  27
ATOM     27  C   UNL     1       0.233  -2.990  25.500  1.00  0.00     0.214 A 
ATOM     28  C   UNL     1       1.312  -3.621  24.854  1.00  0.00     0.180 A 
ATOM     29  C   UNL     1       0.157  -3.044  26.900  1.00  0.00     0.239 A 
ATOM     30  O   UNL     1       2.204  -4.302  25.565  1.00  0.00    -0.452 OA
ATOM     31  C   UNL     1       1.129  -3.766  27.623  1.00  0.00     0.111 A 
ATOM     32  O   UNL     1      -0.772  -2.432  27.494  1.00  0.00    -0.285 OA
ATOM     33  C   UNL     1       2.157  -4.401  26.889  1.00  0.00     0.146 A 
ATOM     34  C   UNL     1       1.115  -3.882  29.034  1.00  0.00     0.134 A 
ATOM     35  C   UNL     1       3.142  -5.141  27.551  1.00  0.00     0.094 A 
ATOM     36  C   UNL     1       2.114  -4.626  29.680  1.00  0.00     0.093 A 
ATOM     37  C   UNL     1       3.121  -5.254  28.945  1.00  0.00     0.123 A 
BRANCH  28  38
ATOM     38  C   UNL     1       1.464  -3.586  23.382  1.00  0.00     0.025 A 
ATOM     39  C   UNL     1       0.585  -2.843  22.574  1.00  0.00     0.062 A 
ATOM     40  C   UNL     1       2.516  -4.289  22.778  1.00  0.00     0.016 A 
ATOM     41  C   UNL     1       0.726  -2.842  21.180  1.00  0.00     0.158 A 
ATOM     42  C   UNL     1       2.663  -4.285  21.388  1.00  0.00     0.051 A 
ATOM     43  C   UNL     1       1.769  -3.571  20.584  1.00  0.00     0.157 A 
BRANCH  41  44
ATOM     44  O   UNL     1      -0.166  -2.123  20.385  1.00  0.00    -0.504 OA
ATOM     45  H   UNL     1      -0.635  -1.293  20.732  1.00  0.00     0.293 HD
ENDBRANCH  41  44
BRANCH  43  46
ATOM     46  O   UNL     1       1.935  -3.595  19.199  1.00  0.00    -0.504 OA
ATOM     47  H   UNL     1       2.691  -4.105  18.756  1.00  0.00     0.293 HD
ENDBRANCH  43  46
ENDBRANCH  28  38
BRANCH  34  48
ATOM     48  O   UNL     1       0.120  -3.268  29.797  1.00  0.00    -0.507 OA
ATOM     49  H   UNL     1      -0.116  -2.289  29.674  1.00  0.00     0.293 HD
ENDBRANCH  34  48
BRANCH  37  50
ATOM     50  O   UNL     1       4.100  -5.989  29.611  1.00  0.00    -0.508 OA
ATOM     51  H   UNL     1       4.484  -6.839  29.216  1.00  0.00     0.293 HD
ENDBRANCH  37  50
ENDBRANCH  26  27
ENDBRANCH   5  26
BRANCH   4  52
ATOM     52  O   UNL     1      -4.135  -2.387  26.076  1.00  0.00    -0.384 OA
ATOM     53  H   UNL     1      -4.029  -1.402  26.137  1.00  0.00     0.211 HD
ENDBRANCH   4  52
TORSDOF 16
ENDMDL
MODEL 3
REMARK VINA RESULT:    -7.132      2.184      4.964
REMARK INTER + INTRA:         -12.492
REMARK INTER:                 -11.559
REMARK INTRA:                  -0.933
REMARK UNBOUND:                -0.773
REMARK SMILES C[C@H]1O[C@H](OC[C@H]2O[C@H](Oc3c(-c4ccc(O)c(O)c4)oc4cc(O)cc(O)c4c3=O)[C@@H](O)[C@@H](O)[C@@H]2O)[C@@H](O)[C@H](O)[C@H]1O
REMARK SMILES IDX 7 1 36 2 34 3 32 4 9 5 8 6 6 7 5 8 4 9 1 10 2 11 42 12 3 13
REMARK SMILES IDX 40 14 38 15 43 16 41 18 39 20 37 22 35 24 10 26 11 27 12 28
REMARK SMILES IDX 30 29 21 30 29 31 31 32 22 33 27 34 23 35 26 36 24 37 13 38
REMARK SMILES IDX 20 39 14 40 18 41 15 42 16 43 19 44 17 46 28 48 25 50 33 52
REMARK H PARENT 43 17 41 19 39 21 37 23 35 25 19 45 17 47 28 49 25 51 33 53
REMARK Flexibility Score: inf
ROOT
ATOM      1  C   UNL     1      -0.893  -1.747  24.666  1.00  0.00     0.180 C 
ATOM      2  C   UNL     1      -1.839  -2.526  25.609  1.00  0.00     0.177 C 
ATOM      3  C   UNL     1      -3.284  -2.396  25.107  1.00  0.00     0.180 C 
ATOM      4  C   UNL     1      -3.370  -2.778  23.617  1.00  0.00     0.214 C 
ATOM      5  C   UNL     1      -2.314  -2.003  22.812  1.00  0.00     0.339 C 
ATOM      6  O   UNL     1      -1.011  -2.217  23.330  1.00  0.00    -0.332 OA
ENDROOT
BRANCH   1   7
ATOM      7  C   UNL     1       0.568  -1.906  25.100  1.00  0.00     0.198 C 
BRANCH   7   8
ATOM      8  O   UNL     1       1.266  -2.633  24.109  1.00  0.00    -0.347 OA
BRANCH   8   9
ATOM      9  C   UNL     1       1.441  -3.991  24.491  1.00  0.00     0.281 C 
ATOM     10  C   UNL     1       2.622  -5.263  21.239  1.00  0.00     0.041 C 
ATOM     11  C   UNL     1       2.667  -4.458  22.540  1.00  0.00     0.150 C 
ATOM     12  C   UNL     1       3.984  -4.709  23.302  1.00  0.00     0.174 C 
ATOM     13  O   UNL     1       1.546  -4.813  23.336  1.00  0.00    -0.344 OA
ATOM     14  C   UNL     1       3.985  -3.902  24.614  1.00  0.00     0.179 C 
ATOM     15  C   UNL     1       2.680  -4.150  25.404  1.00  0.00     0.202 C 
BRANCH  12  16
ATOM     16  O   UNL     1       4.124  -6.082  23.577  1.00  0.00    -0.388 OA
ATOM     17  H   UNL     1       4.848  -6.420  22.989  1.00  0.00     0.211 HD
ENDBRANCH  12  16
BRANCH  14  18
ATOM     18  O   UNL     1       4.121  -2.534  24.319  1.00  0.00    -0.387 OA
ATOM     19  H   UNL     1       4.107  -2.050  25.184  1.00  0.00     0.211 HD
ENDBRANCH  14  18
BRANCH  15  20
ATOM     20  O   UNL     1       2.682  -5.446  25.948  1.00  0.00    -0.385 OA
ATOM     21  H   UNL     1       1.757  -5.796  25.859  1.00  0.00     0.211 HD
ENDBRANCH  15  20
ENDBRANCH   8   9
ENDBRANCH   7   8
ENDBRANCH   1   7
BRANCH   2  22
ATOM     22  O   UNL     1      -1.766  -2.002  26.913  1.00  0.00    -0.387 OA
ATOM     23  H   UNL     1      -0.913  -1.497  26.979  1.00  0.00     0.211 HD
ENDBRANCH   2  22
BRANCH   3  24
ATOM     24  O   UNL     1      -4.125  -3.215  25.876  1.00  0.00    -0.387 OA
ATOM     25  H   UNL     1      -4.724  -2.609  26.386  1.00  0.00     0.211 HD
ENDBRANCH   3  24
BRANCH   5  26
ATOM     26  O   UNL     1      -2.632  -0.609  22.795  1.00  0.00    -0.454 OA
BRANCH  26  27
ATOM     27  C   UNL     1      -3.476  -0.015  21.849  1.00  0.00     0.214 A 
ATOM     28  C   UNL     1      -4.556   0.781  22.273  1.00  0.00     0.180 A 
ATOM     29  C   UNL     1      -3.270  -0.199  20.473  1.00  0.00     0.239 A 
ATOM     30  O   UNL     1      -5.393   1.295  21.378  1.00  0.00    -0.452 OA
ATOM     31  C   UNL     1      -4.173   0.371  19.551  1.00  0.00     0.111 A 
ATOM     32  O   UNL     1      -2.272  -0.861  20.079  1.00  0.00    -0.285 OA
ATOM     33  C   UNL     1      -5.252   1.125  20.068  1.00  0.00     0.146 A 
ATOM     34  C   UNL     1      -4.046   0.220  18.150  1.00  0.00     0.134 A 
ATOM     35  C   UNL     1      -6.185   1.705  19.203  1.00  0.00     0.094 A 
ATOM     36  C   UNL     1      -4.990   0.812  17.298  1.00  0.00     0.093 A 
ATOM     37  C   UNL     1      -6.055   1.548  17.818  1.00  0.00     0.123 A 
BRANCH  28  38
ATOM     38  C   UNL     1      -4.818   1.033  23.708  1.00  0.00     0.025 A 
ATOM     39  C   UNL     1      -3.836   0.787  24.684  1.00  0.00     0.062 A 
ATOM     40  C   UNL     1      -6.061   1.547  24.104  1.00  0.00     0.016 A 
ATOM     41  C   UNL     1      -4.110   1.005  26.042  1.00  0.00     0.158 A 
ATOM     42  C   UNL     1      -6.335   1.771  25.456  1.00  0.00     0.051 A 
ATOM     43  C   UNL     1      -5.368   1.497  26.429  1.00  0.00     0.157 A 
BRANCH  41  44
ATOM     44  O   UNL     1      -3.139   0.734  27.005  1.00  0.00    -0.504 OA
ATOM     45  H   UNL     1      -2.190   0.487  26.746  1.00  0.00     0.293 HD
ENDBRANCH  41  44
BRANCH  43  46
ATOM     46  O   UNL     1      -5.674   1.720  27.771  1.00  0.00    -0.504 OA
ATOM     47  H   UNL     1      -6.600   1.549  28.149  1.00  0.00     0.293 HD
ENDBRANCH  43  46
ENDBRANCH  28  38
BRANCH  34  48
ATOM     48  O   UNL     1      -2.993  -0.513  17.598  1.00  0.00    -0.507 OA
ATOM     49  H   UNL     1      -2.696  -0.376  16.638  1.00  0.00     0.293 HD
ENDBRANCH  34  48
BRANCH  37  50
ATOM     50  O   UNL     1      -6.981   2.125  16.951  1.00  0.00    -0.508 OA
ATOM     51  H   UNL     1      -7.977   2.073  17.129  1.00  0.00     0.293 HD
ENDBRANCH  37  50
ENDBRANCH  26  27
ENDBRANCH   5  26
BRANCH   4  52
ATOM     52  O   UNL     1      -3.155  -4.157  23.450  1.00  0.00    -0.384 OA
ATOM     53  H   UNL     1      -2.287  -4.260  22.980  1.00  0.00     0.211 HD
ENDBRANCH   4  52
TORSDOF 16
ENDMDL
MODEL 4
REMARK VINA RESULT:    -7.012      2.643      6.104
REMARK INTER + INTRA:         -12.294
REMARK INTER:                 -11.673
REMARK INTRA:                  -0.621
REMARK UNBOUND:                -0.773
REMARK SMILES C[C@H]1O[C@H](OC[C@H]2O[C@H](Oc3c(-c4ccc(O)c(O)c4)oc4cc(O)cc(O)c4c3=O)[C@@H](O)[C@@H](O)[C@@H]2O)[C@@H](O)[C@H](O)[C@H]1O
REMARK SMILES IDX 7 1 36 2 34 3 32 4 9 5 8 6 6 7 5 8 4 9 1 10 2 11 42 12 3 13
REMARK SMILES IDX 40 14 38 15 43 16 41 18 39 20 37 22 35 24 10 26 11 27 12 28
REMARK SMILES IDX 30 29 21 30 29 31 31 32 22 33 27 34 23 35 26 36 24 37 13 38
REMARK SMILES IDX 20 39 14 40 18 41 15 42 16 43 19 44 17 46 28 48 25 50 33 52
REMARK H PARENT 43 17 41 19 39 21 37 23 35 25 19 45 17 47 28 49 25 51 33 53
REMARK Flexibility Score: inf
ROOT
ATOM      1  C   UNL     1      -0.743  -2.088  24.560  1.00  0.00     0.180 C 
ATOM      2  C   UNL     1      -1.525  -3.259  25.201  1.00  0.00     0.177 C 
ATOM      3  C   UNL     1      -3.017  -2.902  25.271  1.00  0.00     0.180 C 
ATOM      4  C   UNL     1      -3.523  -2.443  23.890  1.00  0.00     0.214 C 
ATOM      5  C   UNL     1      -2.602  -1.348  23.328  1.00  0.00     0.339 C 
ATOM      6  O   UNL     1      -1.255  -1.786  23.269  1.00  0.00    -0.332 OA
ENDROOT
BRANCH   1   7
ATOM      7  C   UNL     1       0.742  -2.433  24.416  1.00  0.00     0.198 C 
BRANCH   7   8
ATOM      8  O   UNL     1       0.931  -3.162  23.220  1.00  0.00    -0.347 OA
BRANCH   8   9
ATOM      9  C   UNL     1       1.122  -4.547  23.483  1.00  0.00     0.281 C 
ATOM     10  C   UNL     1       2.673  -5.443  20.261  1.00  0.00     0.041 C 
ATOM     11  C   UNL     1       2.555  -4.774  21.632  1.00  0.00     0.150 C 
ATOM     12  C   UNL     1       3.798  -5.062  22.499  1.00  0.00     0.174 C 
ATOM     13  O   UNL     1       1.375  -5.243  22.270  1.00  0.00    -0.344 OA
ATOM     14  C   UNL     1       3.635  -4.393  23.876  1.00  0.00     0.179 C 
ATOM     15  C   UNL     1       2.269  -4.760  24.499  1.00  0.00     0.202 C 
BRANCH  12  16
ATOM     16  O   UNL     1       3.965  -6.451  22.650  1.00  0.00    -0.388 OA
ATOM     17  H   UNL     1       3.600  -6.875  21.830  1.00  0.00     0.211 HD
ENDBRANCH  12  16
BRANCH  14  18
ATOM     18  O   UNL     1       3.744  -2.999  23.733  1.00  0.00    -0.387 OA
ATOM     19  H   UNL     1       3.517  -2.787  22.791  1.00  0.00     0.211 HD
ENDBRANCH  14  18
BRANCH  15  20
ATOM     20  O   UNL     1       2.270  -6.104  24.911  1.00  0.00    -0.385 OA
ATOM     21  H   UNL     1       1.319  -6.373  25.011  1.00  0.00     0.211 HD
ENDBRANCH  15  20
ENDBRANCH   8   9
ENDBRANCH   7   8
ENDBRANCH   1   7
BRANCH   2  22
ATOM     22  O   UNL     1      -1.058  -3.498  26.507  1.00  0.00    -0.387 OA
ATOM     23  H   UNL     1      -0.608  -2.668  26.814  1.00  0.00     0.211 HD
ENDBRANCH   2  22
BRANCH   3  24
ATOM     24  O   UNL     1      -3.747  -4.013  25.720  1.00  0.00    -0.387 OA
ATOM     25  H   UNL     1      -4.620  -3.990  25.246  1.00  0.00     0.211 HD
ENDBRANCH   3  24
BRANCH   5  26
ATOM     26  O   UNL     1      -2.717  -0.157  24.113  1.00  0.00    -0.454 OA
BRANCH  26  27
ATOM     27  C   UNL     1      -3.904   0.255  24.732  1.00  0.00     0.214 A 
ATOM     28  C   UNL     1      -4.952   0.783  23.957  1.00  0.00     0.180 A 
ATOM     29  C   UNL     1      -4.072   0.157  26.122  1.00  0.00     0.239 A 
ATOM     30  O   UNL     1      -6.054   1.231  24.549  1.00  0.00    -0.452 OA
ATOM     31  C   UNL     1      -5.260   0.632  26.715  1.00  0.00     0.111 A 
ATOM     32  O   UNL     1      -3.163  -0.369  26.820  1.00  0.00    -0.285 OA
ATOM     33  C   UNL     1      -6.245   1.182  25.862  1.00  0.00     0.146 A 
ATOM     34  C   UNL     1      -5.501   0.584  28.108  1.00  0.00     0.134 A 
ATOM     35  C   UNL     1      -7.439   1.679  26.395  1.00  0.00     0.094 A 
ATOM     36  C   UNL     1      -6.706   1.085  28.623  1.00  0.00     0.093 A 
ATOM     37  C   UNL     1      -7.670   1.632  27.774  1.00  0.00     0.123 A 
BRANCH  28  38
ATOM     38  C   UNL     1      -4.848   0.895  22.484  1.00  0.00     0.025 A 
ATOM     39  C   UNL     1      -5.626   0.091  21.632  1.00  0.00     0.062 A 
ATOM     40  C   UNL     1      -3.973   1.836  21.923  1.00  0.00     0.016 A 
ATOM     41  C   UNL     1      -5.495   0.191  20.241  1.00  0.00     0.158 A 
ATOM     42  C   UNL     1      -3.845   1.943  20.535  1.00  0.00     0.051 A 
ATOM     43  C   UNL     1      -4.597   1.121  19.690  1.00  0.00     0.157 A 
BRANCH  41  44
ATOM     44  O   UNL     1      -6.252  -0.628  19.405  1.00  0.00    -0.504 OA
ATOM     45  H   UNL     1      -7.266  -0.610  19.420  1.00  0.00     0.293 HD
ENDBRANCH  41  44
BRANCH  43  46
ATOM     46  O   UNL     1      -4.439   1.243  18.310  1.00  0.00    -0.504 OA
ATOM     47  H   UNL     1      -3.574   0.995  17.842  1.00  0.00     0.293 HD
ENDBRANCH  43  46
ENDBRANCH  28  38
BRANCH  34  48
ATOM     48  O   UNL     1      -4.556   0.046  28.984  1.00  0.00    -0.507 OA
ATOM     49  H   UNL     1      -4.542   0.292  29.967  1.00  0.00     0.293 HD
ENDBRANCH  34  48
BRANCH  37  50
ATOM     50  O   UNL     1      -8.858   2.125  28.310  1.00  0.00    -0.508 OA
ATOM     51  H   UNL     1      -9.288   2.971  27.956  1.00  0.00     0.293 HD
ENDBRANCH  37  50
ENDBRANCH  26  27
ENDBRANCH   5  26
BRANCH   4  52
ATOM     52  O   UNL     1      -3.552  -3.525  22.993  1.00  0.00    -0.384 OA
ATOM     53  H   UNL     1      -3.645  -4.350  23.537  1.00  0.00     0.211 HD
ENDBRANCH   4  52
TORSDOF 16
ENDMDL
MODEL 5
REMARK VINA RESULT:    -6.738      1.797      6.381
REMARK INTER + INTRA:         -11.845
REMARK INTER:                  -9.372
REMARK INTRA:                  -2.473
REMARK UNBOUND:                -0.773
REMARK SMILES C[C@H]1O[C@H](OC[C@H]2O[C@H](Oc3c(-c4ccc(O)c(O)c4)oc4cc(O)cc(O)c4c3=O)[C@@H](O)[C@@H](O)[C@@H]2O)[C@@H](O)[C@H](O)[C@H]1O
REMARK SMILES IDX 7 1 36 2 34 3 32 4 9 5 8 6 6 7 5 8 4 9 1 10 2 11 42 12 3 13
REMARK SMILES IDX 40 14 38 15 43 16 41 18 39 20 37 22 35 24 10 26 11 27 12 28
REMARK SMILES IDX 30 29 21 30 29 31 31 32 22 33 27 34 23 35 26 36 24 37 13 38
REMARK SMILES IDX 20 39 14 40 18 41 15 42 16 43 19 44 17 46 28 48 25 50 33 52
REMARK H PARENT 43 17 41 19 39 21 37 23 35 25 19 45 17 47 28 49 25 51 33 53
REMARK Flexibility Score: inf
ROOT
ATOM      1  C   UNL     1       1.198  -3.312  19.937  1.00  0.00     0.180 C 
ATOM      2  C   UNL     1       1.146  -3.367  18.392  1.00  0.00     0.177 C 
ATOM      3  C   UNL     1      -0.127  -2.666  17.897  1.00  0.00     0.180 C 
ATOM      4  C   UNL     1      -0.239  -1.259  18.514  1.00  0.00     0.214 C 
ATOM      5  C   UNL     1      -0.074  -1.338  20.041  1.00  0.00     0.339 C 
ATOM      6  O   UNL     1       1.146  -1.968  20.396  1.00  0.00    -0.332 OA
ENDROOT
BRANCH   1   7
ATOM      7  C   UNL     1       2.487  -3.947  20.467  1.00  0.00     0.198 C 
BRANCH   7   8
ATOM      8  O   UNL     1       2.460  -3.933  21.880  1.00  0.00    -0.347 OA
BRANCH   8   9
ATOM      9  C   UNL     1       3.522  -4.706  22.425  1.00  0.00     0.281 C 
ATOM     10  C   UNL     1       3.860  -2.887  25.613  1.00  0.00     0.041 C 
ATOM     11  C   UNL     1       3.197  -3.779  24.561  1.00  0.00     0.150 C 
ATOM     12  C   UNL     1       2.724  -5.110  25.181  1.00  0.00     0.174 C 
ATOM     13  O   UNL     1       4.123  -4.012  23.509  1.00  0.00    -0.344 OA
ATOM     14  C   UNL     1       2.083  -5.989  24.091  1.00  0.00     0.179 C 
ATOM     15  C   UNL     1       3.017  -6.101  22.865  1.00  0.00     0.202 C 
BRANCH  12  16
ATOM     16  O   UNL     1       3.814  -5.779  25.766  1.00  0.00    -0.388 OA
ATOM     17  H   UNL     1       3.471  -6.228  26.583  1.00  0.00     0.211 HD
ENDBRANCH  12  16
BRANCH  14  18
ATOM     18  O   UNL     1       0.848  -5.435  23.711  1.00  0.00    -0.387 OA
ATOM     19  H   UNL     1       0.412  -5.106  24.539  1.00  0.00     0.211 HD
ENDBRANCH  14  18
BRANCH  15  20
ATOM     20  O   UNL     1       4.125  -6.910  23.172  1.00  0.00    -0.385 OA
ATOM     21  H   UNL     1       4.892  -6.299  23.329  1.00  0.00     0.211 HD
ENDBRANCH  15  20
ENDBRANCH   8   9
ENDBRANCH   7   8
ENDBRANCH   1   7
BRANCH   2  22
ATOM     22  O   UNL     1       1.122  -4.704  17.955  1.00  0.00    -0.387 OA
ATOM     23  H   UNL     1       1.279  -4.694  16.973  1.00  0.00     0.211 HD
ENDBRANCH   2  22
BRANCH   3  24
ATOM     24  O   UNL     1      -0.108  -2.590  16.496  1.00  0.00    -0.387 OA
ATOM     25  H   UNL     1      -0.538  -3.419  16.160  1.00  0.00     0.211 HD
ENDBRANCH   3  24
BRANCH   5  26
ATOM     26  O   UNL     1      -1.188  -2.022  20.621  1.00  0.00    -0.454 OA
BRANCH  26  27
ATOM     27  C   UNL     1      -1.734  -1.700  21.871  1.00  0.00     0.214 A 
ATOM     28  C   UNL     1      -2.779  -0.763  21.959  1.00  0.00     0.180 A 
ATOM     29  C   UNL     1      -1.256  -2.295  23.049  1.00  0.00     0.239 A 
ATOM     30  O   UNL     1      -3.256  -0.411  23.148  1.00  0.00    -0.452 OA
ATOM     31  C   UNL     1      -1.794  -1.905  24.293  1.00  0.00     0.111 A 
ATOM     32  O   UNL     1      -0.360  -3.180  22.977  1.00  0.00    -0.285 OA
ATOM     33  C   UNL     1      -2.816  -0.928  24.290  1.00  0.00     0.146 A 
ATOM     34  C   UNL     1      -1.358  -2.444  25.527  1.00  0.00     0.134 A 
ATOM     35  C   UNL     1      -3.381  -0.495  25.494  1.00  0.00     0.094 A 
ATOM     36  C   UNL     1      -1.938  -1.999  26.724  1.00  0.00     0.093 A 
ATOM     37  C   UNL     1      -2.942  -1.029  26.710  1.00  0.00     0.123 A 
BRANCH  28  38
ATOM     38  C   UNL     1      -3.344  -0.114  20.753  1.00  0.00     0.025 A 
ATOM     39  C   UNL     1      -4.048  -0.854  19.787  1.00  0.00     0.062 A 
ATOM     40  C   UNL     1      -3.194   1.269  20.578  1.00  0.00     0.016 A 
ATOM     41  C   UNL     1      -4.551  -0.229  18.638  1.00  0.00     0.158 A 
ATOM     42  C   UNL     1      -3.701   1.896  19.437  1.00  0.00     0.051 A 
ATOM     43  C   UNL     1      -4.374   1.154  18.462  1.00  0.00     0.157 A 
BRANCH  41  44
ATOM     44  O   UNL     1      -5.226  -0.975  17.673  1.00  0.00    -0.504 OA
ATOM     45  H   UNL     1      -6.132  -0.689  17.319  1.00  0.00     0.293 HD
ENDBRANCH  41  44
BRANCH  43  46
ATOM     46  O   UNL     1      -4.859   1.806  17.328  1.00  0.00    -0.504 OA
ATOM     47  H   UNL     1      -5.310   1.305  16.570  1.00  0.00     0.293 HD
ENDBRANCH  43  46
ENDBRANCH  28  38
BRANCH  34  48
ATOM     48  O   UNL     1      -0.354  -3.413  25.574  1.00  0.00    -0.507 OA
ATOM     49  H   UNL     1       0.025  -3.744  26.454  1.00  0.00     0.293 HD
ENDBRANCH  34  48
BRANCH  37  50
ATOM     50  O   UNL     1      -3.501  -0.602  27.913  1.00  0.00    -0.508 OA
ATOM     51  H   UNL     1      -3.267  -1.046  28.793  1.00  0.00     0.293 HD
ENDBRANCH  37  50
ENDBRANCH  26  27
ENDBRANCH   5  26
BRANCH   4  52
ATOM     52  O   UNL     1       0.752  -0.411  17.988  1.00  0.00    -0.384 OA
ATOM     53  H   UNL     1       1.484  -0.993  17.655  1.00  0.00     0.211 HD
ENDBRANCH   4  52
TORSDOF 16
ENDMDL
MODEL 6
REMARK VINA RESULT:    -6.696      1.392      1.997
REMARK INTER + INTRA:         -11.775
REMARK INTER:                 -11.178
REMARK INTRA:                  -0.598
REMARK UNBOUND:                -0.773
REMARK SMILES C[C@H]1O[C@H](OC[C@H]2O[C@H](Oc3c(-c4ccc(O)c(O)c4)oc4cc(O)cc(O)c4c3=O)[C@@H](O)[C@@H](O)[C@@H]2O)[C@@H](O)[C@H](O)[C@H]1O
REMARK SMILES IDX 7 1 36 2 34 3 32 4 9 5 8 6 6 7 5 8 4 9 1 10 2 11 42 12 3 13
REMARK SMILES IDX 40 14 38 15 43 16 41 18 39 20 37 22 35 24 10 26 11 27 12 28
REMARK SMILES IDX 30 29 21 30 29 31 31 32 22 33 27 34 23 35 26 36 24 37 13 38
REMARK SMILES IDX 20 39 14 40 18 41 15 42 16 43 19 44 17 46 28 48 25 50 33 52
REMARK H PARENT 43 17 41 19 39 21 37 23 35 25 19 45 17 47 28 49 25 51 33 53
REMARK Flexibility Score: inf
ROOT
ATOM      1  C   UNL     1      -0.893  -1.662  23.652  1.00  0.00     0.180 C 
ATOM      2  C   UNL     1      -1.687  -1.205  24.899  1.00  0.00     0.177 C 
ATOM      3  C   UNL     1      -2.996  -0.537  24.457  1.00  0.00     0.180 C 
ATOM      4  C   UNL     1      -3.762  -1.452  23.481  1.00  0.00     0.214 C 
ATOM      5  C   UNL     1      -2.831  -1.909  22.346  1.00  0.00     0.339 C 
ATOM      6  O   UNL     1      -1.670  -2.545  22.855  1.00  0.00    -0.332 OA
ENDROOT
BRANCH   1   7
ATOM      7  C   UNL     1       0.392  -2.391  24.056  1.00  0.00     0.198 C 
BRANCH   7   8
ATOM      8  O   UNL     1       0.306  -2.754  25.419  1.00  0.00    -0.347 OA
BRANCH   8   9
ATOM      9  C   UNL     1       1.467  -2.352  26.136  1.00  0.00     0.281 C 
ATOM     10  C   UNL     1       0.833  -4.284  29.211  1.00  0.00     0.041 C 
ATOM     11  C   UNL     1       1.157  -4.049  27.733  1.00  0.00     0.150 C 
ATOM     12  C   UNL     1       2.426  -4.819  27.315  1.00  0.00     0.174 C 
ATOM     13  O   UNL     1       1.317  -2.655  27.516  1.00  0.00    -0.344 OA
ATOM     14  C   UNL     1       2.733  -4.543  25.832  1.00  0.00     0.179 C 
ATOM     15  C   UNL     1       2.733  -3.023  25.552  1.00  0.00     0.202 C 
BRANCH  12  16
ATOM     16  O   UNL     1       3.512  -4.424  28.117  1.00  0.00    -0.388 OA
ATOM     17  H   UNL     1       4.178  -4.003  27.513  1.00  0.00     0.211 HD
ENDBRANCH  12  16
BRANCH  14  18
ATOM     18  O   UNL     1       1.773  -5.184  25.029  1.00  0.00    -0.387 OA
ATOM     19  H   UNL     1       2.104  -6.104  24.863  1.00  0.00     0.211 HD
ENDBRANCH  14  18
BRANCH  15  20
ATOM     20  O   UNL     1       3.870  -2.425  26.123  1.00  0.00    -0.385 OA
ATOM     21  H   UNL     1       4.640  -2.660  25.541  1.00  0.00     0.211 HD
ENDBRANCH  15  20
ENDBRANCH   8   9
ENDBRANCH   7   8
ENDBRANCH   1   7
BRANCH   2  22
ATOM     22  O   UNL     1      -0.935  -0.275  25.640  1.00  0.00    -0.387 OA
ATOM     23  H   UNL     1      -1.513   0.046  26.381  1.00  0.00     0.211 HD
ENDBRANCH   2  22
BRANCH   3  24
ATOM     24  O   UNL     1      -3.782  -0.249  25.583  1.00  0.00    -0.387 OA
ATOM     25  H   UNL     1      -4.720  -0.175  25.264  1.00  0.00     0.211 HD
ENDBRANCH   3  24
BRANCH   5  26
ATOM     26  O   UNL     1      -2.481  -0.796  21.519  1.00  0.00    -0.454 OA
BRANCH  26  27
ATOM     27  C   UNL     1      -3.183  -0.435  20.362  1.00  0.00     0.214 A 
ATOM     28  C   UNL     1      -2.681  -0.792  19.097  1.00  0.00     0.180 A 
ATOM     29  C   UNL     1      -4.386   0.284  20.435  1.00  0.00     0.239 A 
ATOM     30  O   UNL     1      -3.314  -0.396  17.997  1.00  0.00    -0.452 OA
ATOM     31  C   UNL     1      -5.036   0.677  19.247  1.00  0.00     0.111 A 
ATOM     32  O   UNL     1      -4.876   0.558  21.564  1.00  0.00    -0.285 OA
ATOM     33  C   UNL     1      -4.440   0.307  18.019  1.00  0.00     0.146 A 
ATOM     34  C   UNL     1      -6.243   1.416  19.233  1.00  0.00     0.134 A 
ATOM     35  C   UNL     1      -5.034   0.677  16.808  1.00  0.00     0.094 A 
ATOM     36  C   UNL     1      -6.824   1.776  18.009  1.00  0.00     0.093 A 
ATOM     37  C   UNL     1      -6.224   1.412  16.802  1.00  0.00     0.123 A 
BRANCH  28  38
ATOM     38  C   UNL     1      -1.429  -1.568  18.949  1.00  0.00     0.025 A 
ATOM     39  C   UNL     1      -0.463  -1.599  19.971  1.00  0.00     0.062 A 
ATOM     40  C   UNL     1      -1.206  -2.304  17.777  1.00  0.00     0.016 A 
ATOM     41  C   UNL     1       0.729  -2.316  19.803  1.00  0.00     0.158 A 
ATOM     42  C   UNL     1      -0.021  -3.026  17.610  1.00  0.00     0.051 A 
ATOM     43  C   UNL     1       0.952  -3.030  18.614  1.00  0.00     0.157 A 
BRANCH  41  44
ATOM     44  O   UNL     1       1.692  -2.320  20.812  1.00  0.00    -0.504 OA
ATOM     45  H   UNL     1       1.437  -2.422  21.788  1.00  0.00     0.293 HD
ENDBRANCH  41  44
BRANCH  43  46
ATOM     46  O   UNL     1       2.129  -3.751  18.414  1.00  0.00    -0.504 OA
ATOM     47  H   UNL     1       2.445  -4.460  19.067  1.00  0.00     0.293 HD
ENDBRANCH  43  46
ENDBRANCH  28  38
BRANCH  34  48
ATOM     48  O   UNL     1      -6.866   1.797  20.423  1.00  0.00    -0.507 OA
ATOM     49  H   UNL     1      -6.607   1.389  21.314  1.00  0.00     0.293 HD
ENDBRANCH  34  48
BRANCH  37  50
ATOM     50  O   UNL     1      -6.821   1.783  15.598  1.00  0.00    -0.508 OA
ATOM     51  H   UNL     1      -6.992   1.109  14.862  1.00  0.00     0.293 HD
ENDBRANCH  37  50
ENDBRANCH  26  27
ENDBRANCH   5  26
BRANCH   4  52
ATOM     52  O   UNL     1      -4.256  -2.583  24.155  1.00  0.00    -0.384 OA
ATOM     53  H   UNL     1      -3.488  -2.998  24.626  1.00  0.00     0.211 HD
ENDBRANCH   4  52
TORSDOF 16
ENDMDL
MODEL 7
REMARK VINA RESULT:    -6.455      2.615      9.993
REMARK INTER + INTRA:         -11.380
REMARK INTER:                 -10.333
REMARK INTRA:                  -1.046
REMARK UNBOUND:                -0.773
REMARK SMILES C[C@H]1O[C@H](OC[C@H]2O[C@H](Oc3c(-c4ccc(O)c(O)c4)oc4cc(O)cc(O)c4c3=O)[C@@H](O)[C@@H](O)[C@@H]2O)[C@@H](O)[C@H](O)[C@H]1O
REMARK SMILES IDX 7 1 36 2 34 3 32 4 9 5 8 6 6 7 5 8 4 9 1 10 2 11 42 12 3 13
REMARK SMILES IDX 40 14 38 15 43 16 41 18 39 20 37 22 35 24 10 26 11 27 12 28
REMARK SMILES IDX 30 29 21 30 29 31 31 32 22 33 27 34 23 35 26 36 24 37 13 38
REMARK SMILES IDX 20 39 14 40 18 41 15 42 16 43 19 44 17 46 28 48 25 50 33 52
REMARK H PARENT 43 17 41 19 39 21 37 23 35 25 19 45 17 47 28 49 25 51 33 53
REMARK Flexibility Score: inf
ROOT
ATOM      1  C   UNL     1      -2.663  -0.231  23.277  1.00  0.00     0.180 C 
ATOM      2  C   UNL     1      -3.424  -1.524  22.900  1.00  0.00     0.177 C 
ATOM      3  C   UNL     1      -2.934  -2.682  23.781  1.00  0.00     0.180 C 
ATOM      4  C   UNL     1      -2.994  -2.286  25.269  1.00  0.00     0.214 C 
ATOM      5  C   UNL     1      -2.285  -0.939  25.486  1.00  0.00     0.339 C 
ATOM      6  O   UNL     1      -2.833   0.071  24.655  1.00  0.00    -0.332 OA
ENDROOT
BRANCH   1   7
ATOM      7  C   UNL     1      -3.171   0.962  22.462  1.00  0.00     0.198 C 
BRANCH   7   8
ATOM      8  O   UNL     1      -4.384   0.606  21.831  1.00  0.00    -0.347 OA
BRANCH   8   9
ATOM      9  C   UNL     1      -4.592   1.362  20.645  1.00  0.00     0.281 C 
ATOM     10  C   UNL     1      -2.494  -0.673  18.398  1.00  0.00     0.041 C 
ATOM     11  C   UNL     1      -3.679  -0.345  19.310  1.00  0.00     0.150 C 
ATOM     12  C   UNL     1      -5.018  -0.662  18.615  1.00  0.00     0.174 C 
ATOM     13  O   UNL     1      -3.610   1.027  19.674  1.00  0.00    -0.344 OA
ATOM     14  C   UNL     1      -6.186  -0.299  19.551  1.00  0.00     0.179 C 
ATOM     15  C   UNL     1      -6.021   1.139  20.093  1.00  0.00     0.202 C 
BRANCH  12  16
ATOM     16  O   UNL     1      -5.117   0.064  17.413  1.00  0.00    -0.388 OA
ATOM     17  H   UNL     1      -4.224   0.027  16.981  1.00  0.00     0.211 HD
ENDBRANCH  12  16
BRANCH  14  18
ATOM     18  O   UNL     1      -6.231  -1.216  20.616  1.00  0.00    -0.387 OA
ATOM     19  H   UNL     1      -7.160  -1.561  20.661  1.00  0.00     0.211 HD
ENDBRANCH  14  18
BRANCH  15  20
ATOM     20  O   UNL     1      -6.266   2.073  19.072  1.00  0.00    -0.385 OA
ATOM     21  H   UNL     1      -6.567   2.909  19.515  1.00  0.00     0.211 HD
ENDBRANCH  15  20
ENDBRANCH   8   9
ENDBRANCH   7   8
ENDBRANCH   1   7
BRANCH   2  22
ATOM     22  O   UNL     1      -3.187  -1.852  21.553  1.00  0.00    -0.387 OA
ATOM     23  H   UNL     1      -2.325  -2.344  21.518  1.00  0.00     0.211 HD
ENDBRANCH   2  22
BRANCH   3  24
ATOM     24  O   UNL     1      -3.718  -3.821  23.541  1.00  0.00    -0.387 OA
ATOM     25  H   UNL     1      -3.848  -4.267  24.419  1.00  0.00     0.211 HD
ENDBRANCH   3  24
BRANCH   5  26
ATOM     26  O   UNL     1      -0.880  -1.080  25.258  1.00  0.00    -0.454 OA
BRANCH  26  27
ATOM     27  C   UNL     1      -0.052  -1.930  26.002  1.00  0.00     0.214 A 
ATOM     28  C   UNL     1       0.005  -1.804  27.402  1.00  0.00     0.180 A 
ATOM     29  C   UNL     1       0.733  -2.912  25.378  1.00  0.00     0.239 A 
ATOM     30  O   UNL     1       0.836  -2.567  28.103  1.00  0.00    -0.452 OA
ATOM     31  C   UNL     1       1.595  -3.712  26.156  1.00  0.00     0.111 A 
ATOM     32  O   UNL     1       0.646  -3.074  24.130  1.00  0.00    -0.285 OA
ATOM     33  C   UNL     1       1.615  -3.490  27.552  1.00  0.00     0.146 A 
ATOM     34  C   UNL     1       2.429  -4.713  25.603  1.00  0.00     0.134 A 
ATOM     35  C   UNL     1       2.458  -4.247  28.374  1.00  0.00     0.094 A 
ATOM     36  C   UNL     1       3.266  -5.463  26.443  1.00  0.00     0.093 A 
ATOM     37  C   UNL     1       3.283  -5.232  27.820  1.00  0.00     0.123 A 
BRANCH  28  38
ATOM     38  C   UNL     1      -0.812  -0.803  28.125  1.00  0.00     0.025 A 
ATOM     39  C   UNL     1      -2.024  -1.157  28.743  1.00  0.00     0.062 A 
ATOM     40  C   UNL     1      -0.362   0.523  28.215  1.00  0.00     0.016 A 
ATOM     41  C   UNL     1      -2.799  -0.191  29.400  1.00  0.00     0.158 A 
ATOM     42  C   UNL     1      -1.129   1.487  28.875  1.00  0.00     0.051 A 
ATOM     43  C   UNL     1      -2.349   1.138  29.462  1.00  0.00     0.157 A 
BRANCH  41  44
ATOM     44  O   UNL     1      -4.012  -0.547  29.988  1.00  0.00    -0.504 OA
ATOM     45  H   UNL     1      -4.512   0.090  30.599  1.00  0.00     0.293 HD
ENDBRANCH  41  44
BRANCH  43  46
ATOM     46  O   UNL     1      -3.098   2.125  30.105  1.00  0.00    -0.504 OA
ATOM     47  H   UNL     1      -3.937   2.519  29.692  1.00  0.00     0.293 HD
ENDBRANCH  43  46
ENDBRANCH  28  38
BRANCH  34  48
ATOM     48  O   UNL     1       2.436  -4.966  24.230  1.00  0.00    -0.507 OA
ATOM     49  H   UNL     1       1.605  -4.844  23.663  1.00  0.00     0.293 HD
ENDBRANCH  34  48
BRANCH  37  50
ATOM     50  O   UNL     1       4.124  -5.989  28.633  1.00  0.00    -0.508 OA
ATOM     51  H   UNL     1       4.943  -6.455  28.260  1.00  0.00     0.293 HD
ENDBRANCH  37  50
ENDBRANCH  26  27
ENDBRANCH   5  26
BRANCH   4  52
ATOM     52  O   UNL     1      -4.330  -2.177  25.694  1.00  0.00    -0.384 OA
ATOM     53  H   UNL     1      -4.336  -1.560  26.472  1.00  0.00     0.211 HD
ENDBRANCH   4  52
TORSDOF 16
ENDMDL
MODEL 8
REMARK VINA RESULT:    -6.411      2.243      9.077
REMARK INTER + INTRA:         -11.307
REMARK INTER:                 -10.439
REMARK INTRA:                  -0.868
REMARK UNBOUND:                -0.773
REMARK SMILES C[C@H]1O[C@H](OC[C@H]2O[C@H](Oc3c(-c4ccc(O)c(O)c4)oc4cc(O)cc(O)c4c3=O)[C@@H](O)[C@@H](O)[C@@H]2O)[C@@H](O)[C@H](O)[C@H]1O
REMARK SMILES IDX 7 1 36 2 34 3 32 4 9 5 8 6 6 7 5 8 4 9 1 10 2 11 42 12 3 13
REMARK SMILES IDX 40 14 38 15 43 16 41 18 39 20 37 22 35 24 10 26 11 27 12 28
REMARK SMILES IDX 30 29 21 30 29 31 31 32 22 33 27 34 23 35 26 36 24 37 13 38
REMARK SMILES IDX 20 39 14 40 18 41 15 42 16 43 19 44 17 46 28 48 25 50 33 52
REMARK H PARENT 43 17 41 19 39 21 37 23 35 25 19 45 17 47 28 49 25 51 33 53
REMARK Flexibility Score: inf
ROOT
ATOM      1  C   UNL     1      -3.312  -1.927  23.827  1.00  0.00     0.180 C 
ATOM      2  C   UNL     1      -3.667  -0.928  24.953  1.00  0.00     0.177 C 
ATOM      3  C   UNL     1      -2.549  -0.922  26.005  1.00  0.00     0.180 C 
ATOM      4  C   UNL     1      -1.181  -0.703  25.331  1.00  0.00     0.214 C 
ATOM      5  C   UNL     1      -0.999  -1.696  24.172  1.00  0.00     0.339 C 
ATOM      6  O   UNL     1      -2.061  -1.599  23.238  1.00  0.00    -0.332 OA
ENDROOT
BRANCH   1   7
ATOM      7  C   UNL     1      -4.376  -1.914  22.726  1.00  0.00     0.198 C 
BRANCH   7   8
ATOM      8  O   UNL     1      -4.426  -0.625  22.148  1.00  0.00    -0.347 OA
BRANCH   8   9
ATOM      9  C   UNL     1      -4.503  -0.696  20.730  1.00  0.00     0.281 C 
ATOM     10  C   UNL     1      -7.217   1.756  20.269  1.00  0.00     0.041 C 
ATOM     11  C   UNL     1      -5.819   1.250  20.632  1.00  0.00     0.150 C 
ATOM     12  C   UNL     1      -4.728   2.078  19.922  1.00  0.00     0.174 C 
ATOM     13  O   UNL     1      -5.722  -0.122  20.279  1.00  0.00    -0.344 OA
ATOM     14  C   UNL     1      -3.338   1.529  20.293  1.00  0.00     0.179 C 
ATOM     15  C   UNL     1      -3.284  -0.001  20.077  1.00  0.00     0.202 C 
BRANCH  12  16
ATOM     16  O   UNL     1      -4.916   2.022  18.529  1.00  0.00    -0.388 OA
ATOM     17  H   UNL     1      -5.198   1.094  18.314  1.00  0.00     0.211 HD
ENDBRANCH  12  16
BRANCH  14  18
ATOM     18  O   UNL     1      -3.057   1.839  21.635  1.00  0.00    -0.387 OA
ATOM     19  H   UNL     1      -3.502   1.148  22.191  1.00  0.00     0.211 HD
ENDBRANCH  14  18
BRANCH  15  20
ATOM     20  O   UNL     1      -3.273  -0.296  18.703  1.00  0.00    -0.385 OA
ATOM     21  H   UNL     1      -2.647  -1.057  18.579  1.00  0.00     0.211 HD
ENDBRANCH  15  20
ENDBRANCH   8   9
ENDBRANCH   7   8
ENDBRANCH   1   7
BRANCH   2  22
ATOM     22  O   UNL     1      -4.870  -1.307  25.577  1.00  0.00    -0.387 OA
ATOM     23  H   UNL     1      -5.404  -1.809  24.906  1.00  0.00     0.211 HD
ENDBRANCH   2  22
BRANCH   3  24
ATOM     24  O   UNL     1      -2.799   0.082  26.953  1.00  0.00    -0.387 OA
ATOM     25  H   UNL     1      -3.598   0.580  26.637  1.00  0.00     0.211 HD
ENDBRANCH   3  24
BRANCH   5  26
ATOM     26  O   UNL     1      -0.887  -3.029  24.678  1.00  0.00    -0.454 OA
BRANCH  26  27
ATOM     27  C   UNL     1       0.128  -3.448  25.549  1.00  0.00     0.214 A 
ATOM     28  C   UNL     1       1.372  -3.853  25.032  1.00  0.00     0.180 A 
ATOM     29  C   UNL     1      -0.071  -3.477  26.938  1.00  0.00     0.239 A 
ATOM     30  O   UNL     1       2.313  -4.309  25.851  1.00  0.00    -0.452 OA
ATOM     31  C   UNL     1       0.956  -3.956  27.778  1.00  0.00     0.111 A 
ATOM     32  O   UNL     1      -1.161  -3.061  27.417  1.00  0.00    -0.285 OA
ATOM     33  C   UNL     1       2.160  -4.379  27.169  1.00  0.00     0.146 A 
ATOM     34  C   UNL     1       0.831  -4.032  29.185  1.00  0.00     0.134 A 
ATOM     35  C   UNL     1       3.210  -4.873  27.950  1.00  0.00     0.094 A 
ATOM     36  C   UNL     1       1.895  -4.529  29.953  1.00  0.00     0.093 A 
ATOM     37  C   UNL     1       3.077  -4.949  29.341  1.00  0.00     0.123 A 
BRANCH  28  38
ATOM     38  C   UNL     1       1.654  -3.828  23.579  1.00  0.00     0.025 A 
ATOM     39  C   UNL     1       1.725  -5.014  22.827  1.00  0.00     0.062 A 
ATOM     40  C   UNL     1       1.835  -2.597  22.931  1.00  0.00     0.016 A 
ATOM     41  C   UNL     1       2.021  -4.973  21.458  1.00  0.00     0.158 A 
ATOM     42  C   UNL     1       2.124  -2.553  21.564  1.00  0.00     0.051 A 
ATOM     43  C   UNL     1       2.225  -3.736  20.825  1.00  0.00     0.157 A 
BRANCH  41  44
ATOM     44  O   UNL     1       2.114  -6.156  20.726  1.00  0.00    -0.504 OA
ATOM     45  H   UNL     1       2.316  -6.151  19.732  1.00  0.00     0.293 HD
ENDBRANCH  41  44
BRANCH  43  46
ATOM     46  O   UNL     1       2.525  -3.661  19.464  1.00  0.00    -0.504 OA
ATOM     47  H   UNL     1       1.815  -3.470  18.765  1.00  0.00     0.293 HD
ENDBRANCH  43  46
ENDBRANCH  28  38
BRANCH  34  48
ATOM     48  O   UNL     1      -0.340  -3.623  29.827  1.00  0.00    -0.507 OA
ATOM     49  H   UNL     1      -0.988  -2.977  29.389  1.00  0.00     0.293 HD
ENDBRANCH  34  48
BRANCH  37  50
ATOM     50  O   UNL     1       4.119  -5.440  30.125  1.00  0.00    -0.508 OA
ATOM     51  H   UNL     1       4.890  -5.956  29.718  1.00  0.00     0.293 HD
ENDBRANCH  37  50
ENDBRANCH  26  27
ENDBRANCH   5  26
BRANCH   4  52
ATOM     52  O   UNL     1      -1.083   0.608  24.834  1.00  0.00    -0.384 OA
ATOM     53  H   UNL     1      -1.144   1.219  25.613  1.00  0.00     0.211 HD
ENDBRANCH   4  52
TORSDOF 16
ENDMDL
