MODEL 1
REMARK VINA RESULT:    -0.366      0.000      0.000
REMARK INTER + INTRA:          -0.773
REMARK INTER:                  -0.441
REMARK INTRA:                  -0.332
REMARK UNBOUND:                -0.332
REMARK SMILES O=c1c(O)c(-c2ccc(O)c(O)c2)oc2cc(O)cc(O)c12
REMARK SMILES IDX 5 1 3 2 2 3 1 4 22 5 20 6 19 7 17 8 16 9 15 10 14 11 6 12
REMARK SMILES IDX 7 13 8 14 9 15 13 16 11 17 10 18 12 20 4 22 21 24 18 26
REMARK H PARENT 10 19 12 21 4 23 21 25 18 27
REMARK Flexibility Score: inf
ROOT
ATOM      1  C   UNL     1      31.358  38.948  41.337  1.00  0.00     0.180 A 
ATOM      2  C   UNL     1      32.606  39.541  41.618  1.00  0.00     0.208 A 
ATOM      3  C   UNL     1      32.641  40.710  42.393  1.00  0.00     0.238 A 
ATOM      4  O   UNL     1      33.751  41.245  42.660  1.00  0.00    -0.285 OA
ATOM      5  C   UNL     1      31.434  41.277  42.856  1.00  0.00     0.111 A 
ATOM      6  C   UNL     1      31.383  42.455  43.638  1.00  0.00     0.134 A 
ATOM      7  C   UNL     1      30.142  42.962  44.052  1.00  0.00     0.093 A 
ATOM      8  C   UNL     1      28.956  42.315  43.700  1.00  0.00     0.123 A 
ATOM      9  C   UNL     1      29.000  41.150  42.927  1.00  0.00     0.094 A 
ATOM     10  C   UNL     1      30.227  40.629  42.506  1.00  0.00     0.146 A 
ATOM     11  O   UNL     1      30.241  39.519  41.777  1.00  0.00    -0.452 OA
ENDROOT
BRANCH   1  12
ATOM     12  C   UNL     1      31.241  37.704  40.542  1.00  0.00     0.025 A 
ATOM     13  C   UNL     1      31.284  36.438  41.151  1.00  0.00     0.016 A 
ATOM     14  C   UNL     1      31.146  35.279  40.384  1.00  0.00     0.051 A 
ATOM     15  C   UNL     1      30.950  35.365  39.002  1.00  0.00     0.157 A 
ATOM     16  C   UNL     1      31.022  37.788  39.157  1.00  0.00     0.062 A 
ATOM     17  C   UNL     1      30.885  36.625  38.385  1.00  0.00     0.158 A 
BRANCH  15  18
ATOM     18  O   UNL     1      30.817  34.190  38.263  1.00  0.00    -0.504 OA
ATOM     19  H   UNL     1      30.112  33.496  38.479  1.00  0.00     0.293 HD
ENDBRANCH  15  18
BRANCH  17  20
ATOM     20  O   UNL     1      30.682  36.718  37.009  1.00  0.00    -0.504 OA
ATOM     21  H   UNL     1      31.453  36.860  36.367  1.00  0.00     0.293 HD
ENDBRANCH  17  20
ENDBRANCH   1  12
BRANCH   2  22
ATOM     22  O   UNL     1      33.781  38.987  41.106  1.00  0.00    -0.502 OA
ATOM     23  H   UNL     1      34.629  38.912  41.656  1.00  0.00     0.293 HD
ENDBRANCH   2  22
BRANCH   6  24
ATOM     24  O   UNL     1      32.550  43.125  44.006  1.00  0.00    -0.507 OA
ATOM     25  H   UNL     1      33.468  42.765  43.770  1.00  0.00     0.293 HD
ENDBRANCH   6  24
BRANCH   8  26
ATOM     26  O   UNL     1      27.736  42.839  44.124  1.00  0.00    -0.508 OA
ATOM     27  H   UNL     1      27.070  43.230  43.466  1.00  0.00     0.293 HD
ENDBRANCH   8  26
TORSDOF 6
ENDMDL
MODEL 2
REMARK VINA RESULT:    -0.335      3.445      5.110
REMARK INTER + INTRA:          -0.736
REMARK INTER:                  -0.411
REMARK INTRA:                  -0.325
REMARK UNBOUND:                -0.332
REMARK SMILES O=c1c(O)c(-c2ccc(O)c(O)c2)oc2cc(O)cc(O)c12
REMARK SMILES IDX 5 1 3 2 2 3 1 4 22 5 20 6 19 7 17 8 16 9 15 10 14 11 6 12
REMARK SMILES IDX 7 13 8 14 9 15 13 16 11 17 10 18 12 20 4 22 21 24 18 26
REMARK H PARENT 10 19 12 21 4 23 21 25 18 27
REMARK Flexibility Score: inf
ROOT
ATOM      1  C   UNL     1      28.031  40.918  39.472  1.00  0.00     0.180 A 
ATOM      2  C   UNL     1      26.733  41.051  40.003  1.00  0.00     0.208 A 
ATOM      3  C   UNL     1      26.578  41.608  41.282  1.00  0.00     0.238 A 
ATOM      4  O   UNL     1      25.421  41.742  41.764  1.00  0.00    -0.285 OA
ATOM      5  C   UNL     1      27.718  42.000  42.015  1.00  0.00     0.111 A 
ATOM      6  C   UNL     1      27.648  42.564  43.311  1.00  0.00     0.134 A 
ATOM      7  C   UNL     1      28.829  42.921  43.978  1.00  0.00     0.093 A 
ATOM      8  C   UNL     1      30.075  42.724  43.378  1.00  0.00     0.123 A 
ATOM      9  C   UNL     1      30.150  42.167  42.097  1.00  0.00     0.094 A 
ATOM     10  C   UNL     1      28.984  41.807  41.415  1.00  0.00     0.146 A 
ATOM     11  O   UNL     1      29.083  41.285  40.197  1.00  0.00    -0.452 OA
ENDROOT
BRANCH   1  12
ATOM     12  C   UNL     1      28.274  40.358  38.122  1.00  0.00     0.025 A 
ATOM     13  C   UNL     1      28.450  38.978  37.922  1.00  0.00     0.016 A 
ATOM     14  C   UNL     1      28.654  38.470  36.636  1.00  0.00     0.051 A 
ATOM     15  C   UNL     1      28.669  39.328  35.532  1.00  0.00     0.157 A 
ATOM     16  C   UNL     1      28.269  41.214  37.009  1.00  0.00     0.062 A 
ATOM     17  C   UNL     1      28.474  40.706  35.717  1.00  0.00     0.158 A 
BRANCH  15  18
ATOM     18  O   UNL     1      28.876  38.791  34.261  1.00  0.00    -0.504 OA
ATOM     19  H   UNL     1      28.577  37.854  34.019  1.00  0.00     0.293 HD
ENDBRANCH  15  18
BRANCH  17  20
ATOM     20  O   UNL     1      28.481  41.565  34.620  1.00  0.00    -0.504 OA
ATOM     21  H   UNL     1      27.631  42.001  34.281  1.00  0.00     0.293 HD
ENDBRANCH  17  20
ENDBRANCH   1  12
BRANCH   2  22
ATOM     22  O   UNL     1      25.625  40.609  39.277  1.00  0.00    -0.502 OA
ATOM     23  H   UNL     1      25.658  39.786  38.685  1.00  0.00     0.293 HD
ENDBRANCH   2  22
BRANCH   6  24
ATOM     24  O   UNL     1      26.420  42.773  43.939  1.00  0.00    -0.507 OA
ATOM     25  H   UNL     1      25.584  42.275  43.653  1.00  0.00     0.293 HD
ENDBRANCH   6  24
BRANCH   8  26
ATOM     26  O   UNL     1      31.233  43.086  44.063  1.00  0.00    -0.508 OA
ATOM     27  H   UNL     1      32.133  43.124  43.598  1.00  0.00     0.293 HD
ENDBRANCH   8  26
TORSDOF 6
ENDMDL
MODEL 3
REMARK VINA RESULT:    -0.332      2.146      3.872
REMARK INTER + INTRA:          -0.733
REMARK INTER:                  -0.408
REMARK INTRA:                  -0.325
REMARK UNBOUND:                -0.332
REMARK SMILES O=c1c(O)c(-c2ccc(O)c(O)c2)oc2cc(O)cc(O)c12
REMARK SMILES IDX 5 1 3 2 2 3 1 4 22 5 20 6 19 7 17 8 16 9 15 10 14 11 6 12
REMARK SMILES IDX 7 13 8 14 9 15 13 16 11 17 10 18 12 20 4 22 21 24 18 26
REMARK H PARENT 10 19 12 21 4 23 21 25 18 27
REMARK Flexibility Score: inf
ROOT
ATOM      1  C   UNL     1      28.730  39.776  40.260  1.00  0.00     0.180 A 
ATOM      2  C   UNL     1      27.462  40.153  40.746  1.00  0.00     0.208 A 
ATOM      3  C   UNL     1      27.387  41.089  41.789  1.00  0.00     0.238 A 
ATOM      4  O   UNL     1      26.258  41.442  42.225  1.00  0.00    -0.285 OA
ATOM      5  C   UNL     1      28.574  41.615  42.341  1.00  0.00     0.111 A 
ATOM      6  C   UNL     1      28.584  42.558  43.396  1.00  0.00     0.134 A 
ATOM      7  C   UNL     1      29.808  43.027  43.897  1.00  0.00     0.093 A 
ATOM      8  C   UNL     1      31.017  42.571  43.366  1.00  0.00     0.123 A 
ATOM      9  C   UNL     1      31.012  41.640  42.323  1.00  0.00     0.094 A 
ATOM     10  C   UNL     1      29.803  41.162  41.809  1.00  0.00     0.146 A 
ATOM     11  O   UNL     1      29.827  40.281  40.815  1.00  0.00    -0.452 OA
ENDROOT
BRANCH   1  12
ATOM     12  C   UNL     1      28.890  38.809  39.150  1.00  0.00     0.025 A 
ATOM     13  C   UNL     1      28.985  37.428  39.389  1.00  0.00     0.016 A 
ATOM     14  C   UNL     1      29.111  36.533  38.324  1.00  0.00     0.051 A 
ATOM     15  C   UNL     1      29.129  37.000  37.006  1.00  0.00     0.157 A 
ATOM     16  C   UNL     1      28.886  39.274  37.824  1.00  0.00     0.062 A 
ATOM     17  C   UNL     1      29.013  38.376  36.753  1.00  0.00     0.158 A 
BRANCH  15  18
ATOM     18  O   UNL     1      29.257  36.082  35.964  1.00  0.00    -0.504 OA
ATOM     19  H   UNL     1      29.555  36.360  35.036  1.00  0.00     0.293 HD
ENDBRANCH  15  18
BRANCH  17  20
ATOM     20  O   UNL     1      29.023  38.848  35.441  1.00  0.00    -0.504 OA
ATOM     21  H   UNL     1      29.888  38.980  34.931  1.00  0.00     0.293 HD
ENDBRANCH  17  20
ENDBRANCH   1  12
BRANCH   2  22
ATOM     22  O   UNL     1      26.304  39.580  40.215  1.00  0.00    -0.502 OA
ATOM     23  H   UNL     1      26.218  39.342  39.233  1.00  0.00     0.293 HD
ENDBRANCH   2  22
BRANCH   6  24
ATOM     24  O   UNL     1      27.394  43.031  43.949  1.00  0.00    -0.507 OA
ATOM     25  H   UNL     1      26.578  43.217  43.378  1.00  0.00     0.293 HD
ENDBRANCH   6  24
BRANCH   8  26
ATOM     26  O   UNL     1      32.218  43.053  43.883  1.00  0.00    -0.508 OA
ATOM     27  H   UNL     1      32.405  44.047  43.951  1.00  0.00     0.293 HD
ENDBRANCH   8  26
TORSDOF 6
ENDMDL
MODEL 4
REMARK VINA RESULT:    -0.314      2.406      4.044
REMARK INTER + INTRA:          -0.711
REMARK INTER:                  -0.379
REMARK INTRA:                  -0.332
REMARK UNBOUND:                -0.332
REMARK SMILES O=c1c(O)c(-c2ccc(O)c(O)c2)oc2cc(O)cc(O)c12
REMARK SMILES IDX 5 1 3 2 2 3 1 4 22 5 20 6 19 7 17 8 16 9 15 10 14 11 6 12
REMARK SMILES IDX 7 13 8 14 9 15 13 16 11 17 10 18 12 20 4 22 21 24 18 26
REMARK H PARENT 10 19 12 21 4 23 21 25 18 27
REMARK Flexibility Score: inf
ROOT
ATOM      1  C   UNL     1      30.137  37.508  42.638  1.00  0.00     0.180 A 
ATOM      2  C   UNL     1      28.745  37.574  42.845  1.00  0.00     0.208 A 
ATOM      3  C   UNL     1      28.179  38.788  43.261  1.00  0.00     0.238 A 
ATOM      4  O   UNL     1      26.933  38.864  43.439  1.00  0.00    -0.285 OA
ATOM      5  C   UNL     1      29.011  39.906  43.484  1.00  0.00     0.111 A 
ATOM      6  C   UNL     1      28.520  41.164  43.908  1.00  0.00     0.134 A 
ATOM      7  C   UNL     1      29.414  42.225  44.116  1.00  0.00     0.093 A 
ATOM      8  C   UNL     1      30.784  42.053  43.910  1.00  0.00     0.123 A 
ATOM      9  C   UNL     1      31.275  40.813  43.490  1.00  0.00     0.094 A 
ATOM     10  C   UNL     1      30.400  39.743  43.276  1.00  0.00     0.146 A 
ATOM     11  O   UNL     1      30.892  38.577  42.872  1.00  0.00    -0.452 OA
ENDROOT
BRANCH   1  12
ATOM     12  C   UNL     1      30.806  36.268  42.181  1.00  0.00     0.025 A 
ATOM     13  C   UNL     1      30.973  35.987  40.814  1.00  0.00     0.016 A 
ATOM     14  C   UNL     1      31.629  34.822  40.407  1.00  0.00     0.051 A 
ATOM     15  C   UNL     1      32.139  33.930  41.354  1.00  0.00     0.157 A 
ATOM     16  C   UNL     1      31.338  35.380  43.130  1.00  0.00     0.062 A 
ATOM     17  C   UNL     1      31.996  34.210  42.723  1.00  0.00     0.158 A 
BRANCH  15  18
ATOM     18  O   UNL     1      32.787  32.775  40.917  1.00  0.00    -0.504 OA
ATOM     19  H   UNL     1      32.313  31.881  40.861  1.00  0.00     0.293 HD
ENDBRANCH  15  18
BRANCH  17  20
ATOM     20  O   UNL     1      32.509  33.328  43.673  1.00  0.00    -0.504 OA
ATOM     21  H   UNL     1      31.949  33.004  44.454  1.00  0.00     0.293 HD
ENDBRANCH  17  20
ENDBRANCH   1  12
BRANCH   2  22
ATOM     22  O   UNL     1      27.951  36.439  42.665  1.00  0.00    -0.502 OA
ATOM     23  H   UNL     1      27.040  36.341  43.100  1.00  0.00     0.293 HD
ENDBRANCH   2  22
BRANCH   6  24
ATOM     24  O   UNL     1      27.157  41.367  44.124  1.00  0.00    -0.507 OA
ATOM     25  H   UNL     1      26.486  41.337  43.365  1.00  0.00     0.293 HD
ENDBRANCH   6  24
BRANCH   8  26
ATOM     26  O   UNL     1      31.651  43.123  44.124  1.00  0.00    -0.508 OA
ATOM     27  H   UNL     1      32.403  43.068  44.802  1.00  0.00     0.293 HD
ENDBRANCH   8  26
TORSDOF 6
ENDMDL
MODEL 5
REMARK VINA RESULT:    -0.296      2.399      4.155
REMARK INTER + INTRA:          -0.689
REMARK INTER:                  -0.365
REMARK INTRA:                  -0.324
REMARK UNBOUND:                -0.332
REMARK SMILES O=c1c(O)c(-c2ccc(O)c(O)c2)oc2cc(O)cc(O)c12
REMARK SMILES IDX 5 1 3 2 2 3 1 4 22 5 20 6 19 7 17 8 16 9 15 10 14 11 6 12
REMARK SMILES IDX 7 13 8 14 9 15 13 16 11 17 10 18 12 20 4 22 21 24 18 26
REMARK H PARENT 10 19 12 21 4 23 21 25 18 27
REMARK Flexibility Score: inf
ROOT
ATOM      1  C   UNL     1      32.486  37.971  43.029  1.00  0.00     0.180 A 
ATOM      2  C   UNL     1      31.473  38.898  43.347  1.00  0.00     0.208 A 
ATOM      3  C   UNL     1      31.831  40.229  43.608  1.00  0.00     0.238 A 
ATOM      4  O   UNL     1      30.933  41.071  43.882  1.00  0.00    -0.285 OA
ATOM      5  C   UNL     1      33.189  40.608  43.568  1.00  0.00     0.111 A 
ATOM      6  C   UNL     1      33.633  41.927  43.823  1.00  0.00     0.134 A 
ATOM      7  C   UNL     1      35.003  42.222  43.773  1.00  0.00     0.093 A 
ATOM      8  C   UNL     1      35.936  41.226  43.475  1.00  0.00     0.123 A 
ATOM      9  C   UNL     1      35.503  39.921  43.222  1.00  0.00     0.094 A 
ATOM     10  C   UNL     1      34.142  39.607  43.265  1.00  0.00     0.146 A 
ATOM     11  O   UNL     1      33.758  38.360  43.016  1.00  0.00    -0.452 OA
ENDROOT
BRANCH   1  12
ATOM     12  C   UNL     1      32.186  36.554  42.723  1.00  0.00     0.025 A 
ATOM     13  C   UNL     1      32.102  35.586  43.739  1.00  0.00     0.016 A 
ATOM     14  C   UNL     1      31.794  34.259  43.428  1.00  0.00     0.051 A 
ATOM     15  C   UNL     1      31.551  33.882  42.104  1.00  0.00     0.157 A 
ATOM     16  C   UNL     1      31.920  36.175  41.397  1.00  0.00     0.062 A 
ATOM     17  C   UNL     1      31.611  34.843  41.083  1.00  0.00     0.158 A 
BRANCH  15  18
ATOM     18  O   UNL     1      31.246  32.549  41.826  1.00  0.00    -0.504 OA
ATOM     19  H   UNL     1      30.538  32.040  42.343  1.00  0.00     0.293 HD
ENDBRANCH  15  18
BRANCH  17  20
ATOM     20  O   UNL     1      31.362  34.475  39.762  1.00  0.00    -0.504 OA
ATOM     21  H   UNL     1      31.879  34.881  38.990  1.00  0.00     0.293 HD
ENDBRANCH  17  20
ENDBRANCH   1  12
BRANCH   2  22
ATOM     22  O   UNL     1      30.141  38.486  43.428  1.00  0.00    -0.502 OA
ATOM     23  H   UNL     1      29.415  39.074  43.822  1.00  0.00     0.293 HD
ENDBRANCH   2  22
BRANCH   6  24
ATOM     24  O   UNL     1      32.727  42.944  44.125  1.00  0.00    -0.507 OA
ATOM     25  H   UNL     1      31.832  42.750  44.559  1.00  0.00     0.293 HD
ENDBRANCH   6  24
BRANCH   8  26
ATOM     26  O   UNL     1      37.292  41.545  43.433  1.00  0.00    -0.508 OA
ATOM     27  H   UNL     1      37.610  42.468  43.159  1.00  0.00     0.293 HD
ENDBRANCH   8  26
TORSDOF 6
ENDMDL
MODEL 6
REMARK VINA RESULT:    -0.294      3.408      4.347
REMARK INTER + INTRA:          -0.687
REMARK INTER:                  -0.363
REMARK INTRA:                  -0.324
REMARK UNBOUND:                -0.332
REMARK SMILES O=c1c(O)c(-c2ccc(O)c(O)c2)oc2cc(O)cc(O)c12
REMARK SMILES IDX 5 1 3 2 2 3 1 4 22 5 20 6 19 7 17 8 16 9 15 10 14 11 6 12
REMARK SMILES IDX 7 13 8 14 9 15 13 16 11 17 10 18 12 20 4 22 21 24 18 26
REMARK H PARENT 10 19 12 21 4 23 21 25 18 27
REMARK Flexibility Score: inf
ROOT
ATOM      1  C   UNL     1      35.129  39.989  40.137  1.00  0.00     0.180 A 
ATOM      2  C   UNL     1      36.414  40.284  40.634  1.00  0.00     0.208 A 
ATOM      3  C   UNL     1      36.531  41.100  41.769  1.00  0.00     0.238 A 
ATOM      4  O   UNL     1      37.675  41.362  42.230  1.00  0.00    -0.285 OA
ATOM      5  C   UNL     1      35.369  41.623  42.375  1.00  0.00     0.111 A 
ATOM      6  C   UNL     1      35.402  42.456  43.519  1.00  0.00     0.134 A 
ATOM      7  C   UNL     1      34.202  42.944  44.057  1.00  0.00     0.093 A 
ATOM      8  C   UNL     1      32.975  42.617  43.476  1.00  0.00     0.123 A 
ATOM      9  C   UNL     1      32.937  41.793  42.347  1.00  0.00     0.094 A 
ATOM     10  C   UNL     1      34.122  41.296  41.796  1.00  0.00     0.146 A 
ATOM     11  O   UNL     1      34.057  40.512  40.726  1.00  0.00    -0.452 OA
ENDROOT
BRANCH   1  12
ATOM     12  C   UNL     1      34.923  39.120  38.956  1.00  0.00     0.025 A 
ATOM     13  C   UNL     1      34.888  39.650  37.654  1.00  0.00     0.016 A 
ATOM     14  C   UNL     1      34.717  38.808  36.553  1.00  0.00     0.051 A 
ATOM     15  C   UNL     1      34.595  37.427  36.731  1.00  0.00     0.157 A 
ATOM     16  C   UNL     1      34.822  37.730  39.130  1.00  0.00     0.062 A 
ATOM     17  C   UNL     1      34.650  36.883  38.025  1.00  0.00     0.158 A 
BRANCH  15  18
ATOM     18  O   UNL     1      34.424  36.612  35.612  1.00  0.00    -0.504 OA
ATOM     19  H   UNL     1      35.017  36.691  34.794  1.00  0.00     0.293 HD
ENDBRANCH  15  18
BRANCH  17  20
ATOM     20  O   UNL     1      34.536  35.506  38.209  1.00  0.00    -0.504 OA
ATOM     21  H   UNL     1      34.743  34.852  37.464  1.00  0.00     0.293 HD
ENDBRANCH  17  20
ENDBRANCH   1  12
BRANCH   2  22
ATOM     22  O   UNL     1      37.550  39.794  39.986  1.00  0.00    -0.502 OA
ATOM     23  H   UNL     1      37.802  38.812  40.002  1.00  0.00     0.293 HD
ENDBRANCH   2  22
BRANCH   6  24
ATOM     24  O   UNL     1      36.611  42.803  44.122  1.00  0.00    -0.507 OA
ATOM     25  H   UNL     1      37.352  42.125  44.259  1.00  0.00     0.293 HD
ENDBRANCH   6  24
BRANCH   8  26
ATOM     26  O   UNL     1      31.797  43.115  44.031  1.00  0.00    -0.508 OA
ATOM     27  H   UNL     1      31.225  42.554  44.651  1.00  0.00     0.293 HD
ENDBRANCH   8  26
TORSDOF 6
ENDMDL
MODEL 7
REMARK VINA RESULT:    -0.286      3.254      3.862
REMARK INTER + INTRA:          -0.676
REMARK INTER:                  -0.346
REMARK INTRA:                  -0.330
REMARK UNBOUND:                -0.332
REMARK SMILES O=c1c(O)c(-c2ccc(O)c(O)c2)oc2cc(O)cc(O)c12
REMARK SMILES IDX 5 1 3 2 2 3 1 4 22 5 20 6 19 7 17 8 16 9 15 10 14 11 6 12
REMARK SMILES IDX 7 13 8 14 9 15 13 16 11 17 10 18 12 20 4 22 21 24 18 26
REMARK H PARENT 10 19 12 21 4 23 21 25 18 27
REMARK Flexibility Score: inf
ROOT
ATOM      1  C   UNL     1      31.552  41.337  38.767  1.00  0.00     0.180 A 
ATOM      2  C   UNL     1      32.825  41.626  39.298  1.00  0.00     0.208 A 
ATOM      3  C   UNL     1      32.918  42.116  40.609  1.00  0.00     0.238 A 
ATOM      4  O   UNL     1      34.052  42.368  41.098  1.00  0.00    -0.285 OA
ATOM      5  C   UNL     1      31.742  42.328  41.359  1.00  0.00     0.111 A 
ATOM      6  C   UNL     1      31.749  42.823  42.685  1.00  0.00     0.134 A 
ATOM      7  C   UNL     1      30.536  43.016  43.362  1.00  0.00     0.093 A 
ATOM      8  C   UNL     1      29.320  42.725  42.740  1.00  0.00     0.123 A 
ATOM      9  C   UNL     1      29.306  42.235  41.431  1.00  0.00     0.094 A 
ATOM     10  C   UNL     1      30.505  42.035  40.740  1.00  0.00     0.146 A 
ATOM     11  O   UNL     1      30.465  41.564  39.498  1.00  0.00    -0.452 OA
ENDROOT
BRANCH   1  12
ATOM     12  C   UNL     1      31.374  40.800  37.399  1.00  0.00     0.025 A 
ATOM     13  C   UNL     1      31.324  39.417  37.155  1.00  0.00     0.016 A 
ATOM     14  C   UNL     1      31.131  38.933  35.859  1.00  0.00     0.051 A 
ATOM     15  C   UNL     1      30.970  39.821  34.790  1.00  0.00     0.157 A 
ATOM     16  C   UNL     1      31.190  41.689  36.327  1.00  0.00     0.062 A 
ATOM     17  C   UNL     1      30.997  41.205  35.024  1.00  0.00     0.158 A 
BRANCH  15  18
ATOM     18  O   UNL     1      30.780  39.308  33.507  1.00  0.00    -0.504 OA
ATOM     19  H   UNL     1      29.916  38.854  33.232  1.00  0.00     0.293 HD
ENDBRANCH  15  18
BRANCH  17  20
ATOM     20  O   UNL     1      30.830  42.095  33.964  1.00  0.00    -0.504 OA
ATOM     21  H   UNL     1      31.174  41.885  33.035  1.00  0.00     0.293 HD
ENDBRANCH  17  20
ENDBRANCH   1  12
BRANCH   2  22
ATOM     22  O   UNL     1      33.970  41.454  38.516  1.00  0.00    -0.502 OA
ATOM     23  H   UNL     1      33.956  41.543  37.506  1.00  0.00     0.293 HD
ENDBRANCH   2  22
BRANCH   6  24
ATOM     24  O   UNL     1      32.947  43.124  43.333  1.00  0.00    -0.507 OA
ATOM     25  H   UNL     1      33.846  42.980  42.888  1.00  0.00     0.293 HD
ENDBRANCH   6  24
BRANCH   8  26
ATOM     26  O   UNL     1      28.128  42.926  43.435  1.00  0.00    -0.508 OA
ATOM     27  H   UNL     1      27.264  42.484  43.142  1.00  0.00     0.293 HD
ENDBRANCH   8  26
TORSDOF 6
ENDMDL
MODEL 8
REMARK VINA RESULT:    -0.276      9.413     13.905
REMARK INTER + INTRA:          -0.665
REMARK INTER:                  -0.332
REMARK INTRA:                  -0.332
REMARK UNBOUND:                -0.332
REMARK SMILES O=c1c(O)c(-c2ccc(O)c(O)c2)oc2cc(O)cc(O)c12
REMARK SMILES IDX 5 1 3 2 2 3 1 4 22 5 20 6 19 7 17 8 16 9 15 10 14 11 6 12
REMARK SMILES IDX 7 13 8 14 9 15 13 16 11 17 10 18 12 20 4 22 21 24 18 26
REMARK H PARENT 10 19 12 21 4 23 21 25 18 27
REMARK Flexibility Score: inf
ROOT
ATOM      1  C   UNL     1      32.890  27.030  41.392  1.00  0.00     0.180 A 
ATOM      2  C   UNL     1      34.138  26.513  41.795  1.00  0.00     0.208 A 
ATOM      3  C   UNL     1      34.169  25.334  42.555  1.00  0.00     0.238 A 
ATOM      4  O   UNL     1      35.279  24.856  42.913  1.00  0.00    -0.285 OA
ATOM      5  C   UNL     1      32.959  24.705  42.917  1.00  0.00     0.111 A 
ATOM      6  C   UNL     1      32.904  23.517  43.684  1.00  0.00     0.134 A 
ATOM      7  C   UNL     1      31.659  22.958  44.011  1.00  0.00     0.093 A 
ATOM      8  C   UNL     1      30.473  23.561  43.586  1.00  0.00     0.123 A 
ATOM      9  C   UNL     1      30.522  24.734  42.827  1.00  0.00     0.094 A 
ATOM     10  C   UNL     1      31.752  25.307  42.491  1.00  0.00     0.146 A 
ATOM     11  O   UNL     1      31.770  26.418  41.764  1.00  0.00    -0.452 OA
ENDROOT
BRANCH   1  12
ATOM     12  C   UNL     1      32.776  28.259  40.573  1.00  0.00     0.025 A 
ATOM     13  C   UNL     1      32.778  28.206  39.168  1.00  0.00     0.016 A 
ATOM     14  C   UNL     1      32.645  29.376  38.416  1.00  0.00     0.051 A 
ATOM     15  C   UNL     1      32.494  30.611  39.053  1.00  0.00     0.157 A 
ATOM     16  C   UNL     1      32.603  29.499  41.209  1.00  0.00     0.062 A 
ATOM     17  C   UNL     1      32.470  30.675  40.455  1.00  0.00     0.158 A 
BRANCH  15  18
ATOM     18  O   UNL     1      32.364  31.762  38.275  1.00  0.00    -0.504 OA
ATOM     19  H   UNL     1      32.387  31.732  37.262  1.00  0.00     0.293 HD
ENDBRANCH  15  18
BRANCH  17  20
ATOM     20  O   UNL     1      32.312  31.903  41.096  1.00  0.00    -0.504 OA
ATOM     21  H   UNL     1      32.625  32.768  40.670  1.00  0.00     0.293 HD
ENDBRANCH  17  20
ENDBRANCH   1  12
BRANCH   2  22
ATOM     22  O   UNL     1      35.318  27.183  41.466  1.00  0.00    -0.502 OA
ATOM     23  H   UNL     1      35.330  27.992  40.855  1.00  0.00     0.293 HD
ENDBRANCH   2  22
BRANCH   6  24
ATOM     24  O   UNL     1      34.070  22.891  44.125  1.00  0.00    -0.507 OA
ATOM     25  H   UNL     1      34.710  23.346  44.766  1.00  0.00     0.293 HD
ENDBRANCH   6  24
BRANCH   8  26
ATOM     26  O   UNL     1      29.250  22.984  43.925  1.00  0.00    -0.508 OA
ATOM     27  H   UNL     1      28.763  22.364  43.288  1.00  0.00     0.293 HD
ENDBRANCH   8  26
TORSDOF 6
ENDMDL
MODEL 9
REMARK VINA RESULT:     0.906      1.908      2.533
REMARK INTER + INTRA:           0.759
REMARK INTER:                   1.079
REMARK INTRA:                  -0.321
REMARK UNBOUND:                -0.332
REMARK SMILES O=c1c(O)c(-c2ccc(O)c(O)c2)oc2cc(O)cc(O)c12
REMARK SMILES IDX 5 1 3 2 2 3 1 4 22 5 20 6 19 7 17 8 16 9 15 10 14 11 6 12
REMARK SMILES IDX 7 13 8 14 9 15 13 16 11 17 10 18 12 20 4 22 21 24 18 26
REMARK H PARENT 10 19 12 21 4 23 21 25 18 27
REMARK Flexibility Score: inf
ROOT
ATOM      1  C   UNL     1      32.606  38.291  42.252  1.00  0.00     0.180 A 
ATOM      2  C   UNL     1      33.824  38.986  42.390  1.00  0.00     0.208 A 
ATOM      3  C   UNL     1      33.803  40.298  42.887  1.00  0.00     0.238 A 
ATOM      4  O   UNL     1      34.887  40.927  43.026  1.00  0.00    -0.285 OA
ATOM      5  C   UNL     1      32.570  40.899  43.218  1.00  0.00     0.111 A 
ATOM      6  C   UNL     1      32.463  42.217  43.722  1.00  0.00     0.134 A 
ATOM      7  C   UNL     1      31.199  42.747  44.019  1.00  0.00     0.093 A 
ATOM      8  C   UNL     1      30.044  41.987  43.822  1.00  0.00     0.123 A 
ATOM      9  C   UNL     1      30.144  40.684  43.326  1.00  0.00     0.094 A 
ATOM     10  C   UNL     1      31.395  40.137  43.025  1.00  0.00     0.146 A 
ATOM     11  O   UNL     1      31.462  38.895  42.560  1.00  0.00    -0.452 OA
ENDROOT
BRANCH   1  12
ATOM     12  C   UNL     1      32.549  36.898  41.751  1.00  0.00     0.025 A 
ATOM     13  C   UNL     1      32.499  36.615  40.376  1.00  0.00     0.016 A 
ATOM     14  C   UNL     1      32.470  35.293  39.927  1.00  0.00     0.051 A 
ATOM     15  C   UNL     1      32.505  34.235  40.840  1.00  0.00     0.157 A 
ATOM     16  C   UNL     1      32.605  35.834  42.666  1.00  0.00     0.062 A 
ATOM     17  C   UNL     1      32.575  34.505  42.217  1.00  0.00     0.158 A 
BRANCH  15  18
ATOM     18  O   UNL     1      32.473  32.925  40.362  1.00  0.00    -0.504 OA
ATOM     19  H   UNL     1      33.142  32.586  39.679  1.00  0.00     0.293 HD
ENDBRANCH  15  18
BRANCH  17  20
ATOM     20  O   UNL     1      32.617  33.455  43.133  1.00  0.00    -0.504 OA
ATOM     21  H   UNL     1      31.772  32.999  43.457  1.00  0.00     0.293 HD
ENDBRANCH  17  20
ENDBRANCH   1  12
BRANCH   2  22
ATOM     22  O   UNL     1      35.026  38.386  42.008  1.00  0.00    -0.502 OA
ATOM     23  H   UNL     1      35.810  38.920  41.650  1.00  0.00     0.293 HD
ENDBRANCH   2  22
BRANCH   6  24
ATOM     24  O   UNL     1      33.597  43.003  43.928  1.00  0.00    -0.507 OA
ATOM     25  H   UNL     1      34.464  42.608  44.275  1.00  0.00     0.293 HD
ENDBRANCH   6  24
BRANCH   8  26
ATOM     26  O   UNL     1      28.799  42.537  44.125  1.00  0.00    -0.508 OA
ATOM     27  H   UNL     1      28.539  42.766  45.078  1.00  0.00     0.293 HD
ENDBRANCH   8  26
TORSDOF 6
ENDMDL
