MODEL 1
REMARK VINA RESULT:    -5.054      0.000      0.000
REMARK INTER + INTRA:          -7.685
REMARK INTER:                  -7.122
REMARK INTRA:                  -0.563
REMARK UNBOUND:                -0.563
REMARK SMILES C=CCCCCCCC(=O)[O-]
REMARK SMILES IDX 6 1 7 2 8 3 9 4 10 5 11 6 5 7 4 8 3 9 2 10 1 11
REMARK H PARENT
REMARK Flexibility Score: inf
ROOT
ATOM      1  C   UNL     1     -45.088 -39.575 106.728  1.00  0.00     0.000 C 
ENDROOT
BRANCH   1   2
ATOM      2  C   UNL     1     -44.590 -40.975 106.326  1.00  0.00     0.006 C 
BRANCH   2   3
ATOM      3  C   UNL     1     -43.193 -40.933 105.694  1.00  0.00     0.053 C 
BRANCH   3   4
ATOM      4  C   UNL     1     -43.152 -40.035 104.496  1.00  0.00     0.041 C 
ATOM      5  O   UNL     1     -43.791 -40.338 103.455  1.00  0.00    -0.550 OA
ATOM      6  O   UNL     1     -42.436 -38.845 104.543  1.00  0.00    -0.550 OA
ENDBRANCH   3   4
ENDBRANCH   2   3
ENDBRANCH   1   2
BRANCH   1   7
ATOM      7  C   UNL     1     -44.425 -39.060 108.015  1.00  0.00     0.000 C 
BRANCH   7   8
ATOM      8  C   UNL     1     -43.873 -37.631 107.863  1.00  0.00     0.004 C 
BRANCH   8   9
ATOM      9  C   UNL     1     -44.433 -36.926 106.617  1.00  0.00     0.027 C 
BRANCH   9  10
ATOM     10  C   UNL     1     -43.875 -35.539 106.443  1.00  0.00    -0.035 C 
ATOM     11  C   UNL     1     -43.282 -34.887 107.447  1.00  0.00     0.004 C 
ENDBRANCH   9  10
ENDBRANCH   8   9
ENDBRANCH   7   8
ENDBRANCH   1   7
TORSDOF 7
ENDMDL
MODEL 2
REMARK VINA RESULT:    -5.028      2.328      4.325
REMARK INTER + INTRA:          -7.648
REMARK INTER:                  -7.023
REMARK INTRA:                  -0.625
REMARK UNBOUND:                -0.563
REMARK SMILES C=CCCCCCCC(=O)[O-]
REMARK SMILES IDX 6 1 7 2 8 3 9 4 10 5 11 6 5 7 4 8 3 9 2 10 1 11
REMARK H PARENT
REMARK Flexibility Score: inf
ROOT
ATOM      1  C   UNL     1     -43.862 -37.860 104.866  1.00  0.00     0.000 C 
ENDROOT
BRANCH   1   2
ATOM      2  C   UNL     1     -44.432 -36.886 105.913  1.00  0.00     0.006 C 
BRANCH   2   3
ATOM      3  C   UNL     1     -43.633 -35.578 105.983  1.00  0.00     0.053 C 
BRANCH   3   4
ATOM      4  C   UNL     1     -42.583 -35.625 107.051  1.00  0.00     0.041 C 
ATOM      5  O   UNL     1     -42.840 -35.204 108.209  1.00  0.00    -0.550 OA
ATOM      6  O   UNL     1     -41.333 -36.165 106.775  1.00  0.00    -0.550 OA
ENDBRANCH   3   4
ENDBRANCH   2   3
ENDBRANCH   1   2
BRANCH   1   7
ATOM      7  C   UNL     1     -43.617 -39.264 105.439  1.00  0.00     0.000 C 
BRANCH   7   8
ATOM      8  C   UNL     1     -44.829 -39.803 106.220  1.00  0.00     0.004 C 
BRANCH   8   9
ATOM      9  C   UNL     1     -44.452 -40.221 107.650  1.00  0.00     0.027 C 
BRANCH   9  10
ATOM     10  C   UNL     1     -44.433 -39.055 108.602  1.00  0.00    -0.035 C 
ATOM     11  C   UNL     1     -43.314 -38.674 109.226  1.00  0.00     0.004 C 
ENDBRANCH   9  10
ENDBRANCH   8   9
ENDBRANCH   7   8
ENDBRANCH   1   7
TORSDOF 7
ENDMDL
MODEL 3
REMARK VINA RESULT:    -4.992      6.618      7.918
REMARK INTER + INTRA:          -7.597
REMARK INTER:                  -6.978
REMARK INTRA:                  -0.619
REMARK UNBOUND:                -0.563
REMARK SMILES C=CCCCCCCC(=O)[O-]
REMARK SMILES IDX 6 1 7 2 8 3 9 4 10 5 11 6 5 7 4 8 3 9 2 10 1 11
REMARK H PARENT
REMARK Flexibility Score: inf
ROOT
ATOM      1  C   UNL     1     -41.364 -43.460 102.855  1.00  0.00     0.000 C 
ENDROOT
BRANCH   1   2
ATOM      2  C   UNL     1     -40.451 -44.410 102.061  1.00  0.00     0.006 C 
BRANCH   2   3
ATOM      3  C   UNL     1     -40.286 -45.769 102.754  1.00  0.00     0.053 C 
BRANCH   3   4
ATOM      4  C   UNL     1     -39.237 -45.723 103.822  1.00  0.00     0.041 C 
ATOM      5  O   UNL     1     -38.080 -46.160 103.593  1.00  0.00    -0.550 OA
ATOM      6  O   UNL     1     -39.529 -45.163 105.061  1.00  0.00    -0.550 OA
ENDBRANCH   3   4
ENDBRANCH   2   3
ENDBRANCH   1   2
BRANCH   1   7
ATOM      7  C   UNL     1     -41.141 -41.984 102.490  1.00  0.00     0.000 C 
BRANCH   7   8
ATOM      8  C   UNL     1     -39.813 -41.434 103.040  1.00  0.00     0.004 C 
BRANCH   8   9
ATOM      9  C   UNL     1     -38.817 -41.102 101.917  1.00  0.00     0.027 C 
BRANCH   9  10
ATOM     10  C   UNL     1     -37.657 -42.061 101.877  1.00  0.00    -0.035 C 
ATOM     11  C   UNL     1     -37.237 -42.703 102.970  1.00  0.00     0.004 C 
ENDBRANCH   9  10
ENDBRANCH   8   9
ENDBRANCH   7   8
ENDBRANCH   1   7
TORSDOF 7
ENDMDL
MODEL 4
REMARK VINA RESULT:    -4.936      2.275      3.189
REMARK INTER + INTRA:          -7.518
REMARK INTER:                  -6.648
REMARK INTRA:                  -0.870
REMARK UNBOUND:                -0.563
REMARK SMILES C=CCCCCCCC(=O)[O-]
REMARK SMILES IDX 6 1 7 2 8 3 9 4 10 5 11 6 5 7 4 8 3 9 2 10 1 11
REMARK H PARENT
REMARK Flexibility Score: inf
ROOT
ATOM      1  C   UNL     1     -44.441 -39.962 106.989  1.00  0.00     0.000 C 
ENDROOT
BRANCH   1   2
ATOM      2  C   UNL     1     -44.642 -39.421 108.416  1.00  0.00     0.006 C 
BRANCH   2   3
ATOM      3  C   UNL     1     -43.403 -38.680 108.934  1.00  0.00     0.053 C 
BRANCH   3   4
ATOM      4  C   UNL     1     -42.158 -39.497 108.770  1.00  0.00     0.041 C 
ATOM      5  O   UNL     1     -41.956 -40.499 109.504  1.00  0.00    -0.550 OA
ATOM      6  O   UNL     1     -41.238 -39.172 107.781  1.00  0.00    -0.550 OA
ENDBRANCH   3   4
ENDBRANCH   2   3
ENDBRANCH   1   2
BRANCH   1   7
ATOM      7  C   UNL     1     -44.783 -38.922 105.910  1.00  0.00     0.000 C 
BRANCH   7   8
ATOM      8  C   UNL     1     -43.544 -38.462 105.121  1.00  0.00     0.004 C 
BRANCH   8   9
ATOM      9  C   UNL     1     -43.048 -37.082 105.579  1.00  0.00     0.027 C 
BRANCH   9  10
ATOM     10  C   UNL     1     -44.150 -36.246 106.175  1.00  0.00    -0.035 C 
ATOM     11  C   UNL     1     -43.920 -35.385 107.170  1.00  0.00     0.004 C 
ENDBRANCH   9  10
ENDBRANCH   8   9
ENDBRANCH   7   8
ENDBRANCH   1   7
TORSDOF 7
ENDMDL
MODEL 5
REMARK VINA RESULT:    -4.931      2.440      4.379
REMARK INTER + INTRA:          -7.511
REMARK INTER:                  -6.832
REMARK INTRA:                  -0.680
REMARK UNBOUND:                -0.563
REMARK SMILES C=CCCCCCCC(=O)[O-]
REMARK SMILES IDX 6 1 7 2 8 3 9 4 10 5 11 6 5 7 4 8 3 9 2 10 1 11
REMARK H PARENT
REMARK Flexibility Score: inf
ROOT
ATOM      1  C   UNL     1     -44.186 -37.956 105.309  1.00  0.00     0.000 C 
ENDROOT
BRANCH   1   2
ATOM      2  C   UNL     1     -44.639 -36.698 106.073  1.00  0.00     0.006 C 
BRANCH   2   3
ATOM      3  C   UNL     1     -43.608 -35.565 105.986  1.00  0.00     0.053 C 
BRANCH   3   4
ATOM      4  C   UNL     1     -42.568 -35.678 107.059  1.00  0.00     0.041 C 
ATOM      5  O   UNL     1     -42.834 -35.326 108.237  1.00  0.00    -0.550 OA
ATOM      6  O   UNL     1     -41.316 -36.203 106.762  1.00  0.00    -0.550 OA
ENDBRANCH   3   4
ENDBRANCH   2   3
ENDBRANCH   1   2
BRANCH   1   7
ATOM      7  C   UNL     1     -43.888 -39.138 106.244  1.00  0.00     0.000 C 
BRANCH   7   8
ATOM      8  C   UNL     1     -44.767 -39.128 107.507  1.00  0.00     0.004 C 
BRANCH   8   9
ATOM      9  C   UNL     1     -43.933 -38.962 108.788  1.00  0.00     0.027 C 
BRANCH   9  10
ATOM     10  C   UNL     1     -42.480 -39.293 108.572  1.00  0.00    -0.035 C 
ATOM     11  C   UNL     1     -41.849 -40.209 109.312  1.00  0.00     0.004 C 
ENDBRANCH   9  10
ENDBRANCH   8   9
ENDBRANCH   7   8
ENDBRANCH   1   7
TORSDOF 7
ENDMDL
MODEL 6
REMARK VINA RESULT:    -4.885      2.202      4.381
REMARK INTER + INTRA:          -7.447
REMARK INTER:                  -6.704
REMARK INTRA:                  -0.742
REMARK UNBOUND:                -0.563
REMARK SMILES C=CCCCCCCC(=O)[O-]
REMARK SMILES IDX 6 1 7 2 8 3 9 4 10 5 11 6 5 7 4 8 3 9 2 10 1 11
REMARK H PARENT
REMARK Flexibility Score: inf
ROOT
ATOM      1  C   UNL     1     -44.515 -39.149 108.311  1.00  0.00     0.000 C 
ENDROOT
BRANCH   1   2
ATOM      2  C   UNL     1     -43.611 -37.911 108.446  1.00  0.00     0.006 C 
BRANCH   2   3
ATOM      3  C   UNL     1     -43.894 -36.866 107.360  1.00  0.00     0.053 C 
BRANCH   3   4
ATOM      4  C   UNL     1     -42.878 -35.766 107.370  1.00  0.00     0.041 C 
ATOM      5  O   UNL     1     -43.121 -34.684 107.966  1.00  0.00    -0.550 OA
ATOM      6  O   UNL     1     -41.648 -35.949 106.750  1.00  0.00    -0.550 OA
ENDBRANCH   3   4
ENDBRANCH   2   3
ENDBRANCH   1   2
BRANCH   1   7
ATOM      7  C   UNL     1     -45.018 -39.360 106.875  1.00  0.00     0.000 C 
BRANCH   7   8
ATOM      8  C   UNL     1     -44.742 -40.783 106.356  1.00  0.00     0.004 C 
BRANCH   8   9
ATOM      9  C   UNL     1     -43.307 -40.935 105.827  1.00  0.00     0.027 C 
BRANCH   9  10
ATOM     10  C   UNL     1     -42.913 -39.812 104.905  1.00  0.00    -0.035 C 
ATOM     11  C   UNL     1     -41.773 -39.136 105.067  1.00  0.00     0.004 C 
ENDBRANCH   9  10
ENDBRANCH   8   9
ENDBRANCH   7   8
ENDBRANCH   1   7
TORSDOF 7
ENDMDL
MODEL 7
REMARK VINA RESULT:    -4.773      2.432      3.057
REMARK INTER + INTRA:          -7.290
REMARK INTER:                  -6.641
REMARK INTRA:                  -0.649
REMARK UNBOUND:                -0.563
REMARK SMILES C=CCCCCCCC(=O)[O-]
REMARK SMILES IDX 6 1 7 2 8 3 9 4 10 5 11 6 5 7 4 8 3 9 2 10 1 11
REMARK H PARENT
REMARK Flexibility Score: inf
ROOT
ATOM      1  C   UNL     1     -43.765 -39.478 105.270  1.00  0.00     0.000 C 
ENDROOT
BRANCH   1   2
ATOM      2  C   UNL     1     -43.798 -40.501 106.419  1.00  0.00     0.006 C 
BRANCH   2   3
ATOM      3  C   UNL     1     -42.993 -40.031 107.637  1.00  0.00     0.053 C 
BRANCH   3   4
ATOM      4  C   UNL     1     -43.858 -39.325 108.636  1.00  0.00     0.041 C 
ATOM      5  O   UNL     1     -45.111 -39.355 108.521  1.00  0.00    -0.550 OA
ATOM      6  O   UNL     1     -43.280 -38.665 109.714  1.00  0.00    -0.550 OA
ENDBRANCH   3   4
ENDBRANCH   2   3
ENDBRANCH   1   2
BRANCH   1   7
ATOM      7  C   UNL     1     -42.554 -38.536 105.353  1.00  0.00     0.000 C 
BRANCH   7   8
ATOM      8  C   UNL     1     -42.961 -37.052 105.371  1.00  0.00     0.004 C 
BRANCH   8   9
ATOM      9  C   UNL     1     -44.353 -36.844 105.988  1.00  0.00     0.027 C 
BRANCH   9  10
ATOM     10  C   UNL     1     -44.343 -35.824 107.096  1.00  0.00    -0.035 C 
ATOM     11  C   UNL     1     -43.333 -34.964 107.251  1.00  0.00     0.004 C 
ENDBRANCH   9  10
ENDBRANCH   8   9
ENDBRANCH   7   8
ENDBRANCH   1   7
TORSDOF 7
ENDMDL
MODEL 8
REMARK VINA RESULT:    -4.769      1.273      2.027
REMARK INTER + INTRA:          -7.283
REMARK INTER:                  -6.505
REMARK INTRA:                  -0.778
REMARK UNBOUND:                -0.563
REMARK SMILES C=CCCCCCCC(=O)[O-]
REMARK SMILES IDX 6 1 7 2 8 3 9 4 10 5 11 6 5 7 4 8 3 9 2 10 1 11
REMARK H PARENT
REMARK Flexibility Score: inf
ROOT
ATOM      1  C   UNL     1     -44.420 -40.587 106.258  1.00  0.00     0.000 C 
ENDROOT
BRANCH   1   2
ATOM      2  C   UNL     1     -44.334 -40.179 104.776  1.00  0.00     0.006 C 
BRANCH   2   3
ATOM      3  C   UNL     1     -43.528 -38.889 104.577  1.00  0.00     0.053 C 
BRANCH   3   4
ATOM      4  C   UNL     1     -42.072 -39.095 104.862  1.00  0.00     0.041 C 
ATOM      5  O   UNL     1     -41.561 -38.629 105.913  1.00  0.00    -0.550 OA
ATOM      6  O   UNL     1     -41.288 -39.832 103.983  1.00  0.00    -0.550 OA
ENDBRANCH   3   4
ENDBRANCH   2   3
ENDBRANCH   1   2
BRANCH   1   7
ATOM      7  C   UNL     1     -45.072 -39.505 107.132  1.00  0.00     0.000 C 
BRANCH   7   8
ATOM      8  C   UNL     1     -44.406 -39.383 108.514  1.00  0.00     0.004 C 
BRANCH   8   9
ATOM      9  C   UNL     1     -43.644 -38.058 108.672  1.00  0.00     0.027 C 
BRANCH   9  10
ATOM     10  C   UNL     1     -44.148 -36.992 107.737  1.00  0.00    -0.035 C 
ATOM     11  C   UNL     1     -43.500 -35.835 107.573  1.00  0.00     0.004 C 
ENDBRANCH   9  10
ENDBRANCH   8   9
ENDBRANCH   7   8
ENDBRANCH   1   7
TORSDOF 7
ENDMDL
MODEL 9
REMARK VINA RESULT:    -4.707      1.723      2.949
REMARK INTER + INTRA:          -7.196
REMARK INTER:                  -6.544
REMARK INTRA:                  -0.652
REMARK UNBOUND:                -0.563
REMARK SMILES C=CCCCCCCC(=O)[O-]
REMARK SMILES IDX 6 1 7 2 8 3 9 4 10 5 11 6 5 7 4 8 3 9 2 10 1 11
REMARK H PARENT
REMARK Flexibility Score: inf
ROOT
ATOM      1  C   UNL     1     -42.831 -38.003 105.064  1.00  0.00     0.000 C 
ENDROOT
BRANCH   1   2
ATOM      2  C   UNL     1     -44.054 -38.649 104.389  1.00  0.00     0.006 C 
BRANCH   2   3
ATOM      3  C   UNL     1     -43.926 -40.174 104.296  1.00  0.00     0.053 C 
BRANCH   3   4
ATOM      4  C   UNL     1     -43.710 -40.628 102.884  1.00  0.00     0.041 C 
ATOM      5  O   UNL     1     -44.353 -40.095 101.943  1.00  0.00    -0.550 OA
ATOM      6  O   UNL     1     -42.773 -41.616 102.607  1.00  0.00    -0.550 OA
ENDBRANCH   3   4
ENDBRANCH   2   3
ENDBRANCH   1   2
BRANCH   1   7
ATOM      7  C   UNL     1     -43.182 -36.699 105.797  1.00  0.00     0.000 C 
BRANCH   7   8
ATOM      8  C   UNL     1     -44.282 -36.894 106.856  1.00  0.00     0.004 C 
BRANCH   8   9
ATOM      9  C   UNL     1     -43.702 -37.303 108.220  1.00  0.00     0.027 C 
BRANCH   9  10
ATOM     10  C   UNL     1     -44.080 -38.708 108.606  1.00  0.00    -0.035 C 
ATOM     11  C   UNL     1     -44.955 -39.423 107.893  1.00  0.00     0.004 C 
ENDBRANCH   9  10
ENDBRANCH   8   9
ENDBRANCH   7   8
ENDBRANCH   1   7
TORSDOF 7
ENDMDL
