MODEL 1
REMARK VINA RESULT:    -5.299      0.000      0.000
REMARK INTER + INTRA:          -8.508
REMARK INTER:                  -8.087
REMARK INTRA:                  -0.421
REMARK UNBOUND:                -0.421
REMARK SMILES CC1=CCC[C@H](C)C(=O)C[C@@H](C(C)C)C(=O)C1
REMARK SMILES IDX 8 1 9 2 6 3 7 4 5 5 4 6 3 7 2 8 1 9 10 11 11 12 15 13 16 14
REMARK SMILES IDX 17 15 12 17 13 18 14 19
REMARK H PARENT
REMARK Flexibility Score: 70.00
ROOT
ATOM      1  C   UNL     1     -14.299 -36.824  39.543  1.00  0.00     0.136 C 
ATOM      2  O   UNL     1     -14.527 -36.736  40.741  1.00  0.00    -0.299 OA
ENDROOT
BRANCH   1   3
ATOM      3  C   UNL     1     -14.801 -35.736  38.574  1.00  0.00     0.053 C 
ATOM      4  C   UNL     1     -14.441 -34.315  39.022  1.00  0.00     0.016 C 
BRANCH   3   5
ATOM      5  C   UNL     1     -14.130 -36.079  37.262  1.00  0.00     0.015 C 
BRANCH   5   6
ATOM      6  C   UNL     1     -13.112 -35.284  36.496  1.00  0.00     0.028 C 
BRANCH   6   7
ATOM      7  C   UNL     1     -11.911 -36.201  36.225  1.00  0.00    -0.028 C 
ATOM      8  C   UNL     1     -10.916 -36.631  37.084  1.00  0.00    -0.070 CG0
ATOM      9  C   UNL     1      -9.805 -37.437  36.452  1.00  0.00     0.039 C 
ATOM     10  G   UNL     1     -10.819 -36.405  38.620  1.00  0.00     0.000 G0
ENDBRANCH   6   7
ENDBRANCH   5   6
ENDBRANCH   3   5
ENDBRANCH   1   3
BRANCH   1  11
ATOM     11  C   UNL     1     -13.467 -38.008  39.033  1.00  0.00     0.087 C 
BRANCH  11  12
ATOM     12  C   UNL     1     -12.191 -38.385  39.887  1.00  0.00     0.066 C 
BRANCH  12  13
ATOM     13  C   UNL     1     -10.874 -37.667  39.499  1.00  0.00     0.140 C 
ATOM     14  O   UNL     1      -9.819 -38.191  39.828  1.00  0.00    -0.299 OA
BRANCH  13  15
ATOM     15  C   UNL     1     -10.810 -36.400  38.626  1.00  0.00     0.106 CG0
ATOM     16  G   UNL     1     -10.921 -36.652  37.095  1.00  0.00     0.000 G0
ENDBRANCH  13  15
ENDBRANCH  12  13
BRANCH  12  17
ATOM     17  C   UNL     1     -11.943 -39.931  39.935  1.00  0.00    -0.006 C 
ATOM     18  C   UNL     1     -12.895 -40.727  39.023  1.00  0.00     0.008 C 
ATOM     19  C   UNL     1     -12.078 -40.474  41.373  1.00  0.00     0.008 C 
ENDBRANCH  12  17
ENDBRANCH  11  12
ENDBRANCH   1  11
TORSDOF 1
ENDMDL
MODEL 2
REMARK VINA RESULT:    -5.195      2.155      5.206
REMARK INTER + INTRA:          -8.349
REMARK INTER:                  -8.131
REMARK INTRA:                  -0.217
REMARK UNBOUND:                -0.421
REMARK SMILES CC1=CCC[C@H](C)C(=O)C[C@@H](C(C)C)C(=O)C1
REMARK SMILES IDX 8 1 9 2 6 3 7 4 5 5 4 6 3 7 2 8 1 9 10 11 11 12 15 13 16 14
REMARK SMILES IDX 17 15 12 17 13 18 14 19
REMARK H PARENT
REMARK Flexibility Score: 70.00
ROOT
ATOM      1  C   UNL     1     -13.405 -40.107  37.854  1.00  0.00     0.136 C 
ATOM      2  O   UNL     1     -12.874 -40.168  36.754  1.00  0.00    -0.299 OA
ENDROOT
BRANCH   1   3
ATOM      3  C   UNL     1     -13.518 -41.368  38.733  1.00  0.00     0.053 C 
ATOM      4  C   UNL     1     -12.856 -42.602  38.109  1.00  0.00     0.016 C 
BRANCH   3   5
ATOM      5  C   UNL     1     -12.831 -40.976  40.022  1.00  0.00     0.015 C 
BRANCH   5   6
ATOM      6  C   UNL     1     -13.438 -40.767  41.380  1.00  0.00     0.028 C 
BRANCH   6   7
ATOM      7  C   UNL     1     -12.437 -39.961  42.219  1.00  0.00    -0.028 C 
ATOM      8  C   UNL     1     -12.050 -38.638  42.104  1.00  0.00    -0.070 CG0
ATOM      9  C   UNL     1     -10.938 -38.196  43.027  1.00  0.00     0.039 C 
ATOM     10  G   UNL     1     -12.638 -37.551  41.159  1.00  0.00     0.000 G0
ENDBRANCH   6   7
ENDBRANCH   5   6
ENDBRANCH   3   5
ENDBRANCH   1   3
BRANCH   1  11
ATOM     11  C   UNL     1     -13.909 -38.748  38.359  1.00  0.00     0.087 C 
BRANCH  11  12
ATOM     12  C   UNL     1     -12.836 -37.590  38.437  1.00  0.00     0.066 C 
BRANCH  12  13
ATOM     13  C   UNL     1     -12.020 -37.504  39.750  1.00  0.00     0.140 C 
ATOM     14  O   UNL     1     -10.818 -37.292  39.664  1.00  0.00    -0.299 OA
BRANCH  13  15
ATOM     15  C   UNL     1     -12.646 -37.550  41.157  1.00  0.00     0.106 CG0
ATOM     16  G   UNL     1     -12.045 -38.624  42.108  1.00  0.00     0.000 G0
ENDBRANCH  13  15
ENDBRANCH  12  13
BRANCH  12  17
ATOM     17  C   UNL     1     -13.453 -36.185  38.118  1.00  0.00    -0.006 C 
ATOM     18  C   UNL     1     -14.913 -36.043  38.590  1.00  0.00     0.008 C 
ATOM     19  C   UNL     1     -13.398 -35.881  36.607  1.00  0.00     0.008 C 
ENDBRANCH  12  17
ENDBRANCH  11  12
ENDBRANCH   1  11
TORSDOF 1
ENDMDL
MODEL 3
REMARK VINA RESULT:    -5.166      2.338      5.009
REMARK INTER + INTRA:          -8.306
REMARK INTER:                  -7.912
REMARK INTRA:                  -0.394
REMARK UNBOUND:                -0.421
REMARK SMILES CC1=CCC[C@H](C)C(=O)C[C@@H](C(C)C)C(=O)C1
REMARK SMILES IDX 8 1 9 2 6 3 7 4 5 5 4 6 3 7 2 8 1 9 10 11 11 12 15 13 16 14
REMARK SMILES IDX 17 15 12 17 13 18 14 19
REMARK H PARENT
REMARK Flexibility Score: 70.00
ROOT
ATOM      1  C   UNL     1     -11.442 -38.119  40.528  1.00  0.00     0.136 C 
ATOM      2  O   UNL     1     -10.410 -38.768  40.423  1.00  0.00    -0.299 OA
ENDROOT
BRANCH   1   3
ATOM      3  C   UNL     1     -12.229 -38.121  41.852  1.00  0.00     0.053 C 
ATOM      4  C   UNL     1     -13.542 -37.334  41.776  1.00  0.00     0.016 C 
BRANCH   3   5
ATOM      5  C   UNL     1     -12.489 -39.588  42.119  1.00  0.00     0.015 C 
BRANCH   5   6
ATOM      6  C   UNL     1     -13.563 -40.467  41.546  1.00  0.00     0.028 C 
BRANCH   6   7
ATOM      7  C   UNL     1     -12.908 -41.385  40.504  1.00  0.00    -0.028 C 
ATOM      8  C   UNL     1     -13.058 -41.410  39.130  1.00  0.00    -0.070 CG0
ATOM      9  C   UNL     1     -12.351 -42.538  38.413  1.00  0.00     0.039 C 
ATOM     10  G   UNL     1     -13.844 -40.408  38.237  1.00  0.00     0.000 G0
ENDBRANCH   6   7
ENDBRANCH   5   6
ENDBRANCH   3   5
ENDBRANCH   1   3
BRANCH   1  11
ATOM     11  C   UNL     1     -11.907 -37.270  39.336  1.00  0.00     0.087 C 
BRANCH  11  12
ATOM     12  C   UNL     1     -13.199 -37.778  38.580  1.00  0.00     0.066 C 
BRANCH  12  13
ATOM     13  C   UNL     1     -13.068 -39.133  37.840  1.00  0.00     0.140 C 
ATOM     14  O   UNL     1     -12.229 -39.222  36.954  1.00  0.00    -0.299 OA
BRANCH  13  15
ATOM     15  C   UNL     1     -13.844 -40.405  38.229  1.00  0.00     0.106 CG0
ATOM     16  G   UNL     1     -13.060 -41.403  39.128  1.00  0.00     0.000 G0
ENDBRANCH  13  15
ENDBRANCH  12  13
BRANCH  12  17
ATOM     17  C   UNL     1     -13.772 -36.704  37.594  1.00  0.00    -0.006 C 
ATOM     18  C   UNL     1     -12.677 -35.951  36.815  1.00  0.00     0.008 C 
ATOM     19  C   UNL     1     -14.639 -35.668  38.339  1.00  0.00     0.008 C 
ENDBRANCH  12  17
ENDBRANCH  11  12
ENDBRANCH   1  11
TORSDOF 1
ENDMDL
MODEL 4
REMARK VINA RESULT:    -5.160      1.868      2.935
REMARK INTER + INTRA:          -8.296
REMARK INTER:                  -7.934
REMARK INTRA:                  -0.362
REMARK UNBOUND:                -0.421
REMARK SMILES CC1=CCC[C@H](C)C(=O)C[C@@H](C(C)C)C(=O)C1
REMARK SMILES IDX 8 1 9 2 6 3 7 4 5 5 4 6 3 7 2 8 1 9 10 11 11 12 15 13 16 14
REMARK SMILES IDX 17 15 12 17 13 18 14 19
REMARK H PARENT
REMARK Flexibility Score: 70.00
ROOT
ATOM      1  C   UNL     1     -13.279 -37.027  38.442  1.00  0.00     0.136 C 
ATOM      2  O   UNL     1     -14.141 -36.484  39.118  1.00  0.00    -0.299 OA
ENDROOT
BRANCH   1   3
ATOM      3  C   UNL     1     -12.357 -36.188  37.536  1.00  0.00     0.053 C 
ATOM      4  C   UNL     1     -12.900 -34.782  37.258  1.00  0.00     0.016 C 
BRANCH   3   5
ATOM      5  C   UNL     1     -11.054 -36.126  38.301  1.00  0.00     0.015 C 
BRANCH   5   6
ATOM      6  C   UNL     1      -9.792 -36.905  38.063  1.00  0.00     0.028 C 
BRANCH   6   7
ATOM      7  C   UNL     1      -9.020 -36.958  39.390  1.00  0.00    -0.028 C 
ATOM      8  C   UNL     1      -9.234 -37.748  40.506  1.00  0.00    -0.070 CG0
ATOM      9  C   UNL     1      -8.354 -37.452  41.698  1.00  0.00     0.039 C 
ATOM     10  G   UNL     1     -10.251 -38.913  40.669  1.00  0.00     0.000 G0
ENDBRANCH   6   7
ENDBRANCH   5   6
ENDBRANCH   3   5
ENDBRANCH   1   3
BRANCH   1  11
ATOM     11  C   UNL     1     -13.103 -38.549  38.549  1.00  0.00     0.087 C 
BRANCH  11  12
ATOM     12  C   UNL     1     -12.883 -39.125  40.005  1.00  0.00     0.066 C 
BRANCH  12  13
ATOM     13  C   UNL     1     -11.723 -38.497  40.818  1.00  0.00     0.140 C 
ATOM     14  O   UNL     1     -12.008 -37.692  41.693  1.00  0.00    -0.299 OA
BRANCH  13  15
ATOM     15  C   UNL     1     -10.247 -38.912  40.672  1.00  0.00     0.106 CG0
ATOM     16  G   UNL     1      -9.246 -37.731  40.520  1.00  0.00     0.000 G0
ENDBRANCH  13  15
ENDBRANCH  12  13
BRANCH  12  17
ATOM     17  C   UNL     1     -12.733 -40.685  40.011  1.00  0.00    -0.006 C 
ATOM     18  C   UNL     1     -13.576 -41.378  38.923  1.00  0.00     0.008 C 
ATOM     19  C   UNL     1     -13.123 -41.278  41.380  1.00  0.00     0.008 C 
ENDBRANCH  12  17
ENDBRANCH  11  12
ENDBRANCH   1  11
TORSDOF 1
ENDMDL
MODEL 5
REMARK VINA RESULT:    -5.093      2.368      5.113
REMARK INTER + INTRA:          -8.194
REMARK INTER:                  -7.724
REMARK INTRA:                  -0.470
REMARK UNBOUND:                -0.421
REMARK SMILES CC1=CCC[C@H](C)C(=O)C[C@@H](C(C)C)C(=O)C1
REMARK SMILES IDX 8 1 9 2 6 3 7 4 5 5 4 6 3 7 2 8 1 9 10 11 11 12 15 13 16 14
REMARK SMILES IDX 17 15 12 17 13 18 14 19
REMARK H PARENT
REMARK Flexibility Score: 70.00
ROOT
ATOM      1  C   UNL     1     -10.218 -37.492  39.017  1.00  0.00     0.136 C 
ATOM      2  O   UNL     1      -9.708 -36.388  39.152  1.00  0.00    -0.299 OA
ENDROOT
BRANCH   1   3
ATOM      3  C   UNL     1     -10.377 -38.428  40.230  1.00  0.00     0.053 C 
ATOM      4  C   UNL     1      -9.342 -38.172  41.331  1.00  0.00     0.016 C 
BRANCH   3   5
ATOM      5  C   UNL     1     -11.779 -38.146  40.726  1.00  0.00     0.015 C 
BRANCH   5   6
ATOM      6  C   UNL     1     -12.912 -39.112  40.927  1.00  0.00     0.028 C 
BRANCH   6   7
ATOM      7  C   UNL     1     -12.506 -40.446  40.284  1.00  0.00    -0.028 C 
ATOM      8  C   UNL     1     -12.862 -40.980  39.059  1.00  0.00    -0.070 CG0
ATOM      9  C   UNL     1     -12.377 -42.386  38.790  1.00  0.00     0.039 C 
ATOM     10  G   UNL     1     -13.677 -40.301  37.922  1.00  0.00     0.000 G0
ENDBRANCH   6   7
ENDBRANCH   5   6
ENDBRANCH   3   5
ENDBRANCH   1   3
BRANCH   1  11
ATOM     11  C   UNL     1     -10.737 -37.903  37.632  1.00  0.00     0.087 C 
BRANCH  11  12
ATOM     12  C   UNL     1     -12.307 -37.987  37.471  1.00  0.00     0.066 C 
BRANCH  12  13
ATOM     13  C   UNL     1     -12.874 -39.353  37.009  1.00  0.00     0.140 C 
ATOM     14  O   UNL     1     -12.586 -39.741  35.885  1.00  0.00    -0.299 OA
BRANCH  13  15
ATOM     15  C   UNL     1     -13.677 -40.302  37.917  1.00  0.00     0.106 CG0
ATOM     16  G   UNL     1     -12.854 -40.977  39.052  1.00  0.00     0.000 G0
ENDBRANCH  13  15
ENDBRANCH  12  13
BRANCH  12  17
ATOM     17  C   UNL     1     -12.871 -36.854  36.547  1.00  0.00    -0.006 C 
ATOM     18  C   UNL     1     -11.768 -36.006  35.885  1.00  0.00     0.008 C 
ATOM     19  C   UNL     1     -13.808 -35.910  37.328  1.00  0.00     0.008 C 
ENDBRANCH  12  17
ENDBRANCH  11  12
ENDBRANCH   1  11
TORSDOF 1
ENDMDL
MODEL 6
REMARK VINA RESULT:    -5.027      2.379      3.826
REMARK INTER + INTRA:          -8.092
REMARK INTER:                  -7.838
REMARK INTRA:                  -0.255
REMARK UNBOUND:                -0.421
REMARK SMILES CC1=CCC[C@H](C)C(=O)C[C@@H](C(C)C)C(=O)C1
REMARK SMILES IDX 8 1 9 2 6 3 7 4 5 5 4 6 3 7 2 8 1 9 10 11 11 12 15 13 16 14
REMARK SMILES IDX 17 15 12 17 13 18 14 19
REMARK H PARENT
REMARK Flexibility Score: 70.00
ROOT
ATOM      1  C   UNL     1     -13.235 -36.074  36.932  1.00  0.00     0.136 C 
ATOM      2  O   UNL     1     -13.980 -35.665  36.053  1.00  0.00    -0.299 OA
ENDROOT
BRANCH   1   3
ATOM      3  C   UNL     1     -13.041 -35.262  38.228  1.00  0.00     0.053 C 
ATOM      4  C   UNL     1     -12.601 -33.816  37.974  1.00  0.00     0.016 C 
BRANCH   3   5
ATOM      5  C   UNL     1     -14.400 -35.308  38.892  1.00  0.00     0.015 C 
BRANCH   5   6
ATOM      6  C   UNL     1     -15.045 -36.449  39.624  1.00  0.00     0.028 C 
BRANCH   6   7
ATOM      7  C   UNL     1     -14.180 -36.762  40.854  1.00  0.00    -0.028 C 
ATOM      8  C   UNL     1     -13.459 -37.902  41.160  1.00  0.00    -0.070 CG0
ATOM      9  C   UNL     1     -12.813 -37.923  42.526  1.00  0.00     0.039 C 
ATOM     10  G   UNL     1     -13.217 -39.148  40.261  1.00  0.00     0.000 G0
ENDBRANCH   6   7
ENDBRANCH   5   6
ENDBRANCH   3   5
ENDBRANCH   1   3
BRANCH   1  11
ATOM     11  C   UNL     1     -12.537 -37.428  36.741  1.00  0.00     0.087 C 
BRANCH  11  12
ATOM     12  C   UNL     1     -13.105 -38.632  37.593  1.00  0.00     0.066 C 
BRANCH  12  13
ATOM     13  C   UNL     1     -12.430 -38.873  38.967  1.00  0.00     0.140 C 
ATOM     14  O   UNL     1     -11.216 -38.741  39.040  1.00  0.00    -0.299 OA
BRANCH  13  15
ATOM     15  C   UNL     1     -13.205 -39.154  40.268  1.00  0.00     0.106 CG0
ATOM     16  G   UNL     1     -13.457 -37.907  41.164  1.00  0.00     0.000 G0
ENDBRANCH  13  15
ENDBRANCH  12  13
BRANCH  12  17
ATOM     17  C   UNL     1     -13.126 -39.975  36.785  1.00  0.00    -0.006 C 
ATOM     18  C   UNL     1     -12.934 -41.220  37.673  1.00  0.00     0.008 C 
ATOM     19  C   UNL     1     -12.040 -39.985  35.690  1.00  0.00     0.008 C 
ENDBRANCH  12  17
ENDBRANCH  11  12
ENDBRANCH   1  11
TORSDOF 1
ENDMDL
MODEL 7
REMARK VINA RESULT:    -5.006      1.924      4.752
REMARK INTER + INTRA:          -8.061
REMARK INTER:                  -7.669
REMARK INTRA:                  -0.393
REMARK UNBOUND:                -0.421
REMARK SMILES CC1=CCC[C@H](C)C(=O)C[C@@H](C(C)C)C(=O)C1
REMARK SMILES IDX 8 1 9 2 6 3 7 4 5 5 4 6 3 7 2 8 1 9 10 11 11 12 15 13 16 14
REMARK SMILES IDX 17 15 12 17 13 18 14 19
REMARK H PARENT
REMARK Flexibility Score: 70.00
ROOT
ATOM      1  C   UNL     1     -13.269 -40.180  37.761  1.00  0.00     0.136 C 
ATOM      2  O   UNL     1     -12.854 -40.473  36.649  1.00  0.00    -0.299 OA
ENDROOT
BRANCH   1   3
ATOM      3  C   UNL     1     -13.222 -41.210  38.906  1.00  0.00     0.053 C 
ATOM      4  C   UNL     1     -13.137 -42.659  38.413  1.00  0.00     0.016 C 
BRANCH   3   5
ATOM      5  C   UNL     1     -11.984 -40.828  39.687  1.00  0.00     0.015 C 
BRANCH   5   6
ATOM      6  C   UNL     1     -11.892 -40.091  40.993  1.00  0.00     0.028 C 
BRANCH   6   7
ATOM      7  C   UNL     1     -10.560 -39.328  41.005  1.00  0.00    -0.028 C 
ATOM      8  C   UNL     1     -10.218 -38.138  40.388  1.00  0.00    -0.070 CG0
ATOM      9  C   UNL     1      -8.767 -37.731  40.507  1.00  0.00     0.039 C 
ATOM     10  G   UNL     1     -11.149 -37.164  39.612  1.00  0.00     0.000 G0
ENDBRANCH   6   7
ENDBRANCH   5   6
ENDBRANCH   3   5
ENDBRANCH   1   3
BRANCH   1  11
ATOM     11  C   UNL     1     -13.792 -38.757  38.004  1.00  0.00     0.087 C 
BRANCH  11  12
ATOM     12  C   UNL     1     -12.856 -37.577  37.521  1.00  0.00     0.066 C 
BRANCH  12  13
ATOM     13  C   UNL     1     -11.434 -37.540  38.136  1.00  0.00     0.140 C 
ATOM     14  O   UNL     1     -10.485 -37.746  37.393  1.00  0.00    -0.299 OA
BRANCH  13  15
ATOM     15  C   UNL     1     -11.138 -37.145  39.594  1.00  0.00     0.106 CG0
ATOM     16  G   UNL     1     -10.243 -38.147  40.377  1.00  0.00     0.000 G0
ENDBRANCH  13  15
ENDBRANCH  12  13
BRANCH  12  17
ATOM     17  C   UNL     1     -13.531 -36.174  37.694  1.00  0.00    -0.006 C 
ATOM     18  C   UNL     1     -14.710 -36.186  38.687  1.00  0.00     0.008 C 
ATOM     19  C   UNL     1     -14.037 -35.628  36.344  1.00  0.00     0.008 C 
ENDBRANCH  12  17
ENDBRANCH  11  12
ENDBRANCH   1  11
TORSDOF 1
ENDMDL
MODEL 8
REMARK VINA RESULT:    -4.959      2.021      4.184
REMARK INTER + INTRA:          -7.989
REMARK INTER:                  -7.456
REMARK INTRA:                  -0.532
REMARK UNBOUND:                -0.421
REMARK SMILES CC1=CCC[C@H](C)C(=O)C[C@@H](C(C)C)C(=O)C1
REMARK SMILES IDX 8 1 9 2 6 3 7 4 5 5 4 6 3 7 2 8 1 9 10 11 11 12 15 13 16 14
REMARK SMILES IDX 17 15 12 17 13 18 14 19
REMARK H PARENT
REMARK Flexibility Score: 70.00
ROOT
ATOM      1  C   UNL     1     -13.049 -40.455  40.907  1.00  0.00     0.136 C 
ATOM      2  O   UNL     1     -13.742 -41.152  41.636  1.00  0.00    -0.299 OA
ENDROOT
BRANCH   1   3
ATOM      3  C   UNL     1     -12.372 -41.064  39.664  1.00  0.00     0.053 C 
ATOM      4  C   UNL     1     -11.621 -42.367  39.962  1.00  0.00     0.016 C 
BRANCH   3   5
ATOM      5  C   UNL     1     -13.518 -41.304  38.706  1.00  0.00     0.015 C 
BRANCH   5   6
ATOM      6  C   UNL     1     -13.961 -40.457  37.548  1.00  0.00     0.028 C 
BRANCH   6   7
ATOM      7  C   UNL     1     -12.701 -39.938  36.842  1.00  0.00    -0.028 C 
ATOM      8  C   UNL     1     -12.173 -38.660  36.804  1.00  0.00    -0.070 CG0
ATOM      9  C   UNL     1     -10.974 -38.471  35.902  1.00  0.00     0.039 C 
ATOM     10  G   UNL     1     -12.649 -37.407  37.592  1.00  0.00     0.000 G0
ENDBRANCH   6   7
ENDBRANCH   5   6
ENDBRANCH   3   5
ENDBRANCH   1   3
BRANCH   1  11
ATOM     11  C   UNL     1     -12.909 -38.961  41.228  1.00  0.00     0.087 C 
BRANCH  11  12
ATOM     12  C   UNL     1     -13.447 -37.958  40.131  1.00  0.00     0.066 C 
BRANCH  12  13
ATOM     13  C   UNL     1     -12.406 -37.449  39.102  1.00  0.00     0.140 C 
ATOM     14  O   UNL     1     -11.291 -37.158  39.513  1.00  0.00    -0.299 OA
BRANCH  13  15
ATOM     15  C   UNL     1     -12.652 -37.399  37.583  1.00  0.00     0.106 CG0
ATOM     16  G   UNL     1     -12.161 -38.649  36.798  1.00  0.00     0.000 G0
ENDBRANCH  13  15
ENDBRANCH  12  13
BRANCH  12  17
ATOM     17  C   UNL     1     -14.193 -36.732  40.761  1.00  0.00    -0.006 C 
ATOM     18  C   UNL     1     -14.739 -37.015  42.174  1.00  0.00     0.008 C 
ATOM     19  C   UNL     1     -15.364 -36.273  39.869  1.00  0.00     0.008 C 
ENDBRANCH  12  17
ENDBRANCH  11  12
ENDBRANCH   1  11
TORSDOF 1
ENDMDL
MODEL 9
REMARK VINA RESULT:    -4.906      1.584      3.684
REMARK INTER + INTRA:          -7.909
REMARK INTER:                  -7.466
REMARK INTRA:                  -0.443
REMARK UNBOUND:                -0.421
REMARK SMILES CC1=CCC[C@H](C)C(=O)C[C@@H](C(C)C)C(=O)C1
REMARK SMILES IDX 8 1 9 2 6 3 7 4 5 5 4 6 3 7 2 8 1 9 10 11 11 12 15 13 16 14
REMARK SMILES IDX 17 15 12 17 13 18 14 19
REMARK H PARENT
REMARK Flexibility Score: 70.00
ROOT
ATOM      1  C   UNL     1     -10.531 -37.383  38.305  1.00  0.00     0.136 C 
ATOM      2  O   UNL     1      -9.918 -36.427  38.758  1.00  0.00    -0.299 OA
ENDROOT
BRANCH   1   3
ATOM      3  C   UNL     1     -10.677 -37.562  36.781  1.00  0.00     0.053 C 
ATOM      4  C   UNL     1     -11.335 -38.890  36.389  1.00  0.00     0.016 C 
BRANCH   3   5
ATOM      5  C   UNL     1     -11.530 -36.387  36.357  1.00  0.00     0.015 C 
BRANCH   5   6
ATOM      6  C   UNL     1     -13.026 -36.306  36.251  1.00  0.00     0.028 C 
BRANCH   6   7
ATOM      7  C   UNL     1     -13.509 -35.256  37.262  1.00  0.00    -0.028 C 
ATOM      8  C   UNL     1     -14.230 -35.421  38.431  1.00  0.00    -0.070 CG0
ATOM      9  C   UNL     1     -14.648 -34.148  39.129  1.00  0.00     0.039 C 
ATOM     10  G   UNL     1     -14.638 -36.755  39.120  1.00  0.00     0.000 G0
ENDBRANCH   6   7
ENDBRANCH   5   6
ENDBRANCH   3   5
ENDBRANCH   1   3
BRANCH   1  11
ATOM     11  C   UNL     1     -11.109 -38.420  39.279  1.00  0.00     0.087 C 
BRANCH  11  12
ATOM     12  C   UNL     1     -12.677 -38.620  39.237  1.00  0.00     0.066 C 
BRANCH  12  13
ATOM     13  C   UNL     1     -13.525 -37.489  39.871  1.00  0.00     0.140 C 
ATOM     14  O   UNL     1     -13.216 -37.100  40.989  1.00  0.00    -0.299 OA
BRANCH  13  15
ATOM     15  C   UNL     1     -14.658 -36.749  39.136  1.00  0.00     0.106 CG0
ATOM     16  G   UNL     1     -14.229 -35.432  38.427  1.00  0.00     0.000 G0
ENDBRANCH  13  15
ENDBRANCH  12  13
BRANCH  12  17
ATOM     17  C   UNL     1     -13.117 -39.997  39.839  1.00  0.00    -0.006 C 
ATOM     18  C   UNL     1     -12.040 -40.639  40.735  1.00  0.00     0.008 C 
ATOM     19  C   UNL     1     -13.487 -41.001  38.728  1.00  0.00     0.008 C 
ENDBRANCH  12  17
ENDBRANCH  11  12
ENDBRANCH   1  11
TORSDOF 1
ENDMDL
