MODEL 1
REMARK VINA RESULT:    -4.046      0.000      0.000
REMARK INTER + INTRA:          -6.031
REMARK INTER:                  -5.465
REMARK INTRA:                  -0.566
REMARK UNBOUND:                -0.566
REMARK SMILES CCCCCCC=CC(=O)[O-]
REMARK SMILES IDX 5 1 6 2 7 3 8 4 9 5 10 6 11 7 4 8 3 9 2 10 1 11
REMARK H PARENT
REMARK Flexibility Score: inf
ROOT
ATOM      1  C   UNL     1      -2.850   3.704  16.747  1.00  0.00     0.004 C 
ENDROOT
BRANCH   1   2
ATOM      2  C   UNL     1      -1.827   3.599  17.894  1.00  0.00     0.027 C 
BRANCH   2   3
ATOM      3  C   UNL     1      -0.667   4.544  17.727  1.00  0.00    -0.025 C 
ATOM      4  C   UNL     1       0.599   4.200  17.440  1.00  0.00     0.020 C 
BRANCH   4   5
ATOM      5  C   UNL     1       1.100   2.838  17.163  1.00  0.00     0.064 C 
ATOM      6  O   UNL     1       1.533   2.571  16.012  1.00  0.00    -0.545 OA
ATOM      7  O   UNL     1       1.075   1.832  18.120  1.00  0.00    -0.545 OA
ENDBRANCH   4   5
ENDBRANCH   2   3
ENDBRANCH   1   2
BRANCH   1   8
ATOM      8  C   UNL     1      -2.380   3.088  15.414  1.00  0.00     0.000 C 
BRANCH   8   9
ATOM      9  C   UNL     1      -2.709   3.917  14.159  1.00  0.00    -0.000 C 
BRANCH   9  10
ATOM     10  C   UNL     1      -3.084   5.370  14.484  1.00  0.00    -0.003 C 
ATOM     11  C   UNL     1      -2.118   6.349  13.822  1.00  0.00     0.004 C 
ENDBRANCH   9  10
ENDBRANCH   8   9
ENDBRANCH   1   8
TORSDOF 6
ENDMDL
MODEL 2
REMARK VINA RESULT:    -3.895     12.581     13.925
REMARK INTER + INTRA:          -5.828
REMARK INTER:                  -5.480
REMARK INTRA:                  -0.348
REMARK UNBOUND:                -0.566
REMARK SMILES CCCCCCC=CC(=O)[O-]
REMARK SMILES IDX 5 1 6 2 7 3 8 4 9 5 10 6 11 7 4 8 3 9 2 10 1 11
REMARK H PARENT
REMARK Flexibility Score: inf
ROOT
ATOM      1  C   UNL     1     -12.097  -5.234  11.970  1.00  0.00     0.004 C 
ENDROOT
BRANCH   1   2
ATOM      2  C   UNL     1     -10.832  -5.920  12.518  1.00  0.00     0.027 C 
BRANCH   2   3
ATOM      3  C   UNL     1     -10.061  -6.656  11.454  1.00  0.00    -0.025 C 
ATOM      4  C   UNL     1      -8.890  -6.274  10.919  1.00  0.00     0.020 C 
BRANCH   4   5
ATOM      5  C   UNL     1      -8.087  -5.096  11.308  1.00  0.00     0.064 C 
ATOM      6  O   UNL     1      -8.095  -4.082  10.564  1.00  0.00    -0.545 OA
ATOM      7  O   UNL     1      -7.293  -5.086  12.447  1.00  0.00    -0.545 OA
ENDBRANCH   4   5
ENDBRANCH   2   3
ENDBRANCH   1   2
BRANCH   1   8
ATOM      8  C   UNL     1     -13.123  -4.830  13.048  1.00  0.00     0.000 C 
BRANCH   8   9
ATOM      9  C   UNL     1     -12.674  -5.074  14.501  1.00  0.00    -0.000 C 
BRANCH   9  10
ATOM     10  C   UNL     1     -12.866  -3.844  15.400  1.00  0.00    -0.003 C 
ATOM     11  C   UNL     1     -11.833  -3.818  16.523  1.00  0.00     0.004 C 
ENDBRANCH   9  10
ENDBRANCH   8   9
ENDBRANCH   1   8
TORSDOF 6
ENDMDL
MODEL 3
REMARK VINA RESULT:    -3.840     14.607     15.232
REMARK INTER + INTRA:          -5.753
REMARK INTER:                  -5.465
REMARK INTRA:                  -0.288
REMARK UNBOUND:                -0.566
REMARK SMILES CCCCCCC=CC(=O)[O-]
REMARK SMILES IDX 5 1 6 2 7 3 8 4 9 5 10 6 11 7 4 8 3 9 2 10 1 11
REMARK H PARENT
REMARK Flexibility Score: inf
ROOT
ATOM      1  C   UNL     1     -12.029  -7.605  15.539  1.00  0.00     0.004 C 
ENDROOT
BRANCH   1   2
ATOM      2  C   UNL     1     -11.132  -7.933  16.747  1.00  0.00     0.027 C 
BRANCH   2   3
ATOM      3  C   UNL     1     -11.906  -8.488  17.913  1.00  0.00    -0.025 C 
ATOM      4  C   UNL     1     -11.850  -8.050  19.181  1.00  0.00     0.020 C 
BRANCH   4   5
ATOM      5  C   UNL     1     -11.074  -6.896  19.680  1.00  0.00     0.064 C 
ATOM      6  O   UNL     1     -11.666  -5.803  19.875  1.00  0.00    -0.545 OA
ATOM      7  O   UNL     1      -9.705  -6.966  19.906  1.00  0.00    -0.545 OA
ENDBRANCH   4   5
ENDBRANCH   2   3
ENDBRANCH   1   2
BRANCH   1   8
ATOM      8  C   UNL     1     -11.746  -6.236  14.887  1.00  0.00     0.000 C 
BRANCH   8   9
ATOM      9  C   UNL     1     -12.994  -5.465  14.418  1.00  0.00    -0.000 C 
BRANCH   9  10
ATOM     10  C   UNL     1     -12.851  -4.906  12.996  1.00  0.00    -0.003 C 
ATOM     11  C   UNL     1     -11.692  -5.570  12.257  1.00  0.00     0.004 C 
ENDBRANCH   9  10
ENDBRANCH   8   9
ENDBRANCH   1   8
TORSDOF 6
ENDMDL
MODEL 4
REMARK VINA RESULT:    -3.832      2.240      4.430
REMARK INTER + INTRA:          -5.742
REMARK INTER:                  -5.044
REMARK INTRA:                  -0.698
REMARK UNBOUND:                -0.566
REMARK SMILES CCCCCCC=CC(=O)[O-]
REMARK SMILES IDX 5 1 6 2 7 3 8 4 9 5 10 6 11 7 4 8 3 9 2 10 1 11
REMARK H PARENT
REMARK Flexibility Score: inf
ROOT
ATOM      1  C   UNL     1      -1.873   3.632  17.971  1.00  0.00     0.004 C 
ENDROOT
BRANCH   1   2
ATOM      2  C   UNL     1      -2.932   3.539  16.857  1.00  0.00     0.027 C 
BRANCH   2   3
ATOM      3  C   UNL     1      -2.672   4.499  15.726  1.00  0.00    -0.025 C 
ATOM      4  C   UNL     1      -2.515   4.175  14.433  1.00  0.00     0.020 C 
BRANCH   4   5
ATOM      5  C   UNL     1      -2.632   2.825  13.843  1.00  0.00     0.064 C 
ATOM      6  O   UNL     1      -3.770   2.403  13.511  1.00  0.00    -0.545 OA
ATOM      7  O   UNL     1      -1.533   1.992  13.678  1.00  0.00    -0.545 OA
ENDBRANCH   4   5
ENDBRANCH   2   3
ENDBRANCH   1   2
BRANCH   1   8
ATOM      8  C   UNL     1      -0.746   4.649  17.698  1.00  0.00     0.000 C 
BRANCH   8   9
ATOM      9  C   UNL     1       0.661   4.040  17.548  1.00  0.00    -0.000 C 
BRANCH   9  10
ATOM     10  C   UNL     1       0.759   3.044  16.384  1.00  0.00    -0.003 C 
ATOM     11  C   UNL     1       0.999   1.625  16.893  1.00  0.00     0.004 C 
ENDBRANCH   9  10
ENDBRANCH   8   9
ENDBRANCH   1   8
TORSDOF 6
ENDMDL
MODEL 5
REMARK VINA RESULT:    -3.719     13.911     15.061
REMARK INTER + INTRA:          -5.589
REMARK INTER:                  -5.151
REMARK INTRA:                  -0.438
REMARK UNBOUND:                -0.566
REMARK SMILES CCCCCCC=CC(=O)[O-]
REMARK SMILES IDX 5 1 6 2 7 3 8 4 9 5 10 6 11 7 4 8 3 9 2 10 1 11
REMARK H PARENT
REMARK Flexibility Score: inf
ROOT
ATOM      1  C   UNL     1     -11.528  -5.962  14.760  1.00  0.00     0.004 C 
ENDROOT
BRANCH   1   2
ATOM      2  C   UNL     1     -12.062  -7.257  15.400  1.00  0.00     0.027 C 
BRANCH   2   3
ATOM      3  C   UNL     1     -10.997  -8.310  15.558  1.00  0.00    -0.025 C 
ATOM      4  C   UNL     1     -10.414  -8.679  16.710  1.00  0.00     0.020 C 
BRANCH   4   5
ATOM      5  C   UNL     1     -10.742  -8.182  18.062  1.00  0.00     0.064 C 
ATOM      6  O   UNL     1     -10.115  -7.188  18.512  1.00  0.00    -0.545 OA
ATOM      7  O   UNL     1     -11.691  -8.797  18.867  1.00  0.00    -0.545 OA
ENDBRANCH   4   5
ENDBRANCH   2   3
ENDBRANCH   1   2
BRANCH   1   8
ATOM      8  C   UNL     1     -12.453  -5.352  13.687  1.00  0.00     0.000 C 
BRANCH   8   9
ATOM      9  C   UNL     1     -11.874  -5.334  12.260  1.00  0.00    -0.000 C 
BRANCH   9  10
ATOM     10  C   UNL     1     -10.707  -6.314  12.076  1.00  0.00    -0.003 C 
ATOM     11  C   UNL     1      -9.515  -5.631  11.410  1.00  0.00     0.004 C 
ENDBRANCH   9  10
ENDBRANCH   8   9
ENDBRANCH   1   8
TORSDOF 6
ENDMDL
MODEL 6
REMARK VINA RESULT:    -3.611     13.818     14.704
REMARK INTER + INTRA:          -5.443
REMARK INTER:                  -5.069
REMARK INTRA:                  -0.374
REMARK UNBOUND:                -0.566
REMARK SMILES CCCCCCC=CC(=O)[O-]
REMARK SMILES IDX 5 1 6 2 7 3 8 4 9 5 10 6 11 7 4 8 3 9 2 10 1 11
REMARK H PARENT
REMARK Flexibility Score: inf
ROOT
ATOM      1  C   UNL     1     -11.885  -3.860  16.466  1.00  0.00     0.004 C 
ENDROOT
BRANCH   1   2
ATOM      2  C   UNL     1     -11.032  -5.138  16.576  1.00  0.00     0.027 C 
BRANCH   2   3
ATOM      3  C   UNL     1     -10.867  -5.607  17.998  1.00  0.00    -0.025 C 
ATOM      4  C   UNL     1     -10.947  -6.876  18.426  1.00  0.00     0.020 C 
BRANCH   4   5
ATOM      5  C   UNL     1     -11.144  -8.078  17.589  1.00  0.00     0.064 C 
ATOM      6  O   UNL     1     -10.158  -8.823  17.354  1.00  0.00    -0.545 OA
ATOM      7  O   UNL     1     -12.372  -8.391  17.021  1.00  0.00    -0.545 OA
ENDBRANCH   4   5
ENDBRANCH   2   3
ENDBRANCH   1   2
BRANCH   1   8
ATOM      8  C   UNL     1     -12.893  -3.865  15.298  1.00  0.00     0.000 C 
BRANCH   8   9
ATOM      9  C   UNL     1     -12.898  -5.147  14.445  1.00  0.00    -0.000 C 
BRANCH   9  10
ATOM     10  C   UNL     1     -12.982  -4.862  12.939  1.00  0.00    -0.003 C 
ATOM     11  C   UNL     1     -11.837  -5.536  12.187  1.00  0.00     0.004 C 
ENDBRANCH   9  10
ENDBRANCH   8   9
ENDBRANCH   1   8
TORSDOF 6
ENDMDL
MODEL 7
REMARK VINA RESULT:    -3.557      1.342      2.205
REMARK INTER + INTRA:          -5.371
REMARK INTER:                  -4.572
REMARK INTRA:                  -0.799
REMARK UNBOUND:                -0.566
REMARK SMILES CCCCCCC=CC(=O)[O-]
REMARK SMILES IDX 5 1 6 2 7 3 8 4 9 5 10 6 11 7 4 8 3 9 2 10 1 11
REMARK H PARENT
REMARK Flexibility Score: inf
ROOT
ATOM      1  C   UNL     1      -2.219   4.045  16.791  1.00  0.00     0.004 C 
ENDROOT
BRANCH   1   2
ATOM      2  C   UNL     1      -0.909   4.247  17.576  1.00  0.00     0.027 C 
BRANCH   2   3
ATOM      3  C   UNL     1       0.314   3.923  16.760  1.00  0.00    -0.025 C 
ATOM      4  C   UNL     1       0.870   2.710  16.614  1.00  0.00     0.020 C 
BRANCH   4   5
ATOM      5  C   UNL     1       0.361   1.437  17.165  1.00  0.00     0.064 C 
ATOM      6  O   UNL     1       0.798   1.037  18.275  1.00  0.00    -0.545 OA
ATOM      7  O   UNL     1      -0.555   0.648  16.481  1.00  0.00    -0.545 OA
ENDBRANCH   4   5
ENDBRANCH   2   3
ENDBRANCH   1   2
BRANCH   1   8
ATOM      8  C   UNL     1      -2.356   4.932  15.537  1.00  0.00     0.000 C 
BRANCH   8   9
ATOM      9  C   UNL     1      -2.826   4.200  14.267  1.00  0.00    -0.000 C 
BRANCH   9  10
ATOM     10  C   UNL     1      -2.711   2.674  14.380  1.00  0.00    -0.003 C 
ATOM     11  C   UNL     1      -1.630   2.134  13.447  1.00  0.00     0.004 C 
ENDBRANCH   9  10
ENDBRANCH   8   9
ENDBRANCH   1   8
TORSDOF 6
ENDMDL
MODEL 8
REMARK VINA RESULT:    -3.542      1.737      3.107
REMARK INTER + INTRA:          -5.350
REMARK INTER:                  -4.626
REMARK INTRA:                  -0.725
REMARK UNBOUND:                -0.566
REMARK SMILES CCCCCCC=CC(=O)[O-]
REMARK SMILES IDX 5 1 6 2 7 3 8 4 9 5 10 6 11 7 4 8 3 9 2 10 1 11
REMARK H PARENT
REMARK Flexibility Score: inf
ROOT
ATOM      1  C   UNL     1       0.593   4.357  17.135  1.00  0.00     0.004 C 
ENDROOT
BRANCH   1   2
ATOM      2  C   UNL     1       1.493   3.200  17.609  1.00  0.00     0.027 C 
BRANCH   2   3
ATOM      3  C   UNL     1       1.196   1.905  16.900  1.00  0.00    -0.025 C 
ATOM      4  C   UNL     1       0.527   0.859  17.410  1.00  0.00     0.020 C 
BRANCH   4   5
ATOM      5  C   UNL     1      -0.113   0.787  18.741  1.00  0.00     0.064 C 
ATOM      6  O   UNL     1       0.575   0.416  19.727  1.00  0.00    -0.545 OA
ATOM      7  O   UNL     1      -1.457   1.078  18.933  1.00  0.00    -0.545 OA
ENDBRANCH   4   5
ENDBRANCH   2   3
ENDBRANCH   1   2
BRANCH   1   8
ATOM      8  C   UNL     1      -0.791   4.409  17.814  1.00  0.00     0.000 C 
BRANCH   8   9
ATOM      9  C   UNL     1      -1.977   4.037  16.907  1.00  0.00    -0.000 C 
BRANCH   9  10
ATOM     10  C   UNL     1      -1.635   4.117  15.413  1.00  0.00    -0.003 C 
ATOM     11  C   UNL     1      -2.510   5.146  14.702  1.00  0.00     0.004 C 
ENDBRANCH   9  10
ENDBRANCH   8   9
ENDBRANCH   1   8
TORSDOF 6
ENDMDL
MODEL 9
REMARK VINA RESULT:    -3.523      2.971      4.841
REMARK INTER + INTRA:          -5.325
REMARK INTER:                  -4.681
REMARK INTRA:                  -0.643
REMARK UNBOUND:                -0.566
REMARK SMILES CCCCCCC=CC(=O)[O-]
REMARK SMILES IDX 5 1 6 2 7 3 8 4 9 5 10 6 11 7 4 8 3 9 2 10 1 11
REMARK H PARENT
REMARK Flexibility Score: inf
ROOT
ATOM      1  C   UNL     1      -2.657   4.639  15.361  1.00  0.00     0.004 C 
ENDROOT
BRANCH   1   2
ATOM      2  C   UNL     1      -2.216   3.808  14.142  1.00  0.00     0.027 C 
BRANCH   2   3
ATOM      3  C   UNL     1      -2.042   2.347  14.465  1.00  0.00    -0.025 C 
ATOM      4  C   UNL     1      -2.016   1.338  13.580  1.00  0.00     0.020 C 
BRANCH   4   5
ATOM      5  C   UNL     1      -2.083   1.456  12.108  1.00  0.00     0.064 C 
ATOM      6  O   UNL     1      -1.026   1.692  11.468  1.00  0.00    -0.545 OA
ATOM      7  O   UNL     1      -3.280   1.354  11.411  1.00  0.00    -0.545 OA
ENDBRANCH   4   5
ENDBRANCH   2   3
ENDBRANCH   1   2
BRANCH   1   8
ATOM      8  C   UNL     1      -2.432   3.946  16.721  1.00  0.00     0.000 C 
BRANCH   8   9
ATOM      9  C   UNL     1      -1.168   4.390  17.479  1.00  0.00    -0.000 C 
BRANCH   9  10
ATOM     10  C   UNL     1      -0.091   3.297  17.538  1.00  0.00    -0.003 C 
ATOM     11  C   UNL     1       1.034   3.579  16.546  1.00  0.00     0.004 C 
ENDBRANCH   9  10
ENDBRANCH   8   9
ENDBRANCH   1   8
TORSDOF 6
ENDMDL
