MODEL 1
REMARK VINA RESULT:    -4.813      0.000      0.000
REMARK INTER + INTRA:          -4.813
REMARK INTER:                  -4.813
REMARK INTRA:                   0.000
REMARK UNBOUND:                 0.000
REMARK SMILES CC1=CC(=O)[C@H]2C[C@@H]1C2(C)C
REMARK SMILES IDX 1 1 2 2 3 3 4 4 5 5 6 6 7 7 8 8 9 9 10 10 11 11
REMARK H PARENT
REMARK Flexibility Score: inf
ROOT
ATOM      1  C   UNL     1      -5.892 -20.254 -18.408  1.00  0.00     0.040 C 
ATOM      2  C   UNL     1      -6.304 -21.454 -17.613  1.00  0.00    -0.066 C 
ATOM      3  C   UNL     1      -5.426 -22.146 -16.833  1.00  0.00     0.047 C 
ATOM      4  C   UNL     1      -5.983 -23.326 -16.097  1.00  0.00     0.159 C 
ATOM      5  O   UNL     1      -5.264 -24.070 -15.379  1.00  0.00    -0.295 OA
ATOM      6  C   UNL     1      -7.482 -23.562 -16.277  1.00  0.00     0.067 C 
ATOM      7  C   UNL     1      -8.108 -22.159 -16.108  1.00  0.00     0.021 C 
ATOM      8  C   UNL     1      -7.772 -21.926 -17.598  1.00  0.00     0.022 C 
ATOM      9  C   UNL     1      -7.820 -23.470 -17.792  1.00  0.00    -0.019 C 
ATOM     10  C   UNL     1      -9.248 -23.980 -18.110  1.00  0.00     0.012 C 
ATOM     11  C   UNL     1      -6.835 -24.114 -18.808  1.00  0.00     0.012 C 
ENDROOT
TORSDOF 0
ENDMDL
MODEL 2
REMARK VINA RESULT:    -4.587      1.822      3.044
REMARK INTER + INTRA:          -4.587
REMARK INTER:                  -4.587
REMARK INTRA:                   0.000
REMARK UNBOUND:                 0.000
REMARK SMILES CC1=CC(=O)[C@H]2C[C@@H]1C2(C)C
REMARK SMILES IDX 1 1 2 2 3 3 4 4 5 5 6 6 7 7 8 8 9 9 10 10 11 11
REMARK H PARENT
REMARK Flexibility Score: inf
ROOT
ATOM      1  C   UNL     1      -5.161 -24.340 -15.619  1.00  0.00     0.040 C 
ATOM      2  C   UNL     1      -6.439 -23.869 -16.240  1.00  0.00    -0.066 C 
ATOM      3  C   UNL     1      -7.426 -24.731 -16.615  1.00  0.00     0.047 C 
ATOM      4  C   UNL     1      -8.647 -24.113 -17.226  1.00  0.00     0.159 C 
ATOM      5  O   UNL     1      -9.609 -24.805 -17.651  1.00  0.00    -0.295 OA
ATOM      6  C   UNL     1      -8.643 -22.586 -17.294  1.00  0.00     0.067 C 
ATOM      7  C   UNL     1      -8.151 -22.146 -15.898  1.00  0.00     0.021 C 
ATOM      8  C   UNL     1      -6.718 -22.364 -16.431  1.00  0.00     0.022 C 
ATOM      9  C   UNL     1      -7.274 -22.119 -17.864  1.00  0.00    -0.019 C 
ATOM     10  C   UNL     1      -7.275 -20.617 -18.247  1.00  0.00     0.012 C 
ATOM     11  C   UNL     1      -6.652 -22.922 -19.042  1.00  0.00     0.012 C 
ENDROOT
TORSDOF 0
ENDMDL
MODEL 3
REMARK VINA RESULT:    -4.525      2.140      3.803
REMARK INTER + INTRA:          -4.525
REMARK INTER:                  -4.525
REMARK INTRA:                   0.000
REMARK UNBOUND:                 0.000
REMARK SMILES CC1=CC(=O)[C@H]2C[C@@H]1C2(C)C
REMARK SMILES IDX 1 1 2 2 3 3 4 4 5 5 6 6 7 7 8 8 9 9 10 10 11 11
REMARK H PARENT
REMARK Flexibility Score: inf
ROOT
ATOM      1  C   UNL     1      -9.939 -25.652 -17.105  1.00  0.00     0.040 C 
ATOM      2  C   UNL     1      -9.181 -24.366 -17.227  1.00  0.00    -0.066 C 
ATOM      3  C   UNL     1      -9.368 -23.508 -18.268  1.00  0.00     0.047 C 
ATOM      4  C   UNL     1      -8.536 -22.262 -18.256  1.00  0.00     0.159 C 
ATOM      5  O   UNL     1      -8.586 -21.411 -19.184  1.00  0.00    -0.295 OA
ATOM      6  C   UNL     1      -7.626 -22.094 -17.040  1.00  0.00     0.067 C 
ATOM      7  C   UNL     1      -8.530 -22.451 -15.839  1.00  0.00     0.021 C 
ATOM      8  C   UNL     1      -8.187 -23.928 -16.132  1.00  0.00     0.022 C 
ATOM      9  C   UNL     1      -6.871 -23.432 -16.798  1.00  0.00    -0.019 C 
ATOM     10  C   UNL     1      -5.714 -23.280 -15.778  1.00  0.00     0.012 C 
ATOM     11  C   UNL     1      -6.333 -24.209 -18.033  1.00  0.00     0.012 C 
ENDROOT
TORSDOF 0
ENDMDL
MODEL 4
REMARK VINA RESULT:    -4.478      1.593      2.986
REMARK INTER + INTRA:          -4.478
REMARK INTER:                  -4.478
REMARK INTRA:                   0.000
REMARK UNBOUND:                 0.000
REMARK SMILES CC1=CC(=O)[C@H]2C[C@@H]1C2(C)C
REMARK SMILES IDX 1 1 2 2 3 3 4 4 5 5 6 6 7 7 8 8 9 9 10 10 11 11
REMARK H PARENT
REMARK Flexibility Score: inf
ROOT
ATOM      1  C   UNL     1      -5.117 -24.395 -15.386  1.00  0.00     0.040 C 
ATOM      2  C   UNL     1      -5.883 -23.573 -16.375  1.00  0.00    -0.066 C 
ATOM      3  C   UNL     1      -5.516 -22.302 -16.703  1.00  0.00     0.047 C 
ATOM      4  C   UNL     1      -6.380 -21.602 -17.707  1.00  0.00     0.159 C 
ATOM      5  O   UNL     1      -6.171 -20.411 -18.061  1.00  0.00    -0.295 OA
ATOM      6  C   UNL     1      -7.531 -22.434 -18.273  1.00  0.00     0.067 C 
ATOM      7  C   UNL     1      -6.885 -23.797 -18.603  1.00  0.00     0.021 C 
ATOM      8  C   UNL     1      -7.101 -24.160 -17.117  1.00  0.00     0.022 C 
ATOM      9  C   UNL     1      -8.267 -23.129 -17.093  1.00  0.00    -0.019 C 
ATOM     10  C   UNL     1      -9.617 -23.755 -17.526  1.00  0.00     0.012 C 
ATOM     11  C   UNL     1      -8.503 -22.316 -15.789  1.00  0.00     0.012 C 
ENDROOT
TORSDOF 0
ENDMDL
MODEL 5
REMARK VINA RESULT:    -4.477      1.856      3.161
REMARK INTER + INTRA:          -4.477
REMARK INTER:                  -4.477
REMARK INTRA:                   0.000
REMARK UNBOUND:                 0.000
REMARK SMILES CC1=CC(=O)[C@H]2C[C@@H]1C2(C)C
REMARK SMILES IDX 1 1 2 2 3 3 4 4 5 5 6 6 7 7 8 8 9 9 10 10 11 11
REMARK H PARENT
REMARK Flexibility Score: inf
ROOT
ATOM      1  C   UNL     1      -7.547 -19.780 -18.823  1.00  0.00     0.040 C 
ATOM      2  C   UNL     1      -7.580 -21.225 -18.437  1.00  0.00    -0.066 C 
ATOM      3  C   UNL     1      -8.651 -22.025 -18.705  1.00  0.00     0.047 C 
ATOM      4  C   UNL     1      -8.541 -23.451 -18.256  1.00  0.00     0.159 C 
ATOM      5  O   UNL     1      -9.478 -24.277 -18.407  1.00  0.00    -0.295 OA
ATOM      6  C   UNL     1      -7.211 -23.830 -17.604  1.00  0.00     0.067 C 
ATOM      7  C   UNL     1      -6.144 -23.211 -18.533  1.00  0.00     0.021 C 
ATOM      8  C   UNL     1      -6.364 -21.891 -17.762  1.00  0.00     0.022 C 
ATOM      9  C   UNL     1      -6.847 -22.744 -16.552  1.00  0.00    -0.019 C 
ATOM     10  C   UNL     1      -5.677 -23.180 -15.634  1.00  0.00     0.012 C 
ATOM     11  C   UNL     1      -7.982 -22.173 -15.656  1.00  0.00     0.012 C 
ENDROOT
TORSDOF 0
ENDMDL
MODEL 6
REMARK VINA RESULT:    -4.403     16.479     17.487
REMARK INTER + INTRA:          -4.403
REMARK INTER:                  -4.403
REMARK INTRA:                   0.000
REMARK UNBOUND:                 0.000
REMARK SMILES CC1=CC(=O)[C@H]2C[C@@H]1C2(C)C
REMARK SMILES IDX 1 1 2 2 3 3 4 4 5 5 6 6 7 7 8 8 9 9 10 10 11 11
REMARK H PARENT
REMARK Flexibility Score: inf
ROOT
ATOM      1  C   UNL     1     -11.569 -32.065  -4.623  1.00  0.00     0.040 C 
ATOM      2  C   UNL     1     -11.081 -33.461  -4.858  1.00  0.00    -0.066 C 
ATOM      3  C   UNL     1     -11.516 -34.518  -4.117  1.00  0.00     0.047 C 
ATOM      4  C   UNL     1     -10.936 -35.855  -4.467  1.00  0.00     0.159 C 
ATOM      5  O   UNL     1     -11.225 -36.901  -3.828  1.00  0.00    -0.295 OA
ATOM      6  C   UNL     1      -9.972 -35.860  -5.653  1.00  0.00     0.067 C 
ATOM      7  C   UNL     1     -10.686 -35.004  -6.723  1.00  0.00     0.021 C 
ATOM      8  C   UNL     1     -10.096 -33.771  -6.004  1.00  0.00     0.022 C 
ATOM      9  C   UNL     1      -8.960 -34.693  -5.474  1.00  0.00    -0.019 C 
ATOM     10  C   UNL     1      -7.769 -34.788  -6.461  1.00  0.00     0.012 C 
ATOM     11  C   UNL     1      -8.393 -34.418  -4.052  1.00  0.00     0.012 C 
ENDROOT
TORSDOF 0
ENDMDL
MODEL 7
REMARK VINA RESULT:    -4.374      1.733      2.302
REMARK INTER + INTRA:          -4.374
REMARK INTER:                  -4.374
REMARK INTRA:                   0.000
REMARK UNBOUND:                 0.000
REMARK SMILES CC1=CC(=O)[C@H]2C[C@@H]1C2(C)C
REMARK SMILES IDX 1 1 2 2 3 3 4 4 5 5 6 6 7 7 8 8 9 9 10 10 11 11
REMARK H PARENT
REMARK Flexibility Score: inf
ROOT
ATOM      1  C   UNL     1      -7.452 -19.915 -18.753  1.00  0.00     0.040 C 
ATOM      2  C   UNL     1      -7.316 -21.363 -18.401  1.00  0.00    -0.066 C 
ATOM      3  C   UNL     1      -6.798 -22.277 -19.269  1.00  0.00     0.047 C 
ATOM      4  C   UNL     1      -6.726 -23.691 -18.776  1.00  0.00     0.159 C 
ATOM      5  O   UNL     1      -6.308 -24.633 -19.499  1.00  0.00    -0.295 OA
ATOM      6  C   UNL     1      -7.194 -23.907 -17.337  1.00  0.00     0.067 C 
ATOM      7  C   UNL     1      -6.526 -22.761 -16.546  1.00  0.00     0.021 C 
ATOM      8  C   UNL     1      -7.708 -21.876 -17.000  1.00  0.00     0.022 C 
ATOM      9  C   UNL     1      -8.553 -23.175 -17.143  1.00  0.00    -0.019 C 
ATOM     10  C   UNL     1      -9.252 -23.572 -15.818  1.00  0.00     0.012 C 
ATOM     11  C   UNL     1      -9.601 -23.248 -18.289  1.00  0.00     0.012 C 
ENDROOT
TORSDOF 0
ENDMDL
MODEL 8
REMARK VINA RESULT:    -4.333      1.631      3.288
REMARK INTER + INTRA:          -4.333
REMARK INTER:                  -4.333
REMARK INTRA:                   0.000
REMARK UNBOUND:                 0.000
REMARK SMILES CC1=CC(=O)[C@H]2C[C@@H]1C2(C)C
REMARK SMILES IDX 1 1 2 2 3 3 4 4 5 5 6 6 7 7 8 8 9 9 10 10 11 11
REMARK H PARENT
REMARK Flexibility Score: inf
ROOT
ATOM      1  C   UNL     1      -6.672 -25.638 -18.614  1.00  0.00     0.040 C 
ATOM      2  C   UNL     1      -6.983 -24.458 -17.747  1.00  0.00    -0.066 C 
ATOM      3  C   UNL     1      -8.105 -24.398 -16.976  1.00  0.00     0.047 C 
ATOM      4  C   UNL     1      -8.283 -23.153 -16.162  1.00  0.00     0.159 C 
ATOM      5  O   UNL     1      -9.298 -22.959 -15.442  1.00  0.00    -0.295 OA
ATOM      6  C   UNL     1      -7.146 -22.136 -16.264  1.00  0.00     0.067 C 
ATOM      7  C   UNL     1      -5.864 -22.988 -16.133  1.00  0.00     0.021 C 
ATOM      8  C   UNL     1      -6.003 -23.272 -17.645  1.00  0.00     0.022 C 
ATOM      9  C   UNL     1      -6.794 -21.936 -17.766  1.00  0.00    -0.019 C 
ATOM     10  C   UNL     1      -5.863 -20.719 -17.997  1.00  0.00     0.012 C 
ATOM     11  C   UNL     1      -7.958 -21.861 -18.793  1.00  0.00     0.012 C 
ENDROOT
TORSDOF 0
ENDMDL
MODEL 9
REMARK VINA RESULT:    -4.319      1.752      2.798
REMARK INTER + INTRA:          -4.319
REMARK INTER:                  -4.319
REMARK INTRA:                   0.000
REMARK UNBOUND:                 0.000
REMARK SMILES CC1=CC(=O)[C@H]2C[C@@H]1C2(C)C
REMARK SMILES IDX 1 1 2 2 3 3 4 4 5 5 6 6 7 7 8 8 9 9 10 10 11 11
REMARK H PARENT
REMARK Flexibility Score: inf
ROOT
ATOM      1  C   UNL     1      -3.251 -22.126 -16.508  1.00  0.00     0.040 C 
ATOM      2  C   UNL     1      -4.525 -22.794 -16.923  1.00  0.00    -0.066 C 
ATOM      3  C   UNL     1      -4.661 -23.411 -18.130  1.00  0.00     0.047 C 
ATOM      4  C   UNL     1      -5.996 -24.033 -18.408  1.00  0.00     0.159 C 
ATOM      5  O   UNL     1      -6.261 -24.596 -19.503  1.00  0.00    -0.295 OA
ATOM      6  C   UNL     1      -7.011 -23.940 -17.269  1.00  0.00     0.067 C 
ATOM      7  C   UNL     1      -6.204 -24.331 -16.011  1.00  0.00     0.021 C 
ATOM      8  C   UNL     1      -5.731 -22.861 -15.965  1.00  0.00     0.022 C 
ATOM      9  C   UNL     1      -7.027 -22.479 -16.738  1.00  0.00    -0.019 C 
ATOM     10  C   UNL     1      -8.222 -22.209 -15.788  1.00  0.00     0.012 C 
ATOM     11  C   UNL     1      -6.953 -21.318 -17.769  1.00  0.00     0.012 C 
ENDROOT
TORSDOF 0
ENDMDL
