MODEL 1
REMARK VINA RESULT:    -3.485      0.000      0.000
REMARK INTER + INTRA:          -6.949
REMARK INTER:                  -5.522
REMARK INTRA:                  -1.427
REMARK UNBOUND:                -1.427
REMARK SMILES CCCCCCCCCCCC(=O)[O-]
REMARK SMILES IDX 7 1 8 2 9 3 10 4 11 5 12 6 13 7 14 8 6 9 5 10 4 11 3 12 2 13
REMARK SMILES IDX 1 14
REMARK H PARENT
REMARK Flexibility Score: inf
ROOT
ATOM      1  C   UNL     1     129.421 145.367 122.633  1.00  0.00     0.000 C 
ENDROOT
BRANCH   1   2
ATOM      2  C   UNL     1     130.782 145.932 122.200  1.00  0.00     0.000 C 
BRANCH   2   3
ATOM      3  C   UNL     1     130.724 146.623 120.826  1.00  0.00     0.000 C 
BRANCH   3   4
ATOM      4  C   UNL     1     131.539 145.880 119.756  1.00  0.00     0.006 C 
BRANCH   4   5
ATOM      5  C   UNL     1     132.833 145.274 120.315  1.00  0.00     0.053 C 
BRANCH   5   6
ATOM      6  C   UNL     1     133.958 146.255 120.206  1.00  0.00     0.041 C 
ATOM      7  O   UNL     1     134.446 146.535 119.079  1.00  0.00    -0.550 OA
ATOM      8  O   UNL     1     134.433 146.896 121.342  1.00  0.00    -0.550 OA
ENDBRANCH   5   6
ENDBRANCH   4   5
ENDBRANCH   3   4
ENDBRANCH   2   3
ENDBRANCH   1   2
BRANCH   1   9
ATOM      9  C   UNL     1     128.370 146.469 122.861  1.00  0.00     0.000 C 
BRANCH   9  10
ATOM     10  C   UNL     1     127.104 146.261 122.015  1.00  0.00    -0.000 C 
BRANCH  10  11
ATOM     11  C   UNL     1     127.255 145.125 120.993  1.00  0.00    -0.000 C 
BRANCH  11  12
ATOM     12  C   UNL     1     127.221 145.666 119.560  1.00  0.00    -0.000 C 
BRANCH  12  13
ATOM     13  C   UNL     1     128.006 144.757 118.608  1.00  0.00    -0.003 C 
ATOM     14  C   UNL     1     128.655 143.599 119.360  1.00  0.00     0.004 C 
ENDBRANCH  12  13
ENDBRANCH  11  12
ENDBRANCH  10  11
ENDBRANCH   9  10
ENDBRANCH   1   9
TORSDOF 10
ENDMDL
MODEL 2
REMARK VINA RESULT:    -3.421      1.141      2.859
REMARK INTER + INTRA:          -6.848
REMARK INTER:                  -5.376
REMARK INTRA:                  -1.472
REMARK UNBOUND:                -1.427
REMARK SMILES CCCCCCCCCCCC(=O)[O-]
REMARK SMILES IDX 7 1 8 2 9 3 10 4 11 5 12 6 13 7 14 8 6 9 5 10 4 11 3 12 2 13
REMARK SMILES IDX 1 14
REMARK H PARENT
REMARK Flexibility Score: inf
ROOT
ATOM      1  C   UNL     1     129.326 144.201 119.620  1.00  0.00     0.000 C 
ENDROOT
BRANCH   1   2
ATOM      2  C   UNL     1     130.693 144.876 119.806  1.00  0.00     0.000 C 
BRANCH   2   3
ATOM      3  C   UNL     1     130.615 146.409 119.692  1.00  0.00     0.000 C 
BRANCH   3   4
ATOM      4  C   UNL     1     131.769 147.115 120.420  1.00  0.00     0.006 C 
BRANCH   4   5
ATOM      5  C   UNL     1     132.074 146.490 121.788  1.00  0.00     0.053 C 
BRANCH   5   6
ATOM      6  C   UNL     1     133.551 146.381 121.995  1.00  0.00     0.041 C 
ATOM      7  O   UNL     1     134.007 145.804 123.017  1.00  0.00    -0.550 OA
ATOM      8  O   UNL     1     134.425 146.873 121.034  1.00  0.00    -0.550 OA
ENDBRANCH   5   6
ENDBRANCH   4   5
ENDBRANCH   3   4
ENDBRANCH   2   3
ENDBRANCH   1   2
BRANCH   1   9
ATOM      9  C   UNL     1     128.340 145.075 118.823  1.00  0.00     0.000 C 
BRANCH   9  10
ATOM     10  C   UNL     1     127.089 145.445 119.636  1.00  0.00    -0.000 C 
BRANCH  10  11
ATOM     11  C   UNL     1     127.237 145.118 121.129  1.00  0.00    -0.000 C 
BRANCH  11  12
ATOM     12  C   UNL     1     127.230 146.397 121.975  1.00  0.00    -0.000 C 
BRANCH  12  13
ATOM     13  C   UNL     1     128.483 146.484 122.854  1.00  0.00    -0.003 C 
ATOM     14  C   UNL     1     128.959 145.097 123.275  1.00  0.00     0.004 C 
ENDBRANCH  12  13
ENDBRANCH  11  12
ENDBRANCH  10  11
ENDBRANCH   9  10
ENDBRANCH   1   9
TORSDOF 10
ENDMDL
MODEL 3
REMARK VINA RESULT:    -3.415      4.055      5.673
REMARK INTER + INTRA:          -6.839
REMARK INTER:                  -6.074
REMARK INTRA:                  -0.765
REMARK UNBOUND:                -1.427
REMARK SMILES CCCCCCCCCCCC(=O)[O-]
REMARK SMILES IDX 7 1 8 2 9 3 10 4 11 5 12 6 13 7 14 8 6 9 5 10 4 11 3 12 2 13
REMARK SMILES IDX 1 14
REMARK H PARENT
REMARK Flexibility Score: inf
ROOT
ATOM      1  C   UNL     1     128.666 142.322 120.163  1.00  0.00     0.000 C 
ENDROOT
BRANCH   1   2
ATOM      2  C   UNL     1     128.885 143.605 119.347  1.00  0.00     0.000 C 
BRANCH   2   3
ATOM      3  C   UNL     1     127.564 144.310 118.991  1.00  0.00     0.000 C 
BRANCH   3   4
ATOM      4  C   UNL     1     127.403 145.660 119.707  1.00  0.00     0.006 C 
BRANCH   4   5
ATOM      5  C   UNL     1     128.605 146.001 120.598  1.00  0.00     0.053 C 
BRANCH   5   6
ATOM      6  C   UNL     1     128.197 146.027 122.037  1.00  0.00     0.041 C 
ATOM      7  O   UNL     1     128.762 146.814 122.842  1.00  0.00    -0.550 OA
ATOM      8  O   UNL     1     127.158 145.218 122.479  1.00  0.00    -0.550 OA
ENDBRANCH   5   6
ENDBRANCH   4   5
ENDBRANCH   3   4
ENDBRANCH   2   3
ENDBRANCH   1   2
BRANCH   1   9
ATOM      9  C   UNL     1     127.181 142.072 120.482  1.00  0.00     0.000 C 
BRANCH   9  10
ATOM     10  C   UNL     1     126.888 140.599 120.809  1.00  0.00    -0.000 C 
BRANCH  10  11
ATOM     11  C   UNL     1     127.880 139.636 120.140  1.00  0.00    -0.000 C 
BRANCH  11  12
ATOM     12  C   UNL     1     127.151 138.633 119.239  1.00  0.00    -0.000 C 
BRANCH  12  13
ATOM     13  C   UNL     1     128.146 137.775 118.450  1.00  0.00    -0.003 C 
ATOM     14  C   UNL     1     129.557 137.908 119.013  1.00  0.00     0.004 C 
ENDBRANCH  12  13
ENDBRANCH  11  12
ENDBRANCH  10  11
ENDBRANCH   9  10
ENDBRANCH   1   9
TORSDOF 10
ENDMDL
MODEL 4
REMARK VINA RESULT:    -3.378      2.876      5.686
REMARK INTER + INTRA:          -6.780
REMARK INTER:                  -5.920
REMARK INTRA:                  -0.860
REMARK UNBOUND:                -1.427
REMARK SMILES CCCCCCCCCCCC(=O)[O-]
REMARK SMILES IDX 7 1 8 2 9 3 10 4 11 5 12 6 13 7 14 8 6 9 5 10 4 11 3 12 2 13
REMARK SMILES IDX 1 14
REMARK H PARENT
REMARK Flexibility Score: inf
ROOT
ATOM      1  C   UNL     1     130.879 144.763 119.809  1.00  0.00     0.000 C 
ENDROOT
BRANCH   1   2
ATOM      2  C   UNL     1     129.634 143.915 119.507  1.00  0.00     0.000 C 
BRANCH   2   3
ATOM      3  C   UNL     1     128.399 144.774 119.184  1.00  0.00     0.000 C 
BRANCH   3   4
ATOM      4  C   UNL     1     127.353 144.751 120.309  1.00  0.00     0.006 C 
BRANCH   4   5
ATOM      5  C   UNL     1     127.191 146.116 120.991  1.00  0.00     0.053 C 
BRANCH   5   6
ATOM      6  C   UNL     1     127.687 146.058 122.401  1.00  0.00     0.041 C 
ATOM      7  O   UNL     1     127.093 145.344 123.252  1.00  0.00    -0.550 OA
ATOM      8  O   UNL     1     128.834 146.751 122.763  1.00  0.00    -0.550 OA
ENDBRANCH   5   6
ENDBRANCH   4   5
ENDBRANCH   3   4
ENDBRANCH   2   3
ENDBRANCH   1   2
BRANCH   1   9
ATOM      9  C   UNL     1     130.615 146.272 119.660  1.00  0.00     0.000 C 
BRANCH   9  10
ATOM     10  C   UNL     1     131.874 147.119 119.907  1.00  0.00    -0.000 C 
BRANCH  10  11
ATOM     11  C   UNL     1     133.146 146.266 120.021  1.00  0.00    -0.000 C 
BRANCH  11  12
ATOM     12  C   UNL     1     134.113 146.566 118.870  1.00  0.00    -0.000 C 
BRANCH  12  13
ATOM     13  C   UNL     1     135.150 145.447 118.715  1.00  0.00    -0.003 C 
ATOM     14  C   UNL     1     134.477 144.101 118.469  1.00  0.00     0.004 C 
ENDBRANCH  12  13
ENDBRANCH  11  12
ENDBRANCH  10  11
ENDBRANCH   9  10
ENDBRANCH   1   9
TORSDOF 10
ENDMDL
MODEL 5
REMARK VINA RESULT:    -3.342      2.337      4.620
REMARK INTER + INTRA:          -6.722
REMARK INTER:                  -5.586
REMARK INTRA:                  -1.137
REMARK UNBOUND:                -1.427
REMARK SMILES CCCCCCCCCCCC(=O)[O-]
REMARK SMILES IDX 7 1 8 2 9 3 10 4 11 5 12 6 13 7 14 8 6 9 5 10 4 11 3 12 2 13
REMARK SMILES IDX 1 14
REMARK H PARENT
REMARK Flexibility Score: inf
ROOT
ATOM      1  C   UNL     1     127.066 145.131 120.668  1.00  0.00     0.000 C 
ENDROOT
BRANCH   1   2
ATOM      2  C   UNL     1     126.902 146.469 121.405  1.00  0.00     0.000 C 
BRANCH   2   3
ATOM      3  C   UNL     1     127.136 146.340 122.921  1.00  0.00     0.000 C 
BRANCH   3   4
ATOM      4  C   UNL     1     128.497 146.903 123.359  1.00  0.00     0.006 C 
BRANCH   4   5
ATOM      5  C   UNL     1     129.088 146.150 124.557  1.00  0.00     0.053 C 
BRANCH   5   6
ATOM      6  C   UNL     1     130.372 146.785 124.991  1.00  0.00     0.041 C 
ATOM      7  O   UNL     1     130.601 146.977 126.214  1.00  0.00    -0.550 OA
ATOM      8  O   UNL     1     131.335 147.119 124.048  1.00  0.00    -0.550 OA
ENDBRANCH   5   6
ENDBRANCH   4   5
ENDBRANCH   3   4
ENDBRANCH   2   3
ENDBRANCH   1   2
BRANCH   1   9
ATOM      9  C   UNL     1     127.260 145.312 119.152  1.00  0.00     0.000 C 
BRANCH   9  10
ATOM     10  C   UNL     1     128.344 144.384 118.580  1.00  0.00    -0.000 C 
BRANCH  10  11
ATOM     11  C   UNL     1     129.132 143.651 119.676  1.00  0.00    -0.000 C 
BRANCH  11  12
ATOM     12  C   UNL     1     130.577 144.159 119.747  1.00  0.00    -0.000 C 
BRANCH  12  13
ATOM     13  C   UNL     1     130.700 145.335 120.723  1.00  0.00    -0.003 C 
ATOM     14  C   UNL     1     130.935 146.646 119.980  1.00  0.00     0.004 C 
ENDBRANCH  12  13
ENDBRANCH  11  12
ENDBRANCH  10  11
ENDBRANCH   9  10
ENDBRANCH   1   9
TORSDOF 10
ENDMDL
MODEL 6
REMARK VINA RESULT:    -3.319      3.143      4.943
REMARK INTER + INTRA:          -6.687
REMARK INTER:                  -5.395
REMARK INTRA:                  -1.292
REMARK UNBOUND:                -1.427
REMARK SMILES CCCCCCCCCCCC(=O)[O-]
REMARK SMILES IDX 7 1 8 2 9 3 10 4 11 5 12 6 13 7 14 8 6 9 5 10 4 11 3 12 2 13
REMARK SMILES IDX 1 14
REMARK H PARENT
REMARK Flexibility Score: inf
ROOT
ATOM      1  C   UNL     1     129.316 144.277 119.376  1.00  0.00     0.000 C 
ENDROOT
BRANCH   1   2
ATOM      2  C   UNL     1     128.082 144.550 118.503  1.00  0.00     0.000 C 
BRANCH   2   3
ATOM      3  C   UNL     1     127.027 145.408 119.224  1.00  0.00     0.000 C 
BRANCH   3   4
ATOM      4  C   UNL     1     127.650 146.403 120.214  1.00  0.00     0.006 C 
BRANCH   4   5
ATOM      5  C   UNL     1     127.142 146.205 121.648  1.00  0.00     0.053 C 
BRANCH   5   6
ATOM      6  C   UNL     1     128.253 146.411 122.629  1.00  0.00     0.041 C 
ATOM      7  O   UNL     1     129.440 146.144 122.305  1.00  0.00    -0.550 OA
ATOM      8  O   UNL     1     127.983 146.944 123.882  1.00  0.00    -0.550 OA
ENDBRANCH   5   6
ENDBRANCH   4   5
ENDBRANCH   3   4
ENDBRANCH   2   3
ENDBRANCH   1   2
BRANCH   1   9
ATOM      9  C   UNL     1     129.411 142.807 119.821  1.00  0.00     0.000 C 
BRANCH   9  10
ATOM     10  C   UNL     1     129.068 142.616 121.307  1.00  0.00    -0.000 C 
BRANCH  10  11
ATOM     11  C   UNL     1     127.555 142.550 121.561  1.00  0.00    -0.000 C 
BRANCH  11  12
ATOM     12  C   UNL     1     126.889 141.514 120.648  1.00  0.00    -0.000 C 
BRANCH  12  13
ATOM     13  C   UNL     1     127.288 140.089 121.049  1.00  0.00    -0.003 C 
ATOM     14  C   UNL     1     127.313 139.162 119.837  1.00  0.00     0.004 C 
ENDBRANCH  12  13
ENDBRANCH  11  12
ENDBRANCH  10  11
ENDBRANCH   9  10
ENDBRANCH   1   9
TORSDOF 10
ENDMDL
MODEL 7
REMARK VINA RESULT:    -3.316      2.434      5.358
REMARK INTER + INTRA:          -6.682
REMARK INTER:                  -5.529
REMARK INTRA:                  -1.153
REMARK UNBOUND:                -1.427
REMARK SMILES CCCCCCCCCCCC(=O)[O-]
REMARK SMILES IDX 7 1 8 2 9 3 10 4 11 5 12 6 13 7 14 8 6 9 5 10 4 11 3 12 2 13
REMARK SMILES IDX 1 14
REMARK H PARENT
REMARK Flexibility Score: inf
ROOT
ATOM      1  C   UNL     1     129.515 143.922 119.634  1.00  0.00     0.000 C 
ENDROOT
BRANCH   1   2
ATOM      2  C   UNL     1     128.412 144.779 118.996  1.00  0.00     0.000 C 
BRANCH   2   3
ATOM      3  C   UNL     1     127.180 144.930 119.906  1.00  0.00     0.000 C 
BRANCH   3   4
ATOM      4  C   UNL     1     127.107 146.310 120.577  1.00  0.00     0.006 C 
BRANCH   4   5
ATOM      5  C   UNL     1     127.076 146.220 122.109  1.00  0.00     0.053 C 
BRANCH   5   6
ATOM      6  C   UNL     1     128.435 145.888 122.639  1.00  0.00     0.041 C 
ATOM      7  O   UNL     1     129.299 146.794 122.777  1.00  0.00    -0.550 OA
ATOM      8  O   UNL     1     128.732 144.589 123.026  1.00  0.00    -0.550 OA
ENDBRANCH   5   6
ENDBRANCH   4   5
ENDBRANCH   3   4
ENDBRANCH   2   3
ENDBRANCH   1   2
BRANCH   1   9
ATOM      9  C   UNL     1     130.834 144.694 119.812  1.00  0.00     0.000 C 
BRANCH   9  10
ATOM     10  C   UNL     1     130.666 146.207 119.597  1.00  0.00    -0.000 C 
BRANCH  10  11
ATOM     11  C   UNL     1     131.869 147.013 120.108  1.00  0.00    -0.000 C 
BRANCH  11  12
ATOM     12  C   UNL     1     132.836 146.120 120.893  1.00  0.00    -0.000 C 
BRANCH  12  13
ATOM     13  C   UNL     1     134.280 146.317 120.416  1.00  0.00    -0.003 C 
ATOM     14  C   UNL     1     134.344 146.474 118.900  1.00  0.00     0.004 C 
ENDBRANCH  12  13
ENDBRANCH  11  12
ENDBRANCH  10  11
ENDBRANCH   9  10
ENDBRANCH   1   9
TORSDOF 10
ENDMDL
MODEL 8
REMARK VINA RESULT:    -3.284      4.779      6.548
REMARK INTER + INTRA:          -6.631
REMARK INTER:                  -5.611
REMARK INTRA:                  -1.021
REMARK UNBOUND:                -1.427
REMARK SMILES CCCCCCCCCCCC(=O)[O-]
REMARK SMILES IDX 7 1 8 2 9 3 10 4 11 5 12 6 13 7 14 8 6 9 5 10 4 11 3 12 2 13
REMARK SMILES IDX 1 14
REMARK H PARENT
REMARK Flexibility Score: inf
ROOT
ATOM      1  C   UNL     1     128.789 143.860 118.959  1.00  0.00     0.000 C 
ENDROOT
BRANCH   1   2
ATOM      2  C   UNL     1     128.677 142.762 120.028  1.00  0.00     0.000 C 
BRANCH   2   3
ATOM      3  C   UNL     1     127.217 142.383 120.334  1.00  0.00     0.000 C 
BRANCH   3   4
ATOM      4  C   UNL     1     127.090 140.996 120.982  1.00  0.00     0.006 C 
BRANCH   4   5
ATOM      5  C   UNL     1     128.045 139.967 120.364  1.00  0.00     0.053 C 
BRANCH   5   6
ATOM      6  C   UNL     1     127.350 138.654 120.182  1.00  0.00     0.041 C 
ATOM      7  O   UNL     1     126.875 138.046 121.178  1.00  0.00    -0.550 OA
ATOM      8  O   UNL     1     127.184 138.126 118.909  1.00  0.00    -0.550 OA
ENDBRANCH   5   6
ENDBRANCH   4   5
ENDBRANCH   3   4
ENDBRANCH   2   3
ENDBRANCH   1   2
BRANCH   1   9
ATOM      9  C   UNL     1     127.573 144.804 118.953  1.00  0.00     0.000 C 
BRANCH   9  10
ATOM     10  C   UNL     1     127.760 146.013 119.884  1.00  0.00    -0.000 C 
BRANCH  10  11
ATOM     11  C   UNL     1     126.877 145.934 121.138  1.00  0.00    -0.000 C 
BRANCH  11  12
ATOM     12  C   UNL     1     127.673 146.309 122.394  1.00  0.00    -0.000 C 
BRANCH  12  13
ATOM     13  C   UNL     1     128.641 145.188 122.789  1.00  0.00    -0.003 C 
ATOM     14  C   UNL     1     130.090 145.603 122.559  1.00  0.00     0.004 C 
ENDBRANCH  12  13
ENDBRANCH  11  12
ENDBRANCH  10  11
ENDBRANCH   9  10
ENDBRANCH   1   9
TORSDOF 10
ENDMDL
MODEL 9
REMARK VINA RESULT:    -3.269      1.766      3.195
REMARK INTER + INTRA:          -6.607
REMARK INTER:                  -5.107
REMARK INTRA:                  -1.501
REMARK UNBOUND:                -1.427
REMARK SMILES CCCCCCCCCCCC(=O)[O-]
REMARK SMILES IDX 7 1 8 2 9 3 10 4 11 5 12 6 13 7 14 8 6 9 5 10 4 11 3 12 2 13
REMARK SMILES IDX 1 14
REMARK H PARENT
REMARK Flexibility Score: inf
ROOT
ATOM      1  C   UNL     1     126.892 146.531 120.639  1.00  0.00     0.000 C 
ENDROOT
BRANCH   1   2
ATOM      2  C   UNL     1     127.320 145.708 121.864  1.00  0.00     0.000 C 
BRANCH   2   3
ATOM      3  C   UNL     1     128.605 146.248 122.516  1.00  0.00     0.000 C 
BRANCH   3   4
ATOM      4  C   UNL     1     129.863 145.493 122.057  1.00  0.00     0.006 C 
BRANCH   4   5
ATOM      5  C   UNL     1     131.060 146.426 121.832  1.00  0.00     0.053 C 
BRANCH   5   6
ATOM      6  C   UNL     1     131.411 146.484 120.378  1.00  0.00     0.041 C 
ATOM      7  O   UNL     1     130.510 146.668 119.517  1.00  0.00    -0.550 OA
ATOM      8  O   UNL     1     132.736 146.382 119.979  1.00  0.00    -0.550 OA
ENDBRANCH   5   6
ENDBRANCH   4   5
ENDBRANCH   3   4
ENDBRANCH   2   3
ENDBRANCH   1   2
BRANCH   1   9
ATOM      9  C   UNL     1     127.141 145.789 119.313  1.00  0.00     0.000 C 
BRANCH   9  10
ATOM     10  C   UNL     1     127.280 144.270 119.504  1.00  0.00    -0.000 C 
BRANCH  10  11
ATOM     11  C   UNL     1     128.648 143.741 119.051  1.00  0.00    -0.000 C 
BRANCH  11  12
ATOM     12  C   UNL     1     129.177 142.680 120.023  1.00  0.00    -0.000 C 
BRANCH  12  13
ATOM     13  C   UNL     1     128.059 142.165 120.938  1.00  0.00    -0.003 C 
ATOM     14  C   UNL     1     128.556 141.986 122.369  1.00  0.00     0.004 C 
ENDBRANCH  12  13
ENDBRANCH  11  12
ENDBRANCH  10  11
ENDBRANCH   9  10
ENDBRANCH   1   9
TORSDOF 10
ENDMDL
