MODEL 1
REMARK VINA RESULT:    -4.704      0.000      0.000
REMARK INTER + INTRA:          -9.886
REMARK INTER:                  -8.003
REMARK INTRA:                  -1.883
REMARK UNBOUND:                -1.883
REMARK SMILES CCCCCCCCCCCCCC(=O)[O-]
REMARK SMILES IDX 8 1 9 2 10 3 11 4 12 5 13 6 14 7 15 8 16 9 7 10 6 11 5 12
REMARK SMILES IDX 4 13 3 14 2 15 1 16
REMARK H PARENT
REMARK Flexibility Score: inf
ROOT
ATOM      1  C   UNL     1      61.481  28.076  24.622  1.00  0.00     0.000 C 
ENDROOT
BRANCH   1   2
ATOM      2  C   UNL     1      61.992  29.447  25.107  1.00  0.00     0.000 C 
BRANCH   2   3
ATOM      3  C   UNL     1      63.509  29.673  24.943  1.00  0.00     0.000 C 
BRANCH   3   4
ATOM      4  C   UNL     1      64.400  28.713  25.752  1.00  0.00     0.000 C 
BRANCH   4   5
ATOM      5  C   UNL     1      65.249  27.795  24.861  1.00  0.00     0.006 C 
BRANCH   5   6
ATOM      6  C   UNL     1      64.799  26.337  24.990  1.00  0.00     0.053 C 
BRANCH   6   7
ATOM      7  C   UNL     1      64.395  25.793  23.657  1.00  0.00     0.041 C 
ATOM      8  O   UNL     1      65.201  25.821  22.691  1.00  0.00    -0.550 OA
ATOM      9  O   UNL     1      63.144  25.211  23.494  1.00  0.00    -0.550 OA
ENDBRANCH   6   7
ENDBRANCH   5   6
ENDBRANCH   4   5
ENDBRANCH   3   4
ENDBRANCH   2   3
ENDBRANCH   1   2
BRANCH   1  10
ATOM     10  C   UNL     1      60.753  27.236  25.692  1.00  0.00     0.000 C 
BRANCH  10  11
ATOM     11  C   UNL     1      61.535  27.033  27.002  1.00  0.00    -0.000 C 
BRANCH  11  12
ATOM     12  C   UNL     1      60.679  27.282  28.253  1.00  0.00    -0.000 C 
BRANCH  12  13
ATOM     13  C   UNL     1      60.860  28.715  28.765  1.00  0.00    -0.000 C 
BRANCH  13  14
ATOM     14  C   UNL     1      62.346  29.060  28.922  1.00  0.00    -0.000 C 
BRANCH  14  15
ATOM     15  C   UNL     1      62.584  30.564  28.738  1.00  0.00    -0.003 C 
ATOM     16  C   UNL     1      64.069  30.902  28.836  1.00  0.00     0.004 C 
ENDBRANCH  14  15
ENDBRANCH  13  14
ENDBRANCH  12  13
ENDBRANCH  11  12
ENDBRANCH  10  11
ENDBRANCH   1  10
TORSDOF 12
ENDMDL
MODEL 2
REMARK VINA RESULT:    -4.559      0.978      3.013
REMARK INTER + INTRA:          -9.640
REMARK INTER:                  -7.786
REMARK INTRA:                  -1.854
REMARK UNBOUND:                -1.883
REMARK SMILES CCCCCCCCCCCCCC(=O)[O-]
REMARK SMILES IDX 8 1 9 2 10 3 11 4 12 5 13 6 14 7 15 8 16 9 7 10 6 11 5 12
REMARK SMILES IDX 4 13 3 14 2 15 1 16
REMARK H PARENT
REMARK Flexibility Score: inf
ROOT
ATOM      1  C   UNL     1      63.380  30.427  27.044  1.00  0.00     0.000 C 
ENDROOT
BRANCH   1   2
ATOM      2  C   UNL     1      64.769  29.759  27.014  1.00  0.00     0.000 C 
BRANCH   2   3
ATOM      3  C   UNL     1      64.894  28.556  26.057  1.00  0.00     0.000 C 
BRANCH   3   4
ATOM      4  C   UNL     1      65.595  28.858  24.721  1.00  0.00     0.000 C 
BRANCH   4   5
ATOM      5  C   UNL     1      65.661  27.637  23.792  1.00  0.00     0.006 C 
BRANCH   5   6
ATOM      6  C   UNL     1      64.865  26.464  24.372  1.00  0.00     0.053 C 
BRANCH   6   7
ATOM      7  C   UNL     1      63.810  26.021  23.409  1.00  0.00     0.041 C 
ATOM      8  O   UNL     1      63.019  25.092  23.720  1.00  0.00    -0.550 OA
ATOM      9  O   UNL     1      63.668  26.667  22.187  1.00  0.00    -0.550 OA
ENDBRANCH   6   7
ENDBRANCH   5   6
ENDBRANCH   4   5
ENDBRANCH   3   4
ENDBRANCH   2   3
ENDBRANCH   1   2
BRANCH   1  10
ATOM     10  C   UNL     1      62.670  30.394  28.413  1.00  0.00     0.000 C 
BRANCH  10  11
ATOM     11  C   UNL     1      62.229  28.996  28.883  1.00  0.00    -0.000 C 
BRANCH  11  12
ATOM     12  C   UNL     1      60.843  28.600  28.353  1.00  0.00    -0.000 C 
BRANCH  12  13
ATOM     13  C   UNL     1      60.843  27.153  27.846  1.00  0.00    -0.000 C 
BRANCH  13  14
ATOM     14  C   UNL     1      61.607  27.034  26.521  1.00  0.00    -0.000 C 
BRANCH  14  15
ATOM     15  C   UNL     1      60.749  27.521  25.347  1.00  0.00    -0.003 C 
ATOM     16  C   UNL     1      61.490  28.570  24.522  1.00  0.00     0.004 C 
ENDBRANCH  14  15
ENDBRANCH  13  14
ENDBRANCH  12  13
ENDBRANCH  11  12
ENDBRANCH  10  11
ENDBRANCH   1  10
TORSDOF 12
ENDMDL
MODEL 3
REMARK VINA RESULT:    -4.483     12.887     14.803
REMARK INTER + INTRA:          -9.511
REMARK INTER:                  -7.800
REMARK INTRA:                  -1.711
REMARK UNBOUND:                -1.883
REMARK SMILES CCCCCCCCCCCCCC(=O)[O-]
REMARK SMILES IDX 8 1 9 2 10 3 11 4 12 5 13 6 14 7 15 8 16 9 7 10 6 11 5 12
REMARK SMILES IDX 4 13 3 14 2 15 1 16
REMARK H PARENT
REMARK Flexibility Score: inf
ROOT
ATOM      1  C   UNL     1      62.969  28.989  12.980  1.00  0.00     0.000 C 
ENDROOT
BRANCH   1   2
ATOM      2  C   UNL     1      63.917  30.190  13.160  1.00  0.00     0.000 C 
BRANCH   2   3
ATOM      3  C   UNL     1      63.841  31.255  12.046  1.00  0.00     0.000 C 
BRANCH   3   4
ATOM      4  C   UNL     1      63.790  32.711  12.542  1.00  0.00     0.000 C 
BRANCH   4   5
ATOM      5  C   UNL     1      62.839  32.904  13.733  1.00  0.00     0.006 C 
BRANCH   5   6
ATOM      6  C   UNL     1      61.382  32.968  13.265  1.00  0.00     0.053 C 
BRANCH   6   7
ATOM      7  C   UNL     1      60.465  32.484  14.343  1.00  0.00     0.041 C 
ATOM      8  O   UNL     1      59.329  32.026  14.050  1.00  0.00    -0.550 OA
ATOM      9  O   UNL     1      60.883  32.493  15.667  1.00  0.00    -0.550 OA
ENDBRANCH   6   7
ENDBRANCH   5   6
ENDBRANCH   4   5
ENDBRANCH   3   4
ENDBRANCH   2   3
ENDBRANCH   1   2
BRANCH   1  10
ATOM     10  C   UNL     1      61.504  29.248  13.386  1.00  0.00     0.000 C 
BRANCH  10  11
ATOM     11  C   UNL     1      60.484  28.246  12.814  1.00  0.00    -0.000 C 
BRANCH  11  12
ATOM     12  C   UNL     1      59.750  28.783  11.576  1.00  0.00    -0.000 C 
BRANCH  12  13
ATOM     13  C   UNL     1      60.444  30.036  11.028  1.00  0.00    -0.000 C 
BRANCH  13  14
ATOM     14  C   UNL     1      60.919  29.816   9.586  1.00  0.00    -0.000 C 
BRANCH  14  15
ATOM     15  C   UNL     1      61.746  28.530   9.470  1.00  0.00    -0.003 C 
ATOM     16  C   UNL     1      63.227  28.844   9.274  1.00  0.00     0.004 C 
ENDBRANCH  14  15
ENDBRANCH  13  14
ENDBRANCH  12  13
ENDBRANCH  11  12
ENDBRANCH  10  11
ENDBRANCH   1  10
TORSDOF 12
ENDMDL
MODEL 4
REMARK VINA RESULT:    -4.420      2.832      5.549
REMARK INTER + INTRA:          -9.404
REMARK INTER:                  -7.768
REMARK INTRA:                  -1.636
REMARK UNBOUND:                -1.883
REMARK SMILES CCCCCCCCCCCCCC(=O)[O-]
REMARK SMILES IDX 8 1 9 2 10 3 11 4 12 5 13 6 14 7 15 8 16 9 7 10 6 11 5 12
REMARK SMILES IDX 4 13 3 14 2 15 1 16
REMARK H PARENT
REMARK Flexibility Score: inf
ROOT
ATOM      1  C   UNL     1      60.952  27.087  25.663  1.00  0.00     0.000 C 
ENDROOT
BRANCH   1   2
ATOM      2  C   UNL     1      61.645  27.153  27.038  1.00  0.00     0.000 C 
BRANCH   2   3
ATOM      3  C   UNL     1      60.742  27.601  28.204  1.00  0.00     0.000 C 
BRANCH   3   4
ATOM      4  C   UNL     1      61.135  28.941  28.853  1.00  0.00     0.000 C 
BRANCH   4   5
ATOM      5  C   UNL     1      62.654  29.169  28.877  1.00  0.00     0.006 C 
BRANCH   5   6
ATOM      6  C   UNL     1      62.988  30.649  28.662  1.00  0.00     0.053 C 
BRANCH   6   7
ATOM      7  C   UNL     1      64.468  30.842  28.565  1.00  0.00     0.041 C 
ATOM      8  O   UNL     1      65.197  29.926  28.102  1.00  0.00    -0.550 OA
ATOM      9  O   UNL     1      65.037  32.052  28.940  1.00  0.00    -0.550 OA
ENDBRANCH   6   7
ENDBRANCH   5   6
ENDBRANCH   4   5
ENDBRANCH   3   4
ENDBRANCH   2   3
ENDBRANCH   1   2
BRANCH   1  10
ATOM     10  C   UNL     1      61.148  28.332  24.774  1.00  0.00     0.000 C 
BRANCH  10  11
ATOM     11  C   UNL     1      62.230  29.314  25.260  1.00  0.00    -0.000 C 
BRANCH  11  12
ATOM     12  C   UNL     1      63.537  29.206  24.459  1.00  0.00    -0.000 C 
BRANCH  12  13
ATOM     13  C   UNL     1      64.512  28.231  25.129  1.00  0.00    -0.000 C 
BRANCH  13  14
ATOM     14  C   UNL     1      65.309  27.443  24.082  1.00  0.00    -0.000 C 
BRANCH  14  15
ATOM     15  C   UNL     1      65.003  25.943  24.172  1.00  0.00    -0.003 C 
ATOM     16  C   UNL     1      63.627  25.626  23.594  1.00  0.00     0.004 C 
ENDBRANCH  14  15
ENDBRANCH  13  14
ENDBRANCH  12  13
ENDBRANCH  11  12
ENDBRANCH  10  11
ENDBRANCH   1  10
TORSDOF 12
ENDMDL
MODEL 5
REMARK VINA RESULT:    -4.405      2.946      5.615
REMARK INTER + INTRA:          -9.378
REMARK INTER:                  -7.723
REMARK INTRA:                  -1.655
REMARK UNBOUND:                -1.883
REMARK SMILES CCCCCCCCCCCCCC(=O)[O-]
REMARK SMILES IDX 8 1 9 2 10 3 11 4 12 5 13 6 14 7 15 8 16 9 7 10 6 11 5 12
REMARK SMILES IDX 4 13 3 14 2 15 1 16
REMARK H PARENT
REMARK Flexibility Score: inf
ROOT
ATOM      1  C   UNL     1      63.540  29.858  24.620  1.00  0.00     0.000 C 
ENDROOT
BRANCH   1   2
ATOM      2  C   UNL     1      62.087  29.681  25.102  1.00  0.00     0.000 C 
BRANCH   2   3
ATOM      3  C   UNL     1      61.437  28.331  24.736  1.00  0.00     0.000 C 
BRANCH   3   4
ATOM      4  C   UNL     1      61.036  27.456  25.937  1.00  0.00     0.000 C 
BRANCH   4   5
ATOM      5  C   UNL     1      62.244  26.841  26.658  1.00  0.00     0.006 C 
BRANCH   5   6
ATOM      6  C   UNL     1      62.229  27.192  28.149  1.00  0.00     0.053 C 
BRANCH   6   7
ATOM      7  C   UNL     1      60.902  27.758  28.540  1.00  0.00     0.041 C 
ATOM      8  O   UNL     1      60.688  28.995  28.447  1.00  0.00    -0.550 OA
ATOM      9  O   UNL     1      59.883  26.913  28.962  1.00  0.00    -0.550 OA
ENDBRANCH   6   7
ENDBRANCH   5   6
ENDBRANCH   4   5
ENDBRANCH   3   4
ENDBRANCH   2   3
ENDBRANCH   1   2
BRANCH   1  10
ATOM     10  C   UNL     1      64.618  29.625  25.698  1.00  0.00     0.000 C 
BRANCH  10  11
ATOM     11  C   UNL     1      65.542  28.420  25.443  1.00  0.00    -0.000 C 
BRANCH  11  12
ATOM     12  C   UNL     1      66.177  28.441  24.044  1.00  0.00    -0.000 C 
BRANCH  12  13
ATOM     13  C   UNL     1      65.834  27.165  23.266  1.00  0.00    -0.000 C 
BRANCH  13  14
ATOM     14  C   UNL     1      65.041  26.185  24.140  1.00  0.00    -0.000 C 
BRANCH  14  15
ATOM     15  C   UNL     1      63.741  25.759  23.449  1.00  0.00    -0.003 C 
ATOM     16  C   UNL     1      63.447  26.641  22.238  1.00  0.00     0.004 C 
ENDBRANCH  14  15
ENDBRANCH  13  14
ENDBRANCH  12  13
ENDBRANCH  11  12
ENDBRANCH  10  11
ENDBRANCH   1  10
TORSDOF 12
ENDMDL
MODEL 6
REMARK VINA RESULT:    -4.357      2.419      5.055
REMARK INTER + INTRA:          -9.297
REMARK INTER:                  -7.479
REMARK INTRA:                  -1.818
REMARK UNBOUND:                -1.883
REMARK SMILES CCCCCCCCCCCCCC(=O)[O-]
REMARK SMILES IDX 8 1 9 2 10 3 11 4 12 5 13 6 14 7 15 8 16 9 7 10 6 11 5 12
REMARK SMILES IDX 4 13 3 14 2 15 1 16
REMARK H PARENT
REMARK Flexibility Score: inf
ROOT
ATOM      1  C   UNL     1      61.970  29.107  24.395  1.00  0.00     0.000 C 
ENDROOT
BRANCH   1   2
ATOM      2  C   UNL     1      62.654  30.107  25.348  1.00  0.00     0.000 C 
BRANCH   2   3
ATOM      3  C   UNL     1      64.150  29.839  25.611  1.00  0.00     0.000 C 
BRANCH   3   4
ATOM      4  C   UNL     1      64.512  29.556  27.080  1.00  0.00     0.000 C 
BRANCH   4   5
ATOM      5  C   UNL     1      63.494  30.143  28.069  1.00  0.00     0.006 C 
BRANCH   5   6
ATOM      6  C   UNL     1      63.063  29.093  29.099  1.00  0.00     0.053 C 
BRANCH   6   7
ATOM      7  C   UNL     1      61.902  28.303  28.586  1.00  0.00     0.041 C 
ATOM      8  O   UNL     1      60.832  28.885  28.266  1.00  0.00    -0.550 OA
ATOM      9  O   UNL     1      62.016  26.930  28.416  1.00  0.00    -0.550 OA
ENDBRANCH   6   7
ENDBRANCH   5   6
ENDBRANCH   4   5
ENDBRANCH   3   4
ENDBRANCH   2   3
ENDBRANCH   1   2
BRANCH   1  10
ATOM     10  C   UNL     1      61.712  27.709  24.991  1.00  0.00     0.000 C 
BRANCH  10  11
ATOM     11  C   UNL     1      62.632  26.596  24.459  1.00  0.00    -0.000 C 
BRANCH  11  12
ATOM     12  C   UNL     1      63.804  26.288  25.404  1.00  0.00    -0.000 C 
BRANCH  12  13
ATOM     13  C   UNL     1      65.103  26.081  24.616  1.00  0.00    -0.000 C 
BRANCH  13  14
ATOM     14  C   UNL     1      64.836  26.074  23.106  1.00  0.00    -0.000 C 
BRANCH  14  15
ATOM     15  C   UNL     1      65.940  26.823  22.349  1.00  0.00    -0.003 C 
ATOM     16  C   UNL     1      66.173  28.208  22.945  1.00  0.00     0.004 C 
ENDBRANCH  14  15
ENDBRANCH  13  14
ENDBRANCH  12  13
ENDBRANCH  11  12
ENDBRANCH  10  11
ENDBRANCH   1  10
TORSDOF 12
ENDMDL
MODEL 7
REMARK VINA RESULT:    -4.325      1.612      2.698
REMARK INTER + INTRA:          -9.242
REMARK INTER:                  -7.336
REMARK INTRA:                  -1.906
REMARK UNBOUND:                -1.883
REMARK SMILES CCCCCCCCCCCCCC(=O)[O-]
REMARK SMILES IDX 8 1 9 2 10 3 11 4 12 5 13 6 14 7 15 8 16 9 7 10 6 11 5 12
REMARK SMILES IDX 4 13 3 14 2 15 1 16
REMARK H PARENT
REMARK Flexibility Score: inf
ROOT
ATOM      1  C   UNL     1      60.857  27.628  25.802  1.00  0.00     0.000 C 
ENDROOT
BRANCH   1   2
ATOM      2  C   UNL     1      62.030  27.026  25.003  1.00  0.00     0.000 C 
BRANCH   2   3
ATOM      3  C   UNL     1      63.160  26.420  25.858  1.00  0.00     0.000 C 
BRANCH   3   4
ATOM      4  C   UNL     1      64.553  26.439  25.203  1.00  0.00     0.000 C 
BRANCH   4   5
ATOM      5  C   UNL     1      64.534  27.009  23.777  1.00  0.00     0.006 C 
BRANCH   5   6
ATOM      6  C   UNL     1      64.955  25.947  22.757  1.00  0.00     0.053 C 
BRANCH   6   7
ATOM      7  C   UNL     1      66.099  26.439  21.930  1.00  0.00     0.041 C 
ATOM      8  O   UNL     1      66.706  27.494  22.252  1.00  0.00    -0.550 OA
ATOM      9  O   UNL     1      66.528  25.707  20.830  1.00  0.00    -0.550 OA
ENDBRANCH   6   7
ENDBRANCH   5   6
ENDBRANCH   4   5
ENDBRANCH   3   4
ENDBRANCH   2   3
ENDBRANCH   1   2
BRANCH   1  10
ATOM     10  C   UNL     1      60.882  27.336  27.316  1.00  0.00     0.000 C 
BRANCH  10  11
ATOM     11  C   UNL     1      60.911  28.583  28.218  1.00  0.00    -0.000 C 
BRANCH  11  12
ATOM     12  C   UNL     1      62.333  28.977  28.646  1.00  0.00    -0.000 C 
BRANCH  12  13
ATOM     13  C   UNL     1      62.904  30.058  27.721  1.00  0.00    -0.000 C 
BRANCH  13  14
ATOM     14  C   UNL     1      64.354  29.741  27.333  1.00  0.00    -0.000 C 
BRANCH  14  15
ATOM     15  C   UNL     1      64.627  30.114  25.871  1.00  0.00    -0.003 C 
ATOM     16  C   UNL     1      63.334  30.479  25.146  1.00  0.00     0.004 C 
ENDBRANCH  14  15
ENDBRANCH  13  14
ENDBRANCH  12  13
ENDBRANCH  11  12
ENDBRANCH  10  11
ENDBRANCH   1  10
TORSDOF 12
ENDMDL
MODEL 8
REMARK VINA RESULT:    -4.301     12.970     15.129
REMARK INTER + INTRA:          -9.200
REMARK INTER:                  -7.629
REMARK INTRA:                  -1.571
REMARK UNBOUND:                -1.883
REMARK SMILES CCCCCCCCCCCCCC(=O)[O-]
REMARK SMILES IDX 8 1 9 2 10 3 11 4 12 5 13 6 14 7 15 8 16 9 7 10 6 11 5 12
REMARK SMILES IDX 4 13 3 14 2 15 1 16
REMARK H PARENT
REMARK Flexibility Score: inf
ROOT
ATOM      1  C   UNL     1      63.809  29.688  10.852  1.00  0.00     0.000 C 
ENDROOT
BRANCH   1   2
ATOM      2  C   UNL     1      64.223  31.169  10.956  1.00  0.00     0.000 C 
BRANCH   2   3
ATOM      3  C   UNL     1      64.546  31.657  12.383  1.00  0.00     0.000 C 
BRANCH   3   4
ATOM      4  C   UNL     1      63.663  32.812  12.890  1.00  0.00     0.000 C 
BRANCH   4   5
ATOM      5  C   UNL     1      62.167  32.464  12.889  1.00  0.00     0.006 C 
BRANCH   5   6
ATOM      6  C   UNL     1      61.422  33.246  13.976  1.00  0.00     0.053 C 
BRANCH   6   7
ATOM      7  C   UNL     1      60.476  32.350  14.709  1.00  0.00     0.041 C 
ATOM      8  O   UNL     1      59.351  32.076  14.215  1.00  0.00    -0.550 OA
ATOM      9  O   UNL     1      60.855  31.778  15.917  1.00  0.00    -0.550 OA
ENDBRANCH   6   7
ENDBRANCH   5   6
ENDBRANCH   4   5
ENDBRANCH   3   4
ENDBRANCH   2   3
ENDBRANCH   1   2
BRANCH   1  10
ATOM     10  C   UNL     1      63.704  29.140   9.414  1.00  0.00     0.000 C 
BRANCH  10  11
ATOM     11  C   UNL     1      62.314  28.607   9.022  1.00  0.00    -0.000 C 
BRANCH  11  12
ATOM     12  C   UNL     1      61.217  29.678   9.110  1.00  0.00    -0.000 C 
BRANCH  12  13
ATOM     13  C   UNL     1      60.048  29.196   9.978  1.00  0.00    -0.000 C 
BRANCH  13  14
ATOM     14  C   UNL     1      60.128  29.792  11.389  1.00  0.00    -0.000 C 
BRANCH  14  15
ATOM     15  C   UNL     1      60.250  28.688  12.446  1.00  0.00    -0.003 C 
ATOM     16  C   UNL     1      61.412  28.962  13.397  1.00  0.00     0.004 C 
ENDBRANCH  14  15
ENDBRANCH  13  14
ENDBRANCH  12  13
ENDBRANCH  11  12
ENDBRANCH  10  11
ENDBRANCH   1  10
TORSDOF 12
ENDMDL
MODEL 9
REMARK VINA RESULT:    -4.277      2.878      4.814
REMARK INTER + INTRA:          -9.161
REMARK INTER:                  -7.077
REMARK INTRA:                  -2.083
REMARK UNBOUND:                -1.883
REMARK SMILES CCCCCCCCCCCCCC(=O)[O-]
REMARK SMILES IDX 8 1 9 2 10 3 11 4 12 5 13 6 14 7 15 8 16 9 7 10 6 11 5 12
REMARK SMILES IDX 4 13 3 14 2 15 1 16
REMARK H PARENT
REMARK Flexibility Score: inf
ROOT
ATOM      1  C   UNL     1      64.660  26.976  23.331  1.00  0.00     0.000 C 
ENDROOT
BRANCH   1   2
ATOM      2  C   UNL     1      64.844  26.307  24.707  1.00  0.00     0.000 C 
BRANCH   2   3
ATOM      3  C   UNL     1      63.626  26.401  25.647  1.00  0.00     0.000 C 
BRANCH   3   4
ATOM      4  C   UNL     1      62.363  27.013  25.015  1.00  0.00     0.000 C 
BRANCH   4   5
ATOM      5  C   UNL     1      61.429  27.658  26.049  1.00  0.00     0.006 C 
BRANCH   5   6
ATOM      6  C   UNL     1      61.767  27.181  27.465  1.00  0.00     0.053 C 
BRANCH   6   7
ATOM      7  C   UNL     1      60.733  27.651  28.437  1.00  0.00     0.041 C 
ATOM      8  O   UNL     1      60.608  28.879  28.685  1.00  0.00    -0.550 OA
ATOM      9  O   UNL     1      59.874  26.737  29.034  1.00  0.00    -0.550 OA
ENDBRANCH   6   7
ENDBRANCH   5   6
ENDBRANCH   4   5
ENDBRANCH   3   4
ENDBRANCH   2   3
ENDBRANCH   1   2
BRANCH   1  10
ATOM     10  C   UNL     1      65.607  28.161  23.049  1.00  0.00     0.000 C 
BRANCH  10  11
ATOM     11  C   UNL     1      65.683  29.212  24.171  1.00  0.00    -0.000 C 
BRANCH  11  12
ATOM     12  C   UNL     1      64.440  30.113  24.230  1.00  0.00    -0.000 C 
BRANCH  12  13
ATOM     13  C   UNL     1      63.976  30.313  25.678  1.00  0.00    -0.000 C 
BRANCH  13  14
ATOM     14  C   UNL     1      64.950  29.655  26.664  1.00  0.00    -0.000 C 
BRANCH  14  15
ATOM     15  C   UNL     1      64.392  29.688  28.092  1.00  0.00    -0.003 C 
ATOM     16  C   UNL     1      63.364  30.804  28.256  1.00  0.00     0.004 C 
ENDBRANCH  14  15
ENDBRANCH  13  14
ENDBRANCH  12  13
ENDBRANCH  11  12
ENDBRANCH  10  11
ENDBRANCH   1  10
TORSDOF 12
ENDMDL
