MODEL 1
REMARK VINA RESULT:    -4.210      0.000      0.000
REMARK INTER + INTRA:          -4.554
REMARK INTER:                  -4.457
REMARK INTRA:                  -0.097
REMARK UNBOUND:                -0.097
REMARK SMILES C=C(C)[C@@H]1CC=C(C)C(=O)C1
REMARK SMILES IDX 8 1 7 2 6 3 5 4 4 5 11 6 9 7 10 8 2 9 1 10 3 11
REMARK H PARENT
REMARK Flexibility Score: inf
ROOT
ATOM      1  C   UNL     1      29.471  68.255 107.135  1.00  0.00     0.048 C 
ATOM      2  C   UNL     1      30.634  69.172 106.871  1.00  0.00    -0.012 C 
ATOM      3  C   UNL     1      31.864  68.659 106.692  1.00  0.00    -0.019 C 
ATOM      4  C   UNL     1      33.059  69.530 106.408  1.00  0.00     0.036 C 
ATOM      5  C   UNL     1      32.929  70.895 107.107  1.00  0.00     0.025 C 
ATOM      6  C   UNL     1      31.605  71.575 106.712  1.00  0.00     0.089 C 
ATOM      7  C   UNL     1      30.445  70.643 106.934  1.00  0.00     0.158 C 
ATOM      8  O   UNL     1      29.299  71.126 107.138  1.00  0.00    -0.295 OA
ENDROOT
BRANCH   5   9
ATOM      9  C   UNL     1      34.124  71.790 106.810  1.00  0.00    -0.077 C 
ATOM     10  C   UNL     1      34.610  71.871 105.561  1.00  0.00     0.008 C 
ATOM     11  C   UNL     1      34.789  72.600 107.895  1.00  0.00     0.039 C 
ENDBRANCH   5   9
TORSDOF 1
ENDMDL
MODEL 2
REMARK VINA RESULT:    -4.153      8.002     10.128
REMARK INTER + INTRA:          -4.492
REMARK INTER:                  -4.405
REMARK INTRA:                  -0.087
REMARK UNBOUND:                -0.097
REMARK SMILES C=C(C)[C@@H]1CC=C(C)C(=O)C1
REMARK SMILES IDX 8 1 7 2 6 3 5 4 4 5 11 6 9 7 10 8 2 9 1 10 3 11
REMARK H PARENT
REMARK Flexibility Score: inf
ROOT
ATOM      1  C   UNL     1      27.286  75.943 105.927  1.00  0.00     0.048 C 
ATOM      2  C   UNL     1      25.884  75.445 105.703  1.00  0.00    -0.012 C 
ATOM      3  C   UNL     1      25.360  74.527 106.534  1.00  0.00    -0.019 C 
ATOM      4  C   UNL     1      23.956  74.008 106.366  1.00  0.00     0.036 C 
ATOM      5  C   UNL     1      23.554  73.967 104.881  1.00  0.00     0.025 C 
ATOM      6  C   UNL     1      23.743  75.353 104.237  1.00  0.00     0.089 C 
ATOM      7  C   UNL     1      25.131  75.872 104.497  1.00  0.00     0.158 C 
ATOM      8  O   UNL     1      25.636  76.705 103.697  1.00  0.00    -0.295 OA
ENDROOT
BRANCH   5   9
ATOM      9  C   UNL     1      22.130  73.461 104.703  1.00  0.00    -0.077 C 
ATOM     10  C   UNL     1      21.908  72.195 104.313  1.00  0.00     0.008 C 
ATOM     11  C   UNL     1      20.941  74.355 104.953  1.00  0.00     0.039 C 
ENDBRANCH   5   9
TORSDOF 1
ENDMDL
MODEL 3
REMARK VINA RESULT:    -4.113      1.678      2.684
REMARK INTER + INTRA:          -4.450
REMARK INTER:                  -4.352
REMARK INTRA:                  -0.098
REMARK UNBOUND:                -0.097
REMARK SMILES C=C(C)[C@@H]1CC=C(C)C(=O)C1
REMARK SMILES IDX 8 1 7 2 6 3 5 4 4 5 11 6 9 7 10 8 2 9 1 10 3 11
REMARK H PARENT
REMARK Flexibility Score: inf
ROOT
ATOM      1  C   UNL     1      29.640  70.512 107.102  1.00  0.00     0.048 C 
ATOM      2  C   UNL     1      31.094  70.664 106.753  1.00  0.00    -0.012 C 
ATOM      3  C   UNL     1      31.647  71.890 106.710  1.00  0.00    -0.019 C 
ATOM      4  C   UNL     1      33.102  72.098 106.384  1.00  0.00     0.036 C 
ATOM      5  C   UNL     1      33.607  71.031 105.396  1.00  0.00     0.025 C 
ATOM      6  C   UNL     1      33.330  69.619 105.944  1.00  0.00     0.089 C 
ATOM      7  C   UNL     1      31.884  69.479 106.335  1.00  0.00     0.158 C 
ATOM      8  O   UNL     1      31.357  68.334 106.339  1.00  0.00    -0.295 OA
ENDROOT
BRANCH   5   9
ATOM      9  C   UNL     1      35.083  71.223 105.075  1.00  0.00    -0.077 C 
ATOM     10  C   UNL     1      35.905  71.768 105.986  1.00  0.00     0.008 C 
ATOM     11  C   UNL     1      35.657  70.813 103.741  1.00  0.00     0.039 C 
ENDBRANCH   5   9
TORSDOF 1
ENDMDL
MODEL 4
REMARK VINA RESULT:    -4.104      7.984     10.185
REMARK INTER + INTRA:          -4.441
REMARK INTER:                  -4.354
REMARK INTRA:                  -0.087
REMARK UNBOUND:                -0.097
REMARK SMILES C=C(C)[C@@H]1CC=C(C)C(=O)C1
REMARK SMILES IDX 8 1 7 2 6 3 5 4 4 5 11 6 9 7 10 8 2 9 1 10 3 11
REMARK H PARENT
REMARK Flexibility Score: inf
ROOT
ATOM      1  C   UNL     1      27.231  75.994 105.975  1.00  0.00     0.048 C 
ATOM      2  C   UNL     1      25.901  75.381 105.631  1.00  0.00    -0.012 C 
ATOM      3  C   UNL     1      25.254  75.768 104.517  1.00  0.00    -0.019 C 
ATOM      4  C   UNL     1      23.930  75.174 104.116  1.00  0.00     0.036 C 
ATOM      5  C   UNL     1      23.096  74.793 105.353  1.00  0.00     0.025 C 
ATOM      6  C   UNL     1      23.900  73.855 106.272  1.00  0.00     0.089 C 
ATOM      7  C   UNL     1      25.248  74.447 106.582  1.00  0.00     0.158 C 
ATOM      8  O   UNL     1      25.837  74.111 107.645  1.00  0.00    -0.295 OA
ENDROOT
BRANCH   5   9
ATOM      9  C   UNL     1      21.763  74.175 104.957  1.00  0.00    -0.077 C 
ATOM     10  C   UNL     1      20.636  74.902 105.026  1.00  0.00     0.008 C 
ATOM     11  C   UNL     1      21.668  72.745 104.484  1.00  0.00     0.039 C 
ENDBRANCH   5   9
TORSDOF 1
ENDMDL
MODEL 5
REMARK VINA RESULT:    -4.067      2.830      3.545
REMARK INTER + INTRA:          -4.402
REMARK INTER:                  -4.305
REMARK INTRA:                  -0.097
REMARK UNBOUND:                -0.097
REMARK SMILES C=C(C)[C@@H]1CC=C(C)C(=O)C1
REMARK SMILES IDX 8 1 7 2 6 3 5 4 4 5 11 6 9 7 10 8 2 9 1 10 3 11
REMARK H PARENT
REMARK Flexibility Score: inf
ROOT
ATOM      1  C   UNL     1      32.801  66.707 102.615  1.00  0.00     0.048 C 
ATOM      2  C   UNL     1      32.725  68.013 103.358  1.00  0.00    -0.012 C 
ATOM      3  C   UNL     1      33.849  68.712 103.600  1.00  0.00    -0.019 C 
ATOM      4  C   UNL     1      33.827  70.032 104.323  1.00  0.00     0.036 C 
ATOM      5  C   UNL     1      32.699  70.073 105.369  1.00  0.00     0.025 C 
ATOM      6  C   UNL     1      31.346  69.748 104.710  1.00  0.00     0.089 C 
ATOM      7  C   UNL     1      31.432  68.464 103.930  1.00  0.00     0.158 C 
ATOM      8  O   UNL     1      30.384  67.792 103.736  1.00  0.00    -0.295 OA
ENDROOT
BRANCH   5   9
ATOM      9  C   UNL     1      32.658  71.412 106.092  1.00  0.00    -0.077 C 
ATOM     10  C   UNL     1      33.788  72.115 106.274  1.00  0.00     0.008 C 
ATOM     11  C   UNL     1      31.365  71.981 106.621  1.00  0.00     0.039 C 
ENDBRANCH   5   9
TORSDOF 1
ENDMDL
MODEL 6
REMARK VINA RESULT:    -4.062      2.277      4.682
REMARK INTER + INTRA:          -4.396
REMARK INTER:                  -4.298
REMARK INTRA:                  -0.098
REMARK UNBOUND:                -0.097
REMARK SMILES C=C(C)[C@@H]1CC=C(C)C(=O)C1
REMARK SMILES IDX 8 1 7 2 6 3 5 4 4 5 11 6 9 7 10 8 2 9 1 10 3 11
REMARK H PARENT
REMARK Flexibility Score: inf
ROOT
ATOM      1  C   UNL     1      36.141  71.136 104.662  1.00  0.00     0.048 C 
ATOM      2  C   UNL     1      34.697  71.052 105.073  1.00  0.00    -0.012 C 
ATOM      3  C   UNL     1      34.224  71.874 106.027  1.00  0.00    -0.019 C 
ATOM      4  C   UNL     1      32.783  71.845 106.463  1.00  0.00     0.036 C 
ATOM      5  C   UNL     1      32.204  70.422 106.368  1.00  0.00     0.025 C 
ATOM      6  C   UNL     1      32.393  69.861 104.947  1.00  0.00     0.089 C 
ATOM      7  C   UNL     1      33.830  69.983 104.517  1.00  0.00     0.158 C 
ATOM      8  O   UNL     1      34.281  69.189 103.649  1.00  0.00    -0.295 OA
ENDROOT
BRANCH   5   9
ATOM      9  C   UNL     1      30.742  70.386 106.790  1.00  0.00    -0.077 C 
ATOM     10  C   UNL     1      29.995  71.501 106.728  1.00  0.00     0.008 C 
ATOM     11  C   UNL     1      30.096  69.115 107.283  1.00  0.00     0.039 C 
ENDBRANCH   5   9
TORSDOF 1
ENDMDL
MODEL 7
REMARK VINA RESULT:    -4.049     11.732     13.101
REMARK INTER + INTRA:          -4.383
REMARK INTER:                  -4.286
REMARK INTRA:                  -0.096
REMARK UNBOUND:                -0.097
REMARK SMILES C=C(C)[C@@H]1CC=C(C)C(=O)C1
REMARK SMILES IDX 8 1 7 2 6 3 5 4 4 5 11 6 9 7 10 8 2 9 1 10 3 11
REMARK H PARENT
REMARK Flexibility Score: inf
ROOT
ATOM      1  C   UNL     1      29.624  64.741  96.897  1.00  0.00     0.048 C 
ATOM      2  C   UNL     1      29.606  63.344  97.455  1.00  0.00    -0.012 C 
ATOM      3  C   UNL     1      28.538  62.554  97.245  1.00  0.00    -0.019 C 
ATOM      4  C   UNL     1      28.476  61.142  97.766  1.00  0.00     0.036 C 
ATOM      5  C   UNL     1      29.237  61.008  99.097  1.00  0.00     0.025 C 
ATOM      6  C   UNL     1      30.685  61.506  98.937  1.00  0.00     0.089 C 
ATOM      7  C   UNL     1      30.707  62.886  98.339  1.00  0.00     0.158 C 
ATOM      8  O   UNL     1      31.691  63.639  98.566  1.00  0.00    -0.295 OA
ENDROOT
BRANCH   5   9
ATOM      9  C   UNL     1      29.195  59.580  99.621  1.00  0.00    -0.077 C 
ATOM     10  C   UNL     1      29.826  58.598  98.955  1.00  0.00     0.008 C 
ATOM     11  C   UNL     1      28.454  59.228 100.887  1.00  0.00     0.039 C 
ENDBRANCH   5   9
TORSDOF 1
ENDMDL
MODEL 8
REMARK VINA RESULT:    -4.009      1.799      2.112
REMARK INTER + INTRA:          -4.340
REMARK INTER:                  -4.242
REMARK INTRA:                  -0.098
REMARK UNBOUND:                -0.097
REMARK SMILES C=C(C)[C@@H]1CC=C(C)C(=O)C1
REMARK SMILES IDX 8 1 7 2 6 3 5 4 4 5 11 6 9 7 10 8 2 9 1 10 3 11
REMARK H PARENT
REMARK Flexibility Score: inf
ROOT
ATOM      1  C   UNL     1      31.124  69.382 104.418  1.00  0.00     0.048 C 
ATOM      2  C   UNL     1      32.188  70.244 105.040  1.00  0.00    -0.012 C 
ATOM      3  C   UNL     1      33.481  70.036 104.734  1.00  0.00    -0.019 C 
ATOM      4  C   UNL     1      34.584  70.880 105.314  1.00  0.00     0.036 C 
ATOM      5  C   UNL     1      34.234  71.349 106.738  1.00  0.00     0.025 C 
ATOM      6  C   UNL     1      32.878  72.079 106.742  1.00  0.00     0.089 C 
ATOM      7  C   UNL     1      31.821  71.236 106.081  1.00  0.00     0.158 C 
ATOM      8  O   UNL     1      30.613  71.408 106.395  1.00  0.00    -0.295 OA
ENDROOT
BRANCH   5   9
ATOM      9  C   UNL     1      35.335  72.220 107.325  1.00  0.00    -0.077 C 
ATOM     10  C   UNL     1      36.516  72.329 106.694  1.00  0.00     0.008 C 
ATOM     11  C   UNL     1      35.138  72.974 108.616  1.00  0.00     0.039 C 
ENDBRANCH   5   9
TORSDOF 1
ENDMDL
MODEL 9
REMARK VINA RESULT:    -3.987      2.647      3.329
REMARK INTER + INTRA:          -4.317
REMARK INTER:                  -4.219
REMARK INTRA:                  -0.098
REMARK UNBOUND:                -0.097
REMARK SMILES C=C(C)[C@@H]1CC=C(C)C(=O)C1
REMARK SMILES IDX 8 1 7 2 6 3 5 4 4 5 11 6 9 7 10 8 2 9 1 10 3 11
REMARK H PARENT
REMARK Flexibility Score: inf
ROOT
ATOM      1  C   UNL     1      31.127  69.735 103.801  1.00  0.00     0.048 C 
ATOM      2  C   UNL     1      32.197  70.235 104.732  1.00  0.00    -0.012 C 
ATOM      3  C   UNL     1      31.866  71.025 105.769  1.00  0.00    -0.019 C 
ATOM      4  C   UNL     1      32.894  71.538 106.742  1.00  0.00     0.036 C 
ATOM      5  C   UNL     1      34.248  71.770 106.046  1.00  0.00     0.025 C 
ATOM      6  C   UNL     1      34.711  70.485 105.334  1.00  0.00     0.089 C 
ATOM      7  C   UNL     1      33.625  69.959 104.435  1.00  0.00     0.158 C 
ATOM      8  O   UNL     1      33.940  69.249 103.443  1.00  0.00    -0.295 OA
ENDROOT
BRANCH   5   9
ATOM      9  C   UNL     1      35.300  72.271 107.026  1.00  0.00    -0.077 C 
ATOM     10  C   UNL     1      34.929  72.749 108.226  1.00  0.00     0.008 C 
ATOM     11  C   UNL     1      36.768  72.248 106.684  1.00  0.00     0.039 C 
ENDBRANCH   5   9
TORSDOF 1
ENDMDL
