MODEL 1
REMARK VINA RESULT:    -3.793      0.000      0.000
REMARK INTER + INTRA:          -6.078
REMARK INTER:                  -5.456
REMARK INTRA:                  -0.622
REMARK UNBOUND:                -0.622
REMARK SMILES CCCCCCCCCO
REMARK SMILES IDX 6 1 5 2 4 3 3 4 2 5 1 6 7 7 8 8 9 9 10 10
REMARK H PARENT 10 11
REMARK Flexibility Score: inf
ROOT
ATOM      1  C   UNL     1       8.896 -27.059  51.531  1.00  0.00     0.000 C 
ENDROOT
BRANCH   1   2
ATOM      2  C   UNL     1       9.023 -28.584  51.673  1.00  0.00     0.000 C 
BRANCH   2   3
ATOM      3  C   UNL     1      10.427 -29.024  52.117  1.00  0.00    -0.000 C 
BRANCH   3   4
ATOM      4  C   UNL     1      10.409 -29.812  53.438  1.00  0.00    -0.000 C 
BRANCH   4   5
ATOM      5  C   UNL     1      10.470 -28.894  54.670  1.00  0.00    -0.003 C 
ATOM      6  C   UNL     1      11.728 -28.026  54.702  1.00  0.00     0.004 C 
ENDBRANCH   4   5
ENDBRANCH   3   4
ENDBRANCH   2   3
ENDBRANCH   1   2
BRANCH   1   7
ATOM      7  C   UNL     1       8.324 -26.435  52.813  1.00  0.00     0.002 C 
BRANCH   7   8
ATOM      8  C   UNL     1       9.085 -25.173  53.248  1.00  0.00     0.028 C 
BRANCH   8   9
ATOM      9  C   UNL     1       8.860 -24.823  54.724  1.00  0.00     0.156 C 
BRANCH   9  10
ATOM     10  O   UNL     1       9.970 -25.211  55.488  1.00  0.00    -0.396 OA
ATOM     11  H   UNL     1      10.377 -24.378  55.841  1.00  0.00     0.210 HD
ENDBRANCH   9  10
ENDBRANCH   8   9
ENDBRANCH   7   8
ENDBRANCH   1   7
TORSDOF 8
ENDMDL
MODEL 2
REMARK VINA RESULT:    -3.785      2.929      6.024
REMARK INTER + INTRA:          -6.067
REMARK INTER:                  -5.651
REMARK INTRA:                  -0.417
REMARK UNBOUND:                -0.622
REMARK SMILES CCCCCCCCCO
REMARK SMILES IDX 6 1 5 2 4 3 3 4 2 5 1 6 7 7 8 8 9 9 10 10
REMARK H PARENT 10 11
REMARK Flexibility Score: inf
ROOT
ATOM      1  C   UNL     1       8.105 -23.195  53.609  1.00  0.00     0.000 C 
ENDROOT
BRANCH   1   2
ATOM      2  C   UNL     1       7.387 -23.660  54.885  1.00  0.00     0.000 C 
BRANCH   2   3
ATOM      3  C   UNL     1       8.056 -23.138  56.167  1.00  0.00    -0.000 C 
BRANCH   3   4
ATOM      4  C   UNL     1       8.615 -21.714  56.004  1.00  0.00    -0.000 C 
BRANCH   4   5
ATOM      5  C   UNL     1       7.775 -20.665  56.750  1.00  0.00    -0.003 C 
ATOM      6  C   UNL     1       8.552 -19.966  57.865  1.00  0.00     0.004 C 
ENDBRANCH   4   5
ENDBRANCH   3   4
ENDBRANCH   2   3
ENDBRANCH   1   2
BRANCH   1   7
ATOM      7  C   UNL     1       8.821 -24.368  52.924  1.00  0.00     0.002 C 
BRANCH   7   8
ATOM      8  C   UNL     1       8.559 -25.712  53.623  1.00  0.00     0.028 C 
BRANCH   8   9
ATOM      9  C   UNL     1       9.843 -26.375  54.136  1.00  0.00     0.156 C 
BRANCH   9  10
ATOM     10  O   UNL     1      10.267 -25.755  55.320  1.00  0.00    -0.396 OA
ATOM     11  H   UNL     1      10.916 -26.373  55.747  1.00  0.00     0.210 HD
ENDBRANCH   9  10
ENDBRANCH   8   9
ENDBRANCH   7   8
ENDBRANCH   1   7
TORSDOF 8
ENDMDL
MODEL 3
REMARK VINA RESULT:    -3.716      2.061      4.695
REMARK INTER + INTRA:          -5.967
REMARK INTER:                  -5.301
REMARK INTRA:                  -0.666
REMARK UNBOUND:                -0.622
REMARK SMILES CCCCCCCCCO
REMARK SMILES IDX 6 1 5 2 4 3 3 4 2 5 1 6 7 7 8 8 9 9 10 10
REMARK H PARENT 10 11
REMARK Flexibility Score: inf
ROOT
ATOM      1  C   UNL     1       8.483 -25.129  51.923  1.00  0.00     0.000 C 
ENDROOT
BRANCH   1   2
ATOM      2  C   UNL     1       8.982 -23.692  52.137  1.00  0.00     0.000 C 
BRANCH   2   3
ATOM      3  C   UNL     1       8.359 -23.025  53.374  1.00  0.00    -0.000 C 
BRANCH   3   4
ATOM      4  C   UNL     1       9.412 -22.372  54.286  1.00  0.00    -0.000 C 
BRANCH   4   5
ATOM      5  C   UNL     1       9.084 -22.543  55.778  1.00  0.00    -0.003 C 
ATOM      6  C   UNL     1       7.783 -23.309  56.015  1.00  0.00     0.004 C 
ENDBRANCH   4   5
ENDBRANCH   3   4
ENDBRANCH   2   3
ENDBRANCH   1   2
BRANCH   1   7
ATOM      7  C   UNL     1       8.202 -25.818  53.267  1.00  0.00     0.002 C 
BRANCH   7   8
ATOM      8  C   UNL     1       9.143 -27.004  53.532  1.00  0.00     0.028 C 
BRANCH   8   9
ATOM      9  C   UNL     1      10.464 -26.580  54.186  1.00  0.00     0.156 C 
BRANCH   9  10
ATOM     10  O   UNL     1      10.215 -25.719  55.264  1.00  0.00    -0.396 OA
ATOM     11  H   UNL     1      11.048 -25.692  55.804  1.00  0.00     0.210 HD
ENDBRANCH   9  10
ENDBRANCH   8   9
ENDBRANCH   7   8
ENDBRANCH   1   7
TORSDOF 8
ENDMDL
MODEL 4
REMARK VINA RESULT:    -3.645      1.850      2.741
REMARK INTER + INTRA:          -5.866
REMARK INTER:                  -5.196
REMARK INTRA:                  -0.670
REMARK UNBOUND:                -0.622
REMARK SMILES CCCCCCCCCO
REMARK SMILES IDX 6 1 5 2 4 3 3 4 2 5 1 6 7 7 8 8 9 9 10 10
REMARK H PARENT 10 11
REMARK Flexibility Score: inf
ROOT
ATOM      1  C   UNL     1       9.971 -24.856  51.575  1.00  0.00     0.000 C 
ENDROOT
BRANCH   1   2
ATOM      2  C   UNL     1      10.184 -25.363  50.140  1.00  0.00     0.000 C 
BRANCH   2   3
ATOM      3  C   UNL     1       9.830 -26.850  49.977  1.00  0.00    -0.000 C 
BRANCH   3   4
ATOM      4  C   UNL     1      11.002 -27.779  50.337  1.00  0.00    -0.000 C 
BRANCH   4   5
ATOM      5  C   UNL     1      10.626 -28.806  51.418  1.00  0.00    -0.003 C 
ATOM      6  C   UNL     1       9.115 -28.986  51.565  1.00  0.00     0.004 C 
ENDBRANCH   4   5
ENDBRANCH   3   4
ENDBRANCH   2   3
ENDBRANCH   1   2
BRANCH   1   7
ATOM      7  C   UNL     1       8.564 -25.208  52.078  1.00  0.00     0.002 C 
BRANCH   7   8
ATOM      8  C   UNL     1       8.579 -25.880  53.460  1.00  0.00     0.028 C 
BRANCH   8   9
ATOM      9  C   UNL     1       9.036 -24.932  54.575  1.00  0.00     0.156 C 
BRANCH   9  10
ATOM     10  O   UNL     1      10.059 -25.529  55.327  1.00  0.00    -0.396 OA
ATOM     11  H   UNL     1      10.779 -24.851  55.414  1.00  0.00     0.210 HD
ENDBRANCH   9  10
ENDBRANCH   8   9
ENDBRANCH   7   8
ENDBRANCH   1   7
TORSDOF 8
ENDMDL
MODEL 5
REMARK VINA RESULT:    -3.638      1.509      1.884
REMARK INTER + INTRA:          -5.856
REMARK INTER:                  -5.083
REMARK INTRA:                  -0.772
REMARK UNBOUND:                -0.622
REMARK SMILES CCCCCCCCCO
REMARK SMILES IDX 6 1 5 2 4 3 3 4 2 5 1 6 7 7 8 8 9 9 10 10
REMARK H PARENT 10 11
REMARK Flexibility Score: inf
ROOT
ATOM      1  C   UNL     1       8.296 -26.900  52.682  1.00  0.00     0.000 C 
ENDROOT
BRANCH   1   2
ATOM      2  C   UNL     1       8.636 -27.869  51.539  1.00  0.00     0.000 C 
BRANCH   2   3
ATOM      3  C   UNL     1       9.776 -27.356  50.645  1.00  0.00    -0.000 C 
BRANCH   3   4
ATOM      4  C   UNL     1      11.145 -27.932  51.044  1.00  0.00    -0.000 C 
BRANCH   4   5
ATOM      5  C   UNL     1      11.972 -26.949  51.889  1.00  0.00    -0.003 C 
ATOM      6  C   UNL     1      12.109 -27.389  53.347  1.00  0.00     0.004 C 
ENDBRANCH   4   5
ENDBRANCH   3   4
ENDBRANCH   2   3
ENDBRANCH   1   2
BRANCH   1   7
ATOM      7  C   UNL     1       8.445 -25.441  52.227  1.00  0.00     0.002 C 
BRANCH   7   8
ATOM      8  C   UNL     1       9.299 -24.603  53.192  1.00  0.00     0.028 C 
BRANCH   8   9
ATOM      9  C   UNL     1       8.924 -24.826  54.662  1.00  0.00     0.156 C 
BRANCH   9  10
ATOM     10  O   UNL     1      10.031 -25.306  55.376  1.00  0.00    -0.396 OA
ATOM     11  H   UNL     1       9.704 -25.540  56.284  1.00  0.00     0.210 HD
ENDBRANCH   9  10
ENDBRANCH   8   9
ENDBRANCH   7   8
ENDBRANCH   1   7
TORSDOF 8
ENDMDL
MODEL 6
REMARK VINA RESULT:    -3.587      1.807      2.628
REMARK INTER + INTRA:          -5.783
REMARK INTER:                  -5.358
REMARK INTRA:                  -0.424
REMARK UNBOUND:                -0.622
REMARK SMILES CCCCCCCCCO
REMARK SMILES IDX 6 1 5 2 4 3 3 4 2 5 1 6 7 7 8 8 9 9 10 10
REMARK H PARENT 10 11
REMARK Flexibility Score: inf
ROOT
ATOM      1  C   UNL     1       8.344 -25.181  52.024  1.00  0.00     0.000 C 
ENDROOT
BRANCH   1   2
ATOM      2  C   UNL     1       8.190 -26.556  52.692  1.00  0.00     0.000 C 
BRANCH   2   3
ATOM      3  C   UNL     1       8.525 -27.718  51.744  1.00  0.00    -0.000 C 
BRANCH   3   4
ATOM      4  C   UNL     1       9.536 -27.319  50.655  1.00  0.00    -0.000 C 
BRANCH   4   5
ATOM      5  C   UNL     1      10.934 -27.906  50.908  1.00  0.00    -0.003 C 
ATOM      6  C   UNL     1      10.888 -29.321  51.485  1.00  0.00     0.004 C 
ENDBRANCH   4   5
ENDBRANCH   3   4
ENDBRANCH   2   3
ENDBRANCH   1   2
BRANCH   1   7
ATOM      7  C   UNL     1       8.757 -24.115  53.051  1.00  0.00     0.002 C 
BRANCH   7   8
ATOM      8  C   UNL     1       7.853 -24.109  54.294  1.00  0.00     0.028 C 
BRANCH   8   9
ATOM      9  C   UNL     1       8.647 -24.082  55.605  1.00  0.00     0.156 C 
BRANCH   9  10
ATOM     10  O   UNL     1       9.764 -24.925  55.512  1.00  0.00    -0.396 OA
ATOM     11  H   UNL     1       9.657 -25.615  56.217  1.00  0.00     0.210 HD
ENDBRANCH   9  10
ENDBRANCH   8   9
ENDBRANCH   7   8
ENDBRANCH   1   7
TORSDOF 8
ENDMDL
MODEL 7
REMARK VINA RESULT:    -3.581      2.031      3.226
REMARK INTER + INTRA:          -5.773
REMARK INTER:                  -5.625
REMARK INTRA:                  -0.148
REMARK UNBOUND:                -0.622
REMARK SMILES CCCCCCCCCO
REMARK SMILES IDX 6 1 5 2 4 3 3 4 2 5 1 6 7 7 8 8 9 9 10 10
REMARK H PARENT 10 11
REMARK Flexibility Score: inf
ROOT
ATOM      1  C   UNL     1       8.299 -24.752  53.576  1.00  0.00     0.000 C 
ENDROOT
BRANCH   1   2
ATOM      2  C   UNL     1       8.295 -26.264  53.304  1.00  0.00     0.000 C 
BRANCH   2   3
ATOM      3  C   UNL     1       8.299 -26.597  51.803  1.00  0.00    -0.000 C 
BRANCH   3   4
ATOM      4  C   UNL     1       8.756 -28.038  51.519  1.00  0.00    -0.000 C 
BRANCH   4   5
ATOM      5  C   UNL     1      10.151 -28.095  50.875  1.00  0.00    -0.003 C 
ATOM      6  C   UNL     1      11.011 -29.234  51.423  1.00  0.00     0.004 C 
ENDBRANCH   4   5
ENDBRANCH   3   4
ENDBRANCH   2   3
ENDBRANCH   1   2
BRANCH   1   7
ATOM      7  C   UNL     1       8.917 -24.443  54.948  1.00  0.00     0.002 C 
BRANCH   7   8
ATOM      8  C   UNL     1       7.959 -23.672  55.869  1.00  0.00     0.028 C 
BRANCH   8   9
ATOM      9  C   UNL     1       8.498 -22.292  56.266  1.00  0.00     0.156 C 
BRANCH   9  10
ATOM     10  O   UNL     1       9.802 -22.409  56.767  1.00  0.00    -0.396 OA
ATOM     11  H   UNL     1      10.404 -22.480  55.980  1.00  0.00     0.210 HD
ENDBRANCH   9  10
ENDBRANCH   8   9
ENDBRANCH   7   8
ENDBRANCH   1   7
TORSDOF 8
ENDMDL
MODEL 8
REMARK VINA RESULT:    -3.494      2.144      2.847
REMARK INTER + INTRA:          -5.649
REMARK INTER:                  -5.222
REMARK INTRA:                  -0.427
REMARK UNBOUND:                -0.622
REMARK SMILES CCCCCCCCCO
REMARK SMILES IDX 6 1 5 2 4 3 3 4 2 5 1 6 7 7 8 8 9 9 10 10
REMARK H PARENT 10 11
REMARK Flexibility Score: inf
ROOT
ATOM      1  C   UNL     1       8.455 -26.229  53.353  1.00  0.00     0.000 C 
ENDROOT
BRANCH   1   2
ATOM      2  C   UNL     1       8.336 -26.060  51.831  1.00  0.00     0.000 C 
BRANCH   2   3
ATOM      3  C   UNL     1       9.158 -27.100  51.052  1.00  0.00    -0.000 C 
BRANCH   3   4
ATOM      4  C   UNL     1       8.847 -28.543  51.484  1.00  0.00    -0.000 C 
BRANCH   4   5
ATOM      5  C   UNL     1      10.120 -29.369  51.732  1.00  0.00    -0.003 C 
ATOM      6  C   UNL     1      11.349 -28.788  51.034  1.00  0.00     0.004 C 
ENDBRANCH   4   5
ENDBRANCH   3   4
ENDBRANCH   2   3
ENDBRANCH   1   2
BRANCH   1   7
ATOM      7  C   UNL     1       8.718 -24.878  54.036  1.00  0.00     0.002 C 
BRANCH   7   8
ATOM      8  C   UNL     1       8.938 -23.738  53.029  1.00  0.00     0.028 C 
BRANCH   8   9
ATOM      9  C   UNL     1       7.955 -22.577  53.223  1.00  0.00     0.156 C 
BRANCH   9  10
ATOM     10  O   UNL     1       6.739 -23.054  53.733  1.00  0.00    -0.396 OA
ATOM     11  H   UNL     1       6.512 -22.479  54.510  1.00  0.00     0.210 HD
ENDBRANCH   9  10
ENDBRANCH   8   9
ENDBRANCH   7   8
ENDBRANCH   1   7
TORSDOF 8
ENDMDL
MODEL 9
REMARK VINA RESULT:    -3.488      3.322      6.748
REMARK INTER + INTRA:          -5.640
REMARK INTER:                  -5.125
REMARK INTRA:                  -0.516
REMARK UNBOUND:                -0.622
REMARK SMILES CCCCCCCCCO
REMARK SMILES IDX 6 1 5 2 4 3 3 4 2 5 1 6 7 7 8 8 9 9 10 10
REMARK H PARENT 10 11
REMARK Flexibility Score: inf
ROOT
ATOM      1  C   UNL     1       7.979 -23.325  55.732  1.00  0.00     0.000 C 
ENDROOT
BRANCH   1   2
ATOM      2  C   UNL     1       8.598 -22.263  56.653  1.00  0.00     0.000 C 
BRANCH   2   3
ATOM      3  C   UNL     1       7.791 -20.954  56.678  1.00  0.00    -0.000 C 
BRANCH   3   4
ATOM      4  C   UNL     1       8.103 -20.045  55.477  1.00  0.00    -0.000 C 
BRANCH   4   5
ATOM      5  C   UNL     1       9.611 -19.935  55.199  1.00  0.00    -0.003 C 
ATOM      6  C   UNL     1       9.979 -20.316  53.765  1.00  0.00     0.004 C 
ENDBRANCH   4   5
ENDBRANCH   3   4
ENDBRANCH   2   3
ENDBRANCH   1   2
BRANCH   1   7
ATOM      7  C   UNL     1       9.001 -23.815  54.696  1.00  0.00     0.002 C 
BRANCH   7   8
ATOM      8  C   UNL     1       8.606 -25.159  54.064  1.00  0.00     0.028 C 
BRANCH   8   9
ATOM      9  C   UNL     1       9.700 -26.224  54.200  1.00  0.00     0.156 C 
BRANCH   9  10
ATOM     10  O   UNL     1      10.449 -26.002  55.365  1.00  0.00    -0.396 OA
ATOM     11  H   UNL     1      11.090 -25.274  55.155  1.00  0.00     0.210 HD
ENDBRANCH   9  10
ENDBRANCH   8   9
ENDBRANCH   7   8
ENDBRANCH   1   7
TORSDOF 8
ENDMDL
