MODEL 1
REMARK VINA RESULT:    -3.930      0.000      0.000
REMARK INTER + INTRA:          -4.044
REMARK INTER:                  -4.044
REMARK INTRA:                   0.000
REMARK UNBOUND:                 0.000
REMARK SMILES Oc1ccc2[nH]ccc2c1
REMARK SMILES IDX 3 1 4 2 5 3 9 4 8 5 7 6 6 7 10 8 2 9 1 11
REMARK H PARENT 6 10 1 12
REMARK Flexibility Score: inf
ROOT
ATOM      1  C   UNL     1      25.142  40.217  13.912  1.00  0.00     0.048 A 
ATOM      2  C   UNL     1      24.017  40.116  13.075  1.00  0.00     0.030 A 
ATOM      3  C   UNL     1      22.830  39.647  13.634  1.00  0.00     0.046 A 
ATOM      4  C   UNL     1      22.747  39.293  14.954  1.00  0.00     0.003 A 
ATOM      5  C   UNL     1      21.455  38.876  15.189  1.00  0.00     0.028 A 
ATOM      6  C   UNL     1      20.805  39.003  13.965  1.00  0.00     0.083 A 
ATOM      7  N   UNL     1      21.649  39.474  13.019  1.00  0.00    -0.361 N 
ATOM      8  C   UNL     1      23.842  39.381  15.810  1.00  0.00     0.056 A 
ATOM      9  C   UNL     1      25.060  39.852  15.277  1.00  0.00     0.116 A 
ATOM     10  H   UNL     1      21.424  39.663  12.016  1.00  0.00     0.166 HD
ENDROOT
BRANCH   9  11
ATOM     11  O   UNL     1      26.189  39.962  16.084  1.00  0.00    -0.508 OA
ATOM     12  H   UNL     1      26.156  40.441  16.977  1.00  0.00     0.293 HD
ENDBRANCH   9  11
TORSDOF 1
ENDMDL
MODEL 2
REMARK VINA RESULT:    -3.895     16.301     16.894
REMARK INTER + INTRA:          -4.009
REMARK INTER:                  -4.009
REMARK INTRA:                   0.000
REMARK UNBOUND:                 0.000
REMARK SMILES Oc1ccc2[nH]ccc2c1
REMARK SMILES IDX 3 1 4 2 5 3 9 4 8 5 7 6 6 7 10 8 2 9 1 11
REMARK H PARENT 6 10 1 12
REMARK Flexibility Score: inf
ROOT
ATOM      1  C   UNL     1      38.949  44.118  12.388  1.00  0.00     0.048 A 
ATOM      2  C   UNL     1      38.940  42.944  13.162  1.00  0.00     0.030 A 
ATOM      3  C   UNL     1      39.363  41.762  12.557  1.00  0.00     0.046 A 
ATOM      4  C   UNL     1      39.777  41.729  11.253  1.00  0.00     0.003 A 
ATOM      5  C   UNL     1      40.125  40.428  10.962  1.00  0.00     0.028 A 
ATOM      6  C   UNL     1      39.898  39.721  12.139  1.00  0.00     0.083 A 
ATOM      7  N   UNL     1      39.433  40.540  13.110  1.00  0.00    -0.361 N 
ATOM      8  C   UNL     1      39.798  42.873  10.458  1.00  0.00     0.056 A 
ATOM      9  C   UNL     1      39.376  44.088  11.039  1.00  0.00     0.116 A 
ATOM     10  H   UNL     1      39.180  40.273  14.088  1.00  0.00     0.166 HD
ENDROOT
BRANCH   9  11
ATOM     11  O   UNL     1      39.375  45.264  10.294  1.00  0.00    -0.508 OA
ATOM     12  H   UNL     1      40.235  45.758  10.086  1.00  0.00     0.293 HD
ENDBRANCH   9  11
TORSDOF 1
ENDMDL
MODEL 3
REMARK VINA RESULT:    -3.794     18.449     19.752
REMARK INTER + INTRA:          -3.905
REMARK INTER:                  -3.905
REMARK INTRA:                   0.000
REMARK UNBOUND:                 0.000
REMARK SMILES Oc1ccc2[nH]ccc2c1
REMARK SMILES IDX 3 1 4 2 5 3 9 4 8 5 7 6 6 7 10 8 2 9 1 11
REMARK H PARENT 6 10 1 12
REMARK Flexibility Score: inf
ROOT
ATOM      1  C   UNL     1      39.242  48.800  11.271  1.00  0.00     0.048 A 
ATOM      2  C   UNL     1      39.724  49.952  10.624  1.00  0.00     0.030 A 
ATOM      3  C   UNL     1      39.712  51.151  11.334  1.00  0.00     0.046 A 
ATOM      4  C   UNL     1      39.249  51.221  12.620  1.00  0.00     0.003 A 
ATOM      5  C   UNL     1      39.370  52.530  13.032  1.00  0.00     0.028 A 
ATOM      6  C   UNL     1      39.916  53.203  11.943  1.00  0.00     0.083 A 
ATOM      7  N   UNL     1      40.122  52.357  10.908  1.00  0.00    -0.361 N 
ATOM      8  C   UNL     1      38.765  50.100  13.291  1.00  0.00     0.056 A 
ATOM      9  C   UNL     1      38.763  48.869  12.601  1.00  0.00     0.116 A 
ATOM     10  H   UNL     1      40.519  52.596   9.972  1.00  0.00     0.166 HD
ENDROOT
BRANCH   9  11
ATOM     11  O   UNL     1      38.291  47.714  13.219  1.00  0.00    -0.508 OA
ATOM     12  H   UNL     1      38.730  46.814  13.063  1.00  0.00     0.293 HD
ENDBRANCH   9  11
TORSDOF 1
ENDMDL
MODEL 4
REMARK VINA RESULT:    -3.789      2.614      4.068
REMARK INTER + INTRA:          -3.900
REMARK INTER:                  -3.900
REMARK INTRA:                   0.000
REMARK UNBOUND:                 0.000
REMARK SMILES Oc1ccc2[nH]ccc2c1
REMARK SMILES IDX 3 1 4 2 5 3 9 4 8 5 7 6 6 7 10 8 2 9 1 11
REMARK H PARENT 6 10 1 12
REMARK Flexibility Score: inf
ROOT
ATOM      1  C   UNL     1      21.526  38.875  15.481  1.00  0.00     0.048 A 
ATOM      2  C   UNL     1      22.776  38.890  16.125  1.00  0.00     0.030 A 
ATOM      3  C   UNL     1      23.887  39.282  15.381  1.00  0.00     0.046 A 
ATOM      4  C   UNL     1      23.781  39.643  14.064  1.00  0.00     0.003 A 
ATOM      5  C   UNL     1      25.044  39.972  13.623  1.00  0.00     0.028 A 
ATOM      6  C   UNL     1      25.872  39.788  14.726  1.00  0.00     0.083 A 
ATOM      7  N   UNL     1      25.161  39.366  15.797  1.00  0.00    -0.361 N 
ATOM      8  C   UNL     1      22.558  39.639  13.396  1.00  0.00     0.056 A 
ATOM      9  C   UNL     1      21.412  39.247  14.120  1.00  0.00     0.116 A 
ATOM     10  H   UNL     1      25.531  39.151  16.749  1.00  0.00     0.166 HD
ENDROOT
BRANCH   9  11
ATOM     11  O   UNL     1      20.163  39.224  13.506  1.00  0.00    -0.508 OA
ATOM     12  H   UNL     1      19.791  40.039  13.032  1.00  0.00     0.293 HD
ENDBRANCH   9  11
TORSDOF 1
ENDMDL
MODEL 5
REMARK VINA RESULT:    -3.716     15.933     16.449
REMARK INTER + INTRA:          -3.825
REMARK INTER:                  -3.825
REMARK INTRA:                   0.000
REMARK UNBOUND:                 0.000
REMARK SMILES Oc1ccc2[nH]ccc2c1
REMARK SMILES IDX 3 1 4 2 5 3 9 4 8 5 7 6 6 7 10 8 2 9 1 11
REMARK H PARENT 6 10 1 12
REMARK Flexibility Score: inf
ROOT
ATOM      1  C   UNL     1      39.756  41.479  10.902  1.00  0.00     0.048 A 
ATOM      2  C   UNL     1      39.973  40.944  12.185  1.00  0.00     0.030 A 
ATOM      3  C   UNL     1      39.488  41.659  13.278  1.00  0.00     0.046 A 
ATOM      4  C   UNL     1      38.821  42.844  13.125  1.00  0.00     0.003 A 
ATOM      5  C   UNL     1      38.478  43.291  14.383  1.00  0.00     0.028 A 
ATOM      6  C   UNL     1      38.969  42.325  15.256  1.00  0.00     0.083 A 
ATOM      7  N   UNL     1      39.586  41.331  14.577  1.00  0.00    -0.361 N 
ATOM      8  C   UNL     1      38.589  43.401  11.869  1.00  0.00     0.056 A 
ATOM      9  C   UNL     1      39.067  42.704  10.740  1.00  0.00     0.116 A 
ATOM     10  H   UNL     1      40.043  40.484  14.983  1.00  0.00     0.166 HD
ENDROOT
BRANCH   9  11
ATOM     11  O   UNL     1      38.865  43.211   9.459  1.00  0.00    -0.508 OA
ATOM     12  H   UNL     1      38.003  43.044   8.953  1.00  0.00     0.293 HD
ENDBRANCH   9  11
TORSDOF 1
ENDMDL
MODEL 6
REMARK VINA RESULT:    -3.673     16.642     17.302
REMARK INTER + INTRA:          -3.781
REMARK INTER:                  -3.781
REMARK INTRA:                   0.000
REMARK UNBOUND:                 0.000
REMARK SMILES Oc1ccc2[nH]ccc2c1
REMARK SMILES IDX 3 1 4 2 5 3 9 4 8 5 7 6 6 7 10 8 2 9 1 11
REMARK H PARENT 6 10 1 12
REMARK Flexibility Score: inf
ROOT
ATOM      1  C   UNL     1      39.302  41.621  10.876  1.00  0.00     0.048 A 
ATOM      2  C   UNL     1      39.405  42.684   9.961  1.00  0.00     0.030 A 
ATOM      3  C   UNL     1      39.687  43.952  10.465  1.00  0.00     0.046 A 
ATOM      4  C   UNL     1      39.863  44.171  11.805  1.00  0.00     0.003 A 
ATOM      5  C   UNL     1      40.125  45.514  11.974  1.00  0.00     0.028 A 
ATOM      6  C   UNL     1      40.095  46.052  10.691  1.00  0.00     0.083 A 
ATOM      7  N   UNL     1      39.827  45.095   9.773  1.00  0.00    -0.361 N 
ATOM      8  C   UNL     1      39.768  43.141  12.738  1.00  0.00     0.056 A 
ATOM      9  C   UNL     1      39.482  41.844  12.262  1.00  0.00     0.116 A 
ATOM     10  H   UNL     1      39.745  45.222   8.740  1.00  0.00     0.166 HD
ENDROOT
BRANCH   9  11
ATOM     11  O   UNL     1      39.376  40.774  13.147  1.00  0.00    -0.508 OA
ATOM     12  H   UNL     1      38.560  40.654  13.736  1.00  0.00     0.293 HD
ENDBRANCH   9  11
TORSDOF 1
ENDMDL
MODEL 7
REMARK VINA RESULT:    -3.324      1.368      2.110
REMARK INTER + INTRA:          -3.421
REMARK INTER:                  -3.421
REMARK INTRA:                   0.000
REMARK UNBOUND:                 0.000
REMARK SMILES Oc1ccc2[nH]ccc2c1
REMARK SMILES IDX 3 1 4 2 5 3 9 4 8 5 7 6 6 7 10 8 2 9 1 11
REMARK H PARENT 6 10 1 12
REMARK Flexibility Score: inf
ROOT
ATOM      1  C   UNL     1      24.922  39.065  15.524  1.00  0.00     0.048 A 
ATOM      2  C   UNL     1      23.660  38.906  16.125  1.00  0.00     0.030 A 
ATOM      3  C   UNL     1      22.533  39.025  15.313  1.00  0.00     0.046 A 
ATOM      4  C   UNL     1      22.635  39.287  13.973  1.00  0.00     0.003 A 
ATOM      5  C   UNL     1      21.356  39.342  13.465  1.00  0.00     0.028 A 
ATOM      6  C   UNL     1      20.523  39.104  14.553  1.00  0.00     0.083 A 
ATOM      7  N   UNL     1      21.246  38.911  15.680  1.00  0.00    -0.361 N 
ATOM      8  C   UNL     1      23.869  39.449  13.347  1.00  0.00     0.056 A 
ATOM      9  C   UNL     1      25.031  39.336  14.139  1.00  0.00     0.116 A 
ATOM     10  H   UNL     1      20.876  38.715  16.636  1.00  0.00     0.166 HD
ENDROOT
BRANCH   9  11
ATOM     11  O   UNL     1      26.292  39.489  13.569  1.00  0.00    -0.508 OA
ATOM     12  H   UNL     1      26.777  40.378  13.588  1.00  0.00     0.293 HD
ENDBRANCH   9  11
TORSDOF 1
ENDMDL
MODEL 8
REMARK VINA RESULT:    -3.313     18.603     19.534
REMARK INTER + INTRA:          -3.410
REMARK INTER:                  -3.410
REMARK INTRA:                   0.000
REMARK UNBOUND:                 0.000
REMARK SMILES Oc1ccc2[nH]ccc2c1
REMARK SMILES IDX 3 1 4 2 5 3 9 4 8 5 7 6 6 7 10 8 2 9 1 11
REMARK H PARENT 6 10 1 12
REMARK Flexibility Score: inf
ROOT
ATOM      1  C   UNL     1      39.319  49.137  10.939  1.00  0.00     0.048 A 
ATOM      2  C   UNL     1      38.877  48.846  12.242  1.00  0.00     0.030 A 
ATOM      3  C   UNL     1      38.820  49.893  13.159  1.00  0.00     0.046 A 
ATOM      4  C   UNL     1      39.178  51.169  12.818  1.00  0.00     0.003 A 
ATOM      5  C   UNL     1      39.011  51.959  13.935  1.00  0.00     0.028 A 
ATOM      6  C   UNL     1      38.545  51.095  14.922  1.00  0.00     0.083 A 
ATOM      7  N   UNL     1      38.431  49.835  14.443  1.00  0.00    -0.361 N 
ATOM      8  C   UNL     1      39.620  51.492  11.536  1.00  0.00     0.056 A 
ATOM      9  C   UNL     1      39.690  50.455  10.582  1.00  0.00     0.116 A 
ATOM     10  H   UNL     1      38.106  48.993  14.968  1.00  0.00     0.166 HD
ENDROOT
BRANCH   9  11
ATOM     11  O   UNL     1      40.124  50.717   9.285  1.00  0.00    -0.508 OA
ATOM     12  H   UNL     1      40.675  50.043   8.766  1.00  0.00     0.293 HD
ENDBRANCH   9  11
TORSDOF 1
ENDMDL
MODEL 9
REMARK VINA RESULT:    -3.310     20.364     21.760
REMARK INTER + INTRA:          -3.407
REMARK INTER:                  -3.407
REMARK INTRA:                   0.000
REMARK UNBOUND:                 0.000
REMARK SMILES Oc1ccc2[nH]ccc2c1
REMARK SMILES IDX 3 1 4 2 5 3 9 4 8 5 7 6 6 7 10 8 2 9 1 11
REMARK H PARENT 6 10 1 12
REMARK Flexibility Score: inf
ROOT
ATOM      1  C   UNL     1      39.004  56.722  13.033  1.00  0.00     0.048 A 
ATOM      2  C   UNL     1      39.896  55.635  13.052  1.00  0.00     0.030 A 
ATOM      3  C   UNL     1      39.408  54.399  13.472  1.00  0.00     0.046 A 
ATOM      4  C   UNL     1      38.105  54.233  13.856  1.00  0.00     0.003 A 
ATOM      5  C   UNL     1      37.943  52.911  14.210  1.00  0.00     0.028 A 
ATOM      6  C   UNL     1      39.193  52.329  14.015  1.00  0.00     0.083 A 
ATOM      7  N   UNL     1      40.083  53.242  13.565  1.00  0.00    -0.361 N 
ATOM      8  C   UNL     1      37.195  55.288  13.848  1.00  0.00     0.056 A 
ATOM      9  C   UNL     1      37.656  56.554  13.429  1.00  0.00     0.116 A 
ATOM     10  H   UNL     1      41.090  53.077  13.338  1.00  0.00     0.166 HD
ENDROOT
BRANCH   9  11
ATOM     11  O   UNL     1      36.793  57.646  13.401  1.00  0.00    -0.508 OA
ATOM     12  H   UNL     1      35.958  57.646  12.826  1.00  0.00     0.293 HD
ENDBRANCH   9  11
TORSDOF 1
ENDMDL
