MODEL 1
REMARK VINA RESULT:    -4.538      0.000      0.000
REMARK INTER + INTRA:          -6.744
REMARK INTER:                  -6.395
REMARK INTRA:                  -0.348
REMARK UNBOUND:                -0.348
REMARK SMILES CCCCCCCCC(=O)[O-]
REMARK SMILES IDX 6 1 7 2 8 3 9 4 10 5 11 6 5 7 4 8 3 9 2 10 1 11
REMARK H PARENT
REMARK Flexibility Score: inf
ROOT
ATOM      1  C   UNL     1       1.743  20.891 -18.903  1.00  0.00     0.000 C 
ENDROOT
BRANCH   1   2
ATOM      2  C   UNL     1       1.351  20.222 -20.225  1.00  0.00     0.006 C 
BRANCH   2   3
ATOM      3  C   UNL     1       2.352  19.128 -20.605  1.00  0.00     0.053 C 
BRANCH   3   4
ATOM      4  C   UNL     1       3.641  19.734 -21.065  1.00  0.00     0.041 C 
ATOM      5  O   UNL     1       4.721  19.103 -20.926  1.00  0.00    -0.550 OA
ATOM      6  O   UNL     1       3.642  20.973 -21.691  1.00  0.00    -0.550 OA
ENDBRANCH   3   4
ENDBRANCH   2   3
ENDBRANCH   1   2
BRANCH   1   7
ATOM      7  C   UNL     1       1.089  22.272 -18.767  1.00  0.00     0.000 C 
BRANCH   7   8
ATOM      8  C   UNL     1       2.107  23.319 -18.293  1.00  0.00    -0.000 C 
BRANCH   8   9
ATOM      9  C   UNL     1       3.132  22.743 -17.303  1.00  0.00    -0.000 C 
BRANCH   9  10
ATOM     10  C   UNL     1       2.565  22.596 -15.883  1.00  0.00    -0.003 C 
ATOM     11  C   UNL     1       2.803  21.191 -15.340  1.00  0.00     0.004 C 
ENDBRANCH   9  10
ENDBRANCH   8   9
ENDBRANCH   7   8
ENDBRANCH   1   7
TORSDOF 7
ENDMDL
MODEL 2
REMARK VINA RESULT:    -4.506      3.361      5.331
REMARK INTER + INTRA:          -6.698
REMARK INTER:                  -6.340
REMARK INTRA:                  -0.358
REMARK UNBOUND:                -0.348
REMARK SMILES CCCCCCCCC(=O)[O-]
REMARK SMILES IDX 6 1 7 2 8 3 9 4 10 5 11 6 5 7 4 8 3 9 2 10 1 11
REMARK H PARENT
REMARK Flexibility Score: inf
ROOT
ATOM      1  C   UNL     1       1.446  22.202 -17.641  1.00  0.00     0.000 C 
ENDROOT
BRANCH   1   2
ATOM      2  C   UNL     1       2.615  22.817 -16.863  1.00  0.00     0.006 C 
BRANCH   2   3
ATOM      3  C   UNL     1       3.341  21.756 -16.032  1.00  0.00     0.053 C 
BRANCH   3   4
ATOM      4  C   UNL     1       2.752  21.672 -14.659  1.00  0.00     0.041 C 
ATOM      5  O   UNL     1       2.417  20.557 -14.181  1.00  0.00    -0.550 OA
ATOM      6  O   UNL     1       2.620  22.820 -13.888  1.00  0.00    -0.550 OA
ENDBRANCH   3   4
ENDBRANCH   2   3
ENDBRANCH   1   2
BRANCH   1   7
ATOM      7  C   UNL     1       1.556  22.512 -19.139  1.00  0.00     0.000 C 
BRANCH   7   8
ATOM      8  C   UNL     1       2.404  21.453 -19.859  1.00  0.00    -0.000 C 
BRANCH   8   9
ATOM      9  C   UNL     1       1.649  20.130 -20.066  1.00  0.00    -0.000 C 
BRANCH   9  10
ATOM     10  C   UNL     1       2.536  19.029 -20.665  1.00  0.00    -0.003 C 
ATOM     11  C   UNL     1       3.825  19.613 -21.235  1.00  0.00     0.004 C 
ENDBRANCH   9  10
ENDBRANCH   8   9
ENDBRANCH   7   8
ENDBRANCH   1   7
TORSDOF 7
ENDMDL
MODEL 3
REMARK VINA RESULT:    -4.447      9.789     10.941
REMARK INTER + INTRA:          -6.615
REMARK INTER:                  -5.972
REMARK INTRA:                  -0.643
REMARK UNBOUND:                -0.348
REMARK SMILES CCCCCCCCC(=O)[O-]
REMARK SMILES IDX 6 1 7 2 8 3 9 4 10 5 11 6 5 7 4 8 3 9 2 10 1 11
REMARK H PARENT
REMARK Flexibility Score: inf
ROOT
ATOM      1  C   UNL     1       9.842  25.117 -11.205  1.00  0.00     0.000 C 
ENDROOT
BRANCH   1   2
ATOM      2  C   UNL     1       8.871  24.297 -12.063  1.00  0.00     0.006 C 
BRANCH   2   3
ATOM      3  C   UNL     1       7.600  23.957 -11.281  1.00  0.00     0.053 C 
BRANCH   3   4
ATOM      4  C   UNL     1       7.816  22.745 -10.430  1.00  0.00     0.041 C 
ATOM      5  O   UNL     1       8.111  21.643 -10.962  1.00  0.00    -0.550 OA
ATOM      6  O   UNL     1       7.740  22.845  -9.047  1.00  0.00    -0.550 OA
ENDBRANCH   3   4
ENDBRANCH   2   3
ENDBRANCH   1   2
BRANCH   1   7
ATOM      7  C   UNL     1      10.546  26.192 -12.043  1.00  0.00     0.000 C 
BRANCH   7   8
ATOM      8  C   UNL     1       9.667  26.634 -13.222  1.00  0.00    -0.000 C 
BRANCH   8   9
ATOM      9  C   UNL     1       9.385  28.145 -13.216  1.00  0.00    -0.000 C 
BRANCH   9  10
ATOM     10  C   UNL     1       7.904  28.470 -12.972  1.00  0.00    -0.003 C 
ATOM     11  C   UNL     1       7.025  27.252 -13.236  1.00  0.00     0.004 C 
ENDBRANCH   9  10
ENDBRANCH   8   9
ENDBRANCH   7   8
ENDBRANCH   1   7
TORSDOF 7
ENDMDL
MODEL 4
REMARK VINA RESULT:    -4.401     10.061     11.182
REMARK INTER + INTRA:          -6.550
REMARK INTER:                  -6.158
REMARK INTRA:                  -0.392
REMARK UNBOUND:                -0.348
REMARK SMILES CCCCCCCCC(=O)[O-]
REMARK SMILES IDX 6 1 7 2 8 3 9 4 10 5 11 6 5 7 4 8 3 9 2 10 1 11
REMARK H PARENT
REMARK Flexibility Score: inf
ROOT
ATOM      1  C   UNL     1      10.059  25.825 -12.219  1.00  0.00     0.000 C 
ENDROOT
BRANCH   1   2
ATOM      2  C   UNL     1       9.182  24.588 -11.990  1.00  0.00     0.006 C 
BRANCH   2   3
ATOM      3  C   UNL     1       9.067  24.266 -10.498  1.00  0.00     0.053 C 
BRANCH   3   4
ATOM      4  C   UNL     1       7.790  23.537 -10.216  1.00  0.00     0.041 C 
ATOM      5  O   UNL     1       6.815  23.641 -11.005  1.00  0.00    -0.550 OA
ATOM      6  O   UNL     1       7.695  22.706  -9.109  1.00  0.00    -0.550 OA
ENDBRANCH   3   4
ENDBRANCH   2   3
ENDBRANCH   1   2
BRANCH   1   7
ATOM      7  C   UNL     1       9.413  26.779 -13.232  1.00  0.00     0.000 C 
BRANCH   7   8
ATOM      8  C   UNL     1       7.885  26.785 -13.086  1.00  0.00    -0.000 C 
BRANCH   8   9
ATOM      9  C   UNL     1       7.294  28.204 -13.110  1.00  0.00    -0.000 C 
BRANCH   9  10
ATOM     10  C   UNL     1       8.373  29.296 -13.081  1.00  0.00    -0.003 C 
ATOM     11  C   UNL     1       7.766  30.658 -12.760  1.00  0.00     0.004 C 
ENDBRANCH   9  10
ENDBRANCH   8   9
ENDBRANCH   7   8
ENDBRANCH   1   7
TORSDOF 7
ENDMDL
MODEL 5
REMARK VINA RESULT:    -4.365      9.217     10.430
REMARK INTER + INTRA:          -6.499
REMARK INTER:                  -6.118
REMARK INTRA:                  -0.381
REMARK UNBOUND:                -0.348
REMARK SMILES CCCCCCCCC(=O)[O-]
REMARK SMILES IDX 6 1 7 2 8 3 9 4 10 5 11 6 5 7 4 8 3 9 2 10 1 11
REMARK H PARENT
REMARK Flexibility Score: inf
ROOT
ATOM      1  C   UNL     1       8.137  27.553 -13.117  1.00  0.00     0.000 C 
ENDROOT
BRANCH   1   2
ATOM      2  C   UNL     1       7.594  28.987 -13.084  1.00  0.00     0.006 C 
BRANCH   2   3
ATOM      3  C   UNL     1       7.795  29.682 -14.433  1.00  0.00     0.053 C 
BRANCH   3   4
ATOM      4  C   UNL     1       6.540  29.621 -15.246  1.00  0.00     0.041 C 
ATOM      5  O   UNL     1       5.532  30.294 -14.906  1.00  0.00    -0.550 OA
ATOM      6  O   UNL     1       6.500  28.858 -16.406  1.00  0.00    -0.550 OA
ENDBRANCH   3   4
ENDBRANCH   2   3
ENDBRANCH   1   2
BRANCH   1   7
ATOM      7  C   UNL     1       6.995  26.530 -13.071  1.00  0.00     0.000 C 
BRANCH   7   8
ATOM      8  C   UNL     1       7.535  25.115 -12.816  1.00  0.00    -0.000 C 
BRANCH   8   9
ATOM      9  C   UNL     1       8.865  25.119 -12.046  1.00  0.00    -0.000 C 
BRANCH   9  10
ATOM     10  C   UNL     1       8.800  24.303 -10.746  1.00  0.00    -0.003 C 
ATOM     11  C   UNL     1       7.522  23.473 -10.685  1.00  0.00     0.004 C 
ENDBRANCH   9  10
ENDBRANCH   8   9
ENDBRANCH   7   8
ENDBRANCH   1   7
TORSDOF 7
ENDMDL
MODEL 6
REMARK VINA RESULT:    -4.266     12.869     14.331
REMARK INTER + INTRA:          -6.360
REMARK INTER:                  -5.730
REMARK INTRA:                  -0.630
REMARK UNBOUND:                -0.348
REMARK SMILES CCCCCCCCC(=O)[O-]
REMARK SMILES IDX 6 1 7 2 8 3 9 4 10 5 11 6 5 7 4 8 3 9 2 10 1 11
REMARK H PARENT
REMARK Flexibility Score: inf
ROOT
ATOM      1  C   UNL     1      -4.833  31.404 -18.598  1.00  0.00     0.000 C 
ENDROOT
BRANCH   1   2
ATOM      2  C   UNL     1      -4.199  32.643 -19.242  1.00  0.00     0.006 C 
BRANCH   2   3
ATOM      3  C   UNL     1      -3.640  33.590 -18.177  1.00  0.00     0.053 C 
BRANCH   3   4
ATOM      4  C   UNL     1      -2.147  33.502 -18.128  1.00  0.00     0.041 C 
ATOM      5  O   UNL     1      -1.541  32.637 -18.813  1.00  0.00    -0.550 OA
ATOM      6  O   UNL     1      -1.423  34.408 -17.365  1.00  0.00    -0.550 OA
ENDBRANCH   3   4
ENDBRANCH   2   3
ENDBRANCH   1   2
BRANCH   1   7
ATOM      7  C   UNL     1      -4.989  31.588 -17.083  1.00  0.00     0.000 C 
BRANCH   7   8
ATOM      8  C   UNL     1      -6.467  31.535 -16.672  1.00  0.00    -0.000 C 
BRANCH   8   9
ATOM      9  C   UNL     1      -6.979  32.878 -16.128  1.00  0.00    -0.000 C 
BRANCH   9  10
ATOM     10  C   UNL     1      -8.229  33.379 -16.867  1.00  0.00    -0.003 C 
ATOM     11  C   UNL     1      -8.011  33.377 -18.377  1.00  0.00     0.004 C 
ENDBRANCH   9  10
ENDBRANCH   8   9
ENDBRANCH   7   8
ENDBRANCH   1   7
TORSDOF 7
ENDMDL
MODEL 7
REMARK VINA RESULT:    -4.171      9.192     10.668
REMARK INTER + INTRA:          -6.226
REMARK INTER:                  -5.785
REMARK INTRA:                  -0.441
REMARK UNBOUND:                -0.348
REMARK SMILES CCCCCCCCC(=O)[O-]
REMARK SMILES IDX 6 1 7 2 8 3 9 4 10 5 11 6 5 7 4 8 3 9 2 10 1 11
REMARK H PARENT
REMARK Flexibility Score: inf
ROOT
ATOM      1  C   UNL     1       7.031  26.927 -13.118  1.00  0.00     0.000 C 
ENDROOT
BRANCH   1   2
ATOM      2  C   UNL     1       6.694  25.460 -12.826  1.00  0.00     0.006 C 
BRANCH   2   3
ATOM      3  C   UNL     1       7.946  24.681 -12.414  1.00  0.00     0.053 C 
BRANCH   3   4
ATOM      4  C   UNL     1       7.772  24.095 -11.048  1.00  0.00     0.041 C 
ATOM      5  O   UNL     1       6.755  23.404 -10.781  1.00  0.00    -0.550 OA
ATOM      6  O   UNL     1       8.758  24.270 -10.086  1.00  0.00    -0.550 OA
ENDBRANCH   3   4
ENDBRANCH   2   3
ENDBRANCH   1   2
BRANCH   1   7
ATOM      7  C   UNL     1       8.546  27.164 -13.080  1.00  0.00     0.000 C 
BRANCH   7   8
ATOM      8  C   UNL     1       8.866  28.662 -12.968  1.00  0.00    -0.000 C 
BRANCH   8   9
ATOM      9  C   UNL     1       7.605  29.526 -12.801  1.00  0.00    -0.000 C 
BRANCH   9  10
ATOM     10  C   UNL     1       7.385  30.486 -13.979  1.00  0.00    -0.003 C 
ATOM     11  C   UNL     1       6.172  30.072 -14.806  1.00  0.00     0.004 C 
ENDBRANCH   9  10
ENDBRANCH   8   9
ENDBRANCH   7   8
ENDBRANCH   1   7
TORSDOF 7
ENDMDL
MODEL 8
REMARK VINA RESULT:    -4.167     13.657     14.967
REMARK INTER + INTRA:          -6.221
REMARK INTER:                  -5.479
REMARK INTRA:                  -0.742
REMARK UNBOUND:                -0.348
REMARK SMILES CCCCCCCCC(=O)[O-]
REMARK SMILES IDX 6 1 7 2 8 3 9 4 10 5 11 6 5 7 4 8 3 9 2 10 1 11
REMARK H PARENT
REMARK Flexibility Score: inf
ROOT
ATOM      1  C   UNL     1      -5.358  31.557 -18.935  1.00  0.00     0.000 C 
ENDROOT
BRANCH   1   2
ATOM      2  C   UNL     1      -6.450  32.304 -18.159  1.00  0.00     0.006 C 
BRANCH   2   3
ATOM      3  C   UNL     1      -6.468  31.877 -16.689  1.00  0.00     0.053 C 
BRANCH   3   4
ATOM      4  C   UNL     1      -7.584  32.558 -15.960  1.00  0.00     0.041 C 
ATOM      5  O   UNL     1      -7.883  32.204 -14.789  1.00  0.00    -0.550 OA
ATOM      6  O   UNL     1      -8.259  33.615 -16.554  1.00  0.00    -0.550 OA
ENDBRANCH   3   4
ENDBRANCH   2   3
ENDBRANCH   1   2
BRANCH   1   7
ATOM      7  C   UNL     1      -4.143  32.460 -19.185  1.00  0.00     0.000 C 
BRANCH   7   8
ATOM      8  C   UNL     1      -3.047  32.208 -18.140  1.00  0.00    -0.000 C 
BRANCH   8   9
ATOM      9  C   UNL     1      -2.720  33.461 -17.312  1.00  0.00    -0.000 C 
BRANCH   9  10
ATOM     10  C   UNL     1      -3.588  34.669 -17.697  1.00  0.00    -0.003 C 
ATOM     11  C   UNL     1      -4.502  35.075 -16.546  1.00  0.00     0.004 C 
ENDBRANCH   9  10
ENDBRANCH   8   9
ENDBRANCH   7   8
ENDBRANCH   1   7
TORSDOF 7
ENDMDL
MODEL 9
REMARK VINA RESULT:    -4.041      8.766     11.366
REMARK INTER + INTRA:          -6.044
REMARK INTER:                  -5.256
REMARK INTRA:                  -0.788
REMARK UNBOUND:                -0.348
REMARK SMILES CCCCCCCCC(=O)[O-]
REMARK SMILES IDX 6 1 7 2 8 3 9 4 10 5 11 6 5 7 4 8 3 9 2 10 1 11
REMARK H PARENT
REMARK Flexibility Score: inf
ROOT
ATOM      1  C   UNL     1       3.237  20.872  -7.500  1.00  0.00     0.000 C 
ENDROOT
BRANCH   1   2
ATOM      2  C   UNL     1       2.406  21.373  -8.686  1.00  0.00     0.006 C 
BRANCH   2   3
ATOM      3  C   UNL     1       1.687  20.214  -9.382  1.00  0.00     0.053 C 
BRANCH   3   4
ATOM      4  C   UNL     1       2.400  19.836 -10.642  1.00  0.00     0.041 C 
ATOM      5  O   UNL     1       1.942  20.193 -11.759  1.00  0.00    -0.550 OA
ATOM      6  O   UNL     1       3.596  19.134 -10.580  1.00  0.00    -0.550 OA
ENDBRANCH   3   4
ENDBRANCH   2   3
ENDBRANCH   1   2
BRANCH   1   7
ATOM      7  C   UNL     1       2.716  19.522  -6.991  1.00  0.00     0.000 C 
BRANCH   7   8
ATOM      8  C   UNL     1       2.542  19.540  -5.465  1.00  0.00    -0.000 C 
BRANCH   8   9
ATOM      9  C   UNL     1       1.433  20.501  -5.007  1.00  0.00    -0.000 C 
BRANCH   9  10
ATOM     10  C   UNL     1       0.068  20.171  -5.631  1.00  0.00    -0.003 C 
ATOM     11  C   UNL     1      -0.499  21.375  -6.375  1.00  0.00     0.004 C 
ENDBRANCH   9  10
ENDBRANCH   8   9
ENDBRANCH   7   8
ENDBRANCH   1   7
TORSDOF 7
ENDMDL
