MODEL 1
REMARK VINA RESULT:    -4.139      0.000      0.000
REMARK INTER + INTRA:          -4.946
REMARK INTER:                  -4.865
REMARK INTRA:                  -0.081
REMARK UNBOUND:                -0.081
REMARK SMILES O=C([O-])CCC(=O)[O-]
REMARK SMILES IDX 4 1 2 2 1 3 3 4 5 5 6 6 7 7 8 8
REMARK H PARENT
REMARK Flexibility Score: inf
ROOT
ATOM      1  C   UNL     1      -3.762 -31.723 -51.891  1.00  0.00     0.059 C 
ENDROOT
BRANCH   1   2
ATOM      2  C   UNL     1      -3.663 -31.945 -53.369  1.00  0.00     0.042 C 
ATOM      3  O   UNL     1      -2.658 -32.527 -53.856  1.00  0.00    -0.550 OA
ATOM      4  O   UNL     1      -4.661 -31.474 -54.213  1.00  0.00    -0.550 OA
ENDBRANCH   1   2
BRANCH   1   5
ATOM      5  C   UNL     1      -3.450 -33.003 -51.106  1.00  0.00     0.059 C 
BRANCH   5   6
ATOM      6  C   UNL     1      -2.064 -32.978 -50.539  1.00  0.00     0.042 C 
ATOM      7  O   UNL     1      -1.667 -33.915 -49.797  1.00  0.00    -0.550 OA
ATOM      8  O   UNL     1      -1.225 -31.902 -50.796  1.00  0.00    -0.550 OA
ENDBRANCH   5   6
ENDBRANCH   1   5
TORSDOF 3
ENDMDL
MODEL 2
REMARK VINA RESULT:    -4.119      0.072      3.775
REMARK INTER + INTRA:          -4.922
REMARK INTER:                  -4.840
REMARK INTRA:                  -0.082
REMARK UNBOUND:                -0.081
REMARK SMILES O=C([O-])CCC(=O)[O-]
REMARK SMILES IDX 4 1 2 2 1 3 3 4 5 5 6 6 7 7 8 8
REMARK H PARENT
REMARK Flexibility Score: inf
ROOT
ATOM      1  C   UNL     1      -3.489 -32.950 -51.073  1.00  0.00     0.059 C 
ENDROOT
BRANCH   1   2
ATOM      2  C   UNL     1      -2.094 -32.968 -50.526  1.00  0.00     0.042 C 
ATOM      3  O   UNL     1      -1.709 -33.926 -49.806  1.00  0.00    -0.550 OA
ATOM      4  O   UNL     1      -1.234 -31.907 -50.779  1.00  0.00    -0.550 OA
ENDBRANCH   1   2
BRANCH   1   5
ATOM      5  C   UNL     1      -3.746 -31.701 -51.923  1.00  0.00     0.059 C 
BRANCH   5   6
ATOM      6  C   UNL     1      -3.651 -31.999 -53.387  1.00  0.00     0.042 C 
ATOM      7  O   UNL     1      -2.621 -32.552 -53.856  1.00  0.00    -0.550 OA
ATOM      8  O   UNL     1      -4.682 -31.631 -54.242  1.00  0.00    -0.550 OA
ENDBRANCH   5   6
ENDBRANCH   1   5
TORSDOF 3
ENDMDL
MODEL 3
REMARK VINA RESULT:    -4.102      5.647      6.431
REMARK INTER + INTRA:          -4.902
REMARK INTER:                  -4.833
REMARK INTRA:                  -0.070
REMARK UNBOUND:                -0.081
REMARK SMILES O=C([O-])CCC(=O)[O-]
REMARK SMILES IDX 4 1 2 2 1 3 3 4 5 5 6 6 7 7 8 8
REMARK H PARENT
REMARK Flexibility Score: inf
ROOT
ATOM      1  C   UNL     1      -6.035 -28.895 -50.198  1.00  0.00     0.059 C 
ENDROOT
BRANCH   1   2
ATOM      2  C   UNL     1      -6.383 -27.459 -50.445  1.00  0.00     0.042 C 
ATOM      3  O   UNL     1      -6.291 -26.975 -51.603  1.00  0.00    -0.550 OA
ATOM      4  O   UNL     1      -6.771 -26.645 -49.387  1.00  0.00    -0.550 OA
ENDBRANCH   1   2
BRANCH   1   5
ATOM      5  C   UNL     1      -6.557 -29.377 -48.839  1.00  0.00     0.059 C 
BRANCH   5   6
ATOM      6  C   UNL     1      -7.696 -30.337 -48.994  1.00  0.00     0.042 C 
ATOM      7  O   UNL     1      -7.560 -31.374 -49.696  1.00  0.00    -0.550 OA
ATOM      8  O   UNL     1      -8.921 -30.067 -48.398  1.00  0.00    -0.550 OA
ENDBRANCH   5   6
ENDBRANCH   1   5
TORSDOF 3
ENDMDL
MODEL 4
REMARK VINA RESULT:    -4.045      1.939      2.834
REMARK INTER + INTRA:          -4.836
REMARK INTER:                  -4.689
REMARK INTRA:                  -0.147
REMARK UNBOUND:                -0.081
REMARK SMILES O=C([O-])CCC(=O)[O-]
REMARK SMILES IDX 4 1 2 2 1 3 3 4 5 5 6 6 7 7 8 8
REMARK H PARENT
REMARK Flexibility Score: inf
ROOT
ATOM      1  C   UNL     1      -5.274 -31.670 -53.559  1.00  0.00     0.059 C 
ENDROOT
BRANCH   1   2
ATOM      2  C   UNL     1      -5.255 -30.208 -53.886  1.00  0.00     0.042 C 
ATOM      3  O   UNL     1      -5.225 -29.828 -55.085  1.00  0.00    -0.550 OA
ATOM      4  O   UNL     1      -5.230 -29.267 -52.864  1.00  0.00    -0.550 OA
ENDBRANCH   1   2
BRANCH   1   5
ATOM      5  C   UNL     1      -4.364 -31.994 -52.369  1.00  0.00     0.059 C 
BRANCH   5   6
ATOM      6  C   UNL     1      -2.916 -31.917 -52.744  1.00  0.00     0.042 C 
ATOM      7  O   UNL     1      -2.493 -32.522 -53.764  1.00  0.00    -0.550 OA
ATOM      8  O   UNL     1      -2.026 -31.212 -51.944  1.00  0.00    -0.550 OA
ENDBRANCH   5   6
ENDBRANCH   1   5
TORSDOF 3
ENDMDL
MODEL 5
REMARK VINA RESULT:    -4.019      5.686      6.739
REMARK INTER + INTRA:          -4.804
REMARK INTER:                  -4.707
REMARK INTRA:                  -0.098
REMARK UNBOUND:                -0.081
REMARK SMILES O=C([O-])CCC(=O)[O-]
REMARK SMILES IDX 4 1 2 2 1 3 3 4 5 5 6 6 7 7 8 8
REMARK H PARENT
REMARK Flexibility Score: inf
ROOT
ATOM      1  C   UNL     1      -6.523 -29.610 -48.820  1.00  0.00     0.059 C 
ENDROOT
BRANCH   1   2
ATOM      2  C   UNL     1      -7.799 -30.384 -48.943  1.00  0.00     0.042 C 
ATOM      3  O   UNL     1      -8.856 -29.951 -48.414  1.00  0.00    -0.550 OA
ATOM      4  O   UNL     1      -7.813 -31.604 -49.608  1.00  0.00    -0.550 OA
ENDBRANCH   1   2
BRANCH   1   5
ATOM      5  C   UNL     1      -6.071 -29.049 -50.173  1.00  0.00     0.059 C 
BRANCH   5   6
ATOM      6  C   UNL     1      -6.379 -27.588 -50.296  1.00  0.00     0.042 C 
ATOM      7  O   UNL     1      -6.686 -26.918 -49.275  1.00  0.00    -0.550 OA
ATOM      8  O   UNL     1      -6.367 -26.976 -51.543  1.00  0.00    -0.550 OA
ENDBRANCH   5   6
ENDBRANCH   1   5
TORSDOF 3
ENDMDL
MODEL 6
REMARK VINA RESULT:    -3.997      2.069      4.109
REMARK INTER + INTRA:          -4.779
REMARK INTER:                  -4.600
REMARK INTRA:                  -0.179
REMARK UNBOUND:                -0.081
REMARK SMILES O=C([O-])CCC(=O)[O-]
REMARK SMILES IDX 4 1 2 2 1 3 3 4 5 5 6 6 7 7 8 8
REMARK H PARENT
REMARK Flexibility Score: inf
ROOT
ATOM      1  C   UNL     1      -4.192 -31.911 -52.224  1.00  0.00     0.059 C 
ENDROOT
BRANCH   1   2
ATOM      2  C   UNL     1      -2.800 -31.680 -52.727  1.00  0.00     0.042 C 
ATOM      3  O   UNL     1      -2.075 -30.795 -52.201  1.00  0.00    -0.550 OA
ATOM      4  O   UNL     1      -2.318 -32.414 -53.804  1.00  0.00    -0.550 OA
ENDBRANCH   1   2
BRANCH   1   5
ATOM      5  C   UNL     1      -5.233 -31.712 -53.331  1.00  0.00     0.059 C 
BRANCH   5   6
ATOM      6  C   UNL     1      -5.239 -30.302 -53.837  1.00  0.00     0.042 C 
ATOM      7  O   UNL     1      -5.168 -30.073 -55.073  1.00  0.00    -0.550 OA
ATOM      8  O   UNL     1      -5.280 -29.241 -52.942  1.00  0.00    -0.550 OA
ENDBRANCH   5   6
ENDBRANCH   1   5
TORSDOF 3
ENDMDL
MODEL 7
REMARK VINA RESULT:    -3.953      4.464      5.254
REMARK INTER + INTRA:          -4.727
REMARK INTER:                  -4.694
REMARK INTRA:                  -0.032
REMARK UNBOUND:                -0.081
REMARK SMILES O=C([O-])CCC(=O)[O-]
REMARK SMILES IDX 4 1 2 2 1 3 3 4 5 5 6 6 7 7 8 8
REMARK H PARENT
REMARK Flexibility Score: inf
ROOT
ATOM      1  C   UNL     1      -7.048 -31.262 -49.671  1.00  0.00     0.059 C 
ENDROOT
BRANCH   1   2
ATOM      2  C   UNL     1      -7.691 -30.082 -49.009  1.00  0.00     0.042 C 
ATOM      3  O   UNL     1      -7.113 -28.964 -49.007  1.00  0.00    -0.550 OA
ATOM      4  O   UNL     1      -8.911 -30.228 -48.360  1.00  0.00    -0.550 OA
ENDBRANCH   1   2
BRANCH   1   5
ATOM      5  C   UNL     1      -5.974 -30.830 -50.676  1.00  0.00     0.059 C 
BRANCH   5   6
ATOM      6  C   UNL     1      -5.239 -32.007 -51.240  1.00  0.00     0.042 C 
ATOM      7  O   UNL     1      -5.542 -32.459 -52.375  1.00  0.00    -0.550 OA
ATOM      8  O   UNL     1      -4.247 -32.631 -50.494  1.00  0.00    -0.550 OA
ENDBRANCH   5   6
ENDBRANCH   1   5
TORSDOF 3
ENDMDL
MODEL 8
REMARK VINA RESULT:    -3.952      4.506      5.299
REMARK INTER + INTRA:          -4.726
REMARK INTER:                  -4.694
REMARK INTRA:                  -0.032
REMARK UNBOUND:                -0.081
REMARK SMILES O=C([O-])CCC(=O)[O-]
REMARK SMILES IDX 4 1 2 2 1 3 3 4 5 5 6 6 7 7 8 8
REMARK H PARENT
REMARK Flexibility Score: inf
ROOT
ATOM      1  C   UNL     1      -6.003 -30.832 -50.637  1.00  0.00     0.059 C 
ENDROOT
BRANCH   1   2
ATOM      2  C   UNL     1      -5.292 -32.005 -51.241  1.00  0.00     0.042 C 
ATOM      3  O   UNL     1      -5.630 -32.435 -52.374  1.00  0.00    -0.550 OA
ATOM      4  O   UNL     1      -4.283 -32.646 -50.533  1.00  0.00    -0.550 OA
ENDBRANCH   1   2
BRANCH   1   5
ATOM      5  C   UNL     1      -7.092 -31.277 -49.654  1.00  0.00     0.059 C 
BRANCH   5   6
ATOM      6  C   UNL     1      -7.715 -30.108 -48.955  1.00  0.00     0.042 C 
ATOM      7  O   UNL     1      -7.098 -29.014 -48.875  1.00  0.00    -0.550 OA
ATOM      8  O   UNL     1      -8.962 -30.239 -48.356  1.00  0.00    -0.550 OA
ENDBRANCH   5   6
ENDBRANCH   1   5
TORSDOF 3
ENDMDL
MODEL 9
REMARK VINA RESULT:    -3.935      2.082      4.464
REMARK INTER + INTRA:          -4.706
REMARK INTER:                  -4.594
REMARK INTRA:                  -0.113
REMARK UNBOUND:                -0.081
REMARK SMILES O=C([O-])CCC(=O)[O-]
REMARK SMILES IDX 4 1 2 2 1 3 3 4 5 5 6 6 7 7 8 8
REMARK H PARENT
REMARK Flexibility Score: inf
ROOT
ATOM      1  C   UNL     1      -3.722 -32.020 -52.857  1.00  0.00     0.059 C 
ENDROOT
BRANCH   1   2
ATOM      2  C   UNL     1      -3.959 -32.653 -51.520  1.00  0.00     0.042 C 
ATOM      3  O   UNL     1      -4.895 -32.247 -50.783  1.00  0.00    -0.550 OA
ATOM      4  O   UNL     1      -3.120 -33.666 -51.072  1.00  0.00    -0.550 OA
ENDBRANCH   1   2
BRANCH   1   5
ATOM      5  C   UNL     1      -5.039 -31.735 -53.588  1.00  0.00     0.059 C 
BRANCH   5   6
ATOM      6  C   UNL     1      -5.191 -30.280 -53.907  1.00  0.00     0.042 C 
ATOM      7  O   UNL     1      -5.207 -29.892 -55.104  1.00  0.00    -0.550 OA
ATOM      8  O   UNL     1      -5.273 -29.347 -52.881  1.00  0.00    -0.550 OA
ENDBRANCH   5   6
ENDBRANCH   1   5
TORSDOF 3
ENDMDL
