MODEL 1
REMARK VINA RESULT:    -4.372      0.000      0.000
REMARK INTER + INTRA:          -6.339
REMARK INTER:                  -5.905
REMARK INTRA:                  -0.434
REMARK UNBOUND:                -0.434
REMARK SMILES CCCCCCCC(=O)[O-]
REMARK SMILES IDX 5 1 6 2 7 3 8 4 9 5 10 6 4 7 3 8 2 9 1 10
REMARK H PARENT
REMARK Flexibility Score: inf
ROOT
ATOM      1  C   UNL     1       7.543   7.064   7.463  1.00  0.00     0.000 C 
ENDROOT
BRANCH   1   2
ATOM      2  C   UNL     1       7.999   7.684   6.133  1.00  0.00     0.006 C 
BRANCH   2   3
ATOM      3  C   UNL     1       6.841   8.312   5.346  1.00  0.00     0.053 C 
BRANCH   3   4
ATOM      4  C   UNL     1       5.832   7.269   4.982  1.00  0.00     0.041 C 
ATOM      5  O   UNL     1       4.655   7.346   5.422  1.00  0.00    -0.550 OA
ATOM      6  O   UNL     1       6.179   6.239   4.117  1.00  0.00    -0.550 OA
ENDBRANCH   3   4
ENDBRANCH   2   3
ENDBRANCH   1   2
BRANCH   1   7
ATOM      7  C   UNL     1       8.506   5.977   7.969  1.00  0.00     0.000 C 
BRANCH   7   8
ATOM      8  C   UNL     1       7.802   4.632   8.213  1.00  0.00    -0.000 C 
BRANCH   8   9
ATOM      9  C   UNL     1       6.618   4.405   7.261  1.00  0.00    -0.003 C 
ATOM     10  C   UNL     1       5.344   4.085   8.037  1.00  0.00     0.004 C 
ENDBRANCH   8   9
ENDBRANCH   7   8
ENDBRANCH   1   7
TORSDOF 6
ENDMDL
MODEL 2
REMARK VINA RESULT:    -4.234      6.878      8.326
REMARK INTER + INTRA:          -6.153
REMARK INTER:                  -5.686
REMARK INTRA:                  -0.468
REMARK UNBOUND:                -0.434
REMARK SMILES CCCCCCCC(=O)[O-]
REMARK SMILES IDX 5 1 6 2 7 3 8 4 9 5 10 6 4 7 3 8 2 9 1 10
REMARK H PARENT
REMARK Flexibility Score: inf
ROOT
ATOM      1  C   UNL     1       0.849   7.339  12.882  1.00  0.00     0.000 C 
ENDROOT
BRANCH   1   2
ATOM      2  C   UNL     1       0.751   6.297  11.758  1.00  0.00     0.006 C 
BRANCH   2   3
ATOM      3  C   UNL     1      -0.693   5.854  11.488  1.00  0.00     0.053 C 
BRANCH   3   4
ATOM      4  C   UNL     1      -0.949   5.776  10.016  1.00  0.00     0.041 C 
ATOM      5  O   UNL     1      -1.398   6.777   9.398  1.00  0.00    -0.550 OA
ATOM      6  O   UNL     1      -0.645   4.614   9.318  1.00  0.00    -0.550 OA
ENDBRANCH   3   4
ENDBRANCH   2   3
ENDBRANCH   1   2
BRANCH   1   7
ATOM      7  C   UNL     1       1.589   8.615  12.443  1.00  0.00     0.000 C 
BRANCH   7   8
ATOM      8  C   UNL     1       1.099   9.142  11.084  1.00  0.00    -0.000 C 
BRANCH   8   9
ATOM      9  C   UNL     1       2.227   9.229  10.045  1.00  0.00    -0.003 C 
ATOM     10  C   UNL     1       1.900   8.394   8.809  1.00  0.00     0.004 C 
ENDBRANCH   8   9
ENDBRANCH   7   8
ENDBRANCH   1   7
TORSDOF 6
ENDMDL
MODEL 3
REMARK VINA RESULT:    -4.135      1.386      2.224
REMARK INTER + INTRA:          -6.019
REMARK INTER:                  -5.858
REMARK INTRA:                  -0.161
REMARK UNBOUND:                -0.434
REMARK SMILES CCCCCCCC(=O)[O-]
REMARK SMILES IDX 5 1 6 2 7 3 8 4 9 5 10 6 4 7 3 8 2 9 1 10
REMARK H PARENT
REMARK Flexibility Score: inf
ROOT
ATOM      1  C   UNL     1       7.649   6.955   7.336  1.00  0.00     0.000 C 
ENDROOT
BRANCH   1   2
ATOM      2  C   UNL     1       8.007   7.749   6.070  1.00  0.00     0.006 C 
BRANCH   2   3
ATOM      3  C   UNL     1       6.777   8.369   5.395  1.00  0.00     0.053 C 
BRANCH   3   4
ATOM      4  C   UNL     1       5.792   7.304   5.027  1.00  0.00     0.041 C 
ATOM      5  O   UNL     1       6.129   6.370   4.254  1.00  0.00    -0.550 OA
ATOM      6  O   UNL     1       4.517   7.317   5.577  1.00  0.00    -0.550 OA
ENDBRANCH   3   4
ENDBRANCH   2   3
ENDBRANCH   1   2
BRANCH   1   7
ATOM      7  C   UNL     1       8.869   6.254   7.958  1.00  0.00     0.000 C 
BRANCH   7   8
ATOM      8  C   UNL     1       8.475   5.064   8.849  1.00  0.00    -0.000 C 
BRANCH   8   9
ATOM      9  C   UNL     1       9.117   5.133  10.242  1.00  0.00    -0.003 C 
ATOM     10  C   UNL     1       8.985   3.800  10.973  1.00  0.00     0.004 C 
ENDBRANCH   8   9
ENDBRANCH   7   8
ENDBRANCH   1   7
TORSDOF 6
ENDMDL
MODEL 4
REMARK VINA RESULT:    -4.129      6.152      7.076
REMARK INTER + INTRA:          -6.011
REMARK INTER:                  -5.597
REMARK INTRA:                  -0.414
REMARK UNBOUND:                -0.434
REMARK SMILES CCCCCCCC(=O)[O-]
REMARK SMILES IDX 5 1 6 2 7 3 8 4 9 5 10 6 4 7 3 8 2 9 1 10
REMARK H PARENT
REMARK Flexibility Score: inf
ROOT
ATOM      1  C   UNL     1       0.951   8.629  11.047  1.00  0.00     0.000 C 
ENDROOT
BRANCH   1   2
ATOM      2  C   UNL     1       2.170   9.399  10.516  1.00  0.00     0.006 C 
BRANCH   2   3
ATOM      3  C   UNL     1       2.534   9.007   9.078  1.00  0.00     0.053 C 
BRANCH   3   4
ATOM      4  C   UNL     1       2.651   7.521   8.955  1.00  0.00     0.041 C 
ATOM      5  O   UNL     1       3.536   6.900   9.600  1.00  0.00    -0.550 OA
ATOM      6  O   UNL     1       1.750   6.815   8.168  1.00  0.00    -0.550 OA
ENDBRANCH   3   4
ENDBRANCH   2   3
ENDBRANCH   1   2
BRANCH   1   7
ATOM      7  C   UNL     1       1.230   7.935  12.391  1.00  0.00     0.000 C 
BRANCH   7   8
ATOM      8  C   UNL     1       0.391   6.661  12.584  1.00  0.00    -0.000 C 
BRANCH   8   9
ATOM      9  C   UNL     1       0.069   5.962  11.255  1.00  0.00    -0.003 C 
ATOM     10  C   UNL     1      -1.267   5.226  11.332  1.00  0.00     0.004 C 
ENDBRANCH   8   9
ENDBRANCH   7   8
ENDBRANCH   1   7
TORSDOF 6
ENDMDL
MODEL 5
REMARK VINA RESULT:    -4.126      1.797      3.783
REMARK INTER + INTRA:          -6.007
REMARK INTER:                  -5.549
REMARK INTRA:                  -0.458
REMARK UNBOUND:                -0.434
REMARK SMILES CCCCCCCC(=O)[O-]
REMARK SMILES IDX 5 1 6 2 7 3 8 4 9 5 10 6 4 7 3 8 2 9 1 10
REMARK H PARENT
REMARK Flexibility Score: inf
ROOT
ATOM      1  C   UNL     1       7.663   5.225   8.186  1.00  0.00     0.000 C 
ENDROOT
BRANCH   1   2
ATOM      2  C   UNL     1       6.676   4.443   7.305  1.00  0.00     0.006 C 
BRANCH   2   3
ATOM      3  C   UNL     1       5.489   3.884   8.101  1.00  0.00     0.053 C 
BRANCH   3   4
ATOM      4  C   UNL     1       4.197   4.313   7.482  1.00  0.00     0.041 C 
ATOM      5  O   UNL     1       4.055   5.493   7.065  1.00  0.00    -0.550 OA
ATOM      6  O   UNL     1       3.165   3.397   7.320  1.00  0.00    -0.550 OA
ENDBRANCH   3   4
ENDBRANCH   2   3
ENDBRANCH   1   2
BRANCH   1   7
ATOM      7  C   UNL     1       8.174   6.507   7.505  1.00  0.00     0.000 C 
BRANCH   7   8
ATOM      8  C   UNL     1       7.035   7.366   6.933  1.00  0.00    -0.000 C 
BRANCH   8   9
ATOM      9  C   UNL     1       7.216   7.662   5.437  1.00  0.00    -0.003 C 
ATOM     10  C   UNL     1       6.214   6.875   4.597  1.00  0.00     0.004 C 
ENDBRANCH   8   9
ENDBRANCH   7   8
ENDBRANCH   1   7
TORSDOF 6
ENDMDL
MODEL 6
REMARK VINA RESULT:    -4.104      6.793      8.056
REMARK INTER + INTRA:          -5.977
REMARK INTER:                  -5.472
REMARK INTRA:                  -0.505
REMARK UNBOUND:                -0.434
REMARK SMILES CCCCCCCC(=O)[O-]
REMARK SMILES IDX 5 1 6 2 7 3 8 4 9 5 10 6 4 7 3 8 2 9 1 10
REMARK H PARENT
REMARK Flexibility Score: inf
ROOT
ATOM      1  C   UNL     1       1.203   7.799   9.122  1.00  0.00     0.000 C 
ENDROOT
BRANCH   1   2
ATOM      2  C   UNL     1      -0.262   7.488   9.466  1.00  0.00     0.006 C 
BRANCH   2   3
ATOM      3  C   UNL     1      -0.706   6.108   8.961  1.00  0.00     0.053 C 
BRANCH   3   4
ATOM      4  C   UNL     1      -0.283   5.042   9.921  1.00  0.00     0.041 C 
ATOM      5  O   UNL     1      -1.049   4.691  10.857  1.00  0.00    -0.550 OA
ATOM      6  O   UNL     1       0.938   4.400   9.753  1.00  0.00    -0.550 OA
ENDBRANCH   3   4
ENDBRANCH   2   3
ENDBRANCH   1   2
BRANCH   1   7
ATOM      7  C   UNL     1       2.040   8.144  10.366  1.00  0.00     0.000 C 
BRANCH   7   8
ATOM      8  C   UNL     1       1.218   8.857  11.452  1.00  0.00    -0.000 C 
BRANCH   8   9
ATOM      9  C   UNL     1       1.443   8.260  12.849  1.00  0.00    -0.003 C 
ATOM     10  C   UNL     1       0.617   6.990  13.041  1.00  0.00     0.004 C 
ENDBRANCH   8   9
ENDBRANCH   7   8
ENDBRANCH   1   7
TORSDOF 6
ENDMDL
MODEL 7
REMARK VINA RESULT:    -4.084      1.670      2.439
REMARK INTER + INTRA:          -5.950
REMARK INTER:                  -5.533
REMARK INTRA:                  -0.417
REMARK UNBOUND:                -0.434
REMARK SMILES CCCCCCCC(=O)[O-]
REMARK SMILES IDX 5 1 6 2 7 3 8 4 9 5 10 6 4 7 3 8 2 9 1 10
REMARK H PARENT
REMARK Flexibility Score: inf
ROOT
ATOM      1  C   UNL     1       7.449   7.731   5.796  1.00  0.00     0.000 C 
ENDROOT
BRANCH   1   2
ATOM      2  C   UNL     1       6.055   7.830   5.157  1.00  0.00     0.006 C 
BRANCH   2   3
ATOM      3  C   UNL     1       5.050   6.851   5.779  1.00  0.00     0.053 C 
BRANCH   3   4
ATOM      4  C   UNL     1       3.854   7.587   6.293  1.00  0.00     0.041 C 
ATOM      5  O   UNL     1       2.694   7.164   6.044  1.00  0.00    -0.550 OA
ATOM      6  O   UNL     1       4.019   8.714   7.088  1.00  0.00    -0.550 OA
ENDBRANCH   3   4
ENDBRANCH   2   3
ENDBRANCH   1   2
BRANCH   1   7
ATOM      7  C   UNL     1       7.399   7.210   7.243  1.00  0.00     0.000 C 
BRANCH   7   8
ATOM      8  C   UNL     1       8.683   6.466   7.646  1.00  0.00    -0.000 C 
BRANCH   8   9
ATOM      9  C   UNL     1       8.396   5.170   8.418  1.00  0.00    -0.003 C 
ATOM     10  C   UNL     1       7.182   4.446   7.840  1.00  0.00     0.004 C 
ENDBRANCH   8   9
ENDBRANCH   7   8
ENDBRANCH   1   7
TORSDOF 6
ENDMDL
MODEL 8
REMARK VINA RESULT:    -4.083      1.617      3.780
REMARK INTER + INTRA:          -5.949
REMARK INTER:                  -5.478
REMARK INTRA:                  -0.471
REMARK UNBOUND:                -0.434
REMARK SMILES CCCCCCCC(=O)[O-]
REMARK SMILES IDX 5 1 6 2 7 3 8 4 9 5 10 6 4 7 3 8 2 9 1 10
REMARK H PARENT
REMARK Flexibility Score: inf
ROOT
ATOM      1  C   UNL     1       6.562   4.614   7.139  1.00  0.00     0.000 C 
ENDROOT
BRANCH   1   2
ATOM      2  C   UNL     1       5.500   3.958   8.035  1.00  0.00     0.006 C 
BRANCH   2   3
ATOM      3  C   UNL     1       4.081   4.456   7.728  1.00  0.00     0.053 C 
BRANCH   3   4
ATOM      4  C   UNL     1       4.010   5.944   7.866  1.00  0.00     0.041 C 
ATOM      5  O   UNL     1       4.291   6.493   8.964  1.00  0.00    -0.550 OA
ATOM      6  O   UNL     1       3.679   6.729   6.769  1.00  0.00    -0.550 OA
ENDBRANCH   3   4
ENDBRANCH   2   3
ENDBRANCH   1   2
BRANCH   1   7
ATOM      7  C   UNL     1       7.764   5.146   7.940  1.00  0.00     0.000 C 
BRANCH   7   8
ATOM      8  C   UNL     1       8.126   6.593   7.569  1.00  0.00    -0.000 C 
BRANCH   8   9
ATOM      9  C   UNL     1       7.229   7.158   6.458  1.00  0.00    -0.003 C 
ATOM     10  C   UNL     1       8.022   8.069   5.523  1.00  0.00     0.004 C 
ENDBRANCH   8   9
ENDBRANCH   7   8
ENDBRANCH   1   7
TORSDOF 6
ENDMDL
MODEL 9
REMARK VINA RESULT:    -4.059      1.521      2.778
REMARK INTER + INTRA:          -5.917
REMARK INTER:                  -5.446
REMARK INTRA:                  -0.471
REMARK UNBOUND:                -0.434
REMARK SMILES CCCCCCCC(=O)[O-]
REMARK SMILES IDX 5 1 6 2 7 3 8 4 9 5 10 6 4 7 3 8 2 9 1 10
REMARK H PARENT
REMARK Flexibility Score: inf
ROOT
ATOM      1  C   UNL     1       4.867   5.628   6.775  1.00  0.00     0.000 C 
ENDROOT
BRANCH   1   2
ATOM      2  C   UNL     1       5.808   5.917   5.595  1.00  0.00     0.006 C 
BRANCH   2   3
ATOM      3  C   UNL     1       5.553   7.290   4.960  1.00  0.00     0.053 C 
BRANCH   3   4
ATOM      4  C   UNL     1       6.141   8.374   5.807  1.00  0.00     0.041 C 
ATOM      5  O   UNL     1       7.360   8.672   5.699  1.00  0.00    -0.550 OA
ATOM      6  O   UNL     1       5.333   9.088   6.683  1.00  0.00    -0.550 OA
ENDBRANCH   3   4
ENDBRANCH   2   3
ENDBRANCH   1   2
BRANCH   1   7
ATOM      7  C   UNL     1       5.589   4.950   7.953  1.00  0.00     0.000 C 
BRANCH   7   8
ATOM      8  C   UNL     1       6.945   4.350   7.548  1.00  0.00    -0.000 C 
BRANCH   8   9
ATOM      9  C   UNL     1       8.099   4.859   8.423  1.00  0.00    -0.003 C 
ATOM     10  C   UNL     1       8.635   6.191   7.904  1.00  0.00     0.004 C 
ENDBRANCH   8   9
ENDBRANCH   7   8
ENDBRANCH   1   7
TORSDOF 6
ENDMDL
