MODEL 1
REMARK VINA RESULT:    -6.978      0.000      0.000
REMARK INTER + INTRA:         -12.300
REMARK INTER:                 -10.854
REMARK INTRA:                  -1.446
REMARK UNBOUND:                -1.446
REMARK SMILES C[C@]12C[C@]3(O)O[C@H](O1)[C@@]1(COC(=O)c4ccccc4)[C@@H]3C[C@]12O[C@@H]1O[C@@H](CO)[C@@H](O)[C@H](O)[C@H]1O
REMARK SMILES IDX 1 1 2 2 3 3 4 4 20 5 21 6 22 7 9 8 7 9 8 10 6 11 23 12 24 13
REMARK SMILES IDX 33 14 25 15 31 16 26 17 29 18 34 19 32 21 27 23 28 24 30 26
REMARK SMILES IDX 5 28 10 30 11 31 12 32 13 33 14 34 15 35 19 36 16 37 18 38
REMARK SMILES IDX 17 39
REMARK H PARENT 34 20 32 22 28 25 30 27 5 29
REMARK Flexibility Score: inf
ROOT
ATOM      1  C   UNL     1      29.903   6.325  14.610  1.00  0.00     0.046 C 
ATOM      2  C   UNL     1      31.145   6.506  15.487  1.00  0.00     0.104 C 
ATOM      3  C   UNL     1      31.967   5.164  15.564  1.00  0.00     0.104 C 
ATOM      4  C   UNL     1      33.242   5.558  16.393  1.00  0.00     0.175 C 
ATOM      5  C   UNL     1      33.865   6.865  15.814  1.00  0.00     0.070 C 
ATOM      6  C   UNL     1      33.370   7.188  14.398  1.00  0.00     0.050 C 
ATOM      7  C   UNL     1      32.089   7.705  15.066  1.00  0.00     0.115 C 
ATOM      8  C   UNL     1      32.873   7.879  16.362  1.00  0.00     0.096 C 
ATOM      9  C   UNL     1      32.069   7.125  17.432  1.00  0.00     0.267 C 
ATOM     10  O   UNL     1      30.816   6.782  16.840  1.00  0.00    -0.342 OA
ATOM     11  O   UNL     1      32.777   5.922  17.674  1.00  0.00    -0.320 OA
ENDROOT
BRANCH   7  12
ATOM     12  O   UNL     1      31.593   8.866  14.391  1.00  0.00    -0.339 OA
BRANCH  12  13
ATOM     13  C   UNL     1      30.201   8.950  14.077  1.00  0.00     0.282 C 
ATOM     14  C   UNL     1      29.644  10.093  14.986  1.00  0.00     0.202 C 
ATOM     15  O   UNL     1      29.970   9.136  12.689  1.00  0.00    -0.341 OA
ATOM     16  C   UNL     1      28.327  10.757  14.517  1.00  0.00     0.179 C 
ATOM     17  C   UNL     1      28.633   9.446  12.347  1.00  0.00     0.178 C 
ATOM     18  C   UNL     1      28.174  10.762  12.993  1.00  0.00     0.177 C 
BRANCH  14  19
ATOM     19  O   UNL     1      29.459   9.565  16.280  1.00  0.00    -0.385 OA
ATOM     20  H   UNL     1      28.486   9.412  16.385  1.00  0.00     0.211 HD
ENDBRANCH  14  19
BRANCH  16  21
ATOM     21  O   UNL     1      28.315  12.094  14.960  1.00  0.00    -0.387 OA
ATOM     22  H   UNL     1      27.365  12.389  15.023  1.00  0.00     0.211 HD
ENDBRANCH  16  21
BRANCH  17  23
ATOM     23  C   UNL     1      27.672   8.237  12.453  1.00  0.00     0.191 C 
BRANCH  23  24
ATOM     24  O   UNL     1      27.492   7.563  11.227  1.00  0.00    -0.394 OA
ATOM     25  H   UNL     1      28.394   7.435  10.840  1.00  0.00     0.210 HD
ENDBRANCH  23  24
ENDBRANCH  17  23
BRANCH  18  26
ATOM     26  O   UNL     1      26.850  11.067  12.650  1.00  0.00    -0.387 OA
ATOM     27  H   UNL     1      26.876  11.649  11.836  1.00  0.00     0.211 HD
ENDBRANCH  18  26
ENDBRANCH  12  13
ENDBRANCH   7  12
BRANCH   4  28
ATOM     28  O   UNL     1      34.164   4.513  16.481  1.00  0.00    -0.365 OA
ATOM     29  H   UNL     1      35.002   4.892  16.857  1.00  0.00     0.214 HD
ENDBRANCH   4  28
BRANCH   8  30
ATOM     30  C   UNL     1      33.517   9.251  16.659  1.00  0.00     0.249 C 
BRANCH  30  31
ATOM     31  O   UNL     1      32.792  10.028  17.605  1.00  0.00    -0.461 OA
BRANCH  31  32
ATOM     32  C   UNL     1      32.209  11.263  17.293  1.00  0.00     0.338 C 
ATOM     33  O   UNL     1      31.091  11.578  17.778  1.00  0.00    -0.246 OA
BRANCH  32  34
ATOM     34  C   UNL     1      32.914  12.207  16.410  1.00  0.00     0.060 A 
ATOM     35  C   UNL     1      32.637  12.229  15.037  1.00  0.00     0.015 A 
ATOM     36  C   UNL     1      33.869  13.088  16.939  1.00  0.00     0.015 A 
ATOM     37  C   UNL     1      33.303  13.136  14.198  1.00  0.00     0.001 A 
ATOM     38  C   UNL     1      34.532  13.992  16.097  1.00  0.00     0.001 A 
ATOM     39  C   UNL     1      34.253  14.007  14.728  1.00  0.00     0.000 A 
ENDBRANCH  32  34
ENDBRANCH  31  32
ENDBRANCH  30  31
ENDBRANCH   8  30
TORSDOF 12
ENDMDL
MODEL 2
REMARK VINA RESULT:    -6.935      9.494     11.843
REMARK INTER + INTRA:         -12.233
REMARK INTER:                 -10.432
REMARK INTRA:                  -1.801
REMARK UNBOUND:                -1.446
REMARK SMILES C[C@]12C[C@]3(O)O[C@H](O1)[C@@]1(COC(=O)c4ccccc4)[C@@H]3C[C@]12O[C@@H]1O[C@@H](CO)[C@@H](O)[C@H](O)[C@H]1O
REMARK SMILES IDX 1 1 2 2 3 3 4 4 20 5 21 6 22 7 9 8 7 9 8 10 6 11 23 12 24 13
REMARK SMILES IDX 33 14 25 15 31 16 26 17 29 18 34 19 32 21 27 23 28 24 30 26
REMARK SMILES IDX 5 28 10 30 11 31 12 32 13 33 14 34 15 35 19 36 16 37 18 38
REMARK SMILES IDX 17 39
REMARK H PARENT 34 20 32 22 28 25 30 27 5 29
REMARK Flexibility Score: inf
ROOT
ATOM      1  C   UNL     1      25.319  14.949  17.264  1.00  0.00     0.046 C 
ATOM      2  C   UNL     1      25.641  16.430  17.044  1.00  0.00     0.104 C 
ATOM      3  C   UNL     1      27.193  16.640  16.882  1.00  0.00     0.104 C 
ATOM      4  C   UNL     1      27.327  18.171  16.555  1.00  0.00     0.175 C 
ATOM      5  C   UNL     1      26.328  18.558  15.423  1.00  0.00     0.070 C 
ATOM      6  C   UNL     1      25.801  17.344  14.648  1.00  0.00     0.050 C 
ATOM      7  C   UNL     1      24.866  17.108  15.842  1.00  0.00     0.115 C 
ATOM      8  C   UNL     1      25.036  18.574  16.224  1.00  0.00     0.096 C 
ATOM      9  C   UNL     1      25.470  18.566  17.698  1.00  0.00     0.267 C 
ATOM     10  O   UNL     1      25.304  17.229  18.168  1.00  0.00    -0.342 OA
ATOM     11  O   UNL     1      26.857  18.855  17.696  1.00  0.00    -0.320 OA
ENDROOT
BRANCH   7  12
ATOM     12  O   UNL     1      23.583  16.647  15.404  1.00  0.00    -0.339 OA
BRANCH  12  13
ATOM     13  C   UNL     1      22.815  15.800  16.261  1.00  0.00     0.282 C 
ATOM     14  C   UNL     1      21.641  16.694  16.777  1.00  0.00     0.202 C 
ATOM     15  O   UNL     1      22.404  14.605  15.615  1.00  0.00    -0.341 OA
ATOM     16  C   UNL     1      20.388  15.945  17.289  1.00  0.00     0.179 C 
ATOM     17  C   UNL     1      21.462  13.834  16.336  1.00  0.00     0.178 C 
ATOM     18  C   UNL     1      20.159  14.611  16.573  1.00  0.00     0.177 C 
BRANCH  14  19
ATOM     19  O   UNL     1      22.144  17.513  17.810  1.00  0.00    -0.385 OA
ATOM     20  H   UNL     1      21.599  18.341  17.801  1.00  0.00     0.211 HD
ENDBRANCH  14  19
BRANCH  16  21
ATOM     21  O   UNL     1      19.257  16.757  17.068  1.00  0.00    -0.387 OA
ATOM     22  H   UNL     1      19.031  16.713  16.099  1.00  0.00     0.211 HD
ENDBRANCH  16  21
BRANCH  17  23
ATOM     23  C   UNL     1      22.071  13.093  17.550  1.00  0.00     0.191 C 
BRANCH  23  24
ATOM     24  O   UNL     1      21.448  13.423  18.771  1.00  0.00    -0.394 OA
ATOM     25  H   UNL     1      20.598  12.915  18.801  1.00  0.00     0.210 HD
ENDBRANCH  23  24
ENDBRANCH  17  23
BRANCH  18  26
ATOM     26  O   UNL     1      19.227  13.844  17.284  1.00  0.00    -0.387 OA
ATOM     27  H   UNL     1      18.777  14.449  17.943  1.00  0.00     0.211 HD
ENDBRANCH  18  26
ENDBRANCH  12  13
ENDBRANCH   7  12
BRANCH   4  28
ATOM     28  O   UNL     1      28.642  18.540  16.266  1.00  0.00    -0.365 OA
ATOM     29  H   UNL     1      28.809  19.409  16.720  1.00  0.00     0.214 HD
ENDBRANCH   4  28
BRANCH   8  30
ATOM     30  C   UNL     1      24.011  19.601  15.694  1.00  0.00     0.249 C 
BRANCH  30  31
ATOM     31  O   UNL     1      23.836  20.724  16.549  1.00  0.00    -0.461 OA
BRANCH  31  32
ATOM     32  C   UNL     1      24.495  21.945  16.352  1.00  0.00     0.338 C 
ATOM     33  O   UNL     1      23.876  22.930  15.872  1.00  0.00    -0.246 OA
BRANCH  32  34
ATOM     34  C   UNL     1      25.913  22.084  16.722  1.00  0.00     0.060 A 
ATOM     35  C   UNL     1      26.278  22.263  18.063  1.00  0.00     0.015 A 
ATOM     36  C   UNL     1      26.907  22.040  15.733  1.00  0.00     0.015 A 
ATOM     37  C   UNL     1      27.631  22.386  18.415  1.00  0.00     0.001 A 
ATOM     38  C   UNL     1      28.257  22.163  16.089  1.00  0.00     0.001 A 
ATOM     39  C   UNL     1      28.615  22.344  17.428  1.00  0.00     0.000 A 
ENDBRANCH  32  34
ENDBRANCH  31  32
ENDBRANCH  30  31
ENDBRANCH   8  30
TORSDOF 12
ENDMDL
MODEL 3
REMARK VINA RESULT:    -6.911      2.863      7.877
REMARK INTER + INTRA:         -12.195
REMARK INTER:                 -11.385
REMARK INTRA:                  -0.810
REMARK UNBOUND:                -1.446
REMARK SMILES C[C@]12C[C@]3(O)O[C@H](O1)[C@@]1(COC(=O)c4ccccc4)[C@@H]3C[C@]12O[C@@H]1O[C@@H](CO)[C@@H](O)[C@H](O)[C@H]1O
REMARK SMILES IDX 1 1 2 2 3 3 4 4 20 5 21 6 22 7 9 8 7 9 8 10 6 11 23 12 24 13
REMARK SMILES IDX 33 14 25 15 31 16 26 17 29 18 34 19 32 21 27 23 28 24 30 26
REMARK SMILES IDX 5 28 10 30 11 31 12 32 13 33 14 34 15 35 19 36 16 37 18 38
REMARK SMILES IDX 17 39
REMARK H PARENT 34 20 32 22 28 25 30 27 5 29
REMARK Flexibility Score: inf
ROOT
ATOM      1  C   UNL     1      29.690  10.735  16.689  1.00  0.00     0.046 C 
ATOM      2  C   UNL     1      29.194  10.462  15.267  1.00  0.00     0.104 C 
ATOM      3  C   UNL     1      29.747  11.548  14.270  1.00  0.00     0.104 C 
ATOM      4  C   UNL     1      29.242  11.055  12.866  1.00  0.00     0.175 C 
ATOM      5  C   UNL     1      29.570   9.542  12.690  1.00  0.00     0.070 C 
ATOM      6  C   UNL     1      30.627   9.038  13.680  1.00  0.00     0.050 C 
ATOM      7  C   UNL     1      29.501   9.008  14.722  1.00  0.00     0.115 C 
ATOM      8  C   UNL     1      28.491   8.946  13.581  1.00  0.00     0.096 C 
ATOM      9  C   UNL     1      27.502  10.092  13.845  1.00  0.00     0.267 C 
ATOM     10  O   UNL     1      27.783  10.584  15.155  1.00  0.00    -0.342 OA
ATOM     11  O   UNL     1      27.833  11.111  12.919  1.00  0.00    -0.320 OA
ENDROOT
BRANCH   7  12
ATOM     12  O   UNL     1      29.637   7.880  15.592  1.00  0.00    -0.339 OA
BRANCH  12  13
ATOM     13  C   UNL     1      30.910   7.243  15.716  1.00  0.00     0.282 C 
ATOM     14  C   UNL     1      31.055   6.909  17.236  1.00  0.00     0.202 C 
ATOM     15  O   UNL     1      31.042   6.124  14.852  1.00  0.00    -0.341 OA
ATOM     16  C   UNL     1      32.058   5.785  17.594  1.00  0.00     0.179 C 
ATOM     17  C   UNL     1      32.186   5.326  15.086  1.00  0.00     0.178 C 
ATOM     18  C   UNL     1      32.176   4.723  16.498  1.00  0.00     0.177 C 
BRANCH  14  19
ATOM     19  O   UNL     1      31.430   8.093  17.904  1.00  0.00    -0.385 OA
ATOM     20  H   UNL     1      32.318   8.349  17.545  1.00  0.00     0.211 HD
ENDBRANCH  14  19
BRANCH  16  21
ATOM     21  O   UNL     1      31.618   5.149  18.772  1.00  0.00    -0.387 OA
ATOM     22  H   UNL     1      31.281   5.852  19.394  1.00  0.00     0.211 HD
ENDBRANCH  16  21
BRANCH  17  23
ATOM     23  C   UNL     1      33.505   5.982  14.610  1.00  0.00     0.191 C 
BRANCH  23  24
ATOM     24  O   UNL     1      34.600   5.094  14.615  1.00  0.00    -0.394 OA
ATOM     25  H   UNL     1      35.106   5.274  15.447  1.00  0.00     0.210 HD
ENDBRANCH  23  24
ENDBRANCH  17  23
BRANCH  18  26
ATOM     26  O   UNL     1      33.309   3.930  16.726  1.00  0.00    -0.387 OA
ATOM     27  H   UNL     1      34.078   4.546  16.904  1.00  0.00     0.211 HD
ENDBRANCH  18  26
ENDBRANCH  12  13
ENDBRANCH   7  12
BRANCH   4  28
ATOM     28  O   UNL     1      29.728  11.840  11.819  1.00  0.00    -0.365 OA
ATOM     29  H   UNL     1      30.327  11.264  11.275  1.00  0.00     0.214 HD
ENDBRANCH   4  28
BRANCH   8  30
ATOM     30  C   UNL     1      28.006   7.561  13.096  1.00  0.00     0.249 C 
BRANCH  30  31
ATOM     31  O   UNL     1      26.911   7.048  13.844  1.00  0.00    -0.461 OA
BRANCH  31  32
ATOM     32  C   UNL     1      26.955   5.820  14.518  1.00  0.00     0.338 C 
ATOM     33  O   UNL     1      27.997   5.115  14.487  1.00  0.00    -0.246 OA
BRANCH  32  34
ATOM     34  C   UNL     1      25.784   5.358  15.282  1.00  0.00     0.060 A 
ATOM     35  C   UNL     1      25.473   3.993  15.339  1.00  0.00     0.015 A 
ATOM     36  C   UNL     1      24.971   6.283  15.954  1.00  0.00     0.015 A 
ATOM     37  C   UNL     1      24.361   3.554  16.074  1.00  0.00     0.001 A 
ATOM     38  C   UNL     1      23.863   5.840  16.687  1.00  0.00     0.001 A 
ATOM     39  C   UNL     1      23.555   4.477  16.739  1.00  0.00     0.000 A 
ENDBRANCH  32  34
ENDBRANCH  31  32
ENDBRANCH  30  31
ENDBRANCH   8  30
TORSDOF 12
ENDMDL
MODEL 4
REMARK VINA RESULT:    -6.906      2.115      7.133
REMARK INTER + INTRA:         -12.188
REMARK INTER:                 -10.586
REMARK INTRA:                  -1.602
REMARK UNBOUND:                -1.446
REMARK SMILES C[C@]12C[C@]3(O)O[C@H](O1)[C@@]1(COC(=O)c4ccccc4)[C@@H]3C[C@]12O[C@@H]1O[C@@H](CO)[C@@H](O)[C@H](O)[C@H]1O
REMARK SMILES IDX 1 1 2 2 3 3 4 4 20 5 21 6 22 7 9 8 7 9 8 10 6 11 23 12 24 13
REMARK SMILES IDX 33 14 25 15 31 16 26 17 29 18 34 19 32 21 27 23 28 24 30 26
REMARK SMILES IDX 5 28 10 30 11 31 12 32 13 33 14 34 15 35 19 36 16 37 18 38
REMARK SMILES IDX 17 39
REMARK H PARENT 34 20 32 22 28 25 30 27 5 29
REMARK Flexibility Score: inf
ROOT
ATOM      1  C   UNL     1      32.926  10.147  16.914  1.00  0.00     0.046 C 
ATOM      2  C   UNL     1      31.608  10.320  16.153  1.00  0.00     0.104 C 
ATOM      3  C   UNL     1      31.042  11.777  16.353  1.00  0.00     0.104 C 
ATOM      4  C   UNL     1      29.773  11.811  15.428  1.00  0.00     0.175 C 
ATOM      5  C   UNL     1      30.136  11.263  14.014  1.00  0.00     0.070 C 
ATOM      6  C   UNL     1      31.648  11.235  13.752  1.00  0.00     0.050 C 
ATOM      7  C   UNL     1      31.677   9.964  14.613  1.00  0.00     0.115 C 
ATOM      8  C   UNL     1      30.191   9.776  14.329  1.00  0.00     0.096 C 
ATOM      9  C   UNL     1      29.526   9.627  15.706  1.00  0.00     0.267 C 
ATOM     10  O   UNL     1      30.579   9.482  16.658  1.00  0.00    -0.342 OA
ATOM     11  O   UNL     1      28.877  10.860  15.960  1.00  0.00    -0.320 OA
ENDROOT
BRANCH   7  12
ATOM     12  O   UNL     1      32.610   9.013  14.090  1.00  0.00    -0.339 OA
BRANCH  12  13
ATOM     13  C   UNL     1      33.218   8.071  14.976  1.00  0.00     0.282 C 
ATOM     14  C   UNL     1      32.453   6.729  14.735  1.00  0.00     0.202 C 
ATOM     15  O   UNL     1      34.624   7.987  14.797  1.00  0.00    -0.341 OA
ATOM     16  C   UNL     1      33.197   5.437  15.149  1.00  0.00     0.179 C 
ATOM     17  C   UNL     1      35.247   6.921  15.486  1.00  0.00     0.178 C 
ATOM     18  C   UNL     1      34.718   5.558  15.016  1.00  0.00     0.177 C 
BRANCH  14  19
ATOM     19  O   UNL     1      31.228   6.799  15.430  1.00  0.00    -0.385 OA
ATOM     20  H   UNL     1      31.113   7.746  15.701  1.00  0.00     0.211 HD
ENDBRANCH  14  19
BRANCH  16  21
ATOM     21  O   UNL     1      32.769   4.385  14.313  1.00  0.00    -0.387 OA
ATOM     22  H   UNL     1      32.998   3.525  14.760  1.00  0.00     0.211 HD
ENDBRANCH  16  21
BRANCH  17  23
ATOM     23  C   UNL     1      35.349   7.148  17.013  1.00  0.00     0.191 C 
BRANCH  23  24
ATOM     24  O   UNL     1      36.124   6.169  17.669  1.00  0.00    -0.394 OA
ATOM     25  H   UNL     1      36.963   6.614  17.948  1.00  0.00     0.210 HD
ENDBRANCH  23  24
ENDBRANCH  17  23
BRANCH  18  26
ATOM     26  O   UNL     1      35.340   4.503  15.698  1.00  0.00    -0.387 OA
ATOM     27  H   UNL     1      35.063   4.560  16.658  1.00  0.00     0.211 HD
ENDBRANCH  18  26
ENDBRANCH  12  13
ENDBRANCH   7  12
BRANCH   4  28
ATOM     28  O   UNL     1      29.181  13.075  15.383  1.00  0.00    -0.365 OA
ATOM     29  H   UNL     1      28.278  12.990  15.789  1.00  0.00     0.214 HD
ENDBRANCH   4  28
BRANCH   8  30
ATOM     30  C   UNL     1      29.771   8.892  13.133  1.00  0.00     0.249 C 
BRANCH  30  31
ATOM     31  O   UNL     1      29.146   7.674  13.518  1.00  0.00    -0.461 OA
BRANCH  31  32
ATOM     32  C   UNL     1      27.822   7.356  13.185  1.00  0.00     0.338 C 
ATOM     33  O   UNL     1      27.452   6.154  13.128  1.00  0.00    -0.246 OA
BRANCH  32  34
ATOM     34  C   UNL     1      26.852   8.432  12.917  1.00  0.00     0.060 A 
ATOM     35  C   UNL     1      26.033   8.916  13.945  1.00  0.00     0.015 A 
ATOM     36  C   UNL     1      26.741   8.975  11.628  1.00  0.00     0.015 A 
ATOM     37  C   UNL     1      25.116   9.947  13.689  1.00  0.00     0.001 A 
ATOM     38  C   UNL     1      25.825  10.004  11.377  1.00  0.00     0.001 A 
ATOM     39  C   UNL     1      25.008  10.482  12.406  1.00  0.00     0.000 A 
ENDBRANCH  32  34
ENDBRANCH  31  32
ENDBRANCH  30  31
ENDBRANCH   8  30
TORSDOF 12
ENDMDL
MODEL 5
REMARK VINA RESULT:    -6.841      9.970     13.537
REMARK INTER + INTRA:         -12.087
REMARK INTER:                 -10.470
REMARK INTRA:                  -1.616
REMARK UNBOUND:                -1.446
REMARK SMILES C[C@]12C[C@]3(O)O[C@H](O1)[C@@]1(COC(=O)c4ccccc4)[C@@H]3C[C@]12O[C@@H]1O[C@@H](CO)[C@@H](O)[C@H](O)[C@H]1O
REMARK SMILES IDX 1 1 2 2 3 3 4 4 20 5 21 6 22 7 9 8 7 9 8 10 6 11 23 12 24 13
REMARK SMILES IDX 33 14 25 15 31 16 26 17 29 18 34 19 32 21 27 23 28 24 30 26
REMARK SMILES IDX 5 28 10 30 11 31 12 32 13 33 14 34 15 35 19 36 16 37 18 38
REMARK SMILES IDX 17 39
REMARK H PARENT 34 20 32 22 28 25 30 27 5 29
REMARK Flexibility Score: inf
ROOT
ATOM      1  C   UNL     1      26.103  22.646  14.461  1.00  0.00     0.046 C 
ATOM      2  C   UNL     1      26.911  21.823  15.467  1.00  0.00     0.104 C 
ATOM      3  C   UNL     1      28.300  22.509  15.754  1.00  0.00     0.104 C 
ATOM      4  C   UNL     1      28.935  21.606  16.872  1.00  0.00     0.175 C 
ATOM      5  C   UNL     1      27.895  21.364  18.007  1.00  0.00     0.070 C 
ATOM      6  C   UNL     1      26.727  22.358  17.974  1.00  0.00     0.050 C 
ATOM      7  C   UNL     1      26.162  21.510  16.826  1.00  0.00     0.115 C 
ATOM      8  C   UNL     1      27.006  20.340  17.318  1.00  0.00     0.096 C 
ATOM      9  C   UNL     1      27.805  19.866  16.094  1.00  0.00     0.267 C 
ATOM     10  O   UNL     1      27.260  20.543  14.961  1.00  0.00    -0.342 OA
ATOM     11  O   UNL     1      29.126  20.337  16.286  1.00  0.00    -0.320 OA
ENDROOT
BRANCH   7  12
ATOM     12  O   UNL     1      24.735  21.422  16.909  1.00  0.00    -0.339 OA
BRANCH  12  13
ATOM     13  C   UNL     1      23.969  21.354  15.705  1.00  0.00     0.282 C 
ATOM     14  C   UNL     1      23.454  19.881  15.629  1.00  0.00     0.202 C 
ATOM     15  O   UNL     1      22.946  22.338  15.658  1.00  0.00    -0.341 OA
ATOM     16  C   UNL     1      22.207  19.638  14.746  1.00  0.00     0.179 C 
ATOM     17  C   UNL     1      22.020  22.180  14.600  1.00  0.00     0.178 C 
ATOM     18  C   UNL     1      21.267  20.846  14.702  1.00  0.00     0.177 C 
BRANCH  14  19
ATOM     19  O   UNL     1      24.515  19.077  15.161  1.00  0.00    -0.385 OA
ATOM     20  H   UNL     1      24.389  18.990  14.181  1.00  0.00     0.211 HD
ENDBRANCH  14  19
BRANCH  16  21
ATOM     21  O   UNL     1      21.489  18.546  15.273  1.00  0.00    -0.387 OA
ATOM     22  H   UNL     1      21.889  18.311  16.154  1.00  0.00     0.211 HD
ENDBRANCH  16  21
BRANCH  17  23
ATOM     23  C   UNL     1      22.596  22.561  13.214  1.00  0.00     0.191 C 
BRANCH  23  24
ATOM     24  O   UNL     1      21.606  22.969  12.296  1.00  0.00    -0.394 OA
ATOM     25  H   UNL     1      21.932  22.713  11.398  1.00  0.00     0.210 HD
ENDBRANCH  23  24
ENDBRANCH  17  23
BRANCH  18  26
ATOM     26  O   UNL     1      20.348  20.695  13.655  1.00  0.00    -0.387 OA
ATOM     27  H   UNL     1      20.850  20.803  12.795  1.00  0.00     0.211 HD
ENDBRANCH  18  26
ENDBRANCH  12  13
ENDBRANCH   7  12
BRANCH   4  28
ATOM     28  O   UNL     1      30.144  22.118  17.346  1.00  0.00    -0.365 OA
ATOM     29  H   UNL     1      30.859  21.487  17.067  1.00  0.00     0.214 HD
ENDBRANCH   4  28
BRANCH   8  30
ATOM     30  C   UNL     1      26.373  19.332  18.303  1.00  0.00     0.249 C 
BRANCH  30  31
ATOM     31  O   UNL     1      25.638  18.296  17.664  1.00  0.00    -0.461 OA
BRANCH  31  32
ATOM     32  C   UNL     1      25.730  16.949  18.041  1.00  0.00     0.338 C 
ATOM     33  O   UNL     1      26.832  16.467  18.412  1.00  0.00    -0.246 OA
BRANCH  32  34
ATOM     34  C   UNL     1      24.530  16.096  18.020  1.00  0.00     0.060 A 
ATOM     35  C   UNL     1      24.656  14.701  18.031  1.00  0.00     0.015 A 
ATOM     36  C   UNL     1      23.253  16.677  17.985  1.00  0.00     0.015 A 
ATOM     37  C   UNL     1      23.510  13.890  18.020  1.00  0.00     0.001 A 
ATOM     38  C   UNL     1      22.113  15.863  17.975  1.00  0.00     0.001 A 
ATOM     39  C   UNL     1      22.244  14.472  17.983  1.00  0.00     0.000 A 
ENDBRANCH  32  34
ENDBRANCH  31  32
ENDBRANCH  30  31
ENDBRANCH   8  30
TORSDOF 12
ENDMDL
MODEL 6
REMARK VINA RESULT:    -6.809      2.637      7.716
REMARK INTER + INTRA:         -12.037
REMARK INTER:                 -10.441
REMARK INTRA:                  -1.596
REMARK UNBOUND:                -1.446
REMARK SMILES C[C@]12C[C@]3(O)O[C@H](O1)[C@@]1(COC(=O)c4ccccc4)[C@@H]3C[C@]12O[C@@H]1O[C@@H](CO)[C@@H](O)[C@H](O)[C@H]1O
REMARK SMILES IDX 1 1 2 2 3 3 4 4 20 5 21 6 22 7 9 8 7 9 8 10 6 11 23 12 24 13
REMARK SMILES IDX 33 14 25 15 31 16 26 17 29 18 34 19 32 21 27 23 28 24 30 26
REMARK SMILES IDX 5 28 10 30 11 31 12 32 13 33 14 34 15 35 19 36 16 37 18 38
REMARK SMILES IDX 17 39
REMARK H PARENT 34 20 32 22 28 25 30 27 5 29
REMARK Flexibility Score: inf
ROOT
ATOM      1  C   UNL     1      31.935  10.328  16.256  1.00  0.00     0.046 C 
ATOM      2  C   UNL     1      30.515  10.366  15.686  1.00  0.00     0.104 C 
ATOM      3  C   UNL     1      29.908  11.815  15.806  1.00  0.00     0.104 C 
ATOM      4  C   UNL     1      28.519  11.697  15.081  1.00  0.00     0.175 C 
ATOM      5  C   UNL     1      28.704  11.001  13.699  1.00  0.00     0.070 C 
ATOM      6  C   UNL     1      30.161  10.995  13.220  1.00  0.00     0.050 C 
ATOM      7  C   UNL     1      30.379   9.835  14.201  1.00  0.00     0.115 C 
ATOM      8  C   UNL     1      28.879   9.564  14.164  1.00  0.00     0.096 C 
ATOM      9  C   UNL     1      28.428   9.553  15.632  1.00  0.00     0.267 C 
ATOM     10  O   UNL     1      29.613   9.557  16.427  1.00  0.00    -0.342 OA
ATOM     11  O   UNL     1      27.760  10.784  15.842  1.00  0.00    -0.320 OA
ENDROOT
BRANCH   7  12
ATOM     12  O   UNL     1      31.276   8.863  13.653  1.00  0.00    -0.339 OA
BRANCH  12  13
ATOM     13  C   UNL     1      32.147   8.145  14.528  1.00  0.00     0.282 C 
ATOM     14  C   UNL     1      31.516   6.722  14.659  1.00  0.00     0.202 C 
ATOM     15  O   UNL     1      33.494   8.153  14.078  1.00  0.00    -0.341 OA
ATOM     16  C   UNL     1      32.474   5.590  15.103  1.00  0.00     0.179 C 
ATOM     17  C   UNL     1      34.359   7.280  14.778  1.00  0.00     0.178 C 
ATOM     18  C   UNL     1      33.916   5.816  14.642  1.00  0.00     0.177 C 
BRANCH  14  19
ATOM     19  O   UNL     1      30.446   6.806  15.573  1.00  0.00    -0.385 OA
ATOM     20  H   UNL     1      29.714   6.251  15.200  1.00  0.00     0.211 HD
ENDBRANCH  14  19
BRANCH  16  21
ATOM     21  O   UNL     1      32.024   4.376  14.546  1.00  0.00    -0.387 OA
ATOM     22  H   UNL     1      31.049   4.294  14.734  1.00  0.00     0.211 HD
ENDBRANCH  16  21
BRANCH  17  23
ATOM     23  C   UNL     1      34.720   7.778  16.199  1.00  0.00     0.191 C 
BRANCH  23  24
ATOM     24  O   UNL     1      36.002   7.368  16.620  1.00  0.00    -0.394 OA
ATOM     25  H   UNL     1      36.336   6.738  15.934  1.00  0.00     0.210 HD
ENDBRANCH  23  24
ENDBRANCH  17  23
BRANCH  18  26
ATOM     26  O   UNL     1      34.777   4.954  15.335  1.00  0.00    -0.387 OA
ATOM     27  H   UNL     1      34.426   4.023  15.223  1.00  0.00     0.211 HD
ENDBRANCH  18  26
ENDBRANCH  12  13
ENDBRANCH   7  12
BRANCH   4  28
ATOM     28  O   UNL     1      27.863  12.926  14.986  1.00  0.00    -0.365 OA
ATOM     29  H   UNL     1      26.923  12.779  15.274  1.00  0.00     0.214 HD
ENDBRANCH   4  28
BRANCH   8  30
ATOM     30  C   UNL     1      28.338   8.533  13.148  1.00  0.00     0.249 C 
BRANCH  30  31
ATOM     31  O   UNL     1      27.178   7.844  13.599  1.00  0.00    -0.461 OA
BRANCH  31  32
ATOM     32  C   UNL     1      27.208   6.525  14.072  1.00  0.00     0.338 C 
ATOM     33  O   UNL     1      28.192   5.782  13.818  1.00  0.00    -0.246 OA
BRANCH  32  34
ATOM     34  C   UNL     1      26.093   6.009  14.882  1.00  0.00     0.060 A 
ATOM     35  C   UNL     1      25.435   6.846  15.792  1.00  0.00     0.015 A 
ATOM     36  C   UNL     1      25.685   4.672  14.750  1.00  0.00     0.015 A 
ATOM     37  C   UNL     1      24.366   6.354  16.557  1.00  0.00     0.001 A 
ATOM     38  C   UNL     1      24.617   4.186  15.515  1.00  0.00     0.001 A 
ATOM     39  C   UNL     1      23.966   5.025  16.424  1.00  0.00     0.000 A 
ENDBRANCH  32  34
ENDBRANCH  31  32
ENDBRANCH  30  31
ENDBRANCH   8  30
TORSDOF 12
ENDMDL
MODEL 7
REMARK VINA RESULT:    -6.761      8.090     10.715
REMARK INTER + INTRA:         -11.962
REMARK INTER:                 -10.699
REMARK INTRA:                  -1.263
REMARK UNBOUND:                -1.446
REMARK SMILES C[C@]12C[C@]3(O)O[C@H](O1)[C@@]1(COC(=O)c4ccccc4)[C@@H]3C[C@]12O[C@@H]1O[C@@H](CO)[C@@H](O)[C@H](O)[C@H]1O
REMARK SMILES IDX 1 1 2 2 3 3 4 4 20 5 21 6 22 7 9 8 7 9 8 10 6 11 23 12 24 13
REMARK SMILES IDX 33 14 25 15 31 16 26 17 29 18 34 19 32 21 27 23 28 24 30 26
REMARK SMILES IDX 5 28 10 30 11 31 12 32 13 33 14 34 15 35 19 36 16 37 18 38
REMARK SMILES IDX 17 39
REMARK H PARENT 34 20 32 22 28 25 30 27 5 29
REMARK Flexibility Score: inf
ROOT
ATOM      1  C   UNL     1      23.066  15.358  17.740  1.00  0.00     0.046 C 
ATOM      2  C   UNL     1      24.559  15.675  17.619  1.00  0.00     0.104 C 
ATOM      3  C   UNL     1      25.423  14.524  18.259  1.00  0.00     0.104 C 
ATOM      4  C   UNL     1      26.902  14.954  17.948  1.00  0.00     0.175 C 
ATOM      5  C   UNL     1      27.034  15.334  16.442  1.00  0.00     0.070 C 
ATOM      6  C   UNL     1      25.873  14.812  15.587  1.00  0.00     0.050 C 
ATOM      7  C   UNL     1      25.057  15.984  16.149  1.00  0.00     0.115 C 
ATOM      8  C   UNL     1      26.365  16.699  16.468  1.00  0.00     0.096 C 
ATOM      9  C   UNL     1      26.273  17.079  17.954  1.00  0.00     0.267 C 
ATOM     10  O   UNL     1      24.927  16.829  18.359  1.00  0.00    -0.342 OA
ATOM     11  O   UNL     1      27.109  16.165  18.641  1.00  0.00    -0.320 OA
ENDROOT
BRANCH   7  12
ATOM     12  O   UNL     1      24.191  16.532  15.148  1.00  0.00    -0.339 OA
BRANCH  12  13
ATOM     13  C   UNL     1      22.965  17.148  15.547  1.00  0.00     0.282 C 
ATOM     14  C   UNL     1      23.226  18.685  15.445  1.00  0.00     0.202 C 
ATOM     15  O   UNL     1      21.856  16.687  14.790  1.00  0.00    -0.341 OA
ATOM     16  C   UNL     1      21.973  19.582  15.310  1.00  0.00     0.179 C 
ATOM     17  C   UNL     1      20.660  17.416  14.986  1.00  0.00     0.178 C 
ATOM     18  C   UNL     1      20.821  18.887  14.577  1.00  0.00     0.177 C 
BRANCH  14  19
ATOM     19  O   UNL     1      23.954  19.077  16.588  1.00  0.00    -0.385 OA
ATOM     20  H   UNL     1      24.469  19.884  16.330  1.00  0.00     0.211 HD
ENDBRANCH  14  19
BRANCH  16  21
ATOM     21  O   UNL     1      22.322  20.735  14.578  1.00  0.00    -0.387 OA
ATOM     22  H   UNL     1      22.921  20.457  13.833  1.00  0.00     0.211 HD
ENDBRANCH  16  21
BRANCH  17  23
ATOM     23  C   UNL     1      19.981  17.134  16.348  1.00  0.00     0.191 C 
BRANCH  23  24
ATOM     24  O   UNL     1      18.626  17.523  16.383  1.00  0.00    -0.394 OA
ATOM     25  H   UNL     1      18.229  17.238  15.523  1.00  0.00     0.210 HD
ENDBRANCH  23  24
ENDBRANCH  17  23
BRANCH  18  26
ATOM     26  O   UNL     1      19.634  19.606  14.770  1.00  0.00    -0.387 OA
ATOM     27  H   UNL     1      19.831  20.570  14.584  1.00  0.00     0.211 HD
ENDBRANCH  18  26
ENDBRANCH  12  13
ENDBRANCH   7  12
BRANCH   4  28
ATOM     28  O   UNL     1      27.831  13.992  18.347  1.00  0.00    -0.365 OA
ATOM     29  H   UNL     1      28.713  14.266  17.981  1.00  0.00     0.214 HD
ENDBRANCH   4  28
BRANCH   8  30
ATOM     30  C   UNL     1      26.949  17.676  15.424  1.00  0.00     0.249 C 
BRANCH  30  31
ATOM     31  O   UNL     1      26.979  19.029  15.864  1.00  0.00    -0.461 OA
BRANCH  31  32
ATOM     32  C   UNL     1      28.168  19.714  16.147  1.00  0.00     0.338 C 
ATOM     33  O   UNL     1      28.371  20.185  17.296  1.00  0.00    -0.246 OA
BRANCH  32  34
ATOM     34  C   UNL     1      29.194  19.871  15.102  1.00  0.00     0.060 A 
ATOM     35  C   UNL     1      28.849  19.742  13.750  1.00  0.00     0.015 A 
ATOM     36  C   UNL     1      30.523  20.148  15.455  1.00  0.00     0.015 A 
ATOM     37  C   UNL     1      29.826  19.901  12.755  1.00  0.00     0.001 A 
ATOM     38  C   UNL     1      31.495  20.307  14.458  1.00  0.00     0.001 A 
ATOM     39  C   UNL     1      31.146  20.174  13.111  1.00  0.00     0.000 A 
ENDBRANCH  32  34
ENDBRANCH  31  32
ENDBRANCH  30  31
ENDBRANCH   8  30
TORSDOF 12
ENDMDL
MODEL 8
REMARK VINA RESULT:    -6.737      2.366      7.071
REMARK INTER + INTRA:         -11.925
REMARK INTER:                 -11.148
REMARK INTRA:                  -0.777
REMARK UNBOUND:                -1.446
REMARK SMILES C[C@]12C[C@]3(O)O[C@H](O1)[C@@]1(COC(=O)c4ccccc4)[C@@H]3C[C@]12O[C@@H]1O[C@@H](CO)[C@@H](O)[C@H](O)[C@H]1O
REMARK SMILES IDX 1 1 2 2 3 3 4 4 20 5 21 6 22 7 9 8 7 9 8 10 6 11 23 12 24 13
REMARK SMILES IDX 33 14 25 15 31 16 26 17 29 18 34 19 32 21 27 23 28 24 30 26
REMARK SMILES IDX 5 28 10 30 11 31 12 32 13 33 14 34 15 35 19 36 16 37 18 38
REMARK SMILES IDX 17 39
REMARK H PARENT 34 20 32 22 28 25 30 27 5 29
REMARK Flexibility Score: inf
ROOT
ATOM      1  C   UNL     1      33.382   8.741  14.369  1.00  0.00     0.046 C 
ATOM      2  C   UNL     1      32.068   9.520  14.460  1.00  0.00     0.104 C 
ATOM      3  C   UNL     1      32.025  10.661  13.374  1.00  0.00     0.104 C 
ATOM      4  C   UNL     1      30.586  11.271  13.533  1.00  0.00     0.175 C 
ATOM      5  C   UNL     1      29.528  10.127  13.558  1.00  0.00     0.070 C 
ATOM      6  C   UNL     1      30.069   8.798  13.015  1.00  0.00     0.050 C 
ATOM      7  C   UNL     1      30.759   8.633  14.376  1.00  0.00     0.115 C 
ATOM      8  C   UNL     1      29.751   9.610  14.971  1.00  0.00     0.096 C 
ATOM      9  C   UNL     1      30.590  10.689  15.672  1.00  0.00     0.267 C 
ATOM     10  O   UNL     1      31.936  10.216  15.690  1.00  0.00    -0.342 OA
ATOM     11  O   UNL     1      30.541  11.827  14.829  1.00  0.00    -0.320 OA
ENDROOT
BRANCH   7  12
ATOM     12  O   UNL     1      30.736   7.266  14.800  1.00  0.00    -0.339 OA
BRANCH  12  13
ATOM     13  C   UNL     1      31.903   6.701  15.402  1.00  0.00     0.282 C 
ATOM     14  C   UNL     1      31.555   6.562  16.919  1.00  0.00     0.202 C 
ATOM     15  O   UNL     1      32.303   5.491  14.776  1.00  0.00    -0.341 OA
ATOM     16  C   UNL     1      32.390   5.533  17.718  1.00  0.00     0.179 C 
ATOM     17  C   UNL     1      33.312   4.775  15.461  1.00  0.00     0.178 C 
ATOM     18  C   UNL     1      32.851   4.349  16.863  1.00  0.00     0.177 C 
BRANCH  14  19
ATOM     19  O   UNL     1      31.698   7.833  17.513  1.00  0.00    -0.385 OA
ATOM     20  H   UNL     1      32.442   7.757  18.163  1.00  0.00     0.211 HD
ENDBRANCH  14  19
BRANCH  16  21
ATOM     21  O   UNL     1      31.596   5.029  18.768  1.00  0.00    -0.387 OA
ATOM     22  H   UNL     1      32.152   5.015  19.594  1.00  0.00     0.211 HD
ENDBRANCH  16  21
BRANCH  17  23
ATOM     23  C   UNL     1      34.714   5.421  15.346  1.00  0.00     0.191 C 
BRANCH  23  24
ATOM     24  O   UNL     1      35.762   4.478  15.366  1.00  0.00    -0.394 OA
ATOM     25  H   UNL     1      36.229   4.555  14.497  1.00  0.00     0.210 HD
ENDBRANCH  23  24
ENDBRANCH  17  23
BRANCH  18  26
ATOM     26  O   UNL     1      33.852   3.637  17.538  1.00  0.00    -0.387 OA
ATOM     27  H   UNL     1      33.815   2.689  17.220  1.00  0.00     0.211 HD
ENDBRANCH  18  26
ENDBRANCH  12  13
ENDBRANCH   7  12
BRANCH   4  28
ATOM     28  O   UNL     1      30.311  12.243  12.570  1.00  0.00    -0.365 OA
ATOM     29  H   UNL     1      30.145  13.096  13.052  1.00  0.00     0.214 HD
ENDBRANCH   4  28
BRANCH   8  30
ATOM     30  C   UNL     1      28.465   9.046  15.615  1.00  0.00     0.249 C 
BRANCH  30  31
ATOM     31  O   UNL     1      27.270   9.615  15.094  1.00  0.00    -0.461 OA
BRANCH  31  32
ATOM     32  C   UNL     1      26.359   8.895  14.310  1.00  0.00     0.338 C 
ATOM     33  O   UNL     1      26.061   7.710  14.611  1.00  0.00    -0.246 OA
BRANCH  32  34
ATOM     34  C   UNL     1      25.733   9.531  13.139  1.00  0.00     0.060 A 
ATOM     35  C   UNL     1      26.373   9.499  11.893  1.00  0.00     0.015 A 
ATOM     36  C   UNL     1      24.493  10.176  13.265  1.00  0.00     0.015 A 
ATOM     37  C   UNL     1      25.770  10.098  10.776  1.00  0.00     0.001 A 
ATOM     38  C   UNL     1      23.895  10.772  12.147  1.00  0.00     0.001 A 
ATOM     39  C   UNL     1      24.539  10.739  10.907  1.00  0.00     0.000 A 
ENDBRANCH  32  34
ENDBRANCH  31  32
ENDBRANCH  30  31
ENDBRANCH   8  30
TORSDOF 12
ENDMDL
MODEL 9
REMARK VINA RESULT:    -6.670      1.944      7.087
REMARK INTER + INTRA:         -11.821
REMARK INTER:                 -11.020
REMARK INTRA:                  -0.800
REMARK UNBOUND:                -1.446
REMARK SMILES C[C@]12C[C@]3(O)O[C@H](O1)[C@@]1(COC(=O)c4ccccc4)[C@@H]3C[C@]12O[C@@H]1O[C@@H](CO)[C@@H](O)[C@H](O)[C@H]1O
REMARK SMILES IDX 1 1 2 2 3 3 4 4 20 5 21 6 22 7 9 8 7 9 8 10 6 11 23 12 24 13
REMARK SMILES IDX 33 14 25 15 31 16 26 17 29 18 34 19 32 21 27 23 28 24 30 26
REMARK SMILES IDX 5 28 10 30 11 31 12 32 13 33 14 34 15 35 19 36 16 37 18 38
REMARK SMILES IDX 17 39
REMARK H PARENT 34 20 32 22 28 25 30 27 5 29
REMARK Flexibility Score: inf
ROOT
ATOM      1  C   UNL     1      32.098  10.585  17.827  1.00  0.00     0.046 C 
ATOM      2  C   UNL     1      31.785  10.780  16.341  1.00  0.00     0.104 C 
ATOM      3  C   UNL     1      32.758  11.844  15.706  1.00  0.00     0.104 C 
ATOM      4  C   UNL     1      32.377  11.832  14.182  1.00  0.00     0.175 C 
ATOM      5  C   UNL     1      32.322  10.363  13.664  1.00  0.00     0.070 C 
ATOM      6  C   UNL     1      33.036   9.372  14.593  1.00  0.00     0.050 C 
ATOM      7  C   UNL     1      31.786   9.452  15.480  1.00  0.00     0.115 C 
ATOM      8  C   UNL     1      30.995   9.933  14.269  1.00  0.00     0.096 C 
ATOM      9  C   UNL     1      30.311  11.234  14.716  1.00  0.00     0.267 C 
ATOM     10  O   UNL     1      30.494  11.330  16.128  1.00  0.00    -0.342 OA
ATOM     11  O   UNL     1      31.043  12.285  14.111  1.00  0.00    -0.320 OA
ENDROOT
BRANCH   7  12
ATOM     12  O   UNL     1      31.480   8.174  16.049  1.00  0.00    -0.339 OA
BRANCH  12  13
ATOM     13  C   UNL     1      32.523   7.209  16.202  1.00  0.00     0.282 C 
ATOM     14  C   UNL     1      32.248   6.524  17.580  1.00  0.00     0.202 C 
ATOM     15  O   UNL     1      32.597   6.313  15.104  1.00  0.00    -0.341 OA
ATOM     16  C   UNL     1      32.875   5.124  17.782  1.00  0.00     0.179 C 
ATOM     17  C   UNL     1      33.458   5.207  15.298  1.00  0.00     0.178 C 
ATOM     18  C   UNL     1      33.001   4.335  16.476  1.00  0.00     0.177 C 
BRANCH  14  19
ATOM     19  O   UNL     1      32.713   7.389  18.592  1.00  0.00    -0.385 OA
ATOM     20  H   UNL     1      33.560   6.998  18.928  1.00  0.00     0.211 HD
ENDBRANCH  14  19
BRANCH  16  21
ATOM     21  O   UNL     1      32.055   4.387  18.660  1.00  0.00    -0.387 OA
ATOM     22  H   UNL     1      31.177   4.244  18.212  1.00  0.00     0.211 HD
ENDBRANCH  16  21
BRANCH  17  23
ATOM     23  C   UNL     1      34.960   5.576  15.235  1.00  0.00     0.191 C 
BRANCH  23  24
ATOM     24  O   UNL     1      35.808   4.449  15.233  1.00  0.00    -0.394 OA
ATOM     25  H   UNL     1      36.735   4.793  15.266  1.00  0.00     0.210 HD
ENDBRANCH  23  24
ENDBRANCH  17  23
BRANCH  18  26
ATOM     26  O   UNL     1      33.854   3.239  16.664  1.00  0.00    -0.387 OA
ATOM     27  H   UNL     1      33.282   2.443  16.866  1.00  0.00     0.211 HD
ENDBRANCH  18  26
ENDBRANCH  12  13
ENDBRANCH   7  12
BRANCH   4  28
ATOM     28  O   UNL     1      33.215  12.645  13.417  1.00  0.00    -0.365 OA
ATOM     29  H   UNL     1      34.146  12.475  13.721  1.00  0.00     0.214 HD
ENDBRANCH   4  28
BRANCH   8  30
ATOM     30  C   UNL     1      30.251   8.888  13.408  1.00  0.00     0.249 C 
BRANCH  30  31
ATOM     31  O   UNL     1      29.155   9.427  12.680  1.00  0.00    -0.461 OA
BRANCH  31  32
ATOM     32  C   UNL     1      27.952   8.735  12.486  1.00  0.00     0.338 C 
ATOM     33  O   UNL     1      27.295   8.889  11.423  1.00  0.00    -0.246 OA
BRANCH  32  34
ATOM     34  C   UNL     1      27.460   7.811  13.521  1.00  0.00     0.060 A 
ATOM     35  C   UNL     1      27.569   6.426  13.340  1.00  0.00     0.015 A 
ATOM     36  C   UNL     1      26.876   8.313  14.694  1.00  0.00     0.015 A 
ATOM     37  C   UNL     1      27.107   5.548  14.333  1.00  0.00     0.001 A 
ATOM     38  C   UNL     1      26.417   7.432  15.682  1.00  0.00     0.001 A 
ATOM     39  C   UNL     1      26.526   6.051  15.495  1.00  0.00     0.000 A 
ENDBRANCH  32  34
ENDBRANCH  31  32
ENDBRANCH  30  31
ENDBRANCH   8  30
TORSDOF 12
ENDMDL
