MODEL 1
REMARK VINA RESULT:    -3.654      0.000      0.000
REMARK INTER + INTRA:          -5.094
REMARK INTER:                  -4.722
REMARK INTRA:                  -0.373
REMARK UNBOUND:                -0.373
REMARK SMILES CO[C@]1(CO)O[C@@H](CO)[C@H](O)[C@H]1O
REMARK SMILES IDX 3 1 12 2 10 3 7 4 6 5 2 6 1 7 4 8 5 9 13 11 11 13 8 15 9 16
REMARK H PARENT 5 10 13 12 11 14 9 17
REMARK Flexibility Score: inf
ROOT
ATOM      1  C   UNL     1      18.714  -6.994   6.902  1.00  0.00     0.221 C 
ATOM      2  C   UNL     1      19.309  -8.414   6.957  1.00  0.00     0.207 C 
ATOM      3  C   UNL     1      20.056  -8.516   5.636  1.00  0.00     0.180 C 
ATOM      4  C   UNL     1      20.171  -7.058   5.160  1.00  0.00     0.179 C 
ATOM      5  O   UNL     1      19.631  -6.217   6.157  1.00  0.00    -0.337 OA
ENDROOT
BRANCH   1   6
ATOM      6  O   UNL     1      17.459  -7.100   6.228  1.00  0.00    -0.349 OA
ATOM      7  C   UNL     1      16.363  -6.606   6.974  1.00  0.00     0.198 C 
ENDBRANCH   1   6
BRANCH   1   8
ATOM      8  C   UNL     1      18.535  -6.397   8.328  1.00  0.00     0.224 C 
BRANCH   8   9
ATOM      9  O   UNL     1      19.627  -5.600   8.701  1.00  0.00    -0.391 OA
ATOM     10  H   UNL     1      20.445  -6.141   8.546  1.00  0.00     0.210 HD
ENDBRANCH   8   9
ENDBRANCH   1   8
BRANCH   2  11
ATOM     11  O   UNL     1      20.219  -8.560   8.020  1.00  0.00    -0.385 OA
ATOM     12  H   UNL     1      21.097  -8.786   7.615  1.00  0.00     0.211 HD
ENDBRANCH   2  11
BRANCH   3  13
ATOM     13  O   UNL     1      19.362  -9.312   4.704  1.00  0.00    -0.387 OA
ATOM     14  H   UNL     1      18.454  -9.492   5.064  1.00  0.00     0.211 HD
ENDBRANCH   3  13
BRANCH   4  15
ATOM     15  C   UNL     1      21.622  -6.641   4.883  1.00  0.00     0.191 C 
BRANCH  15  16
ATOM     16  O   UNL     1      21.871  -5.358   5.394  1.00  0.00    -0.394 OA
ATOM     17  H   UNL     1      21.325  -4.723   4.862  1.00  0.00     0.210 HD
ENDBRANCH  15  16
ENDBRANCH   4  15
TORSDOF 7
ENDMDL
MODEL 2
REMARK VINA RESULT:    -3.638      2.277      3.527
REMARK INTER + INTRA:          -5.074
REMARK INTER:                  -4.678
REMARK INTRA:                  -0.396
REMARK UNBOUND:                -0.373
REMARK SMILES CO[C@]1(CO)O[C@@H](CO)[C@H](O)[C@H]1O
REMARK SMILES IDX 3 1 12 2 10 3 7 4 6 5 2 6 1 7 4 8 5 9 13 11 11 13 8 15 9 16
REMARK H PARENT 5 10 13 12 11 14 9 17
REMARK Flexibility Score: inf
ROOT
ATOM      1  C   UNL     1      16.108  -7.536   5.798  1.00  0.00     0.221 C 
ATOM      2  C   UNL     1      16.917  -8.838   5.651  1.00  0.00     0.207 C 
ATOM      3  C   UNL     1      18.350  -8.368   5.852  1.00  0.00     0.180 C 
ATOM      4  C   UNL     1      18.198  -6.977   6.492  1.00  0.00     0.179 C 
ATOM      5  O   UNL     1      16.826  -6.735   6.715  1.00  0.00    -0.337 OA
ENDROOT
BRANCH   1   6
ATOM      6  O   UNL     1      16.066  -6.930   4.505  1.00  0.00    -0.349 OA
ATOM      7  C   UNL     1      14.786  -6.949   3.903  1.00  0.00     0.198 C 
ENDBRANCH   1   6
BRANCH   1   8
ATOM      8  C   UNL     1      14.673  -7.815   6.332  1.00  0.00     0.224 C 
BRANCH   8   9
ATOM      9  O   UNL     1      14.643  -7.884   7.732  1.00  0.00    -0.391 OA
ATOM     10  H   UNL     1      14.115  -8.691   7.970  1.00  0.00     0.210 HD
ENDBRANCH   8   9
ENDBRANCH   1   8
BRANCH   2  11
ATOM     11  O   UNL     1      16.588  -9.775   6.648  1.00  0.00    -0.385 OA
ATOM     12  H   UNL     1      17.157 -10.573   6.487  1.00  0.00     0.211 HD
ENDBRANCH   2  11
BRANCH   3  13
ATOM     13  O   UNL     1      19.055  -8.305   4.634  1.00  0.00    -0.387 OA
ATOM     14  H   UNL     1      18.698  -9.009   4.032  1.00  0.00     0.211 HD
ENDBRANCH   3  13
BRANCH   4  15
ATOM     15  C   UNL     1      18.952  -6.856   7.823  1.00  0.00     0.191 C 
BRANCH  15  16
ATOM     16  O   UNL     1      18.135  -6.268   8.800  1.00  0.00    -0.394 OA
ATOM     17  H   UNL     1      17.203  -6.307   8.462  1.00  0.00     0.210 HD
ENDBRANCH  15  16
ENDBRANCH   4  15
TORSDOF 7
ENDMDL
MODEL 3
REMARK VINA RESULT:    -3.506      1.890      4.018
REMARK INTER + INTRA:          -4.904
REMARK INTER:                  -4.500
REMARK INTRA:                  -0.405
REMARK UNBOUND:                -0.373
REMARK SMILES CO[C@]1(CO)O[C@@H](CO)[C@H](O)[C@H]1O
REMARK SMILES IDX 3 1 12 2 10 3 7 4 6 5 2 6 1 7 4 8 5 9 13 11 11 13 8 15 9 16
REMARK H PARENT 5 10 13 12 11 14 9 17
REMARK Flexibility Score: inf
ROOT
ATOM      1  C   UNL     1      18.337  -7.153   6.657  1.00  0.00     0.221 C 
ATOM      2  C   UNL     1      16.964  -6.469   6.799  1.00  0.00     0.207 C 
ATOM      3  C   UNL     1      16.137  -7.148   5.718  1.00  0.00     0.180 C 
ATOM      4  C   UNL     1      16.952  -8.402   5.360  1.00  0.00     0.179 C 
ATOM      5  O   UNL     1      18.071  -8.470   6.218  1.00  0.00    -0.337 OA
ENDROOT
BRANCH   1   6
ATOM      6  O   UNL     1      19.063  -6.417   5.671  1.00  0.00    -0.349 OA
ATOM      7  C   UNL     1      20.339  -6.954   5.378  1.00  0.00     0.198 C 
ENDBRANCH   1   6
BRANCH   1   8
ATOM      8  C   UNL     1      19.102  -7.180   8.012  1.00  0.00     0.224 C 
BRANCH   8   9
ATOM      9  O   UNL     1      18.903  -6.002   8.747  1.00  0.00    -0.391 OA
ATOM     10  H   UNL     1      19.791  -5.567   8.841  1.00  0.00     0.210 HD
ENDBRANCH   8   9
ENDBRANCH   1   8
BRANCH   2  11
ATOM     11  O   UNL     1      16.383  -6.716   8.057  1.00  0.00    -0.385 OA
ATOM     12  H   UNL     1      16.605  -5.937   8.631  1.00  0.00     0.211 HD
ENDBRANCH   2  11
BRANCH   3  13
ATOM     13  O   UNL     1      15.952  -6.312   4.600  1.00  0.00    -0.387 OA
ATOM     14  H   UNL     1      16.841  -6.130   4.197  1.00  0.00     0.211 HD
ENDBRANCH   3  13
BRANCH   4  15
ATOM     15  C   UNL     1      16.135  -9.694   5.496  1.00  0.00     0.191 C 
BRANCH  15  16
ATOM     16  O   UNL     1      15.566  -9.784   6.775  1.00  0.00    -0.394 OA
ATOM     17  H   UNL     1      15.585  -8.873   7.166  1.00  0.00     0.210 HD
ENDBRANCH  15  16
ENDBRANCH   4  15
TORSDOF 7
ENDMDL
MODEL 4
REMARK VINA RESULT:    -3.359      2.057      3.013
REMARK INTER + INTRA:          -4.714
REMARK INTER:                  -4.304
REMARK INTRA:                  -0.410
REMARK UNBOUND:                -0.373
REMARK SMILES CO[C@]1(CO)O[C@@H](CO)[C@H](O)[C@H]1O
REMARK SMILES IDX 3 1 12 2 10 3 7 4 6 5 2 6 1 7 4 8 5 9 13 11 11 13 8 15 9 16
REMARK H PARENT 5 10 13 12 11 14 9 17
REMARK Flexibility Score: inf
ROOT
ATOM      1  C   UNL     1      17.566  -7.269   5.882  1.00  0.00     0.221 C 
ATOM      2  C   UNL     1      17.459  -8.775   5.580  1.00  0.00     0.207 C 
ATOM      3  C   UNL     1      18.845  -9.288   5.935  1.00  0.00     0.180 C 
ATOM      4  C   UNL     1      19.457  -8.154   6.776  1.00  0.00     0.179 C 
ATOM      5  O   UNL     1      18.479  -7.151   6.954  1.00  0.00    -0.337 OA
ENDROOT
BRANCH   1   6
ATOM      6  O   UNL     1      18.073  -6.647   4.700  1.00  0.00    -0.349 OA
ATOM      7  C   UNL     1      17.074  -6.078   3.875  1.00  0.00     0.198 C 
ENDBRANCH   1   6
BRANCH   1   8
ATOM      8  C   UNL     1      16.186  -6.669   6.281  1.00  0.00     0.224 C 
BRANCH   8   9
ATOM      9  O   UNL     1      15.991  -6.688   7.670  1.00  0.00    -0.391 OA
ATOM     10  H   UNL     1      15.983  -5.742   7.973  1.00  0.00     0.210 HD
ENDBRANCH   8   9
ENDBRANCH   1   8
BRANCH   2  11
ATOM     11  O   UNL     1      16.502  -9.407   6.396  1.00  0.00    -0.385 OA
ATOM     12  H   UNL     1      16.371 -10.319   6.027  1.00  0.00     0.211 HD
ENDBRANCH   2  11
BRANCH   3  13
ATOM     13  O   UNL     1      19.615  -9.555   4.786  1.00  0.00    -0.387 OA
ATOM     14  H   UNL     1      19.187  -9.101   4.014  1.00  0.00     0.211 HD
ENDBRANCH   3  13
BRANCH   4  15
ATOM     15  C   UNL     1      19.940  -8.634   8.151  1.00  0.00     0.191 C 
BRANCH  15  16
ATOM     16  O   UNL     1      19.296  -7.923   9.175  1.00  0.00    -0.394 OA
ATOM     17  H   UNL     1      18.454  -7.563   8.793  1.00  0.00     0.210 HD
ENDBRANCH  15  16
ENDBRANCH   4  15
TORSDOF 7
ENDMDL
MODEL 5
REMARK VINA RESULT:    -3.302      1.730      2.316
REMARK INTER + INTRA:          -4.640
REMARK INTER:                  -4.189
REMARK INTRA:                  -0.450
REMARK UNBOUND:                -0.373
REMARK SMILES CO[C@]1(CO)O[C@@H](CO)[C@H](O)[C@H]1O
REMARK SMILES IDX 3 1 12 2 10 3 7 4 6 5 2 6 1 7 4 8 5 9 13 11 11 13 8 15 9 16
REMARK H PARENT 5 10 13 12 11 14 9 17
REMARK Flexibility Score: inf
ROOT
ATOM      1  C   UNL     1      17.439  -7.215   5.651  1.00  0.00     0.221 C 
ATOM      2  C   UNL     1      18.340  -7.659   6.819  1.00  0.00     0.207 C 
ATOM      3  C   UNL     1      19.727  -7.655   6.193  1.00  0.00     0.180 C 
ATOM      4  C   UNL     1      19.550  -6.834   4.904  1.00  0.00     0.179 C 
ATOM      5  O   UNL     1      18.226  -6.346   4.861  1.00  0.00    -0.337 OA
ENDROOT
BRANCH   1   6
ATOM      6  O   UNL     1      17.090  -8.397   4.929  1.00  0.00    -0.349 OA
ATOM      7  C   UNL     1      16.172  -8.176   3.875  1.00  0.00     0.198 C 
ENDBRANCH   1   6
BRANCH   1   8
ATOM      8  C   UNL     1      16.168  -6.476   6.163  1.00  0.00     0.224 C 
BRANCH   8   9
ATOM      9  O   UNL     1      15.583  -7.139   7.252  1.00  0.00    -0.391 OA
ATOM     10  H   UNL     1      15.912  -6.691   8.074  1.00  0.00     0.210 HD
ENDBRANCH   8   9
ENDBRANCH   1   8
BRANCH   2  11
ATOM     11  O   UNL     1      18.307  -6.741   7.885  1.00  0.00    -0.385 OA
ATOM     12  H   UNL     1      17.703  -7.126   8.572  1.00  0.00     0.211 HD
ENDBRANCH   2  11
BRANCH   3  13
ATOM     13  O   UNL     1      20.179  -8.960   5.918  1.00  0.00    -0.387 OA
ATOM     14  H   UNL     1      19.399  -9.574   5.953  1.00  0.00     0.211 HD
ENDBRANCH   3  13
BRANCH   4  15
ATOM     15  C   UNL     1      20.524  -5.651   4.821  1.00  0.00     0.191 C 
BRANCH  15  16
ATOM     16  O   UNL     1      20.901  -5.233   6.106  1.00  0.00    -0.394 OA
ATOM     17  H   UNL     1      20.597  -5.933   6.740  1.00  0.00     0.210 HD
ENDBRANCH  15  16
ENDBRANCH   4  15
TORSDOF 7
ENDMDL
MODEL 6
REMARK VINA RESULT:    -3.174      1.435      3.082
REMARK INTER + INTRA:          -4.474
REMARK INTER:                  -4.077
REMARK INTRA:                  -0.397
REMARK UNBOUND:                -0.373
REMARK SMILES CO[C@]1(CO)O[C@@H](CO)[C@H](O)[C@H]1O
REMARK SMILES IDX 3 1 12 2 10 3 7 4 6 5 2 6 1 7 4 8 5 9 13 11 11 13 8 15 9 16
REMARK H PARENT 5 10 13 12 11 14 9 17
REMARK Flexibility Score: inf
ROOT
ATOM      1  C   UNL     1      19.117  -7.822   7.061  1.00  0.00     0.221 C 
ATOM      2  C   UNL     1      20.053  -7.137   6.048  1.00  0.00     0.207 C 
ATOM      3  C   UNL     1      19.242  -7.176   4.762  1.00  0.00     0.180 C 
ATOM      4  C   UNL     1      17.810  -7.481   5.234  1.00  0.00     0.179 C 
ATOM      5  O   UNL     1      17.802  -7.513   6.646  1.00  0.00    -0.337 OA
ENDROOT
BRANCH   1   6
ATOM      6  O   UNL     1      19.371  -9.225   6.972  1.00  0.00    -0.349 OA
ATOM      7  C   UNL     1      19.728  -9.823   8.204  1.00  0.00     0.198 C 
ENDBRANCH   1   6
BRANCH   1   8
ATOM      8  C   UNL     1      19.363  -7.299   8.507  1.00  0.00     0.224 C 
BRANCH   8   9
ATOM      9  O   UNL     1      18.662  -6.110   8.757  1.00  0.00    -0.391 OA
ATOM     10  H   UNL     1      19.042  -5.721   9.588  1.00  0.00     0.210 HD
ENDBRANCH   8   9
ENDBRANCH   1   8
BRANCH   2  11
ATOM     11  O   UNL     1      20.312  -5.798   6.396  1.00  0.00    -0.385 OA
ATOM     12  H   UNL     1      20.451  -5.305   5.546  1.00  0.00     0.211 HD
ENDBRANCH   2  11
BRANCH   3  13
ATOM     13  O   UNL     1      19.717  -8.162   3.875  1.00  0.00    -0.387 OA
ATOM     14  H   UNL     1      18.960  -8.456   3.303  1.00  0.00     0.211 HD
ENDBRANCH   3  13
BRANCH   4  15
ATOM     15  C   UNL     1      16.795  -6.438   4.749  1.00  0.00     0.191 C 
BRANCH  15  16
ATOM     16  O   UNL     1      16.003  -5.988   5.816  1.00  0.00    -0.394 OA
ATOM     17  H   UNL     1      16.127  -5.005   5.876  1.00  0.00     0.210 HD
ENDBRANCH  15  16
ENDBRANCH   4  15
TORSDOF 7
ENDMDL
MODEL 7
REMARK VINA RESULT:    -3.143      1.211      4.083
REMARK INTER + INTRA:          -4.434
REMARK INTER:                  -4.004
REMARK INTRA:                  -0.430
REMARK UNBOUND:                -0.373
REMARK SMILES CO[C@]1(CO)O[C@@H](CO)[C@H](O)[C@H]1O
REMARK SMILES IDX 3 1 12 2 10 3 7 4 6 5 2 6 1 7 4 8 5 9 13 11 11 13 8 15 9 16
REMARK H PARENT 5 10 13 12 11 14 9 17
REMARK Flexibility Score: inf
ROOT
ATOM      1  C   UNL     1      19.694  -8.124   5.658  1.00  0.00     0.221 C 
ATOM      2  C   UNL     1      19.712  -8.295   7.188  1.00  0.00     0.207 C 
ATOM      3  C   UNL     1      18.839  -7.144   7.665  1.00  0.00     0.180 C 
ATOM      4  C   UNL     1      18.089  -6.697   6.399  1.00  0.00     0.179 C 
ATOM      5  O   UNL     1      18.433  -7.569   5.343  1.00  0.00    -0.337 OA
ENDROOT
BRANCH   1   6
ATOM      6  O   UNL     1      20.752  -7.219   5.334  1.00  0.00    -0.349 OA
ATOM      7  C   UNL     1      20.939  -7.030   3.944  1.00  0.00     0.198 C 
ENDBRANCH   1   6
BRANCH   1   8
ATOM      8  C   UNL     1      19.881  -9.487   4.930  1.00  0.00     0.224 C 
BRANCH   8   9
ATOM      9  O   UNL     1      18.654 -10.124   4.693  1.00  0.00    -0.391 OA
ATOM     10  H   UNL     1      18.026  -9.428   4.368  1.00  0.00     0.210 HD
ENDBRANCH   8   9
ENDBRANCH   1   8
BRANCH   2  11
ATOM     11  O   UNL     1      19.133  -9.515   7.586  1.00  0.00    -0.385 OA
ATOM     12  H   UNL     1      18.232  -9.551   7.173  1.00  0.00     0.211 HD
ENDBRANCH   2  11
BRANCH   3  13
ATOM     13  O   UNL     1      19.608  -6.097   8.209  1.00  0.00    -0.387 OA
ATOM     14  H   UNL     1      19.214  -5.235   7.913  1.00  0.00     0.211 HD
ENDBRANCH   3  13
BRANCH   4  15
ATOM     15  C   UNL     1      16.566  -6.706   6.582  1.00  0.00     0.191 C 
BRANCH  15  16
ATOM     16  O   UNL     1      16.231  -6.505   7.930  1.00  0.00    -0.394 OA
ATOM     17  H   UNL     1      17.081  -6.491   8.441  1.00  0.00     0.210 HD
ENDBRANCH  15  16
ENDBRANCH   4  15
TORSDOF 7
ENDMDL
MODEL 8
REMARK VINA RESULT:    -3.129      1.827      3.885
REMARK INTER + INTRA:          -4.417
REMARK INTER:                  -4.080
REMARK INTRA:                  -0.337
REMARK UNBOUND:                -0.373
REMARK SMILES CO[C@]1(CO)O[C@@H](CO)[C@H](O)[C@H]1O
REMARK SMILES IDX 3 1 12 2 10 3 7 4 6 5 2 6 1 7 4 8 5 9 13 11 11 13 8 15 9 16
REMARK H PARENT 5 10 13 12 11 14 9 17
REMARK Flexibility Score: inf
ROOT
ATOM      1  C   UNL     1      18.809  -7.294   6.189  1.00  0.00     0.221 C 
ATOM      2  C   UNL     1      18.662  -8.651   5.476  1.00  0.00     0.207 C 
ATOM      3  C   UNL     1      17.183  -8.962   5.645  1.00  0.00     0.180 C 
ATOM      4  C   UNL     1      16.564  -7.612   6.048  1.00  0.00     0.179 C 
ATOM      5  O   UNL     1      17.575  -6.627   6.013  1.00  0.00    -0.337 OA
ENDROOT
BRANCH   1   6
ATOM      6  O   UNL     1      19.050  -7.579   7.568  1.00  0.00    -0.349 OA
ATOM      7  C   UNL     1      19.031  -6.436   8.402  1.00  0.00     0.198 C 
ENDBRANCH   1   6
BRANCH   1   8
ATOM      8  C   UNL     1      19.968  -6.453   5.580  1.00  0.00     0.224 C 
BRANCH   8   9
ATOM      9  O   UNL     1      21.173  -7.170   5.552  1.00  0.00    -0.391 OA
ATOM     10  H   UNL     1      21.244  -7.650   6.417  1.00  0.00     0.210 HD
ENDBRANCH   8   9
ENDBRANCH   1   8
BRANCH   2  11
ATOM     11  O   UNL     1      18.966  -8.558   4.105  1.00  0.00    -0.385 OA
ATOM     12  H   UNL     1      19.264  -7.625   3.942  1.00  0.00     0.211 HD
ENDBRANCH   2  11
BRANCH   3  13
ATOM     13  O   UNL     1      16.965  -9.946   6.628  1.00  0.00    -0.387 OA
ATOM     14  H   UNL     1      17.152 -10.835   6.225  1.00  0.00     0.211 HD
ENDBRANCH   3  13
BRANCH   4  15
ATOM     15  C   UNL     1      15.418  -7.189   5.119  1.00  0.00     0.191 C 
BRANCH  15  16
ATOM     16  O   UNL     1      14.202  -7.163   5.818  1.00  0.00    -0.394 OA
ATOM     17  H   UNL     1      14.232  -7.901   6.480  1.00  0.00     0.210 HD
ENDBRANCH  15  16
ENDBRANCH   4  15
TORSDOF 7
ENDMDL
MODEL 9
REMARK VINA RESULT:    -2.954      1.579      3.723
REMARK INTER + INTRA:          -4.190
REMARK INTER:                  -3.740
REMARK INTRA:                  -0.450
REMARK UNBOUND:                -0.373
REMARK SMILES CO[C@]1(CO)O[C@@H](CO)[C@H](O)[C@H]1O
REMARK SMILES IDX 3 1 12 2 10 3 7 4 6 5 2 6 1 7 4 8 5 9 13 11 11 13 8 15 9 16
REMARK H PARENT 5 10 13 12 11 14 9 17
REMARK Flexibility Score: inf
ROOT
ATOM      1  C   UNL     1      18.844  -7.619   5.591  1.00  0.00     0.221 C 
ATOM      2  C   UNL     1      19.222  -6.372   6.411  1.00  0.00     0.207 C 
ATOM      3  C   UNL     1      19.053  -6.849   7.846  1.00  0.00     0.180 C 
ATOM      4  C   UNL     1      19.010  -8.382   7.724  1.00  0.00     0.179 C 
ATOM      5  O   UNL     1      19.230  -8.731   6.374  1.00  0.00    -0.337 OA
ENDROOT
BRANCH   1   6
ATOM      6  O   UNL     1      17.428  -7.580   5.412  1.00  0.00    -0.349 OA
ATOM      7  C   UNL     1      16.969  -6.442   4.708  1.00  0.00     0.198 C 
ENDBRANCH   1   6
BRANCH   1   8
ATOM      8  C   UNL     1      19.581  -7.643   4.220  1.00  0.00     0.224 C 
BRANCH   8   9
ATOM      9  O   UNL     1      20.887  -8.140   4.339  1.00  0.00    -0.391 OA
ATOM     10  H   UNL     1      20.867  -8.838   5.045  1.00  0.00     0.210 HD
ENDBRANCH   8   9
ENDBRANCH   1   8
BRANCH   2  11
ATOM     11  O   UNL     1      20.560  -5.991   6.200  1.00  0.00    -0.385 OA
ATOM     12  H   UNL     1      21.011  -6.763   5.769  1.00  0.00     0.211 HD
ENDBRANCH   2  11
BRANCH   3  13
ATOM     13  O   UNL     1      17.875  -6.343   8.429  1.00  0.00    -0.387 OA
ATOM     14  H   UNL     1      17.803  -6.707   9.350  1.00  0.00     0.211 HD
ENDBRANCH   3  13
BRANCH   4  15
ATOM     15  C   UNL     1      20.065  -9.072   8.599  1.00  0.00     0.191 C 
BRANCH  15  16
ATOM     16  O   UNL     1      19.712  -8.988   9.955  1.00  0.00    -0.394 OA
ATOM     17  H   UNL     1      20.210  -8.221  10.338  1.00  0.00     0.210 HD
ENDBRANCH  15  16
ENDBRANCH   4  15
TORSDOF 7
ENDMDL
