MODEL 1
REMARK VINA RESULT:    -4.205      0.000      0.000
REMARK INTER + INTRA:          -6.487
REMARK INTER:                  -6.418
REMARK INTRA:                  -0.069
REMARK UNBOUND:                -0.069
REMARK SMILES CC1=CCC[C@@H](C)C(=O)C[C@H](C(C)C)C(=O)C1
REMARK SMILES IDX 8 1 9 2 6 3 7 4 5 5 4 6 3 7 2 8 1 9 10 11 11 12 15 13 16 14
REMARK SMILES IDX 17 15 12 17 13 18 14 19
REMARK H PARENT
REMARK Flexibility Score: 70.00
ROOT
ATOM      1  C   UNL     1      18.760  -9.850  64.115  1.00  0.00     0.136 C 
ATOM      2  O   UNL     1      18.552 -10.032  62.922  1.00  0.00    -0.299 OA
ENDROOT
BRANCH   1   3
ATOM      3  C   UNL     1      20.094  -9.290  64.566  1.00  0.00     0.053 C 
ATOM      4  C   UNL     1      21.237  -9.875  63.725  1.00  0.00     0.016 C 
BRANCH   3   5
ATOM      5  C   UNL     1      20.312  -9.574  66.070  1.00  0.00     0.015 C 
BRANCH   5   6
ATOM      6  C   UNL     1      21.060 -10.901  66.309  1.00  0.00     0.028 C 
BRANCH   6   7
ATOM      7  C   UNL     1      20.812 -11.428  67.699  1.00  0.00    -0.028 C 
ATOM      8  C   UNL     1      19.902 -12.376  68.022  1.00  0.00    -0.070 CG0
ATOM      9  C   UNL     1      19.831 -12.827  69.458  1.00  0.00     0.039 C 
ATOM     10  G   UNL     1      18.963 -13.014  67.009  1.00  0.00     0.000 G0
ENDBRANCH   6   7
ENDBRANCH   5   6
ENDBRANCH   3   5
ENDBRANCH   1   3
BRANCH   1  11
ATOM     11  C   UNL     1      17.675 -10.190  65.110  1.00  0.00     0.087 C 
BRANCH  11  12
ATOM     12  C   UNL     1      17.466 -11.719  65.263  1.00  0.00     0.066 C 
BRANCH  12  13
ATOM     13  C   UNL     1      17.759 -12.169  66.689  1.00  0.00     0.140 C 
ATOM     14  O   UNL     1      17.038 -11.765  67.591  1.00  0.00    -0.299 OA
BRANCH  13  15
ATOM     15  C   UNL     1      18.952 -13.032  67.030  1.00  0.00     0.106 CG0
ATOM     16  G   UNL     1      19.887 -12.359  68.023  1.00  0.00     0.000 G0
ENDBRANCH  13  15
ENDBRANCH  12  13
BRANCH  12  17
ATOM     17  C   UNL     1      16.054 -12.193  64.790  1.00  0.00    -0.006 C 
ATOM     18  C   UNL     1      15.187 -11.031  64.273  1.00  0.00     0.008 C 
ATOM     19  C   UNL     1      16.171 -13.254  63.679  1.00  0.00     0.008 C 
ENDBRANCH  12  17
ENDBRANCH  11  12
ENDBRANCH   1  11
TORSDOF 1
ENDMDL
MODEL 2
REMARK VINA RESULT:    -3.874      1.945      4.275
REMARK INTER + INTRA:          -5.982
REMARK INTER:                  -6.138
REMARK INTRA:                   0.156
REMARK UNBOUND:                -0.069
REMARK SMILES CC1=CCC[C@@H](C)C(=O)C[C@H](C(C)C)C(=O)C1
REMARK SMILES IDX 8 1 9 2 6 3 7 4 5 5 4 6 3 7 2 8 1 9 10 11 11 12 15 13 16 14
REMARK SMILES IDX 17 15 12 17 13 18 14 19
REMARK H PARENT
REMARK Flexibility Score: 70.00
ROOT
ATOM      1  C   UNL     1      17.352 -10.831  66.180  1.00  0.00     0.136 C 
ATOM      2  O   UNL     1      16.486 -11.583  66.608  1.00  0.00    -0.299 OA
ENDROOT
BRANCH   1   3
ATOM      3  C   UNL     1      17.076  -9.994  64.947  1.00  0.00     0.053 C 
ATOM      4  C   UNL     1      15.728 -10.384  64.322  1.00  0.00     0.016 C 
BRANCH   3   5
ATOM      5  C   UNL     1      18.225 -10.151  63.926  1.00  0.00     0.015 C 
BRANCH   5   6
ATOM      6  C   UNL     1      19.430  -9.250  64.263  1.00  0.00     0.028 C 
BRANCH   6   7
ATOM      7  C   UNL     1      20.723  -9.863  63.789  1.00  0.00    -0.028 C 
ATOM      8  C   UNL     1      21.611 -10.513  64.576  1.00  0.00    -0.070 CG0
ATOM      9  C   UNL     1      22.826 -11.118  63.920  1.00  0.00     0.039 C 
ATOM     10  G   UNL     1      21.435 -10.675  66.079  1.00  0.00     0.000 G0
ENDBRANCH   6   7
ENDBRANCH   5   6
ENDBRANCH   3   5
ENDBRANCH   1   3
BRANCH   1  11
ATOM     11  C   UNL     1      18.681 -10.757  66.896  1.00  0.00     0.087 C 
BRANCH  11  12
ATOM     12  C   UNL     1      19.396 -12.131  66.965  1.00  0.00     0.066 C 
BRANCH  12  13
ATOM     13  C   UNL     1      20.829 -12.024  66.455  1.00  0.00     0.140 C 
ATOM     14  O   UNL     1      21.510 -13.039  66.399  1.00  0.00    -0.299 OA
BRANCH  13  15
ATOM     15  C   UNL     1      21.453 -10.696  66.090  1.00  0.00     0.106 CG0
ATOM     16  G   UNL     1      21.596 -10.520  64.586  1.00  0.00     0.000 G0
ENDBRANCH  13  15
ENDBRANCH  12  13
BRANCH  12  17
ATOM     17  C   UNL     1      19.340 -12.779  68.386  1.00  0.00    -0.006 C 
ATOM     18  C   UNL     1      19.092 -11.741  69.495  1.00  0.00     0.008 C 
ATOM     19  C   UNL     1      18.238 -13.852  68.459  1.00  0.00     0.008 C 
ENDBRANCH  12  17
ENDBRANCH  11  12
ENDBRANCH   1  11
TORSDOF 1
ENDMDL
MODEL 3
REMARK VINA RESULT:    -3.791     15.849     18.013
REMARK INTER + INTRA:          -5.855
REMARK INTER:                  -5.718
REMARK INTRA:                  -0.137
REMARK UNBOUND:                -0.069
REMARK SMILES CC1=CCC[C@@H](C)C(=O)C[C@H](C(C)C)C(=O)C1
REMARK SMILES IDX 8 1 9 2 6 3 7 4 5 5 4 6 3 7 2 8 1 9 10 11 11 12 15 13 16 14
REMARK SMILES IDX 17 15 12 17 13 18 14 19
REMARK H PARENT
REMARK Flexibility Score: 70.00
ROOT
ATOM      1  C   UNL     1       9.111   0.091  62.278  1.00  0.00     0.136 C 
ATOM      2  O   UNL     1       9.505  -0.746  63.081  1.00  0.00    -0.299 OA
ENDROOT
BRANCH   1   3
ATOM      3  C   UNL     1      10.068   1.151  61.771  1.00  0.00     0.053 C 
ATOM      4  C   UNL     1      11.499   0.598  61.706  1.00  0.00     0.016 C 
BRANCH   3   5
ATOM      5  C   UNL     1      10.001   2.407  62.670  1.00  0.00     0.015 C 
BRANCH   5   6
ATOM      6  C   UNL     1       9.652   3.678  61.869  1.00  0.00     0.028 C 
BRANCH   6   7
ATOM      7  C   UNL     1       9.355   3.353  60.428  1.00  0.00    -0.028 C 
ATOM      8  C   UNL     1       8.117   3.242  59.893  1.00  0.00    -0.070 CG0
ATOM      9  C   UNL     1       8.008   2.970  58.415  1.00  0.00     0.039 C 
ATOM     10  G   UNL     1       6.839   3.391  60.705  1.00  0.00     0.000 G0
ENDBRANCH   6   7
ENDBRANCH   5   6
ENDBRANCH   3   5
ENDBRANCH   1   3
BRANCH   1  11
ATOM     11  C   UNL     1       7.674   0.044  61.812  1.00  0.00     0.087 C 
BRANCH  11  12
ATOM     12  C   UNL     1       6.850   1.263  62.302  1.00  0.00     0.066 C 
BRANCH  12  13
ATOM     13  C   UNL     1       6.273   2.038  61.124  1.00  0.00     0.140 C 
ATOM     14  O   UNL     1       5.372   1.529  60.472  1.00  0.00    -0.299 OA
BRANCH  13  15
ATOM     15  C   UNL     1       6.829   3.376  60.694  1.00  0.00     0.106 CG0
ATOM     16  G   UNL     1       8.127   3.237  59.913  1.00  0.00     0.000 G0
ENDBRANCH  13  15
ENDBRANCH  12  13
BRANCH  12  17
ATOM     17  C   UNL     1       5.742   0.876  63.334  1.00  0.00    -0.006 C 
ATOM     18  C   UNL     1       5.392  -0.622  63.286  1.00  0.00     0.008 C 
ATOM     19  C   UNL     1       6.173   1.236  64.768  1.00  0.00     0.008 C 
ENDBRANCH  12  17
ENDBRANCH  11  12
ENDBRANCH   1  11
TORSDOF 1
ENDMDL
MODEL 4
REMARK VINA RESULT:    -3.773      1.520      2.019
REMARK INTER + INTRA:          -5.827
REMARK INTER:                  -5.654
REMARK INTRA:                  -0.174
REMARK UNBOUND:                -0.069
REMARK SMILES CC1=CCC[C@@H](C)C(=O)C[C@H](C(C)C)C(=O)C1
REMARK SMILES IDX 8 1 9 2 6 3 7 4 5 5 4 6 3 7 2 8 1 9 10 11 11 12 15 13 16 14
REMARK SMILES IDX 17 15 12 17 13 18 14 19
REMARK H PARENT
REMARK Flexibility Score: 70.00
ROOT
ATOM      1  C   UNL     1      20.594 -10.583  64.924  1.00  0.00     0.136 C 
ATOM      2  O   UNL     1      20.993 -10.492  63.770  1.00  0.00    -0.299 OA
ENDROOT
BRANCH   1   3
ATOM      3  C   UNL     1      21.464 -11.257  65.967  1.00  0.00     0.053 C 
ATOM      4  C   UNL     1      22.948 -10.970  65.697  1.00  0.00     0.016 C 
BRANCH   3   5
ATOM      5  C   UNL     1      21.190 -12.778  65.989  1.00  0.00     0.015 C 
BRANCH   5   6
ATOM      6  C   UNL     1      20.798 -13.279  67.394  1.00  0.00     0.028 C 
BRANCH   6   7
ATOM      7  C   UNL     1      20.530 -12.128  68.330  1.00  0.00    -0.028 C 
ATOM      8  C   UNL     1      19.313 -11.591  68.575  1.00  0.00    -0.070 CG0
ATOM      9  C   UNL     1      19.223 -10.480  69.591  1.00  0.00     0.039 C 
ATOM     10  G   UNL     1      18.038 -12.060  67.891  1.00  0.00     0.000 G0
ENDBRANCH   6   7
ENDBRANCH   5   6
ENDBRANCH   3   5
ENDBRANCH   1   3
BRANCH   1  11
ATOM     11  C   UNL     1      19.239 -10.018  65.281  1.00  0.00     0.087 C 
BRANCH  11  12
ATOM     12  C   UNL     1      18.156 -11.119  65.430  1.00  0.00     0.066 C 
BRANCH  12  13
ATOM     13  C   UNL     1      17.554 -11.103  66.830  1.00  0.00     0.140 C 
ATOM     14  O   UNL     1      16.714 -10.255  67.098  1.00  0.00    -0.299 OA
BRANCH  13  15
ATOM     15  C   UNL     1      18.017 -12.050  67.913  1.00  0.00     0.106 CG0
ATOM     16  G   UNL     1      19.305 -11.585  68.575  1.00  0.00     0.000 G0
ENDBRANCH  13  15
ENDBRANCH  12  13
BRANCH  12  17
ATOM     17  C   UNL     1      17.050 -11.041  64.328  1.00  0.00    -0.006 C 
ATOM     18  C   UNL     1      17.324  -9.929  63.299  1.00  0.00     0.008 C 
ATOM     19  C   UNL     1      16.919 -12.382  63.583  1.00  0.00     0.008 C 
ENDBRANCH  12  17
ENDBRANCH  11  12
ENDBRANCH   1  11
TORSDOF 1
ENDMDL
MODEL 5
REMARK VINA RESULT:    -3.704     15.449     17.444
REMARK INTER + INTRA:          -5.722
REMARK INTER:                  -5.915
REMARK INTRA:                   0.193
REMARK UNBOUND:                -0.069
REMARK SMILES CC1=CCC[C@@H](C)C(=O)C[C@H](C(C)C)C(=O)C1
REMARK SMILES IDX 8 1 9 2 6 3 7 4 5 5 4 6 3 7 2 8 1 9 10 11 11 12 15 13 16 14
REMARK SMILES IDX 17 15 12 17 13 18 14 19
REMARK H PARENT
REMARK Flexibility Score: 70.00
ROOT
ATOM      1  C   UNL     1       8.838   3.190  63.570  1.00  0.00     0.136 C 
ATOM      2  O   UNL     1      10.056   3.248  63.676  1.00  0.00    -0.299 OA
ENDROOT
BRANCH   1   3
ATOM      3  C   UNL     1       8.109   4.216  62.726  1.00  0.00     0.053 C 
ATOM      4  C   UNL     1       6.642   3.808  62.529  1.00  0.00     0.016 C 
BRANCH   3   5
ATOM      5  C   UNL     1       8.822   4.393  61.366  1.00  0.00     0.015 C 
BRANCH   5   6
ATOM      6  C   UNL     1       8.508   3.240  60.391  1.00  0.00     0.028 C 
BRANCH   6   7
ATOM      7  C   UNL     1       9.685   2.308  60.248  1.00  0.00    -0.028 C 
ATOM      8  C   UNL     1       9.665   0.983  60.518  1.00  0.00    -0.070 CG0
ATOM      9  C   UNL     1      10.922   0.191  60.260  1.00  0.00     0.039 C 
ATOM     10  G   UNL     1       8.440   0.256  61.052  1.00  0.00     0.000 G0
ENDBRANCH   6   7
ENDBRANCH   5   6
ENDBRANCH   3   5
ENDBRANCH   1   3
BRANCH   1  11
ATOM     11  C   UNL     1       8.090   2.091  64.288  1.00  0.00     0.087 C 
BRANCH  11  12
ATOM     12  C   UNL     1       7.358   1.134  63.311  1.00  0.00     0.066 C 
BRANCH  12  13
ATOM     13  C   UNL     1       8.355   0.260  62.558  1.00  0.00     0.140 C 
ATOM     14  O   UNL     1       9.152  -0.408  63.201  1.00  0.00    -0.299 OA
BRANCH  13  15
ATOM     15  C   UNL     1       8.436   0.254  61.049  1.00  0.00     0.106 CG0
ATOM     16  G   UNL     1       9.669   0.981  60.534  1.00  0.00     0.000 G0
ENDBRANCH  13  15
ENDBRANCH  12  13
BRANCH  12  17
ATOM     17  C   UNL     1       6.255   0.275  64.009  1.00  0.00    -0.006 C 
ATOM     18  C   UNL     1       5.474   1.072  65.070  1.00  0.00     0.008 C 
ATOM     19  C   UNL     1       5.256  -0.284  62.978  1.00  0.00     0.008 C 
ENDBRANCH  12  17
ENDBRANCH  11  12
ENDBRANCH   1  11
TORSDOF 1
ENDMDL
MODEL 6
REMARK VINA RESULT:    -3.639      6.999      9.725
REMARK INTER + INTRA:          -5.623
REMARK INTER:                  -5.485
REMARK INTRA:                  -0.138
REMARK UNBOUND:                -0.069
REMARK SMILES CC1=CCC[C@@H](C)C(=O)C[C@H](C(C)C)C(=O)C1
REMARK SMILES IDX 8 1 9 2 6 3 7 4 5 5 4 6 3 7 2 8 1 9 10 11 11 12 15 13 16 14
REMARK SMILES IDX 17 15 12 17 13 18 14 19
REMARK H PARENT
REMARK Flexibility Score: 70.00
ROOT
ATOM      1  C   UNL     1      12.511  -6.477  62.928  1.00  0.00     0.136 C 
ATOM      2  O   UNL     1      11.730  -7.087  63.646  1.00  0.00    -0.299 OA
ENDROOT
BRANCH   1   3
ATOM      3  C   UNL     1      12.067  -5.190  62.262  1.00  0.00     0.053 C 
ATOM      4  C   UNL     1      11.498  -4.214  63.302  1.00  0.00     0.016 C 
BRANCH   3   5
ATOM      5  C   UNL     1      11.028  -5.490  61.158  1.00  0.00     0.015 C 
BRANCH   5   6
ATOM      6  C   UNL     1      11.610  -5.295  59.743  1.00  0.00     0.028 C 
BRANCH   6   7
ATOM      7  C   UNL     1      12.911  -4.536  59.786  1.00  0.00    -0.028 C 
ATOM      8  C   UNL     1      14.131  -5.066  59.540  1.00  0.00    -0.070 CG0
ATOM      9  C   UNL     1      15.322  -4.142  59.568  1.00  0.00     0.039 C 
ATOM     10  G   UNL     1      14.356  -6.538  59.226  1.00  0.00     0.000 G0
ENDBRANCH   6   7
ENDBRANCH   5   6
ENDBRANCH   3   5
ENDBRANCH   1   3
BRANCH   1  11
ATOM     11  C   UNL     1      13.905  -7.025  62.724  1.00  0.00     0.087 C 
BRANCH  11  12
ATOM     12  C   UNL     1      14.009  -7.932  61.471  1.00  0.00     0.066 C 
BRANCH  12  13
ATOM     13  C   UNL     1      14.915  -7.304  60.419  1.00  0.00     0.140 C 
ATOM     14  O   UNL     1      16.126  -7.367  60.575  1.00  0.00    -0.299 OA
BRANCH  13  15
ATOM     15  C   UNL     1      14.362  -6.545  59.234  1.00  0.00     0.106 CG0
ATOM     16  G   UNL     1      14.150  -5.071  59.542  1.00  0.00     0.000 G0
ENDBRANCH  13  15
ENDBRANCH  12  13
BRANCH  12  17
ATOM     17  C   UNL     1      14.448  -9.393  61.809  1.00  0.00    -0.006 C 
ATOM     18  C   UNL     1      15.353  -9.461  63.053  1.00  0.00     0.008 C 
ATOM     19  C   UNL     1      13.224 -10.299  62.039  1.00  0.00     0.008 C 
ENDBRANCH  12  17
ENDBRANCH  11  12
ENDBRANCH   1  11
TORSDOF 1
ENDMDL
MODEL 7
REMARK VINA RESULT:    -3.608     16.097     18.350
REMARK INTER + INTRA:          -5.575
REMARK INTER:                  -5.618
REMARK INTRA:                   0.043
REMARK UNBOUND:                -0.069
REMARK SMILES CC1=CCC[C@@H](C)C(=O)C[C@H](C(C)C)C(=O)C1
REMARK SMILES IDX 8 1 9 2 6 3 7 4 5 5 4 6 3 7 2 8 1 9 10 11 11 12 15 13 16 14
REMARK SMILES IDX 17 15 12 17 13 18 14 19
REMARK H PARENT
REMARK Flexibility Score: 70.00
ROOT
ATOM      1  C   UNL     1       6.854   2.391  63.933  1.00  0.00     0.136 C 
ATOM      2  O   UNL     1       7.876   2.298  64.601  1.00  0.00    -0.299 OA
ENDROOT
BRANCH   1   3
ATOM      3  C   UNL     1       5.627   1.592  64.325  1.00  0.00     0.053 C 
ATOM      4  C   UNL     1       5.046   2.113  65.648  1.00  0.00     0.016 C 
BRANCH   3   5
ATOM      5  C   UNL     1       5.978   0.090  64.428  1.00  0.00     0.015 C 
BRANCH   5   6
ATOM      6  C   UNL     1       5.903  -0.619  63.061  1.00  0.00     0.028 C 
BRANCH   6   7
ATOM      7  C   UNL     1       7.269  -0.751  62.437  1.00  0.00    -0.028 C 
ATOM      8  C   UNL     1       7.683  -0.103  61.324  1.00  0.00    -0.070 CG0
ATOM      9  C   UNL     1       9.106  -0.309  60.875  1.00  0.00     0.039 C 
ATOM     10  G   UNL     1       6.790   0.829  60.518  1.00  0.00     0.000 G0
ENDBRANCH   6   7
ENDBRANCH   5   6
ENDBRANCH   3   5
ENDBRANCH   1   3
BRANCH   1  11
ATOM     11  C   UNL     1       6.843   3.304  62.729  1.00  0.00     0.087 C 
BRANCH  11  12
ATOM     12  C   UNL     1       7.937   2.935  61.693  1.00  0.00     0.066 C 
BRANCH  12  13
ATOM     13  C   UNL     1       7.323   2.257  60.474  1.00  0.00     0.140 C 
ATOM     14  O   UNL     1       7.203   2.903  59.441  1.00  0.00    -0.299 OA
BRANCH  13  15
ATOM     15  C   UNL     1       6.794   0.842  60.524  1.00  0.00     0.106 CG0
ATOM     16  G   UNL     1       7.695  -0.083  61.328  1.00  0.00     0.000 G0
ENDBRANCH  13  15
ENDBRANCH  12  13
BRANCH  12  17
ATOM     17  C   UNL     1       8.828   4.152  61.285  1.00  0.00    -0.006 C 
ATOM     18  C   UNL     1       8.821   5.267  62.347  1.00  0.00     0.008 C 
ATOM     19  C   UNL     1      10.284   3.712  61.041  1.00  0.00     0.008 C 
ENDBRANCH  12  17
ENDBRANCH  11  12
ENDBRANCH   1  11
TORSDOF 1
ENDMDL
MODEL 8
REMARK VINA RESULT:    -3.571      5.570      8.818
REMARK INTER + INTRA:          -5.519
REMARK INTER:                  -5.451
REMARK INTRA:                  -0.068
REMARK UNBOUND:                -0.069
REMARK SMILES CC1=CCC[C@@H](C)C(=O)C[C@H](C(C)C)C(=O)C1
REMARK SMILES IDX 8 1 9 2 6 3 7 4 5 5 4 6 3 7 2 8 1 9 10 11 11 12 15 13 16 14
REMARK SMILES IDX 17 15 12 17 13 18 14 19
REMARK H PARENT
REMARK Flexibility Score: 70.00
ROOT
ATOM      1  C   UNL     1      12.749 -12.449  60.917  1.00  0.00     0.136 C 
ATOM      2  O   UNL     1      13.704 -13.207  61.032  1.00  0.00    -0.299 OA
ENDROOT
BRANCH   1   3
ATOM      3  C   UNL     1      11.918 -12.477  59.650  1.00  0.00     0.053 C 
ATOM      4  C   UNL     1      11.334 -13.879  59.420  1.00  0.00     0.016 C 
BRANCH   3   5
ATOM      5  C   UNL     1      12.770 -12.028  58.442  1.00  0.00     0.015 C 
BRANCH   5   6
ATOM      6  C   UNL     1      13.695 -10.844  58.791  1.00  0.00     0.028 C 
BRANCH   6   7
ATOM      7  C   UNL     1      12.928  -9.548  58.848  1.00  0.00    -0.028 C 
ATOM      8  C   UNL     1      13.120  -8.569  59.763  1.00  0.00    -0.070 CG0
ATOM      9  C   UNL     1      12.301  -7.311  59.633  1.00  0.00     0.039 C 
ATOM     10  G   UNL     1      14.125  -8.673  60.900  1.00  0.00     0.000 G0
ENDBRANCH   6   7
ENDBRANCH   5   6
ENDBRANCH   3   5
ENDBRANCH   1   3
BRANCH   1  11
ATOM     11  C   UNL     1      12.422 -11.502  62.049  1.00  0.00     0.087 C 
BRANCH  11  12
ATOM     12  C   UNL     1      13.661 -10.705  62.532  1.00  0.00     0.066 C 
BRANCH  12  13
ATOM     13  C   UNL     1      13.532  -9.229  62.173  1.00  0.00     0.140 C 
ATOM     14  O   UNL     1      12.870  -8.503  62.902  1.00  0.00    -0.299 OA
BRANCH  13  15
ATOM     15  C   UNL     1      14.131  -8.656  60.909  1.00  0.00     0.106 CG0
ATOM     16  G   UNL     1      13.117  -8.570  59.778  1.00  0.00     0.000 G0
ENDBRANCH  13  15
ENDBRANCH  12  13
BRANCH  12  17
ATOM     17  C   UNL     1      13.958 -10.901  64.054  1.00  0.00    -0.006 C 
ATOM     18  C   UNL     1      13.651 -12.332  64.532  1.00  0.00     0.008 C 
ATOM     19  C   UNL     1      15.429 -10.579  64.375  1.00  0.00     0.008 C 
ENDBRANCH  12  17
ENDBRANCH  11  12
ENDBRANCH   1  11
TORSDOF 1
ENDMDL
MODEL 9
REMARK VINA RESULT:    -3.531     15.404     17.781
REMARK INTER + INTRA:          -5.458
REMARK INTER:                  -5.396
REMARK INTRA:                  -0.062
REMARK UNBOUND:                -0.069
REMARK SMILES CC1=CCC[C@@H](C)C(=O)C[C@H](C(C)C)C(=O)C1
REMARK SMILES IDX 8 1 9 2 6 3 7 4 5 5 4 6 3 7 2 8 1 9 10 11 11 12 15 13 16 14
REMARK SMILES IDX 17 15 12 17 13 18 14 19
REMARK H PARENT
REMARK Flexibility Score: 70.00
ROOT
ATOM      1  C   UNL     1       7.497  -0.315  62.201  1.00  0.00     0.136 C 
ATOM      2  O   UNL     1       7.256  -1.431  61.759  1.00  0.00    -0.299 OA
ENDROOT
BRANCH   1   3
ATOM      3  C   UNL     1       6.428   0.758  62.148  1.00  0.00     0.053 C 
ATOM      4  C   UNL     1       5.256   0.398  63.072  1.00  0.00     0.016 C 
BRANCH   3   5
ATOM      5  C   UNL     1       5.944   0.960  60.694  1.00  0.00     0.015 C 
BRANCH   5   6
ATOM      6  C   UNL     1       6.646   2.149  60.007  1.00  0.00     0.028 C 
BRANCH   6   7
ATOM      7  C   UNL     1       6.785   3.320  60.945  1.00  0.00    -0.028 C 
ATOM      8  C   UNL     1       7.958   3.821  61.396  1.00  0.00    -0.070 CG0
ATOM      9  C   UNL     1       7.911   5.038  62.284  1.00  0.00     0.039 C 
ATOM     10  G   UNL     1       9.313   3.228  61.040  1.00  0.00     0.000 G0
ENDBRANCH   6   7
ENDBRANCH   5   6
ENDBRANCH   3   5
ENDBRANCH   1   3
BRANCH   1  11
ATOM     11  C   UNL     1       8.860  -0.036  62.790  1.00  0.00     0.087 C 
BRANCH  11  12
ATOM     12  C   UNL     1       9.789   0.721  61.806  1.00  0.00     0.066 C 
BRANCH  12  13
ATOM     13  C   UNL     1       9.775   2.219  62.088  1.00  0.00     0.140 C 
ATOM     14  O   UNL     1      10.080   2.609  63.207  1.00  0.00    -0.299 OA
BRANCH  13  15
ATOM     15  C   UNL     1       9.324   3.225  61.054  1.00  0.00     0.106 CG0
ATOM     16  G   UNL     1       7.964   3.821  61.384  1.00  0.00     0.000 G0
ENDBRANCH  13  15
ENDBRANCH  12  13
BRANCH  12  17
ATOM     17  C   UNL     1      11.246   0.155  61.784  1.00  0.00    -0.006 C 
ATOM     18  C   UNL     1      11.304  -1.296  61.272  1.00  0.00     0.008 C 
ATOM     19  C   UNL     1      12.163   1.026  60.905  1.00  0.00     0.008 C 
ENDBRANCH  12  17
ENDBRANCH  11  12
ENDBRANCH   1  11
TORSDOF 1
ENDMDL
