MODEL 1
REMARK VINA RESULT:    -3.544      0.000      0.000
REMARK INTER + INTRA:          -3.989
REMARK INTER:                  -3.958
REMARK INTRA:                  -0.031
REMARK UNBOUND:                -0.031
REMARK SMILES CC(C)CC=O
REMARK SMILES IDX 4 1 2 2 1 3 3 4 5 5 6 6
REMARK H PARENT
REMARK Flexibility Score: inf
ROOT
ATOM      1  C   UNL     1      23.579  56.028  -9.111  1.00  0.00     0.075 C 
ENDROOT
BRANCH   1   2
ATOM      2  C   UNL     1      25.095  56.258  -9.304  1.00  0.00    -0.010 C 
ATOM      3  C   UNL     1      25.935  55.545  -8.235  1.00  0.00     0.008 C 
ATOM      4  C   UNL     1      25.446  57.750  -9.371  1.00  0.00     0.008 C 
ENDBRANCH   1   2
BRANCH   1   5
ATOM      5  C   UNL     1      23.248  55.124  -7.955  1.00  0.00     0.224 C 
ATOM      6  O   UNL     1      22.272  54.392  -7.996  1.00  0.00    -0.303 OA
ENDBRANCH   1   5
TORSDOF 2
ENDMDL
MODEL 2
REMARK VINA RESULT:    -3.488      2.483      3.380
REMARK INTER + INTRA:          -3.927
REMARK INTER:                  -3.904
REMARK INTRA:                  -0.023
REMARK UNBOUND:                -0.031
REMARK SMILES CC(C)CC=O
REMARK SMILES IDX 4 1 2 2 1 3 3 4 5 5 6 6
REMARK H PARENT
REMARK Flexibility Score: inf
ROOT
ATOM      1  C   UNL     1      24.317  56.965  -9.269  1.00  0.00     0.075 C 
ENDROOT
BRANCH   1   2
ATOM      2  C   UNL     1      24.302  55.464  -8.900  1.00  0.00    -0.010 C 
ATOM      3  C   UNL     1      23.053  55.073  -8.097  1.00  0.00     0.008 C 
ATOM      4  C   UNL     1      25.581  55.040  -8.166  1.00  0.00     0.008 C 
ENDBRANCH   1   2
BRANCH   1   5
ATOM      5  C   UNL     1      25.700  57.544  -9.383  1.00  0.00     0.224 C 
ATOM      6  O   UNL     1      25.862  58.715  -9.686  1.00  0.00    -0.303 OA
ENDBRANCH   1   5
TORSDOF 2
ENDMDL
MODEL 3
REMARK VINA RESULT:    -3.117     16.158     16.847
REMARK INTER + INTRA:          -3.513
REMARK INTER:                  -3.452
REMARK INTRA:                  -0.061
REMARK UNBOUND:                -0.031
REMARK SMILES CC(C)CC=O
REMARK SMILES IDX 4 1 2 2 1 3 3 4 5 5 6 6
REMARK H PARENT
REMARK Flexibility Score: inf
ROOT
ATOM      1  C   UNL     1      14.607  42.763 -15.108  1.00  0.00     0.075 C 
ENDROOT
BRANCH   1   2
ATOM      2  C   UNL     1      14.059  43.240 -13.744  1.00  0.00    -0.010 C 
ATOM      3  C   UNL     1      13.929  44.768 -13.669  1.00  0.00     0.008 C 
ATOM      4  C   UNL     1      14.890  42.703 -12.572  1.00  0.00     0.008 C 
ENDBRANCH   1   2
BRANCH   1   5
ATOM      5  C   UNL     1      15.751  43.593 -15.622  1.00  0.00     0.224 C 
ATOM      6  O   UNL     1      16.888  43.148 -15.633  1.00  0.00    -0.303 OA
ENDBRANCH   1   5
TORSDOF 2
ENDMDL
MODEL 4
REMARK VINA RESULT:    -3.059     15.000     16.358
REMARK INTER + INTRA:          -3.448
REMARK INTER:                  -3.415
REMARK INTRA:                  -0.032
REMARK UNBOUND:                -0.031
REMARK SMILES CC(C)CC=O
REMARK SMILES IDX 4 1 2 2 1 3 3 4 5 5 6 6
REMARK H PARENT
REMARK Flexibility Score: inf
ROOT
ATOM      1  C   UNL     1      19.213  42.803   0.960  1.00  0.00     0.075 C 
ENDROOT
BRANCH   1   2
ATOM      2  C   UNL     1      18.474  43.696  -0.061  1.00  0.00    -0.010 C 
ATOM      3  C   UNL     1      19.243  44.988  -0.371  1.00  0.00     0.008 C 
ATOM      4  C   UNL     1      17.038  44.005   0.380  1.00  0.00     0.008 C 
ENDBRANCH   1   2
BRANCH   1   5
ATOM      5  C   UNL     1      20.703  42.760   0.757  1.00  0.00     0.224 C 
ATOM      6  O   UNL     1      21.193  42.066  -0.121  1.00  0.00    -0.303 OA
ENDBRANCH   1   5
TORSDOF 2
ENDMDL
MODEL 5
REMARK VINA RESULT:    -3.032     16.153     16.770
REMARK INTER + INTRA:          -3.417
REMARK INTER:                  -3.349
REMARK INTRA:                  -0.068
REMARK UNBOUND:                -0.031
REMARK SMILES CC(C)CC=O
REMARK SMILES IDX 4 1 2 2 1 3 3 4 5 5 6 6
REMARK H PARENT
REMARK Flexibility Score: inf
ROOT
ATOM      1  C   UNL     1      14.730  42.135 -14.367  1.00  0.00     0.075 C 
ENDROOT
BRANCH   1   2
ATOM      2  C   UNL     1      14.750  43.483 -15.120  1.00  0.00    -0.010 C 
ATOM      3  C   UNL     1      16.111  43.769 -15.771  1.00  0.00     0.008 C 
ATOM      4  C   UNL     1      14.316  44.649 -14.222  1.00  0.00     0.008 C 
ENDBRANCH   1   2
BRANCH   1   5
ATOM      5  C   UNL     1      16.021  41.818 -13.663  1.00  0.00     0.224 C 
ATOM      6  O   UNL     1      16.130  41.982 -12.458  1.00  0.00    -0.303 OA
ENDBRANCH   1   5
TORSDOF 2
ENDMDL
MODEL 6
REMARK VINA RESULT:    -2.934     15.078     16.381
REMARK INTER + INTRA:          -3.309
REMARK INTER:                  -3.271
REMARK INTRA:                  -0.038
REMARK UNBOUND:                -0.031
REMARK SMILES CC(C)CC=O
REMARK SMILES IDX 4 1 2 2 1 3 3 4 5 5 6 6
REMARK H PARENT
REMARK Flexibility Score: inf
ROOT
ATOM      1  C   UNL     1      18.262  43.650   1.596  1.00  0.00     0.075 C 
ENDROOT
BRANCH   1   2
ATOM      2  C   UNL     1      19.567  44.057   0.878  1.00  0.00    -0.010 C 
ATOM      3  C   UNL     1      19.306  44.917  -0.367  1.00  0.00     0.008 C 
ATOM      4  C   UNL     1      20.436  42.840   0.531  1.00  0.00     0.008 C 
ENDBRANCH   1   2
BRANCH   1   5
ATOM      5  C   UNL     1      17.030  43.815   0.748  1.00  0.00     0.224 C 
ATOM      6  O   UNL     1      16.031  44.352   1.199  1.00  0.00    -0.303 OA
ENDBRANCH   1   5
TORSDOF 2
ENDMDL
MODEL 7
REMARK VINA RESULT:    -2.908     15.440     16.712
REMARK INTER + INTRA:          -3.279
REMARK INTER:                  -3.208
REMARK INTRA:                  -0.071
REMARK UNBOUND:                -0.031
REMARK SMILES CC(C)CC=O
REMARK SMILES IDX 4 1 2 2 1 3 3 4 5 5 6 6
REMARK H PARENT
REMARK Flexibility Score: inf
ROOT
ATOM      1  C   UNL     1      18.113  42.513   0.775  1.00  0.00     0.075 C 
ENDROOT
BRANCH   1   2
ATOM      2  C   UNL     1      19.313  43.481   0.862  1.00  0.00    -0.010 C 
ATOM      3  C   UNL     1      19.223  44.617  -0.167  1.00  0.00     0.008 C 
ATOM      4  C   UNL     1      20.655  42.745   0.749  1.00  0.00     0.008 C 
ENDBRANCH   1   2
BRANCH   1   5
ATOM      5  C   UNL     1      17.629  42.275  -0.629  1.00  0.00     0.224 C 
ATOM      6  O   UNL     1      18.002  41.298  -1.259  1.00  0.00    -0.303 OA
ENDBRANCH   1   5
TORSDOF 2
ENDMDL
MODEL 8
REMARK VINA RESULT:    -2.759      7.658      8.511
REMARK INTER + INTRA:          -3.112
REMARK INTER:                  -3.107
REMARK INTRA:                  -0.005
REMARK UNBOUND:                -0.031
REMARK SMILES CC(C)CC=O
REMARK SMILES IDX 4 1 2 2 1 3 3 4 5 5 6 6
REMARK H PARENT
REMARK Flexibility Score: inf
ROOT
ATOM      1  C   UNL     1      30.397  58.227 -13.354  1.00  0.00     0.075 C 
ENDROOT
BRANCH   1   2
ATOM      2  C   UNL     1      31.416  57.068 -13.425  1.00  0.00    -0.010 C 
ATOM      3  C   UNL     1      32.719  57.478 -14.125  1.00  0.00     0.008 C 
ATOM      4  C   UNL     1      30.815  55.815 -14.076  1.00  0.00     0.008 C 
ENDBRANCH   1   2
BRANCH   1   5
ATOM      5  C   UNL     1      30.369  58.925 -12.022  1.00  0.00     0.224 C 
ATOM      6  O   UNL     1      29.319  59.341 -11.559  1.00  0.00    -0.303 OA
ENDBRANCH   1   5
TORSDOF 2
ENDMDL
MODEL 9
REMARK VINA RESULT:    -2.705      4.001      5.206
REMARK INTER + INTRA:          -3.053
REMARK INTER:                  -3.026
REMARK INTRA:                  -0.027
REMARK UNBOUND:                -0.031
REMARK SMILES CC(C)CC=O
REMARK SMILES IDX 4 1 2 2 1 3 3 4 5 5 6 6
REMARK H PARENT
REMARK Flexibility Score: inf
ROOT
ATOM      1  C   UNL     1      27.337  58.889 -10.837  1.00  0.00     0.075 C 
ENDROOT
BRANCH   1   2
ATOM      2  C   UNL     1      28.341  60.064 -10.829  1.00  0.00    -0.010 C 
ATOM      3  C   UNL     1      29.799  59.587 -10.903  1.00  0.00     0.008 C 
ATOM      4  C   UNL     1      28.128  60.992  -9.627  1.00  0.00     0.008 C 
ENDBRANCH   1   2
BRANCH   1   5
ATOM      5  C   UNL     1      26.290  58.983  -9.762  1.00  0.00     0.224 C 
ATOM      6  O   UNL     1      25.561  58.035  -9.518  1.00  0.00    -0.303 OA
ENDBRANCH   1   5
TORSDOF 2
ENDMDL
