MODEL 1
REMARK VINA RESULT:    -4.193      0.000      0.000
REMARK INTER + INTRA:          -5.905
REMARK INTER:                  -5.664
REMARK INTRA:                  -0.240
REMARK UNBOUND:                -0.240
REMARK SMILES CCCCCCCC(=O)[O-]
REMARK SMILES IDX 5 1 6 2 7 3 8 4 9 5 10 6 4 7 3 8 2 9 1 10
REMARK H PARENT
REMARK Flexibility Score: inf
ROOT
ATOM      1  C   UNL     1       4.625 -33.751  22.502  1.00  0.00     0.000 C 
ENDROOT
BRANCH   1   2
ATOM      2  C   UNL     1       4.332 -34.857  21.482  1.00  0.00     0.006 C 
BRANCH   2   3
ATOM      3  C   UNL     1       4.861 -34.481  20.095  1.00  0.00     0.053 C 
BRANCH   3   4
ATOM      4  C   UNL     1       4.612 -35.588  19.120  1.00  0.00     0.041 C 
ATOM      5  O   UNL     1       4.276 -35.326  17.935  1.00  0.00    -0.550 OA
ATOM      6  O   UNL     1       4.800 -36.909  19.505  1.00  0.00    -0.550 OA
ENDBRANCH   3   4
ENDBRANCH   2   3
ENDBRANCH   1   2
BRANCH   1   7
ATOM      7  C   UNL     1       5.742 -34.171  23.465  1.00  0.00     0.000 C 
BRANCH   7   8
ATOM      8  C   UNL     1       5.750 -35.694  23.665  1.00  0.00    -0.000 C 
BRANCH   8   9
ATOM      9  C   UNL     1       5.961 -36.095  25.133  1.00  0.00    -0.003 C 
ATOM     10  C   UNL     1       4.939 -37.123  25.618  1.00  0.00     0.004 C 
ENDBRANCH   8   9
ENDBRANCH   7   8
ENDBRANCH   1   7
TORSDOF 6
ENDMDL
MODEL 2
REMARK VINA RESULT:    -4.129      0.302      1.067
REMARK INTER + INTRA:          -5.818
REMARK INTER:                  -5.556
REMARK INTRA:                  -0.261
REMARK UNBOUND:                -0.240
REMARK SMILES CCCCCCCC(=O)[O-]
REMARK SMILES IDX 5 1 6 2 7 3 8 4 9 5 10 6 4 7 3 8 2 9 1 10
REMARK H PARENT
REMARK Flexibility Score: inf
ROOT
ATOM      1  C   UNL     1       4.626 -33.873  22.544  1.00  0.00     0.000 C 
ENDROOT
BRANCH   1   2
ATOM      2  C   UNL     1       4.022 -34.562  21.315  1.00  0.00     0.006 C 
BRANCH   2   3
ATOM      3  C   UNL     1       4.960 -34.458  20.110  1.00  0.00     0.053 C 
BRANCH   3   4
ATOM      4  C   UNL     1       4.660 -35.536  19.117  1.00  0.00     0.041 C 
ATOM      5  O   UNL     1       4.719 -36.747  19.457  1.00  0.00    -0.550 OA
ATOM      6  O   UNL     1       4.265 -35.203  17.828  1.00  0.00    -0.550 OA
ENDBRANCH   3   4
ENDBRANCH   2   3
ENDBRANCH   1   2
BRANCH   1   7
ATOM      7  C   UNL     1       5.976 -34.497  22.918  1.00  0.00     0.000 C 
BRANCH   7   8
ATOM      8  C   UNL     1       5.791 -35.919  23.468  1.00  0.00    -0.000 C 
BRANCH   8   9
ATOM      9  C   UNL     1       5.824 -35.967  25.003  1.00  0.00    -0.003 C 
ATOM     10  C   UNL     1       4.975 -37.099  25.579  1.00  0.00     0.004 C 
ENDBRANCH   8   9
ENDBRANCH   7   8
ENDBRANCH   1   7
TORSDOF 6
ENDMDL
MODEL 3
REMARK VINA RESULT:    -3.950      2.411      4.531
REMARK INTER + INTRA:          -5.575
REMARK INTER:                  -5.258
REMARK INTRA:                  -0.317
REMARK UNBOUND:                -0.240
REMARK SMILES CCCCCCCC(=O)[O-]
REMARK SMILES IDX 5 1 6 2 7 3 8 4 9 5 10 6 4 7 3 8 2 9 1 10
REMARK H PARENT
REMARK Flexibility Score: inf
ROOT
ATOM      1  C   UNL     1       4.446 -33.760  22.449  1.00  0.00     0.000 C 
ENDROOT
BRANCH   1   2
ATOM      2  C   UNL     1       5.913 -34.054  22.782  1.00  0.00     0.006 C 
BRANCH   2   3
ATOM      3  C   UNL     1       6.054 -34.610  24.202  1.00  0.00     0.053 C 
BRANCH   3   4
ATOM      4  C   UNL     1       5.582 -36.029  24.258  1.00  0.00     0.041 C 
ATOM      5  O   UNL     1       5.639 -36.757  23.233  1.00  0.00    -0.550 OA
ATOM      6  O   UNL     1       5.126 -36.562  25.457  1.00  0.00    -0.550 OA
ENDBRANCH   3   4
ENDBRANCH   2   3
ENDBRANCH   1   2
BRANCH   1   7
ATOM      7  C   UNL     1       4.136 -34.094  20.985  1.00  0.00     0.000 C 
BRANCH   7   8
ATOM      8  C   UNL     1       5.238 -34.973  20.376  1.00  0.00    -0.000 C 
BRANCH   8   9
ATOM      9  C   UNL     1       4.680 -36.052  19.435  1.00  0.00    -0.003 C 
ATOM     10  C   UNL     1       4.965 -37.471  19.927  1.00  0.00     0.004 C 
ENDBRANCH   8   9
ENDBRANCH   7   8
ENDBRANCH   1   7
TORSDOF 6
ENDMDL
MODEL 4
REMARK VINA RESULT:    -3.915      2.383      4.921
REMARK INTER + INTRA:          -5.528
REMARK INTER:                  -5.296
REMARK INTRA:                  -0.232
REMARK UNBOUND:                -0.240
REMARK SMILES CCCCCCCC(=O)[O-]
REMARK SMILES IDX 5 1 6 2 7 3 8 4 9 5 10 6 4 7 3 8 2 9 1 10
REMARK H PARENT
REMARK Flexibility Score: inf
ROOT
ATOM      1  C   UNL     1       4.594 -33.758  22.344  1.00  0.00     0.000 C 
ENDROOT
BRANCH   1   2
ATOM      2  C   UNL     1       6.012 -34.073  22.832  1.00  0.00     0.006 C 
BRANCH   2   3
ATOM      3  C   UNL     1       5.992 -34.623  24.261  1.00  0.00     0.053 C 
BRANCH   3   4
ATOM      4  C   UNL     1       5.593 -36.064  24.264  1.00  0.00     0.041 C 
ATOM      5  O   UNL     1       5.669 -36.745  23.207  1.00  0.00    -0.550 OA
ATOM      6  O   UNL     1       5.185 -36.670  25.445  1.00  0.00    -0.550 OA
ENDBRANCH   3   4
ENDBRANCH   2   3
ENDBRANCH   1   2
BRANCH   1   7
ATOM      7  C   UNL     1       4.290 -34.484  21.028  1.00  0.00     0.000 C 
BRANCH   7   8
ATOM      8  C   UNL     1       5.584 -34.954  20.348  1.00  0.00    -0.000 C 
BRANCH   8   9
ATOM      9  C   UNL     1       5.658 -34.541  18.870  1.00  0.00    -0.003 C 
ATOM     10  C   UNL     1       4.394 -34.902  18.091  1.00  0.00     0.004 C 
ENDBRANCH   8   9
ENDBRANCH   7   8
ENDBRANCH   1   7
TORSDOF 6
ENDMDL
MODEL 5
REMARK VINA RESULT:    -3.880      1.379      1.916
REMARK INTER + INTRA:          -5.482
REMARK INTER:                  -5.148
REMARK INTRA:                  -0.334
REMARK UNBOUND:                -0.240
REMARK SMILES CCCCCCCC(=O)[O-]
REMARK SMILES IDX 5 1 6 2 7 3 8 4 9 5 10 6 4 7 3 8 2 9 1 10
REMARK H PARENT
REMARK Flexibility Score: inf
ROOT
ATOM      1  C   UNL     1       4.205 -34.052  21.073  1.00  0.00     0.000 C 
ENDROOT
BRANCH   1   2
ATOM      2  C   UNL     1       5.393 -34.791  20.444  1.00  0.00     0.006 C 
BRANCH   2   3
ATOM      3  C   UNL     1       4.915 -35.842  19.438  1.00  0.00     0.053 C 
BRANCH   3   4
ATOM      4  C   UNL     1       4.901 -37.200  20.064  1.00  0.00     0.041 C 
ATOM      5  O   UNL     1       4.655 -38.218  19.366  1.00  0.00    -0.550 OA
ATOM      6  O   UNL     1       5.210 -37.348  21.410  1.00  0.00    -0.550 OA
ENDBRANCH   3   4
ENDBRANCH   2   3
ENDBRANCH   1   2
BRANCH   1   7
ATOM      7  C   UNL     1       4.406 -33.871  22.582  1.00  0.00     0.000 C 
BRANCH   7   8
ATOM      8  C   UNL     1       5.893 -33.967  22.954  1.00  0.00    -0.000 C 
BRANCH   8   9
ATOM      9  C   UNL     1       6.125 -34.726  24.270  1.00  0.00    -0.003 C 
ATOM     10  C   UNL     1       5.354 -36.043  24.336  1.00  0.00     0.004 C 
ENDBRANCH   8   9
ENDBRANCH   7   8
ENDBRANCH   1   7
TORSDOF 6
ENDMDL
MODEL 6
REMARK VINA RESULT:    -3.603      2.549      4.943
REMARK INTER + INTRA:          -5.107
REMARK INTER:                  -4.711
REMARK INTRA:                  -0.396
REMARK UNBOUND:                -0.240
REMARK SMILES CCCCCCCC(=O)[O-]
REMARK SMILES IDX 5 1 6 2 7 3 8 4 9 5 10 6 4 7 3 8 2 9 1 10
REMARK H PARENT
REMARK Flexibility Score: inf
ROOT
ATOM      1  C   UNL     1       4.849 -37.034  21.464  1.00  0.00     0.000 C 
ENDROOT
BRANCH   1   2
ATOM      2  C   UNL     1       5.831 -36.214  22.310  1.00  0.00     0.006 C 
BRANCH   2   3
ATOM      3  C   UNL     1       5.091 -35.388  23.365  1.00  0.00     0.053 C 
BRANCH   3   4
ATOM      4  C   UNL     1       5.030 -33.950  22.958  1.00  0.00     0.041 C 
ATOM      5  O   UNL     1       5.883 -33.132  23.391  1.00  0.00    -0.550 OA
ATOM      6  O   UNL     1       4.061 -33.522  22.060  1.00  0.00    -0.550 OA
ENDBRANCH   3   4
ENDBRANCH   2   3
ENDBRANCH   1   2
BRANCH   1   7
ATOM      7  C   UNL     1       4.978 -36.684  19.976  1.00  0.00     0.000 C 
BRANCH   7   8
ATOM      8  C   UNL     1       5.826 -35.418  19.781  1.00  0.00    -0.000 C 
BRANCH   8   9
ATOM      9  C   UNL     1       5.153 -34.395  18.853  1.00  0.00    -0.003 C 
ATOM     10  C   UNL     1       4.233 -35.046  17.822  1.00  0.00     0.004 C 
ENDBRANCH   8   9
ENDBRANCH   7   8
ENDBRANCH   1   7
TORSDOF 6
ENDMDL
MODEL 7
REMARK VINA RESULT:    -3.202      3.256      4.297
REMARK INTER + INTRA:          -4.565
REMARK INTER:                  -4.504
REMARK INTRA:                  -0.061
REMARK UNBOUND:                -0.240
REMARK SMILES CCCCCCCC(=O)[O-]
REMARK SMILES IDX 5 1 6 2 7 3 8 4 9 5 10 6 4 7 3 8 2 9 1 10
REMARK H PARENT
REMARK Flexibility Score: inf
ROOT
ATOM      1  C   UNL     1       5.580 -35.761  20.945  1.00  0.00     0.000 C 
ENDROOT
BRANCH   1   2
ATOM      2  C   UNL     1       4.685 -34.517  20.881  1.00  0.00     0.006 C 
BRANCH   2   3
ATOM      3  C   UNL     1       4.225 -34.099  22.281  1.00  0.00     0.053 C 
BRANCH   3   4
ATOM      4  C   UNL     1       5.368 -34.149  23.245  1.00  0.00     0.041 C 
ATOM      5  O   UNL     1       6.124 -33.152  23.384  1.00  0.00    -0.550 OA
ATOM      6  O   UNL     1       5.567 -35.278  24.029  1.00  0.00    -0.550 OA
ENDBRANCH   3   4
ENDBRANCH   2   3
ENDBRANCH   1   2
BRANCH   1   7
ATOM      7  C   UNL     1       4.741 -37.036  21.087  1.00  0.00     0.000 C 
BRANCH   7   8
ATOM      8  C   UNL     1       4.969 -37.980  19.897  1.00  0.00    -0.000 C 
BRANCH   8   9
ATOM      9  C   UNL     1       5.601 -39.316  20.316  1.00  0.00    -0.003 C 
ATOM     10  C   UNL     1       5.287 -39.691  21.763  1.00  0.00     0.004 C 
ENDBRANCH   8   9
ENDBRANCH   7   8
ENDBRANCH   1   7
TORSDOF 6
ENDMDL
MODEL 8
REMARK VINA RESULT:    -3.091      1.657      2.781
REMARK INTER + INTRA:          -4.416
REMARK INTER:                  -4.074
REMARK INTRA:                  -0.341
REMARK UNBOUND:                -0.240
REMARK SMILES CCCCCCCC(=O)[O-]
REMARK SMILES IDX 5 1 6 2 7 3 8 4 9 5 10 6 4 7 3 8 2 9 1 10
REMARK H PARENT
REMARK Flexibility Score: inf
ROOT
ATOM      1  C   UNL     1       4.985 -36.881  22.030  1.00  0.00     0.000 C 
ENDROOT
BRANCH   1   2
ATOM      2  C   UNL     1       5.372 -36.812  20.548  1.00  0.00     0.006 C 
BRANCH   2   3
ATOM      3  C   UNL     1       4.277 -36.129  19.725  1.00  0.00     0.053 C 
BRANCH   3   4
ATOM      4  C   UNL     1       4.871 -35.111  18.803  1.00  0.00     0.041 C 
ATOM      5  O   UNL     1       5.930 -34.509  19.122  1.00  0.00    -0.550 OA
ATOM      6  O   UNL     1       4.284 -34.863  17.569  1.00  0.00    -0.550 OA
ENDBRANCH   3   4
ENDBRANCH   2   3
ENDBRANCH   1   2
BRANCH   1   7
ATOM      7  C   UNL     1       5.956 -36.064  22.891  1.00  0.00     0.000 C 
BRANCH   7   8
ATOM      8  C   UNL     1       5.231 -34.899  23.582  1.00  0.00    -0.000 C 
BRANCH   8   9
ATOM      9  C   UNL     1       5.099 -33.665  22.677  1.00  0.00    -0.003 C 
ATOM     10  C   UNL     1       3.762 -33.613  21.939  1.00  0.00     0.004 C 
ENDBRANCH   8   9
ENDBRANCH   7   8
ENDBRANCH   1   7
TORSDOF 6
ENDMDL
MODEL 9
REMARK VINA RESULT:    -2.917      1.454      3.155
REMARK INTER + INTRA:          -4.181
REMARK INTER:                  -4.036
REMARK INTRA:                  -0.145
REMARK UNBOUND:                -0.240
REMARK SMILES CCCCCCCC(=O)[O-]
REMARK SMILES IDX 5 1 6 2 7 3 8 4 9 5 10 6 4 7 3 8 2 9 1 10
REMARK H PARENT
REMARK Flexibility Score: inf
ROOT
ATOM      1  C   UNL     1       5.375 -35.986  23.706  1.00  0.00     0.000 C 
ENDROOT
BRANCH   1   2
ATOM      2  C   UNL     1       5.794 -36.556  22.346  1.00  0.00     0.006 C 
BRANCH   2   3
ATOM      3  C   UNL     1       4.618 -37.252  21.656  1.00  0.00     0.053 C 
BRANCH   3   4
ATOM      4  C   UNL     1       4.928 -37.498  20.213  1.00  0.00     0.041 C 
ATOM      5  O   UNL     1       5.388 -38.610  19.844  1.00  0.00    -0.550 OA
ATOM      6  O   UNL     1       4.660 -36.516  19.268  1.00  0.00    -0.550 OA
ENDBRANCH   3   4
ENDBRANCH   2   3
ENDBRANCH   1   2
BRANCH   1   7
ATOM      7  C   UNL     1       6.067 -34.645  23.978  1.00  0.00     0.000 C 
BRANCH   7   8
ATOM      8  C   UNL     1       5.641 -33.588  22.947  1.00  0.00    -0.000 C 
BRANCH   8   9
ATOM      9  C   UNL     1       4.186 -33.765  22.488  1.00  0.00    -0.003 C 
ATOM     10  C   UNL     1       4.022 -33.625  20.975  1.00  0.00     0.004 C 
ENDBRANCH   8   9
ENDBRANCH   7   8
ENDBRANCH   1   7
TORSDOF 6
ENDMDL
