MODEL 1
REMARK VINA RESULT:    -4.246      0.000      0.000
REMARK INTER + INTRA:          -7.183
REMARK INTER:                  -6.480
REMARK INTRA:                  -0.703
REMARK UNBOUND:                -0.703
REMARK SMILES CCCCCCCCCCC(=O)[O-]
REMARK SMILES IDX 7 1 8 2 9 3 10 4 11 5 12 6 13 7 6 8 5 9 4 10 3 11 2 12 1 13
REMARK H PARENT
REMARK Flexibility Score: inf
ROOT
ATOM      1  C   UNL     1     191.393 195.391 192.071  1.00  0.00     0.000 C 
ENDROOT
BRANCH   1   2
ATOM      2  C   UNL     1     191.482 196.685 191.241  1.00  0.00     0.000 C 
BRANCH   2   3
ATOM      3  C   UNL     1     191.218 197.989 192.023  1.00  0.00     0.006 C 
BRANCH   3   4
ATOM      4  C   UNL     1     192.177 199.141 191.688  1.00  0.00     0.053 C 
BRANCH   4   5
ATOM      5  C   UNL     1     193.120 199.430 192.816  1.00  0.00     0.041 C 
ATOM      6  O   UNL     1     193.469 200.614 193.064  1.00  0.00    -0.550 OA
ATOM      7  O   UNL     1     193.638 198.387 193.572  1.00  0.00    -0.550 OA
ENDBRANCH   4   5
ENDBRANCH   3   4
ENDBRANCH   2   3
ENDBRANCH   1   2
BRANCH   1   8
ATOM      8  C   UNL     1     190.567 195.560 193.357  1.00  0.00     0.000 C 
BRANCH   8   9
ATOM      9  C   UNL     1     189.785 194.290 193.737  1.00  0.00    -0.000 C 
BRANCH   9  10
ATOM     10  C   UNL     1     189.740 193.192 192.652  1.00  0.00    -0.000 C 
BRANCH  10  11
ATOM     11  C   UNL     1     190.499 191.900 192.998  1.00  0.00    -0.000 C 
BRANCH  11  12
ATOM     12  C   UNL     1     191.656 191.612 192.032  1.00  0.00    -0.003 C 
ATOM     13  C   UNL     1     191.244 191.874 190.586  1.00  0.00     0.004 C 
ENDBRANCH  11  12
ENDBRANCH  10  11
ENDBRANCH   9  10
ENDBRANCH   8   9
ENDBRANCH   1   8
TORSDOF 9
ENDMDL
MODEL 2
REMARK VINA RESULT:    -4.245      1.237      2.169
REMARK INTER + INTRA:          -7.180
REMARK INTER:                  -6.533
REMARK INTRA:                  -0.647
REMARK UNBOUND:                -0.703
REMARK SMILES CCCCCCCCCCC(=O)[O-]
REMARK SMILES IDX 7 1 8 2 9 3 10 4 11 5 12 6 13 7 6 8 5 9 4 10 3 11 2 12 1 13
REMARK H PARENT
REMARK Flexibility Score: inf
ROOT
ATOM      1  C   UNL     1     191.070 195.230 192.220  1.00  0.00     0.000 C 
ENDROOT
BRANCH   1   2
ATOM      2  C   UNL     1     190.902 196.509 193.060  1.00  0.00     0.000 C 
BRANCH   2   3
ATOM      3  C   UNL     1     192.039 197.543 192.919  1.00  0.00     0.006 C 
BRANCH   3   4
ATOM      4  C   UNL     1     191.787 198.630 191.863  1.00  0.00     0.053 C 
BRANCH   4   5
ATOM      5  C   UNL     1     192.787 199.742 191.955  1.00  0.00     0.041 C 
ATOM      6  O   UNL     1     193.404 199.954 193.033  1.00  0.00    -0.550 OA
ATOM      7  O   UNL     1     193.013 200.566 190.860  1.00  0.00    -0.550 OA
ENDBRANCH   4   5
ENDBRANCH   3   4
ENDBRANCH   2   3
ENDBRANCH   1   2
BRANCH   1   8
ATOM      8  C   UNL     1     192.539 194.924 191.882  1.00  0.00     0.000 C 
BRANCH   8   9
ATOM      9  C   UNL     1     192.697 193.720 190.936  1.00  0.00    -0.000 C 
BRANCH   9  10
ATOM     10  C   UNL     1     191.550 192.688 190.982  1.00  0.00    -0.000 C 
BRANCH  10  11
ATOM     11  C   UNL     1     191.777 191.501 191.935  1.00  0.00    -0.000 C 
BRANCH  11  12
ATOM     12  C   UNL     1     190.630 191.313 192.937  1.00  0.00    -0.003 C 
ATOM     13  C   UNL     1     189.338 191.938 192.418  1.00  0.00     0.004 C 
ENDBRANCH  11  12
ENDBRANCH  10  11
ENDBRANCH   9  10
ENDBRANCH   8   9
ENDBRANCH   1   8
TORSDOF 9
ENDMDL
MODEL 3
REMARK VINA RESULT:    -4.233      3.314      6.516
REMARK INTER + INTRA:          -7.163
REMARK INTER:                  -6.582
REMARK INTRA:                  -0.580
REMARK UNBOUND:                -0.703
REMARK SMILES CCCCCCCCCCC(=O)[O-]
REMARK SMILES IDX 7 1 8 2 9 3 10 4 11 5 12 6 13 7 6 8 5 9 4 10 3 11 2 12 1 13
REMARK H PARENT
REMARK Flexibility Score: inf
ROOT
ATOM      1  C   UNL     1     192.616 194.877 191.211  1.00  0.00     0.000 C 
ENDROOT
BRANCH   1   2
ATOM      2  C   UNL     1     192.789 193.371 191.479  1.00  0.00     0.000 C 
BRANCH   2   3
ATOM      3  C   UNL     1     191.674 192.468 190.911  1.00  0.00     0.006 C 
BRANCH   3   4
ATOM      4  C   UNL     1     191.400 191.198 191.729  1.00  0.00     0.053 C 
BRANCH   4   5
ATOM      5  C   UNL     1     190.246 191.374 192.668  1.00  0.00     0.041 C 
ATOM      6  O   UNL     1     189.258 190.595 192.612  1.00  0.00    -0.550 OA
ATOM      7  O   UNL     1     190.247 192.420 193.581  1.00  0.00    -0.550 OA
ENDBRANCH   4   5
ENDBRANCH   3   4
ENDBRANCH   2   3
ENDBRANCH   1   2
BRANCH   1   8
ATOM      8  C   UNL     1     191.201 195.385 191.538  1.00  0.00     0.000 C 
BRANCH   8   9
ATOM      9  C   UNL     1     191.064 195.882 192.988  1.00  0.00    -0.000 C 
BRANCH   9  10
ATOM     10  C   UNL     1     190.923 197.411 193.152  1.00  0.00    -0.000 C 
BRANCH  10  11
ATOM     11  C   UNL     1     192.197 198.220 192.854  1.00  0.00    -0.000 C 
BRANCH  11  12
ATOM     12  C   UNL     1     192.076 199.076 191.585  1.00  0.00    -0.003 C 
ATOM     13  C   UNL     1     192.933 200.334 191.687  1.00  0.00     0.004 C 
ENDBRANCH  11  12
ENDBRANCH  10  11
ENDBRANCH   9  10
ENDBRANCH   8   9
ENDBRANCH   1   8
TORSDOF 9
ENDMDL
MODEL 4
REMARK VINA RESULT:    -4.196      1.990      3.521
REMARK INTER + INTRA:          -7.107
REMARK INTER:                  -5.995
REMARK INTRA:                  -1.112
REMARK UNBOUND:                -0.703
REMARK SMILES CCCCCCCCCCC(=O)[O-]
REMARK SMILES IDX 7 1 8 2 9 3 10 4 11 5 12 6 13 7 6 8 5 9 4 10 3 11 2 12 1 13
REMARK H PARENT
REMARK Flexibility Score: inf
ROOT
ATOM      1  C   UNL     1     191.548 192.593 190.905  1.00  0.00     0.000 C 
ENDROOT
BRANCH   1   2
ATOM      2  C   UNL     1     192.517 193.779 191.068  1.00  0.00     0.000 C 
BRANCH   2   3
ATOM      3  C   UNL     1     191.851 195.170 191.126  1.00  0.00     0.006 C 
BRANCH   3   4
ATOM      4  C   UNL     1     191.959 195.875 192.486  1.00  0.00     0.053 C 
BRANCH   4   5
ATOM      5  C   UNL     1     191.116 197.113 192.543  1.00  0.00     0.041 C 
ATOM      6  O   UNL     1     191.048 197.881 191.548  1.00  0.00    -0.550 OA
ATOM      7  O   UNL     1     190.431 197.433 193.708  1.00  0.00    -0.550 OA
ENDBRANCH   4   5
ENDBRANCH   3   4
ENDBRANCH   2   3
ENDBRANCH   1   2
BRANCH   1   8
ATOM      8  C   UNL     1     191.582 191.623 192.098  1.00  0.00     0.000 C 
BRANCH   8   9
ATOM      9  C   UNL     1     190.243 191.557 192.854  1.00  0.00    -0.000 C 
BRANCH   9  10
ATOM     10  C   UNL     1     189.165 192.553 192.376  1.00  0.00    -0.000 C 
BRANCH  10  11
ATOM     11  C   UNL     1     189.024 193.824 193.231  1.00  0.00    -0.000 C 
BRANCH  11  12
ATOM     12  C   UNL     1     189.669 193.685 194.617  1.00  0.00    -0.003 C 
ATOM     13  C   UNL     1     189.203 194.795 195.554  1.00  0.00     0.004 C 
ENDBRANCH  11  12
ENDBRANCH  10  11
ENDBRANCH   9  10
ENDBRANCH   8   9
ENDBRANCH   1   8
TORSDOF 9
ENDMDL
MODEL 5
REMARK VINA RESULT:    -4.175      4.870      6.826
REMARK INTER + INTRA:          -7.075
REMARK INTER:                  -5.827
REMARK INTRA:                  -1.248
REMARK UNBOUND:                -0.703
REMARK SMILES CCCCCCCCCCC(=O)[O-]
REMARK SMILES IDX 7 1 8 2 9 3 10 4 11 5 12 6 13 7 6 8 5 9 4 10 3 11 2 12 1 13
REMARK H PARENT
REMARK Flexibility Score: inf
ROOT
ATOM      1  C   UNL     1     191.131 191.503 191.252  1.00  0.00     0.000 C 
ENDROOT
BRANCH   1   2
ATOM      2  C   UNL     1     189.922 191.200 192.156  1.00  0.00     0.000 C 
BRANCH   2   3
ATOM      3  C   UNL     1     188.652 192.023 191.855  1.00  0.00     0.006 C 
BRANCH   3   4
ATOM      4  C   UNL     1     188.472 192.405 190.378  1.00  0.00     0.053 C 
BRANCH   4   5
ATOM      5  C   UNL     1     187.353 191.644 189.735  1.00  0.00     0.041 C 
ATOM      6  O   UNL     1     186.896 190.605 190.282  1.00  0.00    -0.550 OA
ATOM      7  O   UNL     1     186.837 192.065 188.517  1.00  0.00    -0.550 OA
ENDBRANCH   4   5
ENDBRANCH   3   4
ENDBRANCH   2   3
ENDBRANCH   1   2
BRANCH   1   8
ATOM      8  C   UNL     1     192.109 192.512 191.877  1.00  0.00     0.000 C 
BRANCH   8   9
ATOM      9  C   UNL     1     192.149 193.853 191.122  1.00  0.00    -0.000 C 
BRANCH   9  10
ATOM     10  C   UNL     1     191.068 194.875 191.532  1.00  0.00    -0.000 C 
BRANCH  10  11
ATOM     11  C   UNL     1     191.097 195.299 193.011  1.00  0.00    -0.000 C 
BRANCH  11  12
ATOM     12  C   UNL     1     189.720 195.209 193.684  1.00  0.00    -0.003 C 
ATOM     13  C   UNL     1     189.653 194.023 194.643  1.00  0.00     0.004 C 
ENDBRANCH  11  12
ENDBRANCH  10  11
ENDBRANCH   9  10
ENDBRANCH   8   9
ENDBRANCH   1   8
TORSDOF 9
ENDMDL
MODEL 6
REMARK VINA RESULT:    -4.134      2.257      3.583
REMARK INTER + INTRA:          -7.011
REMARK INTER:                  -6.076
REMARK INTRA:                  -0.935
REMARK UNBOUND:                -0.703
REMARK SMILES CCCCCCCCCCC(=O)[O-]
REMARK SMILES IDX 7 1 8 2 9 3 10 4 11 5 12 6 13 7 6 8 5 9 4 10 3 11 2 12 1 13
REMARK H PARENT
REMARK Flexibility Score: inf
ROOT
ATOM      1  C   UNL     1     191.463 192.525 190.716  1.00  0.00     0.000 C 
ENDROOT
BRANCH   1   2
ATOM      2  C   UNL     1     192.744 193.379 190.740  1.00  0.00     0.000 C 
BRANCH   2   3
ATOM      3  C   UNL     1     192.680 194.636 191.632  1.00  0.00     0.006 C 
BRANCH   3   4
ATOM      4  C   UNL     1     191.400 195.470 191.471  1.00  0.00     0.053 C 
BRANCH   4   5
ATOM      5  C   UNL     1     191.071 196.237 192.716  1.00  0.00     0.041 C 
ATOM      6  O   UNL     1     191.491 197.415 192.865  1.00  0.00    -0.550 OA
ATOM      7  O   UNL     1     190.328 195.638 193.725  1.00  0.00    -0.550 OA
ENDBRANCH   4   5
ENDBRANCH   3   4
ENDBRANCH   2   3
ENDBRANCH   1   2
BRANCH   1   8
ATOM      8  C   UNL     1     191.409 191.495 191.857  1.00  0.00     0.000 C 
BRANCH   8   9
ATOM      9  C   UNL     1     190.110 191.579 192.679  1.00  0.00    -0.000 C 
BRANCH   9  10
ATOM     10  C   UNL     1     189.115 192.671 192.230  1.00  0.00    -0.000 C 
BRANCH  10  11
ATOM     11  C   UNL     1     187.768 192.149 191.701  1.00  0.00    -0.000 C 
BRANCH  11  12
ATOM     12  C   UNL     1     187.884 191.496 190.317  1.00  0.00    -0.003 C 
ATOM     13  C   UNL     1     187.825 192.544 189.209  1.00  0.00     0.004 C 
ENDBRANCH  11  12
ENDBRANCH  10  11
ENDBRANCH   9  10
ENDBRANCH   8   9
ENDBRANCH   1   8
TORSDOF 9
ENDMDL
MODEL 7
REMARK VINA RESULT:    -4.084      2.982      4.378
REMARK INTER + INTRA:          -6.936
REMARK INTER:                  -5.915
REMARK INTRA:                  -1.020
REMARK UNBOUND:                -0.703
REMARK SMILES CCCCCCCCCCC(=O)[O-]
REMARK SMILES IDX 7 1 8 2 9 3 10 4 11 5 12 6 13 7 6 8 5 9 4 10 3 11 2 12 1 13
REMARK H PARENT
REMARK Flexibility Score: inf
ROOT
ATOM      1  C   UNL     1     190.770 195.284 192.936  1.00  0.00     0.000 C 
ENDROOT
BRANCH   1   2
ATOM      2  C   UNL     1     189.537 194.509 193.436  1.00  0.00     0.000 C 
BRANCH   2   3
ATOM      3  C   UNL     1     189.623 194.002 194.891  1.00  0.00     0.006 C 
BRANCH   3   4
ATOM      4  C   UNL     1     188.704 194.736 195.879  1.00  0.00     0.053 C 
BRANCH   4   5
ATOM      5  C   UNL     1     189.432 195.809 196.630  1.00  0.00     0.041 C 
ATOM      6  O   UNL     1     189.667 195.674 197.860  1.00  0.00    -0.550 OA
ATOM      7  O   UNL     1     189.821 196.971 195.978  1.00  0.00    -0.550 OA
ENDBRANCH   4   5
ENDBRANCH   3   4
ENDBRANCH   2   3
ENDBRANCH   1   2
BRANCH   1   8
ATOM      8  C   UNL     1     191.197 194.880 191.515  1.00  0.00     0.000 C 
BRANCH   8   9
ATOM      9  C   UNL     1     192.153 193.674 191.498  1.00  0.00    -0.000 C 
BRANCH   9  10
ATOM     10  C   UNL     1     191.514 192.331 191.085  1.00  0.00    -0.000 C 
BRANCH  10  11
ATOM     11  C   UNL     1     191.559 191.229 192.157  1.00  0.00    -0.000 C 
BRANCH  11  12
ATOM     12  C   UNL     1     190.180 190.925 192.758  1.00  0.00    -0.003 C 
ATOM     13  C   UNL     1     189.062 191.347 191.809  1.00  0.00     0.004 C 
ENDBRANCH  11  12
ENDBRANCH  10  11
ENDBRANCH   9  10
ENDBRANCH   8   9
ENDBRANCH   1   8
TORSDOF 9
ENDMDL
MODEL 8
REMARK VINA RESULT:    -4.072      2.040      3.112
REMARK INTER + INTRA:          -6.917
REMARK INTER:                  -6.298
REMARK INTRA:                  -0.619
REMARK UNBOUND:                -0.703
REMARK SMILES CCCCCCCCCCC(=O)[O-]
REMARK SMILES IDX 7 1 8 2 9 3 10 4 11 5 12 6 13 7 6 8 5 9 4 10 3 11 2 12 1 13
REMARK H PARENT
REMARK Flexibility Score: inf
ROOT
ATOM      1  C   UNL     1     192.088 192.914 191.353  1.00  0.00     0.000 C 
ENDROOT
BRANCH   1   2
ATOM      2  C   UNL     1     191.130 194.109 191.513  1.00  0.00     0.000 C 
BRANCH   2   3
ATOM      3  C   UNL     1     191.814 195.481 191.693  1.00  0.00     0.006 C 
BRANCH   3   4
ATOM      4  C   UNL     1     191.212 196.355 192.803  1.00  0.00     0.053 C 
BRANCH   4   5
ATOM      5  C   UNL     1     191.595 197.796 192.651  1.00  0.00     0.041 C 
ATOM      6  O   UNL     1     190.847 198.587 192.018  1.00  0.00    -0.550 OA
ATOM      7  O   UNL     1     192.793 198.256 193.180  1.00  0.00    -0.550 OA
ENDBRANCH   4   5
ENDBRANCH   3   4
ENDBRANCH   2   3
ENDBRANCH   1   2
BRANCH   1   8
ATOM      8  C   UNL     1     191.358 191.560 191.332  1.00  0.00     0.000 C 
BRANCH   8   9
ATOM      9  C   UNL     1     190.504 191.321 192.590  1.00  0.00    -0.000 C 
BRANCH   9  10
ATOM     10  C   UNL     1     189.026 190.964 192.327  1.00  0.00    -0.000 C 
BRANCH  10  11
ATOM     11  C   UNL     1     188.232 192.014 191.530  1.00  0.00    -0.000 C 
BRANCH  11  12
ATOM     12  C   UNL     1     187.702 191.473 190.195  1.00  0.00    -0.003 C 
ATOM     13  C   UNL     1     187.879 192.497 189.077  1.00  0.00     0.004 C 
ENDBRANCH  11  12
ENDBRANCH  10  11
ENDBRANCH   9  10
ENDBRANCH   8   9
ENDBRANCH   1   8
TORSDOF 9
ENDMDL
MODEL 9
REMARK VINA RESULT:    -4.019      2.856      3.830
REMARK INTER + INTRA:          -6.837
REMARK INTER:                  -6.237
REMARK INTRA:                  -0.600
REMARK UNBOUND:                -0.703
REMARK SMILES CCCCCCCCCCC(=O)[O-]
REMARK SMILES IDX 7 1 8 2 9 3 10 4 11 5 12 6 13 7 6 8 5 9 4 10 3 11 2 12 1 13
REMARK H PARENT
REMARK Flexibility Score: inf
ROOT
ATOM      1  C   UNL     1     190.009 194.998 193.682  1.00  0.00     0.000 C 
ENDROOT
BRANCH   1   2
ATOM      2  C   UNL     1     189.418 195.687 194.926  1.00  0.00     0.000 C 
BRANCH   2   3
ATOM      3  C   UNL     1     189.481 197.229 194.916  1.00  0.00     0.006 C 
BRANCH   3   4
ATOM      4  C   UNL     1     189.123 197.892 196.255  1.00  0.00     0.053 C 
BRANCH   4   5
ATOM      5  C   UNL     1     190.246 197.800 197.243  1.00  0.00     0.041 C 
ATOM      6  O   UNL     1     190.174 196.997 198.211  1.00  0.00    -0.550 OA
ATOM      7  O   UNL     1     191.356 198.623 197.112  1.00  0.00    -0.550 OA
ENDBRANCH   4   5
ENDBRANCH   3   4
ENDBRANCH   2   3
ENDBRANCH   1   2
BRANCH   1   8
ATOM      8  C   UNL     1     191.073 195.852 192.973  1.00  0.00     0.000 C 
BRANCH   8   9
ATOM      9  C   UNL     1     191.458 195.301 191.589  1.00  0.00    -0.000 C 
BRANCH   9  10
ATOM     10  C   UNL     1     191.019 193.847 191.311  1.00  0.00    -0.000 C 
BRANCH  10  11
ATOM     11  C   UNL     1     192.108 192.783 191.529  1.00  0.00    -0.000 C 
BRANCH  11  12
ATOM     12  C   UNL     1     191.533 191.375 191.739  1.00  0.00    -0.003 C 
ATOM     13  C   UNL     1     190.617 191.331 192.959  1.00  0.00     0.004 C 
ENDBRANCH  11  12
ENDBRANCH  10  11
ENDBRANCH   9  10
ENDBRANCH   8   9
ENDBRANCH   1   8
TORSDOF 9
ENDMDL
