MODEL 1
REMARK VINA RESULT:    -5.353      0.000      0.000
REMARK INTER + INTRA:          -7.423
REMARK INTER:                  -7.074
REMARK INTRA:                  -0.349
REMARK UNBOUND:                -0.349
REMARK SMILES CCCCC=CC=CCO
REMARK SMILES IDX 5 1 6 2 4 3 3 4 2 5 1 6 7 7 8 8 9 9 10 10
REMARK H PARENT 10 11
REMARK Flexibility Score: inf
ROOT
ATOM      1  C   UNL     1      -5.464   2.755  -1.871  1.00  0.00    -0.027 C 
ATOM      2  C   UNL     1      -5.180   3.906  -2.486  1.00  0.00    -0.005 C 
ENDROOT
BRANCH   1   3
ATOM      3  C   UNL     1      -6.722   2.582  -1.069  1.00  0.00     0.027 C 
BRANCH   3   4
ATOM      4  C   UNL     1      -6.405   2.211   0.386  1.00  0.00     0.004 C 
BRANCH   4   5
ATOM      5  C   UNL     1      -5.703   3.368   1.106  1.00  0.00    -0.003 C 
ATOM      6  C   UNL     1      -4.303   2.964   1.563  1.00  0.00     0.004 C 
ENDBRANCH   4   5
ENDBRANCH   3   4
ENDBRANCH   1   3
BRANCH   2   7
ATOM      7  C   UNL     1      -3.950   4.057  -3.281  1.00  0.00    -0.002 C 
ATOM      8  C   UNL     1      -2.797   3.522  -2.870  1.00  0.00     0.001 C 
BRANCH   8   9
ATOM      9  C   UNL     1      -1.536   3.678  -3.666  1.00  0.00     0.183 C 
BRANCH   9  10
ATOM     10  O   UNL     1      -0.487   4.104  -2.839  1.00  0.00    -0.392 OA
ATOM     11  H   UNL     1      -0.453   5.094  -2.903  1.00  0.00     0.210 HD
ENDBRANCH   9  10
ENDBRANCH   8   9
ENDBRANCH   2   7
TORSDOF 6
ENDMDL
MODEL 2
REMARK VINA RESULT:    -5.314      3.503      5.961
REMARK INTER + INTRA:          -7.372
REMARK INTER:                  -7.077
REMARK INTRA:                  -0.295
REMARK UNBOUND:                -0.349
REMARK SMILES CCCCC=CC=CCO
REMARK SMILES IDX 5 1 6 2 4 3 3 4 2 5 1 6 7 7 8 8 9 9 10 10
REMARK H PARENT 10 11
REMARK Flexibility Score: inf
ROOT
ATOM      1  C   UNL     1      -5.519   3.054  -2.444  1.00  0.00    -0.027 C 
ATOM      2  C   UNL     1      -6.691   3.327  -1.865  1.00  0.00    -0.005 C 
ENDROOT
BRANCH   1   3
ATOM      3  C   UNL     1      -4.725   4.114  -3.151  1.00  0.00     0.027 C 
BRANCH   3   4
ATOM      4  C   UNL     1      -3.841   3.508  -4.248  1.00  0.00     0.004 C 
BRANCH   4   5
ATOM      5  C   UNL     1      -4.359   2.127  -4.667  1.00  0.00    -0.003 C 
ATOM      6  C   UNL     1      -4.619   2.069  -6.170  1.00  0.00     0.004 C 
ENDBRANCH   4   5
ENDBRANCH   3   4
ENDBRANCH   1   3
BRANCH   2   7
ATOM      7  C   UNL     1      -7.453   2.280  -1.164  1.00  0.00    -0.002 C 
ATOM      8  C   UNL     1      -7.205   1.989   0.116  1.00  0.00     0.001 C 
BRANCH   8   9
ATOM      9  C   UNL     1      -7.967   0.918   0.835  1.00  0.00     0.183 C 
BRANCH   9  10
ATOM     10  O   UNL     1      -9.011   0.439   0.030  1.00  0.00    -0.392 OA
ATOM     11  H   UNL     1      -8.989  -0.551   0.087  1.00  0.00     0.210 HD
ENDBRANCH   9  10
ENDBRANCH   8   9
ENDBRANCH   2   7
TORSDOF 6
ENDMDL
MODEL 3
REMARK VINA RESULT:    -5.281      1.623      1.927
REMARK INTER + INTRA:          -7.327
REMARK INTER:                  -7.113
REMARK INTRA:                  -0.214
REMARK UNBOUND:                -0.349
REMARK SMILES CCCCC=CC=CCO
REMARK SMILES IDX 5 1 6 2 4 3 3 4 2 5 1 6 7 7 8 8 9 9 10 10
REMARK H PARENT 10 11
REMARK Flexibility Score: inf
ROOT
ATOM      1  C   UNL     1      -5.979   2.784  -2.112  1.00  0.00    -0.027 C 
ATOM      2  C   UNL     1      -5.054   3.748  -2.086  1.00  0.00    -0.005 C 
ENDROOT
BRANCH   1   3
ATOM      3  C   UNL     1      -7.430   3.080  -1.863  1.00  0.00     0.027 C 
BRANCH   3   4
ATOM      4  C   UNL     1      -8.119   1.911  -1.148  1.00  0.00     0.004 C 
BRANCH   4   5
ATOM      5  C   UNL     1      -7.679   1.828   0.318  1.00  0.00    -0.003 C 
ATOM      6  C   UNL     1      -8.123   0.513   0.954  1.00  0.00     0.004 C 
ENDBRANCH   4   5
ENDBRANCH   3   4
ENDBRANCH   1   3
BRANCH   2   7
ATOM      7  C   UNL     1      -3.637   3.446  -2.345  1.00  0.00    -0.002 C 
ATOM      8  C   UNL     1      -3.012   3.947  -3.414  1.00  0.00     0.001 C 
BRANCH   8   9
ATOM      9  C   UNL     1      -1.572   3.637  -3.693  1.00  0.00     0.183 C 
BRANCH   9  10
ATOM     10  O   UNL     1      -0.760   4.124  -2.659  1.00  0.00    -0.392 OA
ATOM     11  H   UNL     1       0.166   4.167  -3.015  1.00  0.00     0.210 HD
ENDBRANCH   9  10
ENDBRANCH   8   9
ENDBRANCH   2   7
TORSDOF 6
ENDMDL
MODEL 4
REMARK VINA RESULT:    -5.243      3.449      5.332
REMARK INTER + INTRA:          -7.277
REMARK INTER:                  -6.953
REMARK INTRA:                  -0.324
REMARK UNBOUND:                -0.349
REMARK SMILES CCCCC=CC=CCO
REMARK SMILES IDX 5 1 6 2 4 3 3 4 2 5 1 6 7 7 8 8 9 9 10 10
REMARK H PARENT 10 11
REMARK Flexibility Score: inf
ROOT
ATOM      1  C   UNL     1      -5.393   2.658  -2.134  1.00  0.00    -0.027 C 
ATOM      2  C   UNL     1      -6.637   3.079  -1.891  1.00  0.00    -0.005 C 
ENDROOT
BRANCH   1   3
ATOM      3  C   UNL     1      -4.432   3.471  -2.952  1.00  0.00     0.027 C 
BRANCH   3   4
ATOM      4  C   UNL     1      -3.021   3.433  -2.352  1.00  0.00     0.004 C 
BRANCH   4   5
ATOM      5  C   UNL     1      -2.976   2.531  -1.114  1.00  0.00    -0.003 C 
ATOM      6  C   UNL     1      -2.107   1.300  -1.359  1.00  0.00     0.004 C 
ENDBRANCH   4   5
ENDBRANCH   3   4
ENDBRANCH   1   3
BRANCH   2   7
ATOM      7  C   UNL     1      -7.563   2.277  -1.076  1.00  0.00    -0.002 C 
ATOM      8  C   UNL     1      -7.232   1.887   0.158  1.00  0.00     0.001 C 
BRANCH   8   9
ATOM      9  C   UNL     1      -8.164   1.061   0.993  1.00  0.00     0.183 C 
BRANCH   9  10
ATOM     10  O   UNL     1      -9.077   0.381   0.175  1.00  0.00    -0.392 OA
ATOM     11  H   UNL     1      -9.048  -0.575   0.444  1.00  0.00     0.210 HD
ENDBRANCH   9  10
ENDBRANCH   8   9
ENDBRANCH   2   7
TORSDOF 6
ENDMDL
MODEL 5
REMARK VINA RESULT:    -5.139      2.360      2.855
REMARK INTER + INTRA:          -7.140
REMARK INTER:                  -6.854
REMARK INTRA:                  -0.287
REMARK UNBOUND:                -0.349
REMARK SMILES CCCCC=CC=CCO
REMARK SMILES IDX 5 1 6 2 4 3 3 4 2 5 1 6 7 7 8 8 9 9 10 10
REMARK H PARENT 10 11
REMARK Flexibility Score: inf
ROOT
ATOM      1  C   UNL     1      -5.586   2.670  -2.041  1.00  0.00    -0.027 C 
ATOM      2  C   UNL     1      -4.495   3.327  -1.639  1.00  0.00    -0.005 C 
ENDROOT
BRANCH   1   3
ATOM      3  C   UNL     1      -6.958   3.264  -1.900  1.00  0.00     0.027 C 
BRANCH   3   4
ATOM      4  C   UNL     1      -7.928   2.273  -1.244  1.00  0.00     0.004 C 
BRANCH   4   5
ATOM      5  C   UNL     1      -7.447   1.885   0.159  1.00  0.00    -0.003 C 
ATOM      6  C   UNL     1      -8.303   0.764   0.745  1.00  0.00     0.004 C 
ENDBRANCH   4   5
ENDBRANCH   3   4
ENDBRANCH   1   3
BRANCH   2   7
ATOM      7  C   UNL     1      -3.155   2.737  -1.796  1.00  0.00    -0.002 C 
ATOM      8  C   UNL     1      -2.885   1.513  -1.337  1.00  0.00     0.001 C 
BRANCH   8   9
ATOM      9  C   UNL     1      -1.521   0.908  -1.482  1.00  0.00     0.183 C 
BRANCH   9  10
ATOM     10  O   UNL     1      -1.623  -0.425  -1.905  1.00  0.00    -0.392 OA
ATOM     11  H   UNL     1      -0.776  -0.643  -2.376  1.00  0.00     0.210 HD
ENDBRANCH   9  10
ENDBRANCH   8   9
ENDBRANCH   2   7
TORSDOF 6
ENDMDL
MODEL 6
REMARK VINA RESULT:    -4.912      1.681      2.421
REMARK INTER + INTRA:          -6.840
REMARK INTER:                  -6.618
REMARK INTRA:                  -0.221
REMARK UNBOUND:                -0.349
REMARK SMILES CCCCC=CC=CCO
REMARK SMILES IDX 5 1 6 2 4 3 3 4 2 5 1 6 7 7 8 8 9 9 10 10
REMARK H PARENT 10 11
REMARK Flexibility Score: inf
ROOT
ATOM      1  C   UNL     1      -7.116   3.064  -1.894  1.00  0.00    -0.027 C 
ATOM      2  C   UNL     1      -5.783   3.131  -1.851  1.00  0.00    -0.005 C 
ENDROOT
BRANCH   1   3
ATOM      3  C   UNL     1      -7.884   2.115  -1.019  1.00  0.00     0.027 C 
BRANCH   3   4
ATOM      4  C   UNL     1      -7.194   1.929   0.338  1.00  0.00     0.004 C 
BRANCH   4   5
ATOM      5  C   UNL     1      -7.586   0.590   0.973  1.00  0.00    -0.003 C 
ATOM      6  C   UNL     1      -9.097   0.498   1.176  1.00  0.00     0.004 C 
ENDBRANCH   4   5
ENDBRANCH   3   4
ENDBRANCH   1   3
BRANCH   2   7
ATOM      7  C   UNL     1      -5.044   4.076  -2.705  1.00  0.00    -0.002 C 
ATOM      8  C   UNL     1      -4.051   3.657  -3.495  1.00  0.00     0.001 C 
BRANCH   8   9
ATOM      9  C   UNL     1      -3.286   4.613  -4.360  1.00  0.00     0.183 C 
BRANCH   9  10
ATOM     10  O   UNL     1      -1.921   4.573  -4.040  1.00  0.00    -0.392 OA
ATOM     11  H   UNL     1      -1.691   5.456  -3.648  1.00  0.00     0.210 HD
ENDBRANCH   9  10
ENDBRANCH   8   9
ENDBRANCH   2   7
TORSDOF 6
ENDMDL
MODEL 7
REMARK VINA RESULT:    -4.862      2.737      3.153
REMARK INTER + INTRA:          -6.774
REMARK INTER:                  -6.565
REMARK INTRA:                  -0.209
REMARK UNBOUND:                -0.349
REMARK SMILES CCCCC=CC=CCO
REMARK SMILES IDX 5 1 6 2 4 3 3 4 2 5 1 6 7 7 8 8 9 9 10 10
REMARK H PARENT 10 11
REMARK Flexibility Score: inf
ROOT
ATOM      1  C   UNL     1      -5.336   2.647  -2.120  1.00  0.00    -0.027 C 
ATOM      2  C   UNL     1      -4.913   2.356  -3.353  1.00  0.00    -0.005 C 
ENDROOT
BRANCH   1   3
ATOM      3  C   UNL     1      -6.689   3.252  -1.875  1.00  0.00     0.027 C 
BRANCH   3   4
ATOM      4  C   UNL     1      -7.652   2.229  -1.261  1.00  0.00     0.004 C 
BRANCH   4   5
ATOM      5  C   UNL     1      -7.267   1.915   0.189  1.00  0.00    -0.003 C 
ATOM      6  C   UNL     1      -8.145   0.807   0.765  1.00  0.00     0.004 C 
ENDBRANCH   4   5
ENDBRANCH   3   4
ENDBRANCH   1   3
BRANCH   2   7
ATOM      7  C   UNL     1      -3.590   1.751  -3.577  1.00  0.00    -0.002 C 
ATOM      8  C   UNL     1      -3.452   0.428  -3.704  1.00  0.00     0.001 C 
BRANCH   8   9
ATOM      9  C   UNL     1      -2.108  -0.200  -3.921  1.00  0.00     0.183 C 
BRANCH   9  10
ATOM     10  O   UNL     1      -2.122  -0.991  -5.078  1.00  0.00    -0.392 OA
ATOM     11  H   UNL     1      -2.680  -1.787  -4.876  1.00  0.00     0.210 HD
ENDBRANCH   9  10
ENDBRANCH   8   9
ENDBRANCH   2   7
TORSDOF 6
ENDMDL
MODEL 8
REMARK VINA RESULT:    -4.845      3.091      3.332
REMARK INTER + INTRA:          -6.751
REMARK INTER:                  -6.438
REMARK INTRA:                  -0.313
REMARK UNBOUND:                -0.349
REMARK SMILES CCCCC=CC=CCO
REMARK SMILES IDX 5 1 6 2 4 3 3 4 2 5 1 6 7 7 8 8 9 9 10 10
REMARK H PARENT 10 11
REMARK Flexibility Score: inf
ROOT
ATOM      1  C   UNL     1      -4.700   3.472  -2.943  1.00  0.00    -0.027 C 
ATOM      2  C   UNL     1      -4.909   2.315  -3.576  1.00  0.00    -0.005 C 
ENDROOT
BRANCH   1   3
ATOM      3  C   UNL     1      -5.481   3.850  -1.717  1.00  0.00     0.027 C 
BRANCH   3   4
ATOM      4  C   UNL     1      -6.467   2.743  -1.324  1.00  0.00     0.004 C 
BRANCH   4   5
ATOM      5  C   UNL     1      -6.290   2.348   0.146  1.00  0.00    -0.003 C 
ATOM      6  C   UNL     1      -5.191   3.176   0.810  1.00  0.00     0.004 C 
ENDBRANCH   4   5
ENDBRANCH   3   4
ENDBRANCH   1   3
BRANCH   2   7
ATOM      7  C   UNL     1      -4.126   1.952  -4.769  1.00  0.00    -0.002 C 
ATOM      8  C   UNL     1      -4.614   2.147  -5.997  1.00  0.00     0.001 C 
BRANCH   8   9
ATOM      9  C   UNL     1      -3.829   1.771  -7.218  1.00  0.00     0.183 C 
BRANCH   9  10
ATOM     10  O   UNL     1      -4.314   0.571  -7.757  1.00  0.00    -0.392 OA
ATOM     11  H   UNL     1      -4.209  -0.124  -7.056  1.00  0.00     0.210 HD
ENDBRANCH   9  10
ENDBRANCH   8   9
ENDBRANCH   2   7
TORSDOF 6
ENDMDL
MODEL 9
REMARK VINA RESULT:    -4.773      2.307      2.519
REMARK INTER + INTRA:          -6.656
REMARK INTER:                  -6.454
REMARK INTRA:                  -0.202
REMARK UNBOUND:                -0.349
REMARK SMILES CCCCC=CC=CCO
REMARK SMILES IDX 5 1 6 2 4 3 3 4 2 5 1 6 7 7 8 8 9 9 10 10
REMARK H PARENT 10 11
REMARK Flexibility Score: inf
ROOT
ATOM      1  C   UNL     1      -5.011   2.814  -1.228  1.00  0.00    -0.027 C 
ATOM      2  C   UNL     1      -5.349   2.708  -2.516  1.00  0.00    -0.005 C 
ENDROOT
BRANCH   1   3
ATOM      3  C   UNL     1      -6.008   2.574  -0.131  1.00  0.00     0.027 C 
BRANCH   3   4
ATOM      4  C   UNL     1      -5.535   3.186   1.193  1.00  0.00     0.004 C 
BRANCH   4   5
ATOM      5  C   UNL     1      -4.035   2.945   1.402  1.00  0.00    -0.003 C 
ATOM      6  C   UNL     1      -3.616   3.288   2.830  1.00  0.00     0.004 C 
ENDBRANCH   4   5
ENDBRANCH   3   4
ENDBRANCH   1   3
BRANCH   2   7
ATOM      7  C   UNL     1      -4.358   2.933  -3.581  1.00  0.00    -0.002 C 
ATOM      8  C   UNL     1      -4.488   2.351  -4.776  1.00  0.00     0.001 C 
BRANCH   8   9
ATOM      9  C   UNL     1      -3.478   2.566  -5.863  1.00  0.00     0.183 C 
BRANCH   9  10
ATOM     10  O   UNL     1      -4.121   2.745  -7.096  1.00  0.00    -0.392 OA
ATOM     11  H   UNL     1      -3.664   2.153  -7.749  1.00  0.00     0.210 HD
ENDBRANCH   9  10
ENDBRANCH   8   9
ENDBRANCH   2   7
TORSDOF 6
ENDMDL
