MODEL 1
REMARK VINA RESULT:    -4.545      0.000      0.000
REMARK INTER + INTRA:          -4.545
REMARK INTER:                  -4.545
REMARK INTRA:                   0.000
REMARK UNBOUND:                 0.000
REMARK SMILES CC1=CC(=O)[C@@H]2C[C@H]1C2(C)C
REMARK SMILES IDX 1 1 2 2 3 3 4 4 5 5 6 6 7 7 8 8 9 9 10 10 11 11
REMARK H PARENT
REMARK Flexibility Score: inf
ROOT
ATOM      1  C   UNL     1      22.322  25.892  43.738  1.00  0.00     0.040 C 
ATOM      2  C   UNL     1      21.329  26.884  43.221  1.00  0.00    -0.066 C 
ATOM      3  C   UNL     1      21.687  27.840  42.319  1.00  0.00     0.047 C 
ATOM      4  C   UNL     1      20.594  28.755  41.856  1.00  0.00     0.159 C 
ATOM      5  O   UNL     1      20.789  29.652  40.994  1.00  0.00    -0.295 OA
ATOM      6  C   UNL     1      19.227  28.520  42.499  1.00  0.00     0.067 C 
ATOM      7  C   UNL     1      19.539  28.366  44.003  1.00  0.00     0.021 C 
ATOM      8  C   UNL     1      19.861  26.887  43.696  1.00  0.00     0.022 C 
ATOM      9  C   UNL     1      18.918  26.997  42.463  1.00  0.00    -0.019 C 
ATOM     10  C   UNL     1      19.287  26.198  41.182  1.00  0.00     0.012 C 
ATOM     11  C   UNL     1      17.442  26.687  42.820  1.00  0.00     0.012 C 
ENDROOT
TORSDOF 0
ENDMDL
MODEL 2
REMARK VINA RESULT:    -4.221      1.756      3.586
REMARK INTER + INTRA:          -4.221
REMARK INTER:                  -4.221
REMARK INTRA:                   0.000
REMARK UNBOUND:                 0.000
REMARK SMILES CC1=CC(=O)[C@@H]2C[C@H]1C2(C)C
REMARK SMILES IDX 1 1 2 2 3 3 4 4 5 5 6 6 7 7 8 8 9 9 10 10 11 11
REMARK H PARENT
REMARK Flexibility Score: inf
ROOT
ATOM      1  C   UNL     1      17.249  29.421  43.872  1.00  0.00     0.040 C 
ATOM      2  C   UNL     1      18.213  28.459  43.253  1.00  0.00    -0.066 C 
ATOM      3  C   UNL     1      17.802  27.529  42.347  1.00  0.00     0.047 C 
ATOM      4  C   UNL     1      18.869  26.644  41.776  1.00  0.00     0.159 C 
ATOM      5  O   UNL     1      18.622  25.773  40.901  1.00  0.00    -0.295 OA
ATOM      6  C   UNL     1      20.276  26.875  42.328  1.00  0.00     0.067 C 
ATOM      7  C   UNL     1      20.070  26.975  43.856  1.00  0.00     0.021 C 
ATOM      8  C   UNL     1      19.712  28.459  43.622  1.00  0.00     0.022 C 
ATOM      9  C   UNL     1      20.566  28.403  42.322  1.00  0.00    -0.019 C 
ATOM     10  C   UNL     1      20.097  29.238  41.098  1.00  0.00     0.012 C 
ATOM     11  C   UNL     1      22.059  28.720  42.584  1.00  0.00     0.012 C 
ENDROOT
TORSDOF 0
ENDMDL
MODEL 3
REMARK VINA RESULT:    -4.170      1.446      2.057
REMARK INTER + INTRA:          -4.170
REMARK INTER:                  -4.170
REMARK INTRA:                   0.000
REMARK UNBOUND:                 0.000
REMARK SMILES CC1=CC(=O)[C@@H]2C[C@H]1C2(C)C
REMARK SMILES IDX 1 1 2 2 3 3 4 4 5 5 6 6 7 7 8 8 9 9 10 10 11 11
REMARK H PARENT
REMARK Flexibility Score: inf
ROOT
ATOM      1  C   UNL     1      21.706  25.761  43.765  1.00  0.00     0.040 C 
ATOM      2  C   UNL     1      20.862  26.565  42.829  1.00  0.00    -0.066 C 
ATOM      3  C   UNL     1      20.561  26.114  41.580  1.00  0.00     0.047 C 
ATOM      4  C   UNL     1      19.681  27.000  40.750  1.00  0.00     0.159 C 
ATOM      5  O   UNL     1      19.300  26.676  39.595  1.00  0.00    -0.295 OA
ATOM      6  C   UNL     1      19.278  28.321  41.405  1.00  0.00     0.067 C 
ATOM      7  C   UNL     1      20.593  28.861  42.008  1.00  0.00     0.021 C 
ATOM      8  C   UNL     1      20.307  27.951  43.224  1.00  0.00     0.022 C 
ATOM      9  C   UNL     1      18.797  28.028  42.855  1.00  0.00    -0.019 C 
ATOM     10  C   UNL     1      17.915  26.772  43.101  1.00  0.00     0.012 C 
ATOM     11  C   UNL     1      18.095  29.250  43.500  1.00  0.00     0.012 C 
ENDROOT
TORSDOF 0
ENDMDL
MODEL 4
REMARK VINA RESULT:    -4.153      1.838      2.679
REMARK INTER + INTRA:          -4.153
REMARK INTER:                  -4.153
REMARK INTRA:                   0.000
REMARK UNBOUND:                 0.000
REMARK SMILES CC1=CC(=O)[C@@H]2C[C@H]1C2(C)C
REMARK SMILES IDX 1 1 2 2 3 3 4 4 5 5 6 6 7 7 8 8 9 9 10 10 11 11
REMARK H PARENT
REMARK Flexibility Score: inf
ROOT
ATOM      1  C   UNL     1      20.994  26.615  43.619  1.00  0.00     0.040 C 
ATOM      2  C   UNL     1      19.687  27.262  43.289  1.00  0.00    -0.066 C 
ATOM      3  C   UNL     1      19.263  28.378  43.945  1.00  0.00     0.047 C 
ATOM      4  C   UNL     1      17.950  28.949  43.500  1.00  0.00     0.159 C 
ATOM      5  O   UNL     1      17.471  30.000  44.001  1.00  0.00    -0.295 OA
ATOM      6  C   UNL     1      17.237  28.168  42.397  1.00  0.00     0.067 C 
ATOM      7  C   UNL     1      17.342  26.695  42.848  1.00  0.00     0.021 C 
ATOM      8  C   UNL     1      18.747  26.690  42.206  1.00  0.00     0.022 C 
ATOM      9  C   UNL     1      18.265  27.841  41.277  1.00  0.00    -0.019 C 
ATOM     10  C   UNL     1      19.290  28.937  40.873  1.00  0.00     0.012 C 
ATOM     11  C   UNL     1      17.585  27.313  39.988  1.00  0.00     0.012 C 
ENDROOT
TORSDOF 0
ENDMDL
MODEL 5
REMARK VINA RESULT:    -4.121      1.913      2.856
REMARK INTER + INTRA:          -4.121
REMARK INTER:                  -4.121
REMARK INTRA:                   0.000
REMARK UNBOUND:                 0.000
REMARK SMILES CC1=CC(=O)[C@@H]2C[C@H]1C2(C)C
REMARK SMILES IDX 1 1 2 2 3 3 4 4 5 5 6 6 7 7 8 8 9 9 10 10 11 11
REMARK H PARENT
REMARK Flexibility Score: inf
ROOT
ATOM      1  C   UNL     1      24.416  28.263  42.716  1.00  0.00     0.040 C 
ATOM      2  C   UNL     1      23.028  27.736  42.894  1.00  0.00    -0.066 C 
ATOM      3  C   UNL     1      22.000  28.554  43.254  1.00  0.00     0.047 C 
ATOM      4  C   UNL     1      20.652  27.910  43.370  1.00  0.00     0.159 C 
ATOM      5  O   UNL     1      19.616  28.567  43.656  1.00  0.00    -0.295 OA
ATOM      6  C   UNL     1      20.621  26.403  43.116  1.00  0.00     0.067 C 
ATOM      7  C   UNL     1      21.824  25.861  43.918  1.00  0.00     0.021 C 
ATOM      8  C   UNL     1      22.696  26.241  42.701  1.00  0.00     0.022 C 
ATOM      9  C   UNL     1      21.422  26.104  41.817  1.00  0.00    -0.019 C 
ATOM     10  C   UNL     1      21.258  27.069  40.609  1.00  0.00     0.012 C 
ATOM     11  C   UNL     1      21.208  24.654  41.313  1.00  0.00     0.012 C 
ENDROOT
TORSDOF 0
ENDMDL
MODEL 6
REMARK VINA RESULT:    -4.032      1.580      3.504
REMARK INTER + INTRA:          -4.032
REMARK INTER:                  -4.032
REMARK INTRA:                   0.000
REMARK UNBOUND:                 0.000
REMARK SMILES CC1=CC(=O)[C@@H]2C[C@H]1C2(C)C
REMARK SMILES IDX 1 1 2 2 3 3 4 4 5 5 6 6 7 7 8 8 9 9 10 10 11 11
REMARK H PARENT
REMARK Flexibility Score: inf
ROOT
ATOM      1  C   UNL     1      19.622  25.970  40.398  1.00  0.00     0.040 C 
ATOM      2  C   UNL     1      20.150  26.862  41.476  1.00  0.00    -0.066 C 
ATOM      3  C   UNL     1      19.350  27.304  42.486  1.00  0.00     0.047 C 
ATOM      4  C   UNL     1      20.007  28.167  43.521  1.00  0.00     0.159 C 
ATOM      5  O   UNL     1      19.384  28.604  44.524  1.00  0.00    -0.295 OA
ATOM      6  C   UNL     1      21.484  28.476  43.275  1.00  0.00     0.067 C 
ATOM      7  C   UNL     1      21.546  28.856  41.780  1.00  0.00     0.021 C 
ATOM      8  C   UNL     1      21.618  27.340  41.488  1.00  0.00     0.022 C 
ATOM      9  C   UNL     1      22.213  27.151  42.913  1.00  0.00    -0.019 C 
ATOM     10  C   UNL     1      21.841  25.864  43.700  1.00  0.00     0.012 C 
ATOM     11  C   UNL     1      23.755  27.303  42.933  1.00  0.00     0.012 C 
ENDROOT
TORSDOF 0
ENDMDL
MODEL 7
REMARK VINA RESULT:    -4.005      1.830      3.277
REMARK INTER + INTRA:          -4.005
REMARK INTER:                  -4.005
REMARK INTRA:                   0.000
REMARK UNBOUND:                 0.000
REMARK SMILES CC1=CC(=O)[C@@H]2C[C@H]1C2(C)C
REMARK SMILES IDX 1 1 2 2 3 3 4 4 5 5 6 6 7 7 8 8 9 9 10 10 11 11
REMARK H PARENT
REMARK Flexibility Score: inf
ROOT
ATOM      1  C   UNL     1      17.510  29.626  43.681  1.00  0.00     0.040 C 
ATOM      2  C   UNL     1      18.606  28.755  43.155  1.00  0.00    -0.066 C 
ATOM      3  C   UNL     1      19.305  27.922  43.976  1.00  0.00     0.047 C 
ATOM      4  C   UNL     1      20.357  27.078  43.322  1.00  0.00     0.159 C 
ATOM      5  O   UNL     1      21.043  26.241  43.967  1.00  0.00    -0.295 OA
ATOM      6  C   UNL     1      20.538  27.303  41.821  1.00  0.00     0.067 C 
ATOM      7  C   UNL     1      20.555  28.839  41.669  1.00  0.00     0.021 C 
ATOM      8  C   UNL     1      19.012  28.769  41.666  1.00  0.00     0.022 C 
ATOM      9  C   UNL     1      19.136  27.306  41.149  1.00  0.00    -0.019 C 
ATOM     10  C   UNL     1      18.085  26.266  41.627  1.00  0.00     0.012 C 
ATOM     11  C   UNL     1      19.224  27.233  39.603  1.00  0.00     0.012 C 
ENDROOT
TORSDOF 0
ENDMDL
MODEL 8
REMARK VINA RESULT:    -3.998      1.221      3.162
REMARK INTER + INTRA:          -3.998
REMARK INTER:                  -3.998
REMARK INTRA:                   0.000
REMARK UNBOUND:                 0.000
REMARK SMILES CC1=CC(=O)[C@@H]2C[C@H]1C2(C)C
REMARK SMILES IDX 1 1 2 2 3 3 4 4 5 5 6 6 7 7 8 8 9 9 10 10 11 11
REMARK H PARENT
REMARK Flexibility Score: inf
ROOT
ATOM      1  C   UNL     1      18.396  29.001  43.958  1.00  0.00     0.040 C 
ATOM      2  C   UNL     1      19.321  28.324  42.997  1.00  0.00    -0.066 C 
ATOM      3  C   UNL     1      19.520  28.814  41.742  1.00  0.00     0.047 C 
ATOM      4  C   UNL     1      20.495  28.063  40.886  1.00  0.00     0.159 C 
ATOM      5  O   UNL     1      20.794  28.438  39.721  1.00  0.00    -0.295 OA
ATOM      6  C   UNL     1      21.101  26.813  41.525  1.00  0.00     0.067 C 
ATOM      7  C   UNL     1      19.893  26.091  42.161  1.00  0.00     0.021 C 
ATOM      8  C   UNL     1      20.079  27.032  43.371  1.00  0.00     0.022 C 
ATOM      9  C   UNL     1      21.574  27.172  42.962  1.00  0.00    -0.019 C 
ATOM     10  C   UNL     1      22.273  28.541  43.189  1.00  0.00     0.012 C 
ATOM     11  C   UNL     1      22.461  26.064  43.584  1.00  0.00     0.012 C 
ENDROOT
TORSDOF 0
ENDMDL
MODEL 9
REMARK VINA RESULT:    -3.956      1.724      2.987
REMARK INTER + INTRA:          -3.956
REMARK INTER:                  -3.956
REMARK INTRA:                   0.000
REMARK UNBOUND:                 0.000
REMARK SMILES CC1=CC(=O)[C@@H]2C[C@H]1C2(C)C
REMARK SMILES IDX 1 1 2 2 3 3 4 4 5 5 6 6 7 7 8 8 9 9 10 10 11 11
REMARK H PARENT
REMARK Flexibility Score: inf
ROOT
ATOM      1  C   UNL     1      21.518  29.591  40.877  1.00  0.00     0.040 C 
ATOM      2  C   UNL     1      21.111  28.363  41.628  1.00  0.00    -0.066 C 
ATOM      3  C   UNL     1      21.988  27.701  42.432  1.00  0.00     0.047 C 
ATOM      4  C   UNL     1      21.450  26.502  43.154  1.00  0.00     0.159 C 
ATOM      5  O   UNL     1      22.150  25.831  43.956  1.00  0.00    -0.295 OA
ATOM      6  C   UNL     1      19.993  26.154  42.849  1.00  0.00     0.067 C 
ATOM      7  C   UNL     1      19.894  26.257  41.311  1.00  0.00     0.021 C 
ATOM      8  C   UNL     1      19.688  27.775  41.513  1.00  0.00     0.022 C 
ATOM      9  C   UNL     1      19.144  27.454  42.936  1.00  0.00    -0.019 C 
ATOM     10  C   UNL     1      19.448  28.459  44.082  1.00  0.00     0.012 C 
ATOM     11  C   UNL     1      17.622  27.165  42.933  1.00  0.00     0.012 C 
ENDROOT
TORSDOF 0
ENDMDL
