MODEL 1
REMARK VINA RESULT:    -4.036      0.000      0.000
REMARK INTER + INTRA:          -4.517
REMARK INTER:                  -4.390
REMARK INTRA:                  -0.128
REMARK UNBOUND:                -0.128
REMARK SMILES Cc1ccc(C(C)C)cc1O
REMARK SMILES IDX 1 1 2 2 10 3 9 4 5 5 4 6 3 7 11 8 6 10 7 11 8 12
REMARK H PARENT 11 9
REMARK Flexibility Score: inf
ROOT
ATOM      1  C   UNL     1     133.227 146.749 121.775  1.00  0.00     0.048 C 
ATOM      2  C   UNL     1     131.817 146.425 121.364  1.00  0.00    -0.009 A 
ATOM      3  C   UNL     1     130.773 146.367 122.313  1.00  0.00     0.118 A 
ATOM      4  C   UNL     1     129.472 146.062 121.898  1.00  0.00     0.050 A 
ATOM      5  C   UNL     1     129.185 145.811 120.544  1.00  0.00    -0.042 A 
ATOM      6  C   UNL     1     130.228 145.871 119.608  1.00  0.00     0.004 A 
ATOM      7  C   UNL     1     131.530 146.174 120.013  1.00  0.00     0.007 A 
ENDROOT
BRANCH   3   8
ATOM      8  O   UNL     1     130.995 146.606 123.672  1.00  0.00    -0.508 OA
ATOM      9  H   UNL     1     131.792 146.236 124.174  1.00  0.00     0.293 HD
ENDBRANCH   3   8
BRANCH   5  10
ATOM     10  C   UNL     1     127.775 145.480 120.089  1.00  0.00     0.013 C 
ATOM     11  C   UNL     1     126.875 146.720 120.134  1.00  0.00     0.012 C 
ATOM     12  C   UNL     1     127.780 144.853 118.690  1.00  0.00     0.012 C 
ENDBRANCH   5  10
TORSDOF 2
ENDMDL
MODEL 2
REMARK VINA RESULT:    -3.984      4.416      5.266
REMARK INTER + INTRA:          -4.460
REMARK INTER:                  -4.333
REMARK INTRA:                  -0.128
REMARK UNBOUND:                -0.128
REMARK SMILES Cc1ccc(C(C)C)cc1O
REMARK SMILES IDX 1 1 2 2 10 3 9 4 5 5 4 6 3 7 11 8 6 10 7 11 8 12
REMARK H PARENT 11 9
REMARK Flexibility Score: inf
ROOT
ATOM      1  C   UNL     1     129.749 139.128 121.323  1.00  0.00     0.048 C 
ATOM      2  C   UNL     1     129.085 140.422 120.941  1.00  0.00    -0.009 A 
ATOM      3  C   UNL     1     127.696 140.612 121.117  1.00  0.00     0.118 A 
ATOM      4  C   UNL     1     127.109 141.829 120.751  1.00  0.00     0.050 A 
ATOM      5  C   UNL     1     127.882 142.871 120.209  1.00  0.00    -0.042 A 
ATOM      6  C   UNL     1     129.261 142.674 120.038  1.00  0.00     0.004 A 
ATOM      7  C   UNL     1     129.856 141.463 120.399  1.00  0.00     0.007 A 
ENDROOT
BRANCH   3   8
ATOM      8  O   UNL     1     126.875 139.616 121.650  1.00  0.00    -0.508 OA
ATOM      9  H   UNL     1     125.872 139.596 121.515  1.00  0.00     0.293 HD
ENDBRANCH   3   8
BRANCH   5  10
ATOM     10  C   UNL     1     127.250 144.192 119.811  1.00  0.00     0.013 C 
ATOM     11  C   UNL     1     127.272 145.188 120.977  1.00  0.00     0.012 C 
ATOM     12  C   UNL     1     127.935 144.780 118.572  1.00  0.00     0.012 C 
ENDBRANCH   5  10
TORSDOF 2
ENDMDL
MODEL 3
REMARK VINA RESULT:    -3.910      2.067      2.555
REMARK INTER + INTRA:          -4.381
REMARK INTER:                  -4.263
REMARK INTRA:                  -0.118
REMARK UNBOUND:                -0.128
REMARK SMILES Cc1ccc(C(C)C)cc1O
REMARK SMILES IDX 1 1 2 2 10 3 9 4 5 5 4 6 3 7 11 8 6 10 7 11 8 12
REMARK H PARENT 11 9
REMARK Flexibility Score: inf
ROOT
ATOM      1  C   UNL     1     133.592 144.834 119.905  1.00  0.00     0.048 C 
ATOM      2  C   UNL     1     132.101 144.699 119.758  1.00  0.00    -0.009 A 
ATOM      3  C   UNL     1     131.249 145.819 119.883  1.00  0.00     0.118 A 
ATOM      4  C   UNL     1     129.865 145.659 119.740  1.00  0.00     0.050 A 
ATOM      5  C   UNL     1     129.307 144.397 119.474  1.00  0.00    -0.042 A 
ATOM      6  C   UNL     1     130.161 143.290 119.351  1.00  0.00     0.004 A 
ATOM      7  C   UNL     1     131.542 143.439 119.492  1.00  0.00     0.007 A 
ENDROOT
BRANCH   3   8
ATOM      8  O   UNL     1     131.743 147.098 120.147  1.00  0.00    -0.508 OA
ATOM      9  H   UNL     1     131.331 147.718 120.833  1.00  0.00     0.293 HD
ENDBRANCH   3   8
BRANCH   5  10
ATOM     10  C   UNL     1     127.808 144.219 119.318  1.00  0.00     0.013 C 
ATOM     11  C   UNL     1     127.271 143.168 120.298  1.00  0.00     0.012 C 
ATOM     12  C   UNL     1     127.073 145.554 119.484  1.00  0.00     0.012 C 
ENDBRANCH   5  10
TORSDOF 2
ENDMDL
MODEL 4
REMARK VINA RESULT:    -3.881      2.190      2.408
REMARK INTER + INTRA:          -4.349
REMARK INTER:                  -4.222
REMARK INTRA:                  -0.128
REMARK UNBOUND:                -0.128
REMARK SMILES Cc1ccc(C(C)C)cc1O
REMARK SMILES IDX 1 1 2 2 10 3 9 4 5 5 4 6 3 7 11 8 6 10 7 11 8 12
REMARK H PARENT 11 9
REMARK Flexibility Score: inf
ROOT
ATOM      1  C   UNL     1     134.156 146.362 119.737  1.00  0.00     0.048 C 
ATOM      2  C   UNL     1     132.703 145.975 119.773  1.00  0.00    -0.009 A 
ATOM      3  C   UNL     1     132.307 144.620 119.811  1.00  0.00     0.118 A 
ATOM      4  C   UNL     1     130.946 144.293 119.844  1.00  0.00     0.050 A 
ATOM      5  C   UNL     1     129.962 145.297 119.839  1.00  0.00    -0.042 A 
ATOM      6  C   UNL     1     130.364 146.641 119.802  1.00  0.00     0.004 A 
ATOM      7  C   UNL     1     131.719 146.976 119.768  1.00  0.00     0.007 A 
ENDROOT
BRANCH   3   8
ATOM      8  O   UNL     1     133.238 143.578 119.817  1.00  0.00    -0.508 OA
ATOM      9  H   UNL     1     133.375 142.965 120.612  1.00  0.00     0.293 HD
ENDBRANCH   3   8
BRANCH   5  10
ATOM     10  C   UNL     1     128.485 144.948 119.875  1.00  0.00     0.013 C 
ATOM     11  C   UNL     1     127.658 146.104 120.451  1.00  0.00     0.012 C 
ATOM     12  C   UNL     1     127.979 144.546 118.485  1.00  0.00     0.012 C 
ENDBRANCH   5  10
TORSDOF 2
ENDMDL
MODEL 5
REMARK VINA RESULT:    -3.831      2.150      4.291
REMARK INTER + INTRA:          -4.294
REMARK INTER:                  -4.174
REMARK INTRA:                  -0.120
REMARK UNBOUND:                -0.128
REMARK SMILES Cc1ccc(C(C)C)cc1O
REMARK SMILES IDX 1 1 2 2 10 3 9 4 5 5 4 6 3 7 11 8 6 10 7 11 8 12
REMARK H PARENT 11 9
REMARK Flexibility Score: inf
ROOT
ATOM      1  C   UNL     1     128.002 144.951 118.254  1.00  0.00     0.048 C 
ATOM      2  C   UNL     1     128.093 145.414 119.681  1.00  0.00    -0.009 A 
ATOM      3  C   UNL     1     129.335 145.480 120.352  1.00  0.00     0.118 A 
ATOM      4  C   UNL     1     129.385 145.916 121.681  1.00  0.00     0.050 A 
ATOM      5  C   UNL     1     128.215 146.288 122.364  1.00  0.00    -0.042 A 
ATOM      6  C   UNL     1     126.985 146.220 121.691  1.00  0.00     0.004 A 
ATOM      7  C   UNL     1     126.925 145.786 120.365  1.00  0.00     0.007 A 
ENDROOT
BRANCH   3   8
ATOM      8  O   UNL     1     130.532 145.123 119.726  1.00  0.00    -0.508 OA
ATOM      9  H   UNL     1     131.110 145.784 119.222  1.00  0.00     0.293 HD
ENDBRANCH   3   8
BRANCH   5  10
ATOM     10  C   UNL     1     128.265 146.761 123.806  1.00  0.00     0.013 C 
ATOM     11  C   UNL     1     127.267 145.987 124.676  1.00  0.00     0.012 C 
ATOM     12  C   UNL     1     129.686 146.658 124.372  1.00  0.00     0.012 C 
ENDBRANCH   5  10
TORSDOF 2
ENDMDL
MODEL 6
REMARK VINA RESULT:    -3.823     14.565     15.879
REMARK INTER + INTRA:          -4.286
REMARK INTER:                  -4.168
REMARK INTRA:                  -0.118
REMARK UNBOUND:                -0.128
REMARK SMILES Cc1ccc(C(C)C)cc1O
REMARK SMILES IDX 1 1 2 2 10 3 9 4 5 5 4 6 3 7 11 8 6 10 7 11 8 12
REMARK H PARENT 11 9
REMARK Flexibility Score: inf
ROOT
ATOM      1  C   UNL     1     146.023 139.243 120.771  1.00  0.00     0.048 C 
ATOM      2  C   UNL     1     145.621 140.677 120.564  1.00  0.00    -0.009 A 
ATOM      3  C   UNL     1     145.313 141.517 121.658  1.00  0.00     0.118 A 
ATOM      4  C   UNL     1     144.941 142.847 121.430  1.00  0.00     0.050 A 
ATOM      5  C   UNL     1     144.868 143.364 120.125  1.00  0.00    -0.042 A 
ATOM      6  C   UNL     1     145.176 142.523 119.044  1.00  0.00     0.004 A 
ATOM      7  C   UNL     1     145.547 141.195 119.261  1.00  0.00     0.007 A 
ENDROOT
BRANCH   3   8
ATOM      8  O   UNL     1     145.367 141.061 122.977  1.00  0.00    -0.508 OA
ATOM      9  H   UNL     1     144.967 141.573 123.754  1.00  0.00     0.293 HD
ENDBRANCH   3   8
BRANCH   5  10
ATOM     10  C   UNL     1     144.466 144.806 119.873  1.00  0.00     0.013 C 
ATOM     11  C   UNL     1     144.142 145.526 121.188  1.00  0.00     0.012 C 
ATOM     12  C   UNL     1     145.551 145.553 119.089  1.00  0.00     0.012 C 
ENDBRANCH   5  10
TORSDOF 2
ENDMDL
MODEL 7
REMARK VINA RESULT:    -3.670     14.094     15.145
REMARK INTER + INTRA:          -4.119
REMARK INTER:                  -4.001
REMARK INTRA:                  -0.118
REMARK UNBOUND:                -0.128
REMARK SMILES Cc1ccc(C(C)C)cc1O
REMARK SMILES IDX 1 1 2 2 10 3 9 4 5 5 4 6 3 7 11 8 6 10 7 11 8 12
REMARK H PARENT 11 9
REMARK Flexibility Score: inf
ROOT
ATOM      1  C   UNL     1     143.691 146.146 122.888  1.00  0.00     0.048 C 
ATOM      2  C   UNL     1     144.092 145.049 121.942  1.00  0.00    -0.009 A 
ATOM      3  C   UNL     1     144.798 143.912 122.395  1.00  0.00     0.118 A 
ATOM      4  C   UNL     1     145.156 142.908 121.488  1.00  0.00     0.050 A 
ATOM      5  C   UNL     1     144.826 143.014 120.126  1.00  0.00    -0.042 A 
ATOM      6  C   UNL     1     144.125 144.146 119.684  1.00  0.00     0.004 A 
ATOM      7  C   UNL     1     143.763 145.153 120.581  1.00  0.00     0.007 A 
ENDROOT
BRANCH   3   8
ATOM      8  O   UNL     1     145.155 143.750 123.736  1.00  0.00    -0.508 OA
ATOM      9  H   UNL     1     144.670 143.121 124.364  1.00  0.00     0.293 HD
ENDBRANCH   3   8
BRANCH   5  10
ATOM     10  C   UNL     1     145.213 141.928 119.138  1.00  0.00     0.013 C 
ATOM     11  C   UNL     1     145.964 140.788 119.836  1.00  0.00     0.012 C 
ATOM     12  C   UNL     1     143.984 141.400 118.389  1.00  0.00     0.012 C 
ENDBRANCH   5  10
TORSDOF 2
ENDMDL
MODEL 8
REMARK VINA RESULT:    -3.658      3.460      4.833
REMARK INTER + INTRA:          -4.107
REMARK INTER:                  -3.979
REMARK INTRA:                  -0.127
REMARK UNBOUND:                -0.128
REMARK SMILES Cc1ccc(C(C)C)cc1O
REMARK SMILES IDX 1 1 2 2 10 3 9 4 5 5 4 6 3 7 11 8 6 10 7 11 8 12
REMARK H PARENT 11 9
REMARK Flexibility Score: inf
ROOT
ATOM      1  C   UNL     1     127.627 139.943 121.566  1.00  0.00     0.048 C 
ATOM      2  C   UNL     1     127.631 141.443 121.458  1.00  0.00    -0.009 A 
ATOM      3  C   UNL     1     128.007 142.255 122.551  1.00  0.00     0.118 A 
ATOM      4  C   UNL     1     128.000 143.648 122.417  1.00  0.00     0.050 A 
ATOM      5  C   UNL     1     127.622 144.256 121.208  1.00  0.00    -0.042 A 
ATOM      6  C   UNL     1     127.250 143.443 120.127  1.00  0.00     0.004 A 
ATOM      7  C   UNL     1     127.254 142.052 120.250  1.00  0.00     0.007 A 
ENDROOT
BRANCH   3   8
ATOM      8  O   UNL     1     128.392 141.710 123.778  1.00  0.00    -0.508 OA
ATOM      9  H   UNL     1     127.828 141.039 124.285  1.00  0.00     0.293 HD
ENDBRANCH   3   8
BRANCH   5  10
ATOM     10  C   UNL     1     127.613 145.767 121.058  1.00  0.00     0.013 C 
ATOM     11  C   UNL     1     126.876 146.191 119.782  1.00  0.00     0.012 C 
ATOM     12  C   UNL     1     127.006 146.441 122.294  1.00  0.00     0.012 C 
ENDBRANCH   5  10
TORSDOF 2
ENDMDL
