MODEL 1
REMARK VINA RESULT:    -4.073      0.000      0.000
REMARK INTER + INTRA:          -5.168
REMARK INTER:                  -4.907
REMARK INTRA:                  -0.261
REMARK UNBOUND:                -0.261
REMARK SMILES NC(=O)C[C@H]([NH3+])C(=O)[O-]
REMARK SMILES IDX 4 1 5 2 6 3 7 7 8 8 9 9 2 10 3 11 1 12
REMARK H PARENT 6 4 6 5 6 6 1 13 1 14
REMARK Flexibility Score: inf
ROOT
ATOM      1  C   UNL     1     -16.053 -24.427   7.240  1.00  0.00     0.171 C 
ENDROOT
BRANCH   1   2
ATOM      2  C   UNL     1     -16.681 -23.493   6.185  1.00  0.00     0.237 C 
BRANCH   2   3
ATOM      3  N   UNL     1     -16.287 -23.880   4.824  1.00  0.00    -0.350 N 
ATOM      4  H   UNL     1     -15.267 -24.106   4.797  1.00  0.00     0.345 HD
ATOM      5  H   UNL     1     -16.486 -23.108   4.146  1.00  0.00     0.345 HD
ATOM      6  H   UNL     1     -16.813 -24.736   4.532  1.00  0.00     0.345 HD
ENDBRANCH   2   3
BRANCH   2   7
ATOM      7  C   UNL     1     -16.267 -22.071   6.458  1.00  0.00     0.100 C 
ATOM      8  O   UNL     1     -15.835 -21.348   5.523  1.00  0.00    -0.544 OA
ATOM      9  O   UNL     1     -16.374 -21.544   7.740  1.00  0.00    -0.544 OA
ENDBRANCH   2   7
ENDBRANCH   1   2
BRANCH   1  10
ATOM     10  C   UNL     1     -17.062 -24.870   8.258  1.00  0.00     0.223 C 
ATOM     11  O   UNL     1     -17.797 -25.865   8.021  1.00  0.00    -0.275 OA
ATOM     12  N   UNL     1     -17.214 -24.153   9.483  1.00  0.00    -0.369 N 
ATOM     13  H   UNL     1     -17.926 -24.455  10.187  1.00  0.00     0.159 HD
ATOM     14  H   UNL     1     -16.620 -23.320   9.690  1.00  0.00     0.159 HD
ENDBRANCH   1  10
TORSDOF 4
ENDMDL
MODEL 2
REMARK VINA RESULT:    -4.072      1.234      1.641
REMARK INTER + INTRA:          -5.166
REMARK INTER:                  -4.919
REMARK INTRA:                  -0.247
REMARK UNBOUND:                -0.261
REMARK SMILES NC(=O)C[C@H]([NH3+])C(=O)[O-]
REMARK SMILES IDX 4 1 5 2 6 3 7 7 8 8 9 9 2 10 3 11 1 12
REMARK H PARENT 6 4 6 5 6 6 1 13 1 14
REMARK Flexibility Score: inf
ROOT
ATOM      1  C   UNL     1     -15.632 -24.294   7.541  1.00  0.00     0.171 C 
ENDROOT
BRANCH   1   2
ATOM      2  C   UNL     1     -16.004 -23.446   6.308  1.00  0.00     0.237 C 
BRANCH   2   3
ATOM      3  N   UNL     1     -16.502 -24.285   5.210  1.00  0.00    -0.350 N 
ATOM      4  H   UNL     1     -15.781 -24.352   4.456  1.00  0.00     0.345 HD
ATOM      5  H   UNL     1     -17.382 -23.887   4.808  1.00  0.00     0.345 HD
ATOM      6  H   UNL     1     -16.691 -25.252   5.560  1.00  0.00     0.345 HD
ENDBRANCH   2   3
BRANCH   2   7
ATOM      7  C   UNL     1     -14.801 -22.660   5.854  1.00  0.00     0.100 C 
ATOM      8  O   UNL     1     -14.251 -21.839   6.634  1.00  0.00    -0.544 OA
ATOM      9  O   UNL     1     -14.282 -22.848   4.578  1.00  0.00    -0.544 OA
ENDBRANCH   2   7
ENDBRANCH   1   2
BRANCH   1  10
ATOM     10  C   UNL     1     -16.850 -24.738   8.296  1.00  0.00     0.223 C 
ATOM     11  O   UNL     1     -17.562 -25.674   7.844  1.00  0.00    -0.275 OA
ATOM     12  N   UNL     1     -17.224 -24.087   9.510  1.00  0.00    -0.369 N 
ATOM     13  H   UNL     1     -18.079 -24.388  10.029  1.00  0.00     0.159 HD
ATOM     14  H   UNL     1     -16.649 -23.303   9.892  1.00  0.00     0.159 HD
ENDBRANCH   1  10
TORSDOF 4
ENDMDL
MODEL 3
REMARK VINA RESULT:    -4.020      1.695      1.981
REMARK INTER + INTRA:          -5.104
REMARK INTER:                  -4.705
REMARK INTRA:                  -0.399
REMARK UNBOUND:                -0.261
REMARK SMILES NC(=O)C[C@H]([NH3+])C(=O)[O-]
REMARK SMILES IDX 4 1 5 2 6 3 7 7 8 8 9 9 2 10 3 11 1 12
REMARK H PARENT 6 4 6 5 6 6 1 13 1 14
REMARK Flexibility Score: inf
ROOT
ATOM      1  C   UNL     1     -16.714 -23.072   6.743  1.00  0.00     0.171 C 
ENDROOT
BRANCH   1   2
ATOM      2  C   UNL     1     -16.341 -22.980   5.250  1.00  0.00     0.237 C 
BRANCH   2   3
ATOM      3  N   UNL     1     -16.480 -24.281   4.582  1.00  0.00    -0.350 N 
ATOM      4  H   UNL     1     -17.263 -24.823   5.012  1.00  0.00     0.345 HD
ATOM      5  H   UNL     1     -15.595 -24.836   4.660  1.00  0.00     0.345 HD
ATOM      6  H   UNL     1     -16.706 -24.139   3.571  1.00  0.00     0.345 HD
ENDBRANCH   2   3
BRANCH   2   7
ATOM      7  C   UNL     1     -14.928 -22.476   5.111  1.00  0.00     0.100 C 
ATOM      8  O   UNL     1     -14.145 -23.011   4.284  1.00  0.00    -0.544 OA
ATOM      9  O   UNL     1     -14.486 -21.409   5.884  1.00  0.00    -0.544 OA
ENDBRANCH   2   7
ENDBRANCH   1   2
BRANCH   1  10
ATOM     10  C   UNL     1     -15.920 -24.131   7.449  1.00  0.00     0.223 C 
ATOM     11  O   UNL     1     -16.311 -25.328   7.427  1.00  0.00    -0.275 OA
ATOM     12  N   UNL     1     -14.738 -23.786   8.171  1.00  0.00    -0.369 N 
ATOM     13  H   UNL     1     -14.192 -24.522   8.673  1.00  0.00     0.159 HD
ATOM     14  H   UNL     1     -14.406 -22.797   8.208  1.00  0.00     0.159 HD
ENDBRANCH   1  10
TORSDOF 4
ENDMDL
MODEL 4
REMARK VINA RESULT:    -3.901      4.033      5.605
REMARK INTER + INTRA:          -4.960
REMARK INTER:                  -4.825
REMARK INTRA:                  -0.135
REMARK UNBOUND:                -0.261
REMARK SMILES NC(=O)C[C@H]([NH3+])C(=O)[O-]
REMARK SMILES IDX 4 1 5 2 6 3 7 7 8 8 9 9 2 10 3 11 1 12
REMARK H PARENT 6 4 6 5 6 6 1 13 1 14
REMARK Flexibility Score: inf
ROOT
ATOM      1  C   UNL     1     -18.167 -22.663  10.279  1.00  0.00     0.171 C 
ENDROOT
BRANCH   1   2
ATOM      2  C   UNL     1     -17.777 -22.623  11.770  1.00  0.00     0.237 C 
BRANCH   2   3
ATOM      3  N   UNL     1     -17.090 -23.856  12.178  1.00  0.00    -0.350 N 
ATOM      4  H   UNL     1     -17.677 -24.382  12.865  1.00  0.00     0.345 HD
ATOM      5  H   UNL     1     -16.164 -23.638  12.614  1.00  0.00     0.345 HD
ATOM      6  H   UNL     1     -16.941 -24.471  11.346  1.00  0.00     0.345 HD
ENDBRANCH   2   3
BRANCH   2   7
ATOM      7  C   UNL     1     -19.011 -22.417  12.610  1.00  0.00     0.100 C 
ATOM      8  O   UNL     1     -18.934 -21.804  13.707  1.00  0.00    -0.544 OA
ATOM      9  O   UNL     1     -20.243 -22.887  12.172  1.00  0.00    -0.544 OA
ENDBRANCH   2   7
ENDBRANCH   1   2
BRANCH   1  10
ATOM     10  C   UNL     1     -17.090 -23.287   9.441  1.00  0.00     0.223 C 
ATOM     11  O   UNL     1     -16.034 -22.645   9.196  1.00  0.00    -0.275 OA
ATOM     12  N   UNL     1     -17.266 -24.594   8.896  1.00  0.00    -0.369 N 
ATOM     13  H   UNL     1     -16.522 -25.023   8.302  1.00  0.00     0.159 HD
ATOM     14  H   UNL     1     -18.140 -25.135   9.081  1.00  0.00     0.159 HD
ENDBRANCH   1  10
TORSDOF 4
ENDMDL
MODEL 5
REMARK VINA RESULT:    -3.877      1.869      4.006
REMARK INTER + INTRA:          -4.932
REMARK INTER:                  -4.430
REMARK INTRA:                  -0.502
REMARK UNBOUND:                -0.261
REMARK SMILES NC(=O)C[C@H]([NH3+])C(=O)[O-]
REMARK SMILES IDX 4 1 5 2 6 3 7 7 8 8 9 9 2 10 3 11 1 12
REMARK H PARENT 6 4 6 5 6 6 1 13 1 14
REMARK Flexibility Score: inf
ROOT
ATOM      1  C   UNL     1     -16.460 -23.348   5.213  1.00  0.00     0.171 C 
ENDROOT
BRANCH   1   2
ATOM      2  C   UNL     1     -17.015 -23.466   6.647  1.00  0.00     0.237 C 
BRANCH   2   3
ATOM      3  N   UNL     1     -16.921 -22.188   7.365  1.00  0.00    -0.350 N 
ATOM      4  H   UNL     1     -16.049 -21.683   7.087  1.00  0.00     0.345 HD
ATOM      5  H   UNL     1     -16.913 -22.343   8.400  1.00  0.00     0.345 HD
ATOM      6  H   UNL     1     -17.736 -21.581   7.117  1.00  0.00     0.345 HD
ENDBRANCH   2   3
BRANCH   2   7
ATOM      7  C   UNL     1     -16.260 -24.534   7.394  1.00  0.00     0.100 C 
ATOM      8  O   UNL     1     -16.863 -25.556   7.817  1.00  0.00    -0.544 OA
ATOM      9  O   UNL     1     -14.893 -24.408   7.608  1.00  0.00    -0.544 OA
ENDBRANCH   2   7
ENDBRANCH   1   2
BRANCH   1  10
ATOM     10  C   UNL     1     -15.501 -22.202   5.082  1.00  0.00     0.223 C 
ATOM     11  O   UNL     1     -15.935 -21.045   4.833  1.00  0.00    -0.275 OA
ATOM     12  N   UNL     1     -14.096 -22.418   5.209  1.00  0.00    -0.369 N 
ATOM     13  H   UNL     1     -13.427 -21.622   5.105  1.00  0.00     0.159 HD
ATOM     14  H   UNL     1     -13.720 -23.372   5.405  1.00  0.00     0.159 HD
ENDBRANCH   1  10
TORSDOF 4
ENDMDL
MODEL 6
REMARK VINA RESULT:    -3.866      1.681      3.913
REMARK INTER + INTRA:          -4.918
REMARK INTER:                  -4.628
REMARK INTRA:                  -0.290
REMARK UNBOUND:                -0.261
REMARK SMILES NC(=O)C[C@H]([NH3+])C(=O)[O-]
REMARK SMILES IDX 4 1 5 2 6 3 7 7 8 8 9 9 2 10 3 11 1 12
REMARK H PARENT 6 4 6 5 6 6 1 13 1 14
REMARK Flexibility Score: inf
ROOT
ATOM      1  C   UNL     1     -16.850 -23.216   6.109  1.00  0.00     0.171 C 
ENDROOT
BRANCH   1   2
ATOM      2  C   UNL     1     -16.162 -23.584   7.439  1.00  0.00     0.237 C 
BRANCH   2   3
ATOM      3  N   UNL     1     -15.069 -24.542   7.231  1.00  0.00    -0.350 N 
ATOM      4  H   UNL     1     -15.453 -25.462   6.915  1.00  0.00     0.345 HD
ATOM      5  H   UNL     1     -14.524 -24.683   8.113  1.00  0.00     0.345 HD
ATOM      6  H   UNL     1     -14.426 -24.191   6.484  1.00  0.00     0.345 HD
ENDBRANCH   2   3
BRANCH   2   7
ATOM      7  C   UNL     1     -17.179 -24.160   8.391  1.00  0.00     0.100 C 
ATOM      8  O   UNL     1     -17.432 -23.573   9.476  1.00  0.00    -0.544 OA
ATOM      9  O   UNL     1     -17.854 -25.331   8.071  1.00  0.00    -0.544 OA
ENDBRANCH   2   7
ENDBRANCH   1   2
BRANCH   1  10
ATOM     10  C   UNL     1     -15.904 -23.320   4.949  1.00  0.00     0.223 C 
ATOM     11  O   UNL     1     -14.878 -22.591   4.909  1.00  0.00    -0.275 OA
ATOM     12  N   UNL     1     -16.176 -24.220   3.875  1.00  0.00    -0.369 N 
ATOM     13  H   UNL     1     -15.524 -24.283   3.061  1.00  0.00     0.159 HD
ATOM     14  H   UNL     1     -17.028 -24.824   3.889  1.00  0.00     0.159 HD
ENDBRANCH   1  10
TORSDOF 4
ENDMDL
MODEL 7
REMARK VINA RESULT:    -3.859      6.033      7.166
REMARK INTER + INTRA:          -4.909
REMARK INTER:                  -4.542
REMARK INTRA:                  -0.367
REMARK UNBOUND:                -0.261
REMARK SMILES NC(=O)C[C@H]([NH3+])C(=O)[O-]
REMARK SMILES IDX 4 1 5 2 6 3 7 7 8 8 9 9 2 10 3 11 1 12
REMARK H PARENT 6 4 6 5 6 6 1 13 1 14
REMARK Flexibility Score: inf
ROOT
ATOM      1  C   UNL     1     -20.163 -21.873  12.606  1.00  0.00     0.171 C 
ENDROOT
BRANCH   1   2
ATOM      2  C   UNL     1     -19.725 -20.452  13.015  1.00  0.00     0.237 C 
BRANCH   2   3
ATOM      3  N   UNL     1     -19.132 -19.726  11.884  1.00  0.00    -0.350 N 
ATOM      4  H   UNL     1     -18.924 -20.389  11.103  1.00  0.00     0.345 HD
ATOM      5  H   UNL     1     -18.247 -19.248  12.173  1.00  0.00     0.345 HD
ATOM      6  H   UNL     1     -19.807 -19.011  11.528  1.00  0.00     0.345 HD
ENDBRANCH   2   3
BRANCH   2   7
ATOM      7  C   UNL     1     -18.739 -20.534  14.151  1.00  0.00     0.100 C 
ATOM      8  O   UNL     1     -19.044 -21.142  15.211  1.00  0.00    -0.544 OA
ATOM      9  O   UNL     1     -17.481 -19.955  14.030  1.00  0.00    -0.544 OA
ENDBRANCH   2   7
ENDBRANCH   1   2
BRANCH   1  10
ATOM     10  C   UNL     1     -19.054 -22.619  11.924  1.00  0.00     0.223 C 
ATOM     11  O   UNL     1     -18.754 -22.345  10.732  1.00  0.00    -0.275 OA
ATOM     12  N   UNL     1     -18.356 -23.659  12.609  1.00  0.00    -0.369 N 
ATOM     13  H   UNL     1     -17.593 -24.187  12.130  1.00  0.00     0.159 HD
ATOM     14  H   UNL     1     -18.600 -23.905  13.594  1.00  0.00     0.159 HD
ENDBRANCH   1  10
TORSDOF 4
ENDMDL
MODEL 8
REMARK VINA RESULT:    -3.852      5.150      6.366
REMARK INTER + INTRA:          -4.901
REMARK INTER:                  -4.742
REMARK INTRA:                  -0.160
REMARK UNBOUND:                -0.261
REMARK SMILES NC(=O)C[C@H]([NH3+])C(=O)[O-]
REMARK SMILES IDX 4 1 5 2 6 3 7 7 8 8 9 9 2 10 3 11 1 12
REMARK H PARENT 6 4 6 5 6 6 1 13 1 14
REMARK Flexibility Score: inf
ROOT
ATOM      1  C   UNL     1     -17.514 -21.645  12.059  1.00  0.00     0.171 C 
ENDROOT
BRANCH   1   2
ATOM      2  C   UNL     1     -18.943 -21.150  11.762  1.00  0.00     0.237 C 
BRANCH   2   3
ATOM      3  N   UNL     1     -19.048 -19.693  11.909  1.00  0.00    -0.350 N 
ATOM      4  H   UNL     1     -20.031 -19.426  12.142  1.00  0.00     0.345 HD
ATOM      5  H   UNL     1     -18.762 -19.209  11.026  1.00  0.00     0.345 HD
ATOM      6  H   UNL     1     -18.433 -19.369  12.691  1.00  0.00     0.345 HD
ENDBRANCH   2   3
BRANCH   2   7
ATOM      7  C   UNL     1     -19.917 -21.834  12.686  1.00  0.00     0.100 C 
ATOM      8  O   UNL     1     -19.885 -21.600  13.923  1.00  0.00    -0.544 OA
ATOM      9  O   UNL     1     -20.866 -22.713  12.178  1.00  0.00    -0.544 OA
ENDBRANCH   2   7
ENDBRANCH   1   2
BRANCH   1  10
ATOM     10  C   UNL     1     -17.252 -22.988  11.443  1.00  0.00     0.223 C 
ATOM     11  O   UNL     1     -17.244 -23.112  10.189  1.00  0.00    -0.275 OA
ATOM     12  N   UNL     1     -17.042 -24.133  12.268  1.00  0.00    -0.369 N 
ATOM     13  H   UNL     1     -16.872 -25.070  11.839  1.00  0.00     0.159 HD
ATOM     14  H   UNL     1     -17.056 -24.049  13.309  1.00  0.00     0.159 HD
ENDBRANCH   1  10
TORSDOF 4
ENDMDL
MODEL 9
REMARK VINA RESULT:    -3.819      5.312      6.347
REMARK INTER + INTRA:          -4.861
REMARK INTER:                  -4.584
REMARK INTRA:                  -0.277
REMARK UNBOUND:                -0.261
REMARK SMILES NC(=O)C[C@H]([NH3+])C(=O)[O-]
REMARK SMILES IDX 4 1 5 2 6 3 7 7 8 8 9 9 2 10 3 11 1 12
REMARK H PARENT 6 4 6 5 6 6 1 13 1 14
REMARK Flexibility Score: inf
ROOT
ATOM      1  C   UNL     1     -17.436 -21.605  12.153  1.00  0.00     0.171 C 
ENDROOT
BRANCH   1   2
ATOM      2  C   UNL     1     -18.833 -21.375  12.762  1.00  0.00     0.237 C 
BRANCH   2   3
ATOM      3  N   UNL     1     -19.897 -21.761  11.826  1.00  0.00    -0.350 N 
ATOM      4  H   UNL     1     -20.809 -21.354  12.133  1.00  0.00     0.345 HD
ATOM      5  H   UNL     1     -19.986 -22.802  11.773  1.00  0.00     0.345 HD
ATOM      6  H   UNL     1     -19.684 -21.387  10.872  1.00  0.00     0.345 HD
ENDBRANCH   2   3
BRANCH   2   7
ATOM      7  C   UNL     1     -18.985 -19.926  13.148  1.00  0.00     0.100 C 
ATOM      8  O   UNL     1     -19.370 -19.082  12.296  1.00  0.00    -0.544 OA
ATOM      9  O   UNL     1     -18.716 -19.515  14.448  1.00  0.00    -0.544 OA
ENDBRANCH   2   7
ENDBRANCH   1   2
BRANCH   1  10
ATOM     10  C   UNL     1     -17.338 -22.941  11.479  1.00  0.00     0.223 C 
ATOM     11  O   UNL     1     -17.516 -23.030  10.234  1.00  0.00    -0.275 OA
ATOM     12  N   UNL     1     -17.074 -24.118  12.242  1.00  0.00    -0.369 N 
ATOM     13  H   UNL     1     -17.018 -25.050  11.773  1.00  0.00     0.159 HD
ATOM     14  H   UNL     1     -16.934 -24.062  13.275  1.00  0.00     0.159 HD
ENDBRANCH   1  10
TORSDOF 4
ENDMDL
