MODEL 1
REMARK VINA RESULT:    -1.670      0.000      0.000
REMARK INTER + INTRA:          -1.912
REMARK INTER:                  -2.403
REMARK INTRA:                   0.491
REMARK UNBOUND:                 0.491
REMARK SMILES O=c1cc(-c2ccc(O)c(O)c2)oc2cc(O[C@H]3O[C@H](CO)[C@H](O)[C@@H](O)[C@H]3O)cc(O)c12
REMARK SMILES IDX 17 1 16 2 4 3 3 4 13 5 2 6 14 7 1 8 32 9 15 10 30 11 29 12
REMARK SMILES IDX 5 13 6 14 7 15 8 16 12 17 10 18 9 19 11 21 31 23 18 25 27 26
REMARK SMILES IDX 19 27 25 28 20 29 23 30 28 31 26 33 21 35 22 36 24 38
REMARK H PARENT 9 20 11 22 31 24 28 32 26 34 22 37 24 39
REMARK Flexibility Score: inf
ROOT
ATOM      1  O   UNL     1      41.059 -33.187  12.507  1.00  0.00    -0.462 OA
ENDROOT
BRANCH   1   2
ATOM      2  C   UNL     1      39.906 -32.389  12.609  1.00  0.00     0.130 A 
ATOM      3  C   UNL     1      35.135 -32.337  12.568  1.00  0.00     0.138 A 
ATOM      4  C   UNL     1      35.085 -30.951  12.790  1.00  0.00     0.100 A 
ATOM      5  O   UNL     1      36.318 -32.944  12.488  1.00  0.00    -0.456 OA
ATOM      6  C   UNL     1      36.274 -30.231  12.909  1.00  0.00     0.197 A 
ATOM      7  C   UNL     1      37.476 -32.302  12.595  1.00  0.00     0.146 A 
ATOM      8  O   UNL     1      36.219 -28.988  13.112  1.00  0.00    -0.289 OA
ATOM      9  C   UNL     1      37.508 -30.905  12.809  1.00  0.00     0.107 A 
ATOM     10  C   UNL     1      38.667 -33.025  12.497  1.00  0.00     0.094 A 
ATOM     11  C   UNL     1      38.757 -30.254  12.919  1.00  0.00     0.134 A 
ATOM     12  C   UNL     1      39.943 -30.997  12.821  1.00  0.00     0.093 A 
BRANCH   3  13
ATOM     13  C   UNL     1      33.903 -33.155  12.439  1.00  0.00     0.021 A 
ATOM     14  C   UNL     1      33.939 -34.483  11.970  1.00  0.00     0.016 A 
ATOM     15  C   UNL     1      32.763 -35.229  11.861  1.00  0.00     0.051 A 
ATOM     16  C   UNL     1      31.533 -34.668  12.225  1.00  0.00     0.157 A 
ATOM     17  C   UNL     1      32.664 -32.606  12.817  1.00  0.00     0.062 A 
ATOM     18  C   UNL     1      31.485 -33.351  12.709  1.00  0.00     0.158 A 
BRANCH  16  19
ATOM     19  O   UNL     1      30.360 -35.415  12.113  1.00  0.00    -0.504 OA
ATOM     20  H   UNL     1      30.373 -36.429  12.128  1.00  0.00     0.293 HD
ENDBRANCH  16  19
BRANCH  18  21
ATOM     21  O   UNL     1      30.277 -32.765  13.085  1.00  0.00    -0.504 OA
ATOM     22  H   UNL     1      29.700 -33.148  13.825  1.00  0.00     0.293 HD
ENDBRANCH  18  21
ENDBRANCH   3  13
BRANCH  11  23
ATOM     23  O   UNL     1      38.829 -28.875  13.124  1.00  0.00    -0.507 OA
ATOM     24  H   UNL     1      38.000 -28.293  13.137  1.00  0.00     0.293 HD
ENDBRANCH  11  23
ENDBRANCH   1   2
BRANCH   1  25
ATOM     25  C   UNL     1      42.330 -32.952  13.125  1.00  0.00     0.339 C 
ATOM     26  C   UNL     1      43.088 -31.770  12.469  1.00  0.00     0.214 C 
ATOM     27  O   UNL     1      43.089 -34.153  13.090  1.00  0.00    -0.332 OA
ATOM     28  C   UNL     1      43.415 -32.049  10.977  1.00  0.00     0.180 C 
ATOM     29  C   UNL     1      43.781 -34.423  11.868  1.00  0.00     0.179 C 
ATOM     30  C   UNL     1      43.344 -33.561  10.652  1.00  0.00     0.177 C 
BRANCH  26  31
ATOM     31  O   UNL     1      42.438 -30.538  12.663  1.00  0.00    -0.384 OA
ATOM     32  H   UNL     1      42.110 -30.501  13.597  1.00  0.00     0.211 HD
ENDBRANCH  26  31
BRANCH  28  33
ATOM     33  O   UNL     1      42.591 -31.317  10.102  1.00  0.00    -0.387 OA
ATOM     34  H   UNL     1      41.846 -31.909   9.816  1.00  0.00     0.211 HD
ENDBRANCH  28  33
BRANCH  29  35
ATOM     35  C   UNL     1      45.300 -34.361  12.119  1.00  0.00     0.191 C 
BRANCH  35  36
ATOM     36  O   UNL     1      45.743 -35.540  12.736  1.00  0.00    -0.394 OA
ATOM     37  H   UNL     1      46.059 -36.141  12.011  1.00  0.00     0.210 HD
ENDBRANCH  35  36
ENDBRANCH  29  35
BRANCH  30  38
ATOM     38  O   UNL     1      44.137 -33.859   9.531  1.00  0.00    -0.387 OA
ATOM     39  H   UNL     1      43.818 -34.729   9.176  1.00  0.00     0.211 HD
ENDBRANCH  30  38
ENDBRANCH   1  25
TORSDOF 11
ENDMDL
