MODEL 1
REMARK VINA RESULT:    -6.850      0.000      0.000
REMARK INTER + INTRA:          -9.177
REMARK INTER:                  -8.652
REMARK INTRA:                  -0.524
REMARK UNBOUND:                -0.524
REMARK SMILES O=C(C=Cc1ccc(O)cc1)c1ccc(O)cc1O
REMARK SMILES IDX 4 1 3 2 5 3 6 4 7 5 8 6 11 7 10 8 9 9 2 11 1 12 12 13 18 14
REMARK SMILES IDX 13 15 17 16 14 17 15 18 19 19 16 21
REMARK H PARENT 9 10 19 20 16 22
REMARK Flexibility Score: inf
ROOT
ATOM      1  C   UNL     1       2.439  -9.699  11.042  1.00  0.00     0.012 C 
ATOM      2  C   UNL     1       1.731 -10.196  10.017  1.00  0.00     0.053 C 
ENDROOT
BRANCH   1   3
ATOM      3  C   UNL     1       3.835 -10.101  11.348  1.00  0.00    -0.025 A 
ATOM      4  C   UNL     1       4.073 -11.404  11.816  1.00  0.00     0.012 A 
ATOM      5  C   UNL     1       5.371 -11.829  12.107  1.00  0.00     0.047 A 
ATOM      6  C   UNL     1       6.455 -10.961  11.924  1.00  0.00     0.115 A 
ATOM      7  C   UNL     1       4.933  -9.238  11.153  1.00  0.00     0.012 A 
ATOM      8  C   UNL     1       6.231  -9.668  11.445  1.00  0.00     0.047 A 
BRANCH   6   9
ATOM      9  O   UNL     1       7.754 -11.374  12.212  1.00  0.00    -0.508 OA
ATOM     10  H   UNL     1       7.935 -12.195  12.776  1.00  0.00     0.293 HD
ENDBRANCH   6   9
ENDBRANCH   1   3
BRANCH   2  11
ATOM     11  C   UNL     1       0.345  -9.763   9.734  1.00  0.00     0.189 C 
ATOM     12  O   UNL     1      -0.628 -10.492  10.068  1.00  0.00    -0.289 OA
BRANCH  11  13
ATOM     13  C   UNL     1       0.091  -8.487   9.028  1.00  0.00     0.064 A 
ATOM     14  C   UNL     1      -0.719  -8.422   7.868  1.00  0.00     0.130 A 
ATOM     15  C   UNL     1       0.701  -7.311   9.502  1.00  0.00     0.020 A 
ATOM     16  C   UNL     1      -0.869  -7.204   7.194  1.00  0.00     0.093 A 
ATOM     17  C   UNL     1       0.530  -6.100   8.827  1.00  0.00     0.047 A 
ATOM     18  C   UNL     1      -0.250  -6.044   7.671  1.00  0.00     0.119 A 
BRANCH  14  19
ATOM     19  O   UNL     1      -1.407  -9.533   7.374  1.00  0.00    -0.507 OA
ATOM     20  H   UNL     1      -2.047 -10.082   7.932  1.00  0.00     0.293 HD
ENDBRANCH  14  19
BRANCH  18  21
ATOM     21  O   UNL     1      -0.405  -4.830   7.006  1.00  0.00    -0.508 OA
ATOM     22  H   UNL     1      -0.053  -4.692   6.065  1.00  0.00     0.293 HD
ENDBRANCH  18  21
ENDBRANCH  11  13
ENDBRANCH   2  11
TORSDOF 6
ENDMDL
MODEL 2
REMARK VINA RESULT:    -6.775      3.992      5.468
REMARK INTER + INTRA:          -9.082
REMARK INTER:                  -8.339
REMARK INTRA:                  -0.743
REMARK UNBOUND:                -0.524
REMARK SMILES O=C(C=Cc1ccc(O)cc1)c1ccc(O)cc1O
REMARK SMILES IDX 4 1 3 2 5 3 6 4 7 5 8 6 11 7 10 8 9 9 2 11 1 12 12 13 18 14
REMARK SMILES IDX 13 15 17 16 14 17 15 18 19 19 16 21
REMARK H PARENT 9 10 19 20 16 22
REMARK Flexibility Score: inf
ROOT
ATOM      1  C   UNL     1       3.681  -7.763   7.663  1.00  0.00     0.012 C 
ATOM      2  C   UNL     1       4.131  -8.795   8.392  1.00  0.00     0.053 C 
ENDROOT
BRANCH   1   3
ATOM      3  C   UNL     1       4.564  -6.724   7.078  1.00  0.00    -0.025 A 
ATOM      4  C   UNL     1       5.865  -7.086   6.691  1.00  0.00     0.012 A 
ATOM      5  C   UNL     1       6.729  -6.143   6.127  1.00  0.00     0.047 A 
ATOM      6  C   UNL     1       6.299  -4.824   5.929  1.00  0.00     0.115 A 
ATOM      7  C   UNL     1       4.135  -5.397   6.861  1.00  0.00     0.012 A 
ATOM      8  C   UNL     1       5.002  -4.458   6.296  1.00  0.00     0.047 A 
BRANCH   6   9
ATOM      9  O   UNL     1       7.151  -3.876   5.368  1.00  0.00    -0.508 OA
ATOM     10  H   UNL     1       7.223  -3.756   4.365  1.00  0.00     0.293 HD
ENDBRANCH   6   9
ENDBRANCH   1   3
BRANCH   2  11
ATOM     11  C   UNL     1       3.222  -9.821   8.949  1.00  0.00     0.189 C 
ATOM     12  O   UNL     1       3.460 -11.047   8.762  1.00  0.00    -0.289 OA
BRANCH  11  13
ATOM     13  C   UNL     1       2.013  -9.421   9.701  1.00  0.00     0.064 A 
ATOM     14  C   UNL     1       0.714  -9.808   9.290  1.00  0.00     0.130 A 
ATOM     15  C   UNL     1       2.154  -8.599  10.834  1.00  0.00     0.020 A 
ATOM     16  C   UNL     1      -0.404  -9.342   9.992  1.00  0.00     0.093 A 
ATOM     17  C   UNL     1       1.030  -8.154  11.534  1.00  0.00     0.047 A 
ATOM     18  C   UNL     1      -0.250  -8.518  11.113  1.00  0.00     0.119 A 
BRANCH  14  19
ATOM     19  O   UNL     1       0.497 -10.671   8.213  1.00  0.00    -0.507 OA
ATOM     20  H   UNL     1      -0.401 -11.088   8.009  1.00  0.00     0.293 HD
ENDBRANCH  14  19
BRANCH  18  21
ATOM     21  O   UNL     1      -1.361  -8.060  11.818  1.00  0.00    -0.508 OA
ATOM     22  H   UNL     1      -1.727  -8.566  12.616  1.00  0.00     0.293 HD
ENDBRANCH  18  21
ENDBRANCH  11  13
ENDBRANCH   2  11
TORSDOF 6
ENDMDL
MODEL 3
REMARK VINA RESULT:    -6.554      3.859      5.856
REMARK INTER + INTRA:          -8.802
REMARK INTER:                  -8.089
REMARK INTRA:                  -0.713
REMARK UNBOUND:                -0.524
REMARK SMILES O=C(C=Cc1ccc(O)cc1)c1ccc(O)cc1O
REMARK SMILES IDX 4 1 3 2 5 3 6 4 7 5 8 6 11 7 10 8 9 9 2 11 1 12 12 13 18 14
REMARK SMILES IDX 13 15 17 16 14 17 15 18 19 19 16 21
REMARK H PARENT 9 10 19 20 16 22
REMARK Flexibility Score: inf
ROOT
ATOM      1  C   UNL     1       2.681  -6.379   6.987  1.00  0.00     0.012 C 
ATOM      2  C   UNL     1       1.602  -5.669   7.345  1.00  0.00     0.053 C 
ENDROOT
BRANCH   1   3
ATOM      3  C   UNL     1       3.969  -5.767   6.577  1.00  0.00    -0.025 A 
ATOM      4  C   UNL     1       5.105  -6.589   6.483  1.00  0.00     0.012 A 
ATOM      5  C   UNL     1       6.337  -6.058   6.091  1.00  0.00     0.047 A 
ATOM      6  C   UNL     1       6.450  -4.698   5.776  1.00  0.00     0.115 A 
ATOM      7  C   UNL     1       4.089  -4.402   6.243  1.00  0.00     0.012 A 
ATOM      8  C   UNL     1       5.323  -3.876   5.850  1.00  0.00     0.047 A 
BRANCH   6   9
ATOM      9  O   UNL     1       7.673  -4.158   5.385  1.00  0.00    -0.508 OA
ATOM     10  H   UNL     1       8.534  -4.686   5.462  1.00  0.00     0.293 HD
ENDBRANCH   6   9
ENDBRANCH   1   3
BRANCH   2  11
ATOM     11  C   UNL     1       0.337  -6.313   7.762  1.00  0.00     0.189 C 
ATOM     12  O   UNL     1      -0.742  -6.035   7.169  1.00  0.00    -0.289 OA
BRANCH  11  13
ATOM     13  C   UNL     1       0.321  -7.265   8.895  1.00  0.00     0.064 A 
ATOM     14  C   UNL     1      -0.322  -8.524   8.805  1.00  0.00     0.130 A 
ATOM     15  C   UNL     1       0.927  -6.892  10.109  1.00  0.00     0.020 A 
ATOM     16  C   UNL     1      -0.373  -9.358   9.929  1.00  0.00     0.093 A 
ATOM     17  C   UNL     1       0.879  -7.741  11.217  1.00  0.00     0.047 A 
ATOM     18  C   UNL     1       0.226  -8.971  11.133  1.00  0.00     0.119 A 
BRANCH  14  19
ATOM     19  O   UNL     1      -0.891  -8.990   7.617  1.00  0.00    -0.507 OA
ATOM     20  H   UNL     1      -1.429  -8.403   6.994  1.00  0.00     0.293 HD
ENDBRANCH  14  19
BRANCH  18  21
ATOM     21  O   UNL     1       0.182  -9.803  12.249  1.00  0.00    -0.508 OA
ATOM     22  H   UNL     1      -0.379 -10.648  12.258  1.00  0.00     0.293 HD
ENDBRANCH  18  21
ENDBRANCH  11  13
ENDBRANCH   2  11
TORSDOF 6
ENDMDL
MODEL 4
REMARK VINA RESULT:    -6.510      3.577      6.025
REMARK INTER + INTRA:          -8.747
REMARK INTER:                  -8.065
REMARK INTRA:                  -0.682
REMARK UNBOUND:                -0.524
REMARK SMILES O=C(C=Cc1ccc(O)cc1)c1ccc(O)cc1O
REMARK SMILES IDX 4 1 3 2 5 3 6 4 7 5 8 6 11 7 10 8 9 9 2 11 1 12 12 13 18 14
REMARK SMILES IDX 13 15 17 16 14 17 15 18 19 19 16 21
REMARK H PARENT 9 10 19 20 16 22
REMARK Flexibility Score: inf
ROOT
ATOM      1  C   UNL     1       3.269  -7.254   8.483  1.00  0.00     0.012 C 
ATOM      2  C   UNL     1       3.979  -8.127   9.212  1.00  0.00     0.053 C 
ENDROOT
BRANCH   1   3
ATOM      3  C   UNL     1       3.838  -6.466   7.361  1.00  0.00    -0.025 A 
ATOM      4  C   UNL     1       5.137  -6.767   6.919  1.00  0.00     0.012 A 
ATOM      5  C   UNL     1       5.710  -6.059   5.859  1.00  0.00     0.047 A 
ATOM      6  C   UNL     1       4.988  -5.044   5.218  1.00  0.00     0.115 A 
ATOM      7  C   UNL     1       3.113  -5.453   6.700  1.00  0.00     0.012 A 
ATOM      8  C   UNL     1       3.690  -4.748   5.640  1.00  0.00     0.047 A 
BRANCH   6   9
ATOM      9  O   UNL     1       5.549  -4.331   4.161  1.00  0.00    -0.508 OA
ATOM     10  H   UNL     1       6.470  -3.916   4.233  1.00  0.00     0.293 HD
ENDBRANCH   6   9
ENDBRANCH   1   3
BRANCH   2  11
ATOM     11  C   UNL     1       3.375  -8.906  10.315  1.00  0.00     0.189 C 
ATOM     12  O   UNL     1       4.049  -9.169  11.350  1.00  0.00    -0.289 OA
BRANCH  11  13
ATOM     13  C   UNL     1       1.989  -9.410  10.203  1.00  0.00     0.064 A 
ATOM     14  C   UNL     1       0.987  -9.060  11.142  1.00  0.00     0.130 A 
ATOM     15  C   UNL     1       1.665 -10.292   9.156  1.00  0.00     0.020 A 
ATOM     16  C   UNL     1      -0.291  -9.622  11.035  1.00  0.00     0.093 A 
ATOM     17  C   UNL     1       0.381 -10.832   9.053  1.00  0.00     0.047 A 
ATOM     18  C   UNL     1      -0.597 -10.505   9.993  1.00  0.00     0.119 A 
BRANCH  14  19
ATOM     19  O   UNL     1       1.215  -8.144  12.172  1.00  0.00    -0.507 OA
ATOM     20  H   UNL     1       1.851  -8.318  12.938  1.00  0.00     0.293 HD
ENDBRANCH  14  19
BRANCH  18  21
ATOM     21  O   UNL     1      -1.871 -11.058   9.880  1.00  0.00    -0.508 OA
ATOM     22  H   UNL     1      -2.640 -10.537   9.474  1.00  0.00     0.293 HD
ENDBRANCH  18  21
ENDBRANCH  11  13
ENDBRANCH   2  11
TORSDOF 6
ENDMDL
MODEL 5
REMARK VINA RESULT:    -6.485     12.907     15.201
REMARK INTER + INTRA:          -8.715
REMARK INTER:                  -8.001
REMARK INTRA:                  -0.715
REMARK UNBOUND:                -0.524
REMARK SMILES O=C(C=Cc1ccc(O)cc1)c1ccc(O)cc1O
REMARK SMILES IDX 4 1 3 2 5 3 6 4 7 5 8 6 11 7 10 8 9 9 2 11 1 12 12 13 18 14
REMARK SMILES IDX 13 15 17 16 14 17 15 18 19 19 16 21
REMARK H PARENT 9 10 19 20 16 22
REMARK Flexibility Score: inf
ROOT
ATOM      1  C   UNL     1      15.258 -16.830   8.734  1.00  0.00     0.012 C 
ATOM      2  C   UNL     1      16.385 -16.172   8.427  1.00  0.00     0.053 C 
ENDROOT
BRANCH   1   3
ATOM      3  C   UNL     1      15.216 -18.019   9.620  1.00  0.00    -0.025 A 
ATOM      4  C   UNL     1      16.366 -18.351  10.356  1.00  0.00     0.012 A 
ATOM      5  C   UNL     1      16.370 -19.456  11.211  1.00  0.00     0.047 A 
ATOM      6  C   UNL     1      15.218 -20.240  11.353  1.00  0.00     0.115 A 
ATOM      7  C   UNL     1      14.056 -18.805   9.781  1.00  0.00     0.012 A 
ATOM      8  C   UNL     1      14.064 -19.909  10.638  1.00  0.00     0.047 A 
BRANCH   6   9
ATOM      9  O   UNL     1      15.210 -21.345  12.202  1.00  0.00    -0.508 OA
ATOM     10  H   UNL     1      14.843 -22.239  11.903  1.00  0.00     0.293 HD
ENDBRANCH   6   9
ENDBRANCH   1   3
BRANCH   2  11
ATOM     11  C   UNL     1      16.388 -14.980   7.549  1.00  0.00     0.189 C 
ATOM     12  O   UNL     1      17.020 -14.999   6.457  1.00  0.00    -0.289 OA
BRANCH  11  13
ATOM     13  C   UNL     1      15.678 -13.749   7.959  1.00  0.00     0.064 A 
ATOM     14  C   UNL     1      14.593 -13.228   7.212  1.00  0.00     0.130 A 
ATOM     15  C   UNL     1      16.117 -13.054   9.101  1.00  0.00     0.020 A 
ATOM     16  C   UNL     1      14.001 -12.019   7.599  1.00  0.00     0.093 A 
ATOM     17  C   UNL     1      15.508 -11.857   9.483  1.00  0.00     0.047 A 
ATOM     18  C   UNL     1      14.454 -11.334   8.732  1.00  0.00     0.119 A 
BRANCH  14  19
ATOM     19  O   UNL     1      14.060 -13.892   6.104  1.00  0.00    -0.507 OA
ATOM     20  H   UNL     1      14.235 -14.868   5.907  1.00  0.00     0.293 HD
ENDBRANCH  14  19
BRANCH  18  21
ATOM     21  O   UNL     1      13.861 -10.135   9.123  1.00  0.00    -0.508 OA
ATOM     22  H   UNL     1      14.413  -9.303   9.295  1.00  0.00     0.293 HD
ENDBRANCH  18  21
ENDBRANCH  11  13
ENDBRANCH   2  11
TORSDOF 6
ENDMDL
MODEL 6
REMARK VINA RESULT:    -6.291      4.798      5.726
REMARK INTER + INTRA:          -8.471
REMARK INTER:                  -8.006
REMARK INTRA:                  -0.465
REMARK UNBOUND:                -0.524
REMARK SMILES O=C(C=Cc1ccc(O)cc1)c1ccc(O)cc1O
REMARK SMILES IDX 4 1 3 2 5 3 6 4 7 5 8 6 11 7 10 8 9 9 2 11 1 12 12 13 18 14
REMARK SMILES IDX 13 15 17 16 14 17 15 18 19 19 16 21
REMARK H PARENT 9 10 19 20 16 22
REMARK Flexibility Score: inf
ROOT
ATOM      1  C   UNL     1       5.286  -9.177   7.116  1.00  0.00     0.012 C 
ATOM      2  C   UNL     1       4.574  -9.496   8.207  1.00  0.00     0.053 C 
ENDROOT
BRANCH   1   3
ATOM      3  C   UNL     1       5.522 -10.111   5.987  1.00  0.00    -0.025 A 
ATOM      4  C   UNL     1       6.068 -11.376   6.262  1.00  0.00     0.012 A 
ATOM      5  C   UNL     1       6.298 -12.291   5.232  1.00  0.00     0.047 A 
ATOM      6  C   UNL     1       5.974 -11.960   3.911  1.00  0.00     0.115 A 
ATOM      7  C   UNL     1       5.185  -9.792   4.655  1.00  0.00     0.012 A 
ATOM      8  C   UNL     1       5.416 -10.711   3.628  1.00  0.00     0.047 A 
BRANCH   6   9
ATOM      9  O   UNL     1       6.200 -12.865   2.875  1.00  0.00    -0.508 OA
ATOM     10  H   UNL     1       6.995 -12.772   2.255  1.00  0.00     0.293 HD
ENDBRANCH   6   9
ENDBRANCH   1   3
BRANCH   2  11
ATOM     11  C   UNL     1       4.347  -8.534   9.308  1.00  0.00     0.189 C 
ATOM     12  O   UNL     1       5.302  -7.834   9.745  1.00  0.00    -0.289 OA
BRANCH  11  13
ATOM     13  C   UNL     1       3.009  -8.408   9.927  1.00  0.00     0.064 A 
ATOM     14  C   UNL     1       2.580  -9.271  10.965  1.00  0.00     0.130 A 
ATOM     15  C   UNL     1       2.123  -7.427   9.444  1.00  0.00     0.020 A 
ATOM     16  C   UNL     1       1.278  -9.159  11.466  1.00  0.00     0.093 A 
ATOM     17  C   UNL     1       0.832  -7.317   9.965  1.00  0.00     0.047 A 
ATOM     18  C   UNL     1       0.404  -8.184  10.971  1.00  0.00     0.119 A 
BRANCH  14  19
ATOM     19  O   UNL     1       3.422 -10.227  11.538  1.00  0.00    -0.507 OA
ATOM     20  H   UNL     1       3.963 -10.058  12.375  1.00  0.00     0.293 HD
ENDBRANCH  14  19
BRANCH  18  21
ATOM     21  O   UNL     1      -0.890  -8.066  11.475  1.00  0.00    -0.508 OA
ATOM     22  H   UNL     1      -1.291  -8.777  12.076  1.00  0.00     0.293 HD
ENDBRANCH  18  21
ENDBRANCH  11  13
ENDBRANCH   2  11
TORSDOF 6
ENDMDL
MODEL 7
REMARK VINA RESULT:    -6.287      4.299      5.243
REMARK INTER + INTRA:          -8.465
REMARK INTER:                  -7.826
REMARK INTRA:                  -0.639
REMARK UNBOUND:                -0.524
REMARK SMILES O=C(C=Cc1ccc(O)cc1)c1ccc(O)cc1O
REMARK SMILES IDX 4 1 3 2 5 3 6 4 7 5 8 6 11 7 10 8 9 9 2 11 1 12 12 13 18 14
REMARK SMILES IDX 13 15 17 16 14 17 15 18 19 19 16 21
REMARK H PARENT 9 10 19 20 16 22
REMARK Flexibility Score: inf
ROOT
ATOM      1  C   UNL     1       4.000  -7.954   9.404  1.00  0.00     0.012 C 
ATOM      2  C   UNL     1       3.767  -7.978   8.083  1.00  0.00     0.053 C 
ENDROOT
BRANCH   1   3
ATOM      3  C   UNL     1       4.257  -9.170  10.216  1.00  0.00    -0.025 A 
ATOM      4  C   UNL     1       5.396  -9.202  11.037  1.00  0.00     0.012 A 
ATOM      5  C   UNL     1       5.673 -10.321  11.826  1.00  0.00     0.047 A 
ATOM      6  C   UNL     1       4.808 -11.422  11.815  1.00  0.00     0.115 A 
ATOM      7  C   UNL     1       3.383 -10.277  10.222  1.00  0.00     0.012 A 
ATOM      8  C   UNL     1       3.664 -11.394  11.014  1.00  0.00     0.047 A 
BRANCH   6   9
ATOM      9  O   UNL     1       5.074 -12.544  12.598  1.00  0.00    -0.508 OA
ATOM     10  H   UNL     1       4.472 -13.357  12.579  1.00  0.00     0.293 HD
ENDBRANCH   6   9
ENDBRANCH   1   3
BRANCH   2  11
ATOM     11  C   UNL     1       3.528  -6.744   7.303  1.00  0.00     0.189 C 
ATOM     12  O   UNL     1       2.349  -6.354   7.079  1.00  0.00    -0.289 OA
BRANCH  11  13
ATOM     13  C   UNL     1       4.666  -5.975   6.754  1.00  0.00     0.064 A 
ATOM     14  C   UNL     1       4.544  -4.609   6.398  1.00  0.00     0.130 A 
ATOM     15  C   UNL     1       5.894  -6.628   6.542  1.00  0.00     0.020 A 
ATOM     16  C   UNL     1       5.629  -3.945   5.813  1.00  0.00     0.093 A 
ATOM     17  C   UNL     1       6.972  -5.948   5.971  1.00  0.00     0.047 A 
ATOM     18  C   UNL     1       6.842  -4.609   5.600  1.00  0.00     0.119 A 
BRANCH  14  19
ATOM     19  O   UNL     1       3.378  -3.877   6.635  1.00  0.00    -0.507 OA
ATOM     20  H   UNL     1       2.615  -4.219   7.203  1.00  0.00     0.293 HD
ENDBRANCH  14  19
BRANCH  18  21
ATOM     21  O   UNL     1       7.924  -3.947   5.026  1.00  0.00    -0.508 OA
ATOM     22  H   UNL     1       8.582  -4.430   4.425  1.00  0.00     0.293 HD
ENDBRANCH  18  21
ENDBRANCH  11  13
ENDBRANCH   2  11
TORSDOF 6
ENDMDL
MODEL 8
REMARK VINA RESULT:    -6.278      5.385      7.406
REMARK INTER + INTRA:          -8.454
REMARK INTER:                  -7.779
REMARK INTRA:                  -0.675
REMARK UNBOUND:                -0.524
REMARK SMILES O=C(C=Cc1ccc(O)cc1)c1ccc(O)cc1O
REMARK SMILES IDX 4 1 3 2 5 3 6 4 7 5 8 6 11 7 10 8 9 9 2 11 1 12 12 13 18 14
REMARK SMILES IDX 13 15 17 16 14 17 15 18 19 19 16 21
REMARK H PARENT 9 10 19 20 16 22
REMARK Flexibility Score: inf
ROOT
ATOM      1  C   UNL     1       4.111  -7.750   7.678  1.00  0.00     0.012 C 
ATOM      2  C   UNL     1       5.354  -8.252   7.645  1.00  0.00     0.053 C 
ENDROOT
BRANCH   1   3
ATOM      3  C   UNL     1       3.242  -7.785   8.880  1.00  0.00    -0.025 A 
ATOM      4  C   UNL     1       3.689  -8.485  10.013  1.00  0.00     0.012 A 
ATOM      5  C   UNL     1       2.909  -8.537  11.171  1.00  0.00     0.047 A 
ATOM      6  C   UNL     1       1.673  -7.879  11.218  1.00  0.00     0.115 A 
ATOM      7  C   UNL     1       2.003  -7.113   8.941  1.00  0.00     0.012 A 
ATOM      8  C   UNL     1       1.227  -7.167  10.102  1.00  0.00     0.047 A 
BRANCH   6   9
ATOM      9  O   UNL     1       0.887  -7.924  12.367  1.00  0.00    -0.508 OA
ATOM     10  H   UNL     1       1.258  -8.252  13.250  1.00  0.00     0.293 HD
ENDBRANCH   6   9
ENDBRANCH   1   3
BRANCH   2  11
ATOM     11  C   UNL     1       6.198  -8.187   6.432  1.00  0.00     0.189 C 
ATOM     12  O   UNL     1       6.694  -7.087   6.062  1.00  0.00    -0.289 OA
BRANCH  11  13
ATOM     13  C   UNL     1       6.443  -9.403   5.625  1.00  0.00     0.064 A 
ATOM     14  C   UNL     1       7.731  -9.729   5.134  1.00  0.00     0.130 A 
ATOM     15  C   UNL     1       5.358 -10.239   5.303  1.00  0.00     0.020 A 
ATOM     16  C   UNL     1       7.897 -10.851   4.313  1.00  0.00     0.093 A 
ATOM     17  C   UNL     1       5.541 -11.363   4.495  1.00  0.00     0.047 A 
ATOM     18  C   UNL     1       6.808 -11.670   3.994  1.00  0.00     0.119 A 
BRANCH  14  19
ATOM     19  O   UNL     1       8.866  -8.983   5.462  1.00  0.00    -0.507 OA
ATOM     20  H   UNL     1       8.823  -8.050   5.848  1.00  0.00     0.293 HD
ENDBRANCH  14  19
BRANCH  18  21
ATOM     21  O   UNL     1       6.973 -12.790   3.184  1.00  0.00    -0.508 OA
ATOM     22  H   UNL     1       6.315 -13.012   2.445  1.00  0.00     0.293 HD
ENDBRANCH  18  21
ENDBRANCH  11  13
ENDBRANCH   2  11
TORSDOF 6
ENDMDL
MODEL 9
REMARK VINA RESULT:    -6.254      5.182      6.269
REMARK INTER + INTRA:          -8.424
REMARK INTER:                  -7.839
REMARK INTRA:                  -0.585
REMARK UNBOUND:                -0.524
REMARK SMILES O=C(C=Cc1ccc(O)cc1)c1ccc(O)cc1O
REMARK SMILES IDX 4 1 3 2 5 3 6 4 7 5 8 6 11 7 10 8 9 9 2 11 1 12 12 13 18 14
REMARK SMILES IDX 13 15 17 16 14 17 15 18 19 19 16 21
REMARK H PARENT 9 10 19 20 16 22
REMARK Flexibility Score: inf
ROOT
ATOM      1  C   UNL     1       6.007  -8.563   6.315  1.00  0.00     0.012 C 
ATOM      2  C   UNL     1       5.306  -8.553   7.459  1.00  0.00     0.053 C 
ENDROOT
BRANCH   1   3
ATOM      3  C   UNL     1       6.988  -7.514   5.944  1.00  0.00    -0.025 A 
ATOM      4  C   UNL     1       8.244  -7.910   5.454  1.00  0.00     0.012 A 
ATOM      5  C   UNL     1       9.196  -6.957   5.082  1.00  0.00     0.047 A 
ATOM      6  C   UNL     1       8.902  -5.591   5.183  1.00  0.00     0.115 A 
ATOM      7  C   UNL     1       6.695  -6.137   6.028  1.00  0.00     0.012 A 
ATOM      8  C   UNL     1       7.650  -5.187   5.654  1.00  0.00     0.047 A 
BRANCH   6   9
ATOM      9  O   UNL     1       9.843  -4.632   4.816  1.00  0.00    -0.508 OA
ATOM     10  H   UNL     1      10.235  -3.988   5.493  1.00  0.00     0.293 HD
ENDBRANCH   6   9
ENDBRANCH   1   3
BRANCH   2  11
ATOM     11  C   UNL     1       4.346  -9.624   7.803  1.00  0.00     0.189 C 
ATOM     12  O   UNL     1       4.288 -10.673   7.103  1.00  0.00    -0.289 OA
BRANCH  11  13
ATOM     13  C   UNL     1       3.425  -9.463   8.950  1.00  0.00     0.064 A 
ATOM     14  C   UNL     1       2.152 -10.084   8.980  1.00  0.00     0.130 A 
ATOM     15  C   UNL     1       3.808  -8.638  10.023  1.00  0.00     0.020 A 
ATOM     16  C   UNL     1       1.287  -9.840  10.054  1.00  0.00     0.093 A 
ATOM     17  C   UNL     1       2.941  -8.416  11.095  1.00  0.00     0.047 A 
ATOM     18  C   UNL     1       1.678  -9.010  11.112  1.00  0.00     0.119 A 
BRANCH  14  19
ATOM     19  O   UNL     1       1.726 -10.964   7.983  1.00  0.00    -0.507 OA
ATOM     20  H   UNL     1       0.782 -10.976   7.621  1.00  0.00     0.293 HD
ENDBRANCH  14  19
BRANCH  18  21
ATOM     21  O   UNL     1       0.822  -8.774  12.184  1.00  0.00    -0.508 OA
ATOM     22  H   UNL     1       0.542  -7.834  12.441  1.00  0.00     0.293 HD
ENDBRANCH  18  21
ENDBRANCH  11  13
ENDBRANCH   2  11
TORSDOF 6
ENDMDL
