MODEL 1
REMARK VINA RESULT:    -4.269      0.000      0.000
REMARK INTER + INTRA:          -6.846
REMARK INTER:                  -6.266
REMARK INTRA:                  -0.580
REMARK UNBOUND:                -0.580
REMARK SMILES O=C([O-])CCCCCCCC(=O)[O-]
REMARK SMILES IDX 7 1 6 2 5 3 4 4 2 5 1 6 3 7 8 8 9 9 10 10 11 11 12 12 13 13
REMARK H PARENT
REMARK Flexibility Score: inf
ROOT
ATOM      1  C   UNL     1      89.384  76.283  74.241  1.00  0.00     0.000 C 
ENDROOT
BRANCH   1   2
ATOM      2  C   UNL     1      88.928  76.007  72.799  1.00  0.00     0.000 C 
BRANCH   2   3
ATOM      3  C   UNL     1      89.772  76.762  71.758  1.00  0.00     0.006 C 
BRANCH   3   4
ATOM      4  C   UNL     1      89.691  78.283  71.941  1.00  0.00     0.053 C 
BRANCH   4   5
ATOM      5  C   UNL     1      88.755  78.912  70.955  1.00  0.00     0.041 C 
ATOM      6  O   UNL     1      88.378  78.269  69.939  1.00  0.00    -0.550 OA
ATOM      7  O   UNL     1      88.271  80.195  71.176  1.00  0.00    -0.550 OA
ENDBRANCH   4   5
ENDBRANCH   3   4
ENDBRANCH   2   3
ENDBRANCH   1   2
BRANCH   1   8
ATOM      8  C   UNL     1      88.274  76.914  75.100  1.00  0.00     0.000 C 
BRANCH   8   9
ATOM      9  C   UNL     1      87.006  76.047  75.158  1.00  0.00     0.006 C 
BRANCH   9  10
ATOM     10  C   UNL     1      85.745  76.822  74.757  1.00  0.00     0.053 C 
BRANCH  10  11
ATOM     11  C   UNL     1      85.454  76.630  73.302  1.00  0.00     0.041 C 
ATOM     12  O   UNL     1      84.981  75.539  72.889  1.00  0.00    -0.550 OA
ATOM     13  O   UNL     1      85.753  77.638  72.394  1.00  0.00    -0.550 OA
ENDBRANCH  10  11
ENDBRANCH   9  10
ENDBRANCH   8   9
ENDBRANCH   1   8
TORSDOF 8
ENDMDL
MODEL 2
REMARK VINA RESULT:    -4.131     12.750     14.219
REMARK INTER + INTRA:          -6.643
REMARK INTER:                  -6.213
REMARK INTRA:                  -0.430
REMARK UNBOUND:                -0.580
REMARK SMILES O=C([O-])CCCCCCCC(=O)[O-]
REMARK SMILES IDX 7 1 6 2 5 3 4 4 2 5 1 6 3 7 8 8 9 9 10 10 11 11 12 12 13 13
REMARK H PARENT
REMARK Flexibility Score: inf
ROOT
ATOM      1  C   UNL     1      95.453  85.618  79.461  1.00  0.00     0.000 C 
ENDROOT
BRANCH   1   2
ATOM      2  C   UNL     1      95.008  84.275  80.063  1.00  0.00     0.000 C 
BRANCH   2   3
ATOM      3  C   UNL     1      93.840  83.639  79.290  1.00  0.00     0.006 C 
BRANCH   3   4
ATOM      4  C   UNL     1      92.666  84.611  79.114  1.00  0.00     0.053 C 
BRANCH   4   5
ATOM      5  C   UNL     1      91.935  84.837  80.402  1.00  0.00     0.041 C 
ATOM      6  O   UNL     1      92.055  85.929  81.017  1.00  0.00    -0.550 OA
ATOM      7  O   UNL     1      91.093  83.853  80.905  1.00  0.00    -0.550 OA
ENDBRANCH   4   5
ENDBRANCH   3   4
ENDBRANCH   2   3
ENDBRANCH   1   2
BRANCH   1   8
ATOM      8  C   UNL     1      96.811  86.090  80.010  1.00  0.00     0.000 C 
BRANCH   8   9
ATOM      9  C   UNL     1      97.238  85.321  81.271  1.00  0.00     0.006 C 
BRANCH   9  10
ATOM     10  C   UNL     1      98.730  84.970  81.269  1.00  0.00     0.053 C 
BRANCH  10  11
ATOM     11  C   UNL     1      98.969  83.700  82.023  1.00  0.00     0.041 C 
ATOM     12  O   UNL     1      98.126  82.766  81.976  1.00  0.00    -0.550 OA
ATOM     13  O   UNL     1     100.100  83.566  82.820  1.00  0.00    -0.550 OA
ENDBRANCH  10  11
ENDBRANCH   9  10
ENDBRANCH   8   9
ENDBRANCH   1   8
TORSDOF 8
ENDMDL
MODEL 3
REMARK VINA RESULT:    -4.122      1.708      2.045
REMARK INTER + INTRA:          -6.629
REMARK INTER:                  -6.110
REMARK INTRA:                  -0.519
REMARK UNBOUND:                -0.580
REMARK SMILES O=C([O-])CCCCCCCC(=O)[O-]
REMARK SMILES IDX 7 1 6 2 5 3 4 4 2 5 1 6 3 7 8 8 9 9 10 10 11 11 12 12 13 13
REMARK H PARENT
REMARK Flexibility Score: inf
ROOT
ATOM      1  C   UNL     1      88.955  77.211  73.338  1.00  0.00     0.000 C 
ENDROOT
BRANCH   1   2
ATOM      2  C   UNL     1      89.890  76.169  72.705  1.00  0.00     0.000 C 
BRANCH   2   3
ATOM      3  C   UNL     1      89.559  75.900  71.226  1.00  0.00     0.006 C 
BRANCH   3   4
ATOM      4  C   UNL     1      90.704  76.315  70.293  1.00  0.00     0.053 C 
BRANCH   4   5
ATOM      5  C   UNL     1      90.720  77.795  70.060  1.00  0.00     0.041 C 
ATOM      6  O   UNL     1      91.814  78.414  69.991  1.00  0.00    -0.550 OA
ATOM      7  O   UNL     1      89.527  78.484  69.885  1.00  0.00    -0.550 OA
ENDBRANCH   4   5
ENDBRANCH   3   4
ENDBRANCH   2   3
ENDBRANCH   1   2
BRANCH   1   8
ATOM      8  C   UNL     1      88.496  76.810  74.752  1.00  0.00     0.000 C 
BRANCH   8   9
ATOM      9  C   UNL     1      87.403  75.729  74.734  1.00  0.00     0.006 C 
BRANCH   9  10
ATOM     10  C   UNL     1      86.359  75.967  73.635  1.00  0.00     0.053 C 
BRANCH  10  11
ATOM     11  C   UNL     1      85.364  76.995  74.074  1.00  0.00     0.041 C 
ATOM     12  O   UNL     1      84.884  77.808  73.241  1.00  0.00    -0.550 OA
ATOM     13  O   UNL     1      85.005  77.089  75.413  1.00  0.00    -0.550 OA
ENDBRANCH  10  11
ENDBRANCH   9  10
ENDBRANCH   8   9
ENDBRANCH   1   8
TORSDOF 8
ENDMDL
MODEL 4
REMARK VINA RESULT:    -4.041     12.403     13.512
REMARK INTER + INTRA:          -6.512
REMARK INTER:                  -6.057
REMARK INTRA:                  -0.454
REMARK UNBOUND:                -0.580
REMARK SMILES O=C([O-])CCCCCCCC(=O)[O-]
REMARK SMILES IDX 7 1 6 2 5 3 4 4 2 5 1 6 3 7 8 8 9 9 10 10 11 11 12 12 13 13
REMARK H PARENT
REMARK Flexibility Score: inf
ROOT
ATOM      1  C   UNL     1      95.469  85.499  79.274  1.00  0.00     0.000 C 
ENDROOT
BRANCH   1   2
ATOM      2  C   UNL     1      96.258  86.433  80.206  1.00  0.00     0.000 C 
BRANCH   2   3
ATOM      3  C   UNL     1      96.958  85.676  81.347  1.00  0.00     0.006 C 
BRANCH   3   4
ATOM      4  C   UNL     1      98.420  85.351  81.016  1.00  0.00     0.053 C 
BRANCH   4   5
ATOM      5  C   UNL     1      98.850  84.050  81.621  1.00  0.00     0.041 C 
ATOM      6  O   UNL     1     100.074  83.770  81.719  1.00  0.00    -0.550 OA
ATOM      7  O   UNL     1      97.900  83.162  82.108  1.00  0.00    -0.550 OA
ENDBRANCH   4   5
ENDBRANCH   3   4
ENDBRANCH   2   3
ENDBRANCH   1   2
BRANCH   1   8
ATOM      8  C   UNL     1      95.025  84.203  79.976  1.00  0.00     0.000 C 
BRANCH   8   9
ATOM      9  C   UNL     1      93.683  83.675  79.446  1.00  0.00     0.006 C 
BRANCH   9  10
ATOM     10  C   UNL     1      92.490  84.158  80.279  1.00  0.00     0.053 C 
BRANCH  10  11
ATOM     11  C   UNL     1      91.488  84.847  79.406  1.00  0.00     0.041 C 
ATOM     12  O   UNL     1      90.257  84.748  79.653  1.00  0.00    -0.550 OA
ATOM     13  O   UNL     1      91.910  85.557  78.289  1.00  0.00    -0.550 OA
ENDBRANCH  10  11
ENDBRANCH   9  10
ENDBRANCH   8   9
ENDBRANCH   1   8
TORSDOF 8
ENDMDL
MODEL 5
REMARK VINA RESULT:    -4.002     10.288     12.116
REMARK INTER + INTRA:          -6.454
REMARK INTER:                  -6.163
REMARK INTRA:                  -0.291
REMARK UNBOUND:                -0.580
REMARK SMILES O=C([O-])CCCCCCCC(=O)[O-]
REMARK SMILES IDX 7 1 6 2 5 3 4 4 2 5 1 6 3 7 8 8 9 9 10 10 11 11 12 12 13 13
REMARK H PARENT
REMARK Flexibility Score: inf
ROOT
ATOM      1  C   UNL     1      92.202  84.615  80.677  1.00  0.00     0.000 C 
ENDROOT
BRANCH   1   2
ATOM      2  C   UNL     1      90.828  83.965  80.903  1.00  0.00     0.000 C 
BRANCH   2   3
ATOM      3  C   UNL     1      89.814  84.331  79.806  1.00  0.00     0.006 C 
BRANCH   3   4
ATOM      4  C   UNL     1      88.365  84.224  80.298  1.00  0.00     0.053 C 
BRANCH   4   5
ATOM      5  C   UNL     1      87.584  83.219  79.510  1.00  0.00     0.041 C 
ATOM      6  O   UNL     1      87.284  83.449  78.308  1.00  0.00    -0.550 OA
ATOM      7  O   UNL     1      87.216  82.012  80.091  1.00  0.00    -0.550 OA
ENDBRANCH   4   5
ENDBRANCH   3   4
ENDBRANCH   2   3
ENDBRANCH   1   2
BRANCH   1   8
ATOM      8  C   UNL     1      92.755  84.350  79.266  1.00  0.00     0.000 C 
BRANCH   8   9
ATOM      9  C   UNL     1      94.237  83.942  79.279  1.00  0.00     0.006 C 
BRANCH   9  10
ATOM     10  C   UNL     1      95.057  84.734  80.305  1.00  0.00     0.053 C 
BRANCH  10  11
ATOM     11  C   UNL     1      95.961  85.705  79.613  1.00  0.00     0.041 C 
ATOM     12  O   UNL     1      97.162  85.819  79.971  1.00  0.00    -0.550 OA
ATOM     13  O   UNL     1      95.463  86.522  78.605  1.00  0.00    -0.550 OA
ENDBRANCH  10  11
ENDBRANCH   9  10
ENDBRANCH   8   9
ENDBRANCH   1   8
TORSDOF 8
ENDMDL
MODEL 6
REMARK VINA RESULT:    -3.980     13.578     14.733
REMARK INTER + INTRA:          -6.421
REMARK INTER:                  -5.989
REMARK INTRA:                  -0.433
REMARK UNBOUND:                -0.580
REMARK SMILES O=C([O-])CCCCCCCC(=O)[O-]
REMARK SMILES IDX 7 1 6 2 5 3 4 4 2 5 1 6 3 7 8 8 9 9 10 10 11 11 12 12 13 13
REMARK H PARENT
REMARK Flexibility Score: inf
ROOT
ATOM      1  C   UNL     1      97.389  85.467  80.773  1.00  0.00     0.000 C 
ENDROOT
BRANCH   1   2
ATOM      2  C   UNL     1      97.290  84.572  82.019  1.00  0.00     0.000 C 
BRANCH   2   3
ATOM      3  C   UNL     1      98.261  83.380  81.968  1.00  0.00     0.006 C 
BRANCH   3   4
ATOM      4  C   UNL     1      99.709  83.822  81.720  1.00  0.00     0.053 C 
BRANCH   4   5
ATOM      5  C   UNL     1     100.325  84.418  82.948  1.00  0.00     0.041 C 
ATOM      6  O   UNL     1     100.396  83.747  84.012  1.00  0.00    -0.550 OA
ATOM      7  O   UNL     1     100.853  85.702  82.908  1.00  0.00    -0.550 OA
ENDBRANCH   4   5
ENDBRANCH   3   4
ENDBRANCH   2   3
ENDBRANCH   1   2
BRANCH   1   8
ATOM      8  C   UNL     1      96.097  85.458  79.936  1.00  0.00     0.000 C 
BRANCH   8   9
ATOM      9  C   UNL     1      95.097  84.390  80.406  1.00  0.00     0.006 C 
BRANCH   9  10
ATOM     10  C   UNL     1      94.186  83.899  79.274  1.00  0.00     0.053 C 
BRANCH  10  11
ATOM     11  C   UNL     1      92.844  84.557  79.360  1.00  0.00     0.041 C 
ATOM     12  O   UNL     1      92.580  85.554  78.640  1.00  0.00    -0.550 OA
ATOM     13  O   UNL     1      91.903  84.099  80.274  1.00  0.00    -0.550 OA
ENDBRANCH  10  11
ENDBRANCH   9  10
ENDBRANCH   8   9
ENDBRANCH   1   8
TORSDOF 8
ENDMDL
MODEL 7
REMARK VINA RESULT:    -3.949     10.723     11.813
REMARK INTER + INTRA:          -6.377
REMARK INTER:                  -5.955
REMARK INTRA:                  -0.422
REMARK UNBOUND:                -0.580
REMARK SMILES O=C([O-])CCCCCCCC(=O)[O-]
REMARK SMILES IDX 7 1 6 2 5 3 4 4 2 5 1 6 3 7 8 8 9 9 10 10 11 11 12 12 13 13
REMARK H PARENT
REMARK Flexibility Score: inf
ROOT
ATOM      1  C   UNL     1      92.290  84.363  80.812  1.00  0.00     0.000 C 
ENDROOT
BRANCH   1   2
ATOM      2  C   UNL     1      92.812  84.280  79.370  1.00  0.00     0.000 C 
BRANCH   2   3
ATOM      3  C   UNL     1      94.304  83.910  79.302  1.00  0.00     0.006 C 
BRANCH   3   4
ATOM      4  C   UNL     1      95.145  84.710  80.306  1.00  0.00     0.053 C 
BRANCH   4   5
ATOM      5  C   UNL     1      96.005  85.728  79.622  1.00  0.00     0.041 C 
ATOM      6  O   UNL     1      95.523  86.464  78.722  1.00  0.00    -0.550 OA
ATOM      7  O   UNL     1      97.331  85.887  80.004  1.00  0.00    -0.550 OA
ENDBRANCH   4   5
ENDBRANCH   3   4
ENDBRANCH   2   3
ENDBRANCH   1   2
BRANCH   1   8
ATOM      8  C   UNL     1      90.822  83.917  80.935  1.00  0.00     0.000 C 
BRANCH   8   9
ATOM      9  C   UNL     1      89.840  85.099  80.894  1.00  0.00     0.006 C 
BRANCH   9  10
ATOM     10  C   UNL     1      88.807  84.968  79.769  1.00  0.00     0.053 C 
BRANCH  10  11
ATOM     11  C   UNL     1      88.979  86.069  78.770  1.00  0.00     0.041 C 
ATOM     12  O   UNL     1      87.974  86.578  78.208  1.00  0.00    -0.550 OA
ATOM     13  O   UNL     1      90.254  86.501  78.423  1.00  0.00    -0.550 OA
ENDBRANCH  10  11
ENDBRANCH   9  10
ENDBRANCH   8   9
ENDBRANCH   1   8
TORSDOF 8
ENDMDL
MODEL 8
REMARK VINA RESULT:    -3.865     10.934     12.699
REMARK INTER + INTRA:          -6.253
REMARK INTER:                  -5.734
REMARK INTRA:                  -0.519
REMARK UNBOUND:                -0.580
REMARK SMILES O=C([O-])CCCCCCCC(=O)[O-]
REMARK SMILES IDX 7 1 6 2 5 3 4 4 2 5 1 6 3 7 8 8 9 9 10 10 11 11 12 12 13 13
REMARK H PARENT
REMARK Flexibility Score: inf
ROOT
ATOM      1  C   UNL     1      92.635  84.908  81.078  1.00  0.00     0.000 C 
ENDROOT
BRANCH   1   2
ATOM      2  C   UNL     1      91.274  84.591  81.717  1.00  0.00     0.000 C 
BRANCH   2   3
ATOM      3  C   UNL     1      90.264  84.022  80.705  1.00  0.00     0.006 C 
BRANCH   3   4
ATOM      4  C   UNL     1      88.919  84.758  80.755  1.00  0.00     0.053 C 
BRANCH   4   5
ATOM      5  C   UNL     1      88.860  85.873  79.756  1.00  0.00     0.041 C 
ATOM      6  O   UNL     1      89.758  85.989  78.881  1.00  0.00    -0.550 OA
ATOM      7  O   UNL     1      87.796  86.765  79.772  1.00  0.00    -0.550 OA
ENDBRANCH   4   5
ENDBRANCH   3   4
ENDBRANCH   2   3
ENDBRANCH   1   2
BRANCH   1   8
ATOM      8  C   UNL     1      92.777  84.311  79.666  1.00  0.00     0.000 C 
BRANCH   8   9
ATOM      9  C   UNL     1      94.238  84.012  79.295  1.00  0.00     0.006 C 
BRANCH   9  10
ATOM     10  C   UNL     1      95.235  84.627  80.285  1.00  0.00     0.053 C 
BRANCH  10  11
ATOM     11  C   UNL     1      96.032  85.706  79.622  1.00  0.00     0.041 C 
ATOM     12  O   UNL     1      95.545  86.352  78.658  1.00  0.00    -0.550 OA
ATOM     13  O   UNL     1      97.333  85.963  80.036  1.00  0.00    -0.550 OA
ENDBRANCH  10  11
ENDBRANCH   9  10
ENDBRANCH   8   9
ENDBRANCH   1   8
TORSDOF 8
ENDMDL
MODEL 9
REMARK VINA RESULT:    -3.799      2.063      5.273
REMARK INTER + INTRA:          -6.155
REMARK INTER:                  -5.707
REMARK INTRA:                  -0.449
REMARK UNBOUND:                -0.580
REMARK SMILES O=C([O-])CCCCCCCC(=O)[O-]
REMARK SMILES IDX 7 1 6 2 5 3 4 4 2 5 1 6 3 7 8 8 9 9 10 10 11 11 12 12 13 13
REMARK H PARENT
REMARK Flexibility Score: inf
ROOT
ATOM      1  C   UNL     1      88.266  76.246  72.252  1.00  0.00     0.000 C 
ENDROOT
BRANCH   1   2
ATOM      2  C   UNL     1      89.269  76.251  73.416  1.00  0.00     0.000 C 
BRANCH   2   3
ATOM      3  C   UNL     1      88.632  75.812  74.747  1.00  0.00     0.006 C 
BRANCH   3   4
ATOM      4  C   UNL     1      87.670  76.870  75.304  1.00  0.00     0.053 C 
BRANCH   4   5
ATOM      5  C   UNL     1      86.239  76.459  75.139  1.00  0.00     0.041 C 
ATOM      6  O   UNL     1      85.312  77.242  75.475  1.00  0.00    -0.550 OA
ATOM      7  O   UNL     1      85.930  75.225  74.582  1.00  0.00    -0.550 OA
ENDBRANCH   4   5
ENDBRANCH   3   4
ENDBRANCH   2   3
ENDBRANCH   1   2
BRANCH   1   8
ATOM      8  C   UNL     1      87.873  77.665  71.806  1.00  0.00     0.000 C 
BRANCH   8   9
ATOM      9  C   UNL     1      88.998  78.374  71.035  1.00  0.00     0.006 C 
BRANCH   9  10
ATOM     10  C   UNL     1      89.549  77.524  69.884  1.00  0.00     0.053 C 
BRANCH  10  11
ATOM     11  C   UNL     1      91.037  77.398  69.994  1.00  0.00     0.041 C 
ATOM     12  O   UNL     1      91.562  76.280  70.239  1.00  0.00    -0.550 OA
ATOM     13  O   UNL     1      91.840  78.525  69.875  1.00  0.00    -0.550 OA
ENDBRANCH  10  11
ENDBRANCH   9  10
ENDBRANCH   8   9
ENDBRANCH   1   8
TORSDOF 8
ENDMDL
