MODEL 1
REMARK VINA RESULT:    -6.715      0.000      0.000
REMARK INTER + INTRA:          -8.346
REMARK INTER:                  -7.893
REMARK INTRA:                  -0.453
REMARK UNBOUND:                -0.453
REMARK SMILES C=C(C)[C@@H]1CC[C@@]2(CO)CC[C@@]3(C)[C@H](CC[C@@H]4[C@]5(C)CC[C@@H](O)C(C)(C)[C@@H]5CC[C@@]43C)[C@H]12
REMARK SMILES IDX 4 1 5 2 6 3 7 4 32 5 14 6 15 7 16 8 17 9 18 10 20 11 21 12
REMARK SMILES IDX 22 13 24 14 27 15 28 16 29 17 30 18 12 19 11 20 10 21 13 22
REMARK SMILES IDX 31 23 25 24 26 25 19 26 2 27 3 28 1 29 8 30 9 31 23 33
REMARK H PARENT 9 32 23 34
REMARK Flexibility Score: inf
ROOT
ATOM      1  C   UNL     1       4.713  53.341   6.607  1.00  0.00     0.018 C 
ATOM      2  C   UNL     1       5.410  51.965   6.457  1.00  0.00     0.009 C 
ATOM      3  C   UNL     1       5.720  51.481   7.885  1.00  0.00     0.010 C 
ATOM      4  C   UNL     1       4.610  52.096   8.771  1.00  0.00    -0.003 C 
ATOM      5  C   UNL     1       4.524  53.500   8.136  1.00  0.00     0.008 C 
ATOM      6  C   UNL     1       3.565  54.532   8.812  1.00  0.00    -0.000 C 
ATOM      7  C   UNL     1       2.078  54.186   8.643  1.00  0.00     0.005 C 
ATOM      8  C   UNL     1       1.194  55.246   9.261  1.00  0.00     0.005 C 
ATOM      9  C   UNL     1       1.375  55.279  10.808  1.00  0.00     0.002 C 
ATOM     10  C   UNL     1       0.257  56.148  11.594  1.00  0.00    -0.026 C 
ATOM     11  C   UNL     1      -1.146  56.081  10.882  1.00  0.00     0.010 C 
ATOM     12  C   UNL     1      -1.389  57.215   9.884  1.00  0.00     0.033 C 
ATOM     13  C   UNL     1      -1.361  58.616  10.539  1.00  0.00     0.120 C 
ATOM     14  C   UNL     1      -0.486  58.712  11.841  1.00  0.00    -0.006 C 
ATOM     15  C   UNL     1       0.712  57.662  11.813  1.00  0.00     0.003 C 
ATOM     16  C   UNL     1       1.822  58.084  10.811  1.00  0.00     0.005 C 
ATOM     17  C   UNL     1       3.072  57.177  10.757  1.00  0.00     0.008 C 
ATOM     18  C   UNL     1       2.878  55.667  11.134  1.00  0.00    -0.024 C 
ATOM     19  C   UNL     1       3.960  54.736  10.338  1.00  0.00    -0.024 C 
ATOM     20  C   UNL     1       4.109  53.307  11.009  1.00  0.00     0.008 C 
ATOM     21  C   UNL     1       5.008  52.272  10.258  1.00  0.00     0.010 C 
ATOM     22  C   UNL     1       5.371  55.440  10.399  1.00  0.00     0.012 C 
ATOM     23  C   UNL     1       3.147  55.519  12.668  1.00  0.00     0.012 C 
ATOM     24  C   UNL     1       0.050  60.169  11.956  1.00  0.00     0.014 C 
ATOM     25  C   UNL     1      -1.352  58.507  13.124  1.00  0.00     0.014 C 
ATOM     26  C   UNL     1       0.009  55.475  12.990  1.00  0.00     0.012 C 
ENDROOT
BRANCH   1  27
ATOM     27  C   UNL     1       3.494  53.610   5.722  1.00  0.00    -0.077 C 
ATOM     28  C   UNL     1       3.485  54.861   4.877  1.00  0.00     0.039 C 
ATOM     29  C   UNL     1       2.428  52.793   5.636  1.00  0.00     0.008 C 
ENDBRANCH   1  27
BRANCH   4  30
ATOM     30  C   UNL     1       3.308  51.224   8.673  1.00  0.00     0.163 C 
BRANCH  30  31
ATOM     31  O   UNL     1       3.579  49.846   8.633  1.00  0.00    -0.396 OA
ATOM     32  H   UNL     1       4.125  49.684   7.820  1.00  0.00     0.210 HD
ENDBRANCH  30  31
ENDBRANCH   4  30
BRANCH  13  33
ATOM     33  O   UNL     1      -2.675  59.051  10.797  1.00  0.00    -0.393 OA
ATOM     34  H   UNL     1      -3.209  58.250  11.039  1.00  0.00     0.210 HD
ENDBRANCH  13  33
TORSDOF 4
ENDMDL
MODEL 2
REMARK VINA RESULT:    -5.423     11.107     15.213
REMARK INTER + INTRA:          -6.827
REMARK INTER:                  -7.568
REMARK INTRA:                   0.741
REMARK UNBOUND:                -0.453
REMARK SMILES C=C(C)[C@@H]1CC[C@@]2(CO)CC[C@@]3(C)[C@H](CC[C@@H]4[C@]5(C)CC[C@@H](O)C(C)(C)[C@@H]5CC[C@@]43C)[C@H]12
REMARK SMILES IDX 4 1 5 2 6 3 7 4 32 5 14 6 15 7 16 8 17 9 18 10 20 11 21 12
REMARK SMILES IDX 22 13 24 14 27 15 28 16 29 17 30 18 12 19 11 20 10 21 13 22
REMARK SMILES IDX 31 23 25 24 26 25 19 26 2 27 3 28 1 29 8 30 9 31 23 33
REMARK H PARENT 9 32 23 34
REMARK Flexibility Score: inf
ROOT
ATOM      1  C   UNL     1      -9.555  63.857   4.090  1.00  0.00     0.018 C 
ATOM      2  C   UNL     1     -10.412  64.426   2.931  1.00  0.00     0.009 C 
ATOM      3  C   UNL     1     -10.578  65.930   3.216  1.00  0.00     0.010 C 
ATOM      4  C   UNL     1      -9.297  66.340   3.983  1.00  0.00    -0.003 C 
ATOM      5  C   UNL     1      -9.145  65.110   4.903  1.00  0.00     0.008 C 
ATOM      6  C   UNL     1      -7.995  65.147   5.961  1.00  0.00    -0.000 C 
ATOM      7  C   UNL     1      -6.591  65.063   5.342  1.00  0.00     0.005 C 
ATOM      8  C   UNL     1      -5.522  65.042   6.411  1.00  0.00     0.005 C 
ATOM      9  C   UNL     1      -5.487  66.396   7.181  1.00  0.00     0.002 C 
ATOM     10  C   UNL     1      -4.185  66.596   8.123  1.00  0.00    -0.026 C 
ATOM     11  C   UNL     1      -2.907  65.909   7.510  1.00  0.00     0.010 C 
ATOM     12  C   UNL     1      -2.678  64.479   8.002  1.00  0.00     0.033 C 
ATOM     13  C   UNL     1      -2.463  64.388   9.530  1.00  0.00     0.120 C 
ATOM     14  C   UNL     1      -3.138  65.544  10.355  1.00  0.00    -0.006 C 
ATOM     15  C   UNL     1      -4.437  66.099   9.618  1.00  0.00     0.003 C 
ATOM     16  C   UNL     1      -5.619  65.095   9.702  1.00  0.00     0.005 C 
ATOM     17  C   UNL     1      -6.957  65.563   9.087  1.00  0.00     0.008 C 
ATOM     18  C   UNL     1      -6.881  66.598   7.911  1.00  0.00    -0.024 C 
ATOM     19  C   UNL     1      -8.156  66.416   6.905  1.00  0.00    -0.024 C 
ATOM     20  C   UNL     1      -8.369  67.693   5.991  1.00  0.00     0.008 C 
ATOM     21  C   UNL     1      -9.469  67.587   4.886  1.00  0.00     0.010 C 
ATOM     22  C   UNL     1      -9.460  66.230   7.774  1.00  0.00     0.012 C 
ATOM     23  C   UNL     1      -6.954  68.032   8.532  1.00  0.00     0.012 C 
ATOM     24  C   UNL     1      -3.491  64.988  11.766  1.00  0.00     0.014 C 
ATOM     25  C   UNL     1      -2.135  66.708  10.628  1.00  0.00     0.014 C 
ATOM     26  C   UNL     1      -3.826  68.124   8.139  1.00  0.00     0.012 C 
ENDROOT
BRANCH   1  27
ATOM     27  C   UNL     1      -8.444  62.870   3.721  1.00  0.00    -0.077 C 
ATOM     28  C   UNL     1      -8.403  62.333   2.311  1.00  0.00     0.039 C 
ATOM     29  C   UNL     1      -7.487  62.457   4.572  1.00  0.00     0.008 C 
ENDBRANCH   1  27
BRANCH   4  30
ATOM     30  C   UNL     1      -8.124  66.581   2.968  1.00  0.00     0.163 C 
BRANCH  30  31
ATOM     31  O   UNL     1      -8.561  66.624   1.634  1.00  0.00    -0.396 OA
ATOM     32  H   UNL     1      -7.851  67.084   1.114  1.00  0.00     0.210 HD
ENDBRANCH  30  31
ENDBRANCH   4  30
BRANCH  13  33
ATOM     33  O   UNL     1      -1.086  64.319   9.819  1.00  0.00    -0.393 OA
ATOM     34  H   UNL     1      -0.599  64.557   8.987  1.00  0.00     0.210 HD
ENDBRANCH  13  33
TORSDOF 4
ENDMDL
MODEL 3
REMARK VINA RESULT:    -5.316      3.432      5.589
REMARK INTER + INTRA:          -6.701
REMARK INTER:                  -6.024
REMARK INTRA:                  -0.677
REMARK UNBOUND:                -0.453
REMARK SMILES C=C(C)[C@@H]1CC[C@@]2(CO)CC[C@@]3(C)[C@H](CC[C@@H]4[C@]5(C)CC[C@@H](O)C(C)(C)[C@@H]5CC[C@@]43C)[C@H]12
REMARK SMILES IDX 4 1 5 2 6 3 7 4 32 5 14 6 15 7 16 8 17 9 18 10 20 11 21 12
REMARK SMILES IDX 22 13 24 14 27 15 28 16 29 17 30 18 12 19 11 20 10 21 13 22
REMARK SMILES IDX 31 23 25 24 26 25 19 26 2 27 3 28 1 29 8 30 9 31 23 33
REMARK H PARENT 9 32 23 34
REMARK Flexibility Score: inf
ROOT
ATOM      1  C   UNL     1      -2.238  50.597  10.523  1.00  0.00     0.018 C 
ATOM      2  C   UNL     1      -2.445  49.072  10.711  1.00  0.00     0.009 C 
ATOM      3  C   UNL     1      -1.075  48.418  10.456  1.00  0.00     0.010 C 
ATOM      4  C   UNL     1      -0.033  49.479  10.884  1.00  0.00    -0.003 C 
ATOM      5  C   UNL     1      -0.710  50.746  10.318  1.00  0.00     0.008 C 
ATOM      6  C   UNL     1       0.078  52.090  10.437  1.00  0.00    -0.000 C 
ATOM      7  C   UNL     1       0.199  52.602  11.880  1.00  0.00     0.005 C 
ATOM      8  C   UNL     1       0.916  53.933  11.931  1.00  0.00     0.005 C 
ATOM      9  C   UNL     1       2.400  53.776  11.485  1.00  0.00     0.002 C 
ATOM     10  C   UNL     1       3.333  55.062  11.802  1.00  0.00    -0.026 C 
ATOM     11  C   UNL     1       2.892  55.795  13.125  1.00  0.00     0.010 C 
ATOM     12  C   UNL     1       1.901  56.938  12.898  1.00  0.00     0.033 C 
ATOM     13  C   UNL     1       2.469  58.067  12.009  1.00  0.00     0.120 C 
ATOM     14  C   UNL     1       3.584  57.608  11.000  1.00  0.00    -0.006 C 
ATOM     15  C   UNL     1       3.390  56.084  10.577  1.00  0.00     0.003 C 
ATOM     16  C   UNL     1       2.182  55.903   9.616  1.00  0.00     0.005 C 
ATOM     17  C   UNL     1       1.947  54.475   9.079  1.00  0.00     0.008 C 
ATOM     18  C   UNL     1       2.427  53.283   9.978  1.00  0.00    -0.024 C 
ATOM     19  C   UNL     1       1.494  51.964   9.727  1.00  0.00    -0.024 C 
ATOM     20  C   UNL     1       2.196  50.641  10.246  1.00  0.00     0.008 C 
ATOM     21  C   UNL     1       1.346  49.331  10.194  1.00  0.00     0.010 C 
ATOM     22  C   UNL     1       1.262  51.801   8.174  1.00  0.00     0.012 C 
ATOM     23  C   UNL     1       3.891  52.927   9.559  1.00  0.00     0.012 C 
ATOM     24  C   UNL     1       3.527  58.544   9.757  1.00  0.00     0.014 C 
ATOM     25  C   UNL     1       5.011  57.825  11.594  1.00  0.00     0.014 C 
ATOM     26  C   UNL     1       4.782  54.547  12.115  1.00  0.00     0.012 C 
ENDROOT
BRANCH   1  27
ATOM     27  C   UNL     1      -2.898  51.525  11.546  1.00  0.00    -0.077 C 
ATOM     28  C   UNL     1      -3.376  52.880  11.079  1.00  0.00     0.039 C 
ATOM     29  C   UNL     1      -3.095  51.207  12.838  1.00  0.00     0.008 C 
ENDBRANCH   1  27
BRANCH   4  30
ATOM     30  C   UNL     1       0.152  49.444  12.443  1.00  0.00     0.163 C 
BRANCH  30  31
ATOM     31  O   UNL     1       0.784  48.272  12.888  1.00  0.00    -0.396 OA
ATOM     32  H   UNL     1       1.084  48.443  13.819  1.00  0.00     0.210 HD
ENDBRANCH  30  31
ENDBRANCH   4  30
BRANCH  13  33
ATOM     33  O   UNL     1       2.941  59.122  12.814  1.00  0.00    -0.393 OA
ATOM     34  H   UNL     1       3.200  58.732  13.689  1.00  0.00     0.210 HD
ENDBRANCH  13  33
TORSDOF 4
ENDMDL
MODEL 4
REMARK VINA RESULT:    -5.111      1.824      3.363
REMARK INTER + INTRA:          -6.460
REMARK INTER:                  -5.927
REMARK INTRA:                  -0.533
REMARK UNBOUND:                -0.453
REMARK SMILES C=C(C)[C@@H]1CC[C@@]2(CO)CC[C@@]3(C)[C@H](CC[C@@H]4[C@]5(C)CC[C@@H](O)C(C)(C)[C@@H]5CC[C@@]43C)[C@H]12
REMARK SMILES IDX 4 1 5 2 6 3 7 4 32 5 14 6 15 7 16 8 17 9 18 10 20 11 21 12
REMARK SMILES IDX 22 13 24 14 27 15 28 16 29 17 30 18 12 19 11 20 10 21 13 22
REMARK SMILES IDX 31 23 25 24 26 25 19 26 2 27 3 28 1 29 8 30 9 31 23 33
REMARK H PARENT 9 32 23 34
REMARK Flexibility Score: inf
ROOT
ATOM      1  C   UNL     1       2.426  50.194   9.220  1.00  0.00     0.018 C 
ATOM      2  C   UNL     1       3.737  49.367   9.232  1.00  0.00     0.009 C 
ATOM      3  C   UNL     1       4.890  50.386   9.163  1.00  0.00     0.010 C 
ATOM      4  C   UNL     1       4.347  51.659   9.859  1.00  0.00    -0.003 C 
ATOM      5  C   UNL     1       2.909  51.664   9.298  1.00  0.00     0.008 C 
ATOM      6  C   UNL     1       2.002  52.881   9.671  1.00  0.00    -0.000 C 
ATOM      7  C   UNL     1       1.599  52.911  11.153  1.00  0.00     0.005 C 
ATOM      8  C   UNL     1       0.674  54.072  11.445  1.00  0.00     0.005 C 
ATOM      9  C   UNL     1       1.416  55.428  11.252  1.00  0.00     0.002 C 
ATOM     10  C   UNL     1       0.623  56.713  11.839  1.00  0.00    -0.026 C 
ATOM     11  C   UNL     1      -0.211  56.351  13.125  1.00  0.00     0.010 C 
ATOM     12  C   UNL     1      -1.661  55.959  12.832  1.00  0.00     0.033 C 
ATOM     13  C   UNL     1      -2.471  57.090  12.158  1.00  0.00     0.120 C 
ATOM     14  C   UNL     1      -1.609  58.105  11.322  1.00  0.00    -0.006 C 
ATOM     15  C   UNL     1      -0.300  57.409  10.739  1.00  0.00     0.003 C 
ATOM     16  C   UNL     1      -0.635  56.441   9.570  1.00  0.00     0.005 C 
ATOM     17  C   UNL     1       0.569  55.768   8.875  1.00  0.00     0.008 C 
ATOM     18  C   UNL     1       1.862  55.550   9.735  1.00  0.00    -0.024 C 
ATOM     19  C   UNL     1       2.685  54.240   9.209  1.00  0.00    -0.024 C 
ATOM     20  C   UNL     1       4.185  54.243   9.724  1.00  0.00     0.008 C 
ATOM     21  C   UNL     1       5.036  52.972   9.408  1.00  0.00     0.010 C 
ATOM     22  C   UNL     1       2.724  54.270   7.632  1.00  0.00     0.012 C 
ATOM     23  C   UNL     1       2.777  56.805   9.548  1.00  0.00     0.012 C 
ATOM     24  C   UNL     1      -2.500  58.667  10.177  1.00  0.00     0.014 C 
ATOM     25  C   UNL     1      -1.221  59.355  12.172  1.00  0.00     0.014 C 
ATOM     26  C   UNL     1       1.686  57.748  12.353  1.00  0.00     0.012 C 
ENDROOT
BRANCH   1  27
ATOM     27  C   UNL     1       1.321  49.771  10.190  1.00  0.00    -0.077 C 
ATOM     28  C   UNL     1       1.717  49.323  11.576  1.00  0.00     0.039 C 
ATOM     29  C   UNL     1       0.009  49.784   9.892  1.00  0.00     0.008 C 
ENDBRANCH   1  27
BRANCH   4  30
ATOM     30  C   UNL     1       4.471  51.507  11.417  1.00  0.00     0.163 C 
BRANCH  30  31
ATOM     31  O   UNL     1       5.375  50.500  11.794  1.00  0.00    -0.396 OA
ATOM     32  H   UNL     1       5.362  50.459  12.785  1.00  0.00     0.210 HD
ENDBRANCH  30  31
ENDBRANCH   4  30
BRANCH  13  33
ATOM     33  O   UNL     1      -3.235  57.774  13.124  1.00  0.00    -0.393 OA
ATOM     34  H   UNL     1      -4.116  57.977  12.713  1.00  0.00     0.210 HD
ENDBRANCH  13  33
TORSDOF 4
ENDMDL
MODEL 5
REMARK VINA RESULT:    -4.924      8.369     12.873
REMARK INTER + INTRA:          -6.241
REMARK INTER:                  -5.556
REMARK INTRA:                  -0.685
REMARK UNBOUND:                -0.453
REMARK SMILES C=C(C)[C@@H]1CC[C@@]2(CO)CC[C@@]3(C)[C@H](CC[C@@H]4[C@]5(C)CC[C@@H](O)C(C)(C)[C@@H]5CC[C@@]43C)[C@H]12
REMARK SMILES IDX 4 1 5 2 6 3 7 4 32 5 14 6 15 7 16 8 17 9 18 10 20 11 21 12
REMARK SMILES IDX 22 13 24 14 27 15 28 16 29 17 30 18 12 19 11 20 10 21 13 22
REMARK SMILES IDX 31 23 25 24 26 25 19 26 2 27 3 28 1 29 8 30 9 31 23 33
REMARK H PARENT 9 32 23 34
REMARK Flexibility Score: inf
ROOT
ATOM      1  C   UNL     1      -4.731  59.990  10.048  1.00  0.00     0.018 C 
ATOM      2  C   UNL     1      -3.510  59.610  10.925  1.00  0.00     0.009 C 
ATOM      3  C   UNL     1      -2.368  60.552  10.504  1.00  0.00     0.010 C 
ATOM      4  C   UNL     1      -3.066  61.853  10.040  1.00  0.00    -0.003 C 
ATOM      5  C   UNL     1      -4.258  61.244   9.271  1.00  0.00     0.008 C 
ATOM      6  C   UNL     1      -5.204  62.235   8.519  1.00  0.00    -0.000 C 
ATOM      7  C   UNL     1      -6.046  63.109   9.461  1.00  0.00     0.005 C 
ATOM      8  C   UNL     1      -6.985  64.004   8.683  1.00  0.00     0.005 C 
ATOM      9  C   UNL     1      -6.186  65.050   7.851  1.00  0.00     0.002 C 
ATOM     10  C   UNL     1      -7.087  66.247   7.237  1.00  0.00    -0.026 C 
ATOM     11  C   UNL     1      -8.289  66.621   8.184  1.00  0.00     0.010 C 
ATOM     12  C   UNL     1      -9.586  65.875   7.863  1.00  0.00     0.033 C 
ATOM     13  C   UNL     1     -10.117  66.166   6.440  1.00  0.00     0.120 C 
ATOM     14  C   UNL     1      -9.011  66.574   5.399  1.00  0.00    -0.006 C 
ATOM     15  C   UNL     1      -7.605  65.920   5.763  1.00  0.00     0.003 C 
ATOM     16  C   UNL     1      -7.586  64.395   5.469  1.00  0.00     0.005 C 
ATOM     17  C   UNL     1      -6.243  63.670   5.712  1.00  0.00     0.008 C 
ATOM     18  C   UNL     1      -5.287  64.278   6.796  1.00  0.00    -0.024 C 
ATOM     19  C   UNL     1      -4.376  63.105   7.478  1.00  0.00    -0.024 C 
ATOM     20  C   UNL     1      -3.111  63.703   8.223  1.00  0.00     0.008 C 
ATOM     21  C   UNL     1      -2.237  62.696   9.037  1.00  0.00     0.010 C 
ATOM     22  C   UNL     1      -3.849  62.151   6.337  1.00  0.00     0.012 C 
ATOM     23  C   UNL     1      -4.327  65.282   6.078  1.00  0.00     0.012 C 
ATOM     24  C   UNL     1      -9.488  66.123   3.987  1.00  0.00     0.014 C 
ATOM     25  C   UNL     1      -8.874  68.125   5.294  1.00  0.00     0.014 C 
ATOM     26  C   UNL     1      -6.211  67.548   7.201  1.00  0.00     0.012 C 
ENDROOT
BRANCH   1  27
ATOM     27  C   UNL     1      -6.094  60.071  10.740  1.00  0.00    -0.077 C 
ATOM     28  C   UNL     1      -7.312  59.610   9.977  1.00  0.00     0.039 C 
ATOM     29  C   UNL     1      -6.278  60.516  11.996  1.00  0.00     0.008 C 
ENDBRANCH   1  27
BRANCH   4  30
ATOM     30  C   UNL     1      -3.436  62.732  11.287  1.00  0.00     0.163 C 
BRANCH  30  31
ATOM     31  O   UNL     1      -2.308  63.151  12.010  1.00  0.00    -0.396 OA
ATOM     32  H   UNL     1      -2.486  64.080  12.309  1.00  0.00     0.210 HD
ENDBRANCH  30  31
ENDBRANCH   4  30
BRANCH  13  33
ATOM     33  O   UNL     1     -11.125  67.149   6.496  1.00  0.00    -0.393 OA
ATOM     34  H   UNL     1     -11.455  67.285   5.569  1.00  0.00     0.210 HD
ENDBRANCH  13  33
TORSDOF 4
ENDMDL
MODEL 6
REMARK VINA RESULT:    -4.856     11.142     14.314
REMARK INTER + INTRA:          -6.161
REMARK INTER:                  -5.785
REMARK INTRA:                  -0.376
REMARK UNBOUND:                -0.453
REMARK SMILES C=C(C)[C@@H]1CC[C@@]2(CO)CC[C@@]3(C)[C@H](CC[C@@H]4[C@]5(C)CC[C@@H](O)C(C)(C)[C@@H]5CC[C@@]43C)[C@H]12
REMARK SMILES IDX 4 1 5 2 6 3 7 4 32 5 14 6 15 7 16 8 17 9 18 10 20 11 21 12
REMARK SMILES IDX 22 13 24 14 27 15 28 16 29 17 30 18 12 19 11 20 10 21 13 22
REMARK SMILES IDX 31 23 25 24 26 25 19 26 2 27 3 28 1 29 8 30 9 31 23 33
REMARK H PARENT 9 32 23 34
REMARK Flexibility Score: inf
ROOT
ATOM      1  C   UNL     1      -8.550  66.182   3.421  1.00  0.00     0.018 C 
ATOM      2  C   UNL     1      -9.329  65.485   2.277  1.00  0.00     0.009 C 
ATOM      3  C   UNL     1      -8.770  64.053   2.187  1.00  0.00     0.010 C 
ATOM      4  C   UNL     1      -8.317  63.703   3.625  1.00  0.00    -0.003 C 
ATOM      5  C   UNL     1      -7.683  65.051   4.029  1.00  0.00     0.008 C 
ATOM      6  C   UNL     1      -6.979  65.120   5.423  1.00  0.00    -0.000 C 
ATOM      7  C   UNL     1      -7.956  65.038   6.606  1.00  0.00     0.005 C 
ATOM      8  C   UNL     1      -7.230  65.170   7.926  1.00  0.00     0.005 C 
ATOM      9  C   UNL     1      -6.287  63.952   8.160  1.00  0.00     0.002 C 
ATOM     10  C   UNL     1      -5.709  63.834   9.668  1.00  0.00    -0.026 C 
ATOM     11  C   UNL     1      -6.743  64.354  10.736  1.00  0.00     0.010 C 
ATOM     12  C   UNL     1      -6.570  65.830  11.098  1.00  0.00     0.033 C 
ATOM     13  C   UNL     1      -5.190  66.144  11.721  1.00  0.00     0.120 C 
ATOM     14  C   UNL     1      -4.038  65.165  11.288  1.00  0.00    -0.006 C 
ATOM     15  C   UNL     1      -4.301  64.568   9.835  1.00  0.00     0.003 C 
ATOM     16  C   UNL     1      -4.069  65.632   8.726  1.00  0.00     0.005 C 
ATOM     17  C   UNL     1      -4.220  65.142   7.269  1.00  0.00     0.008 C 
ATOM     18  C   UNL     1      -5.189  63.935   7.016  1.00  0.00    -0.024 C 
ATOM     19  C   UNL     1      -5.834  64.023   5.517  1.00  0.00    -0.024 C 
ATOM     20  C   UNL     1      -6.437  62.631   5.055  1.00  0.00     0.008 C 
ATOM     21  C   UNL     1      -7.211  62.620   3.697  1.00  0.00     0.010 C 
ATOM     22  C   UNL     1      -4.690  64.406   4.499  1.00  0.00     0.012 C 
ATOM     23  C   UNL     1      -4.347  62.619   7.105  1.00  0.00     0.012 C 
ATOM     24  C   UNL     1      -2.694  65.949  11.336  1.00  0.00     0.014 C 
ATOM     25  C   UNL     1      -3.858  64.009  12.321  1.00  0.00     0.014 C 
ATOM     26  C   UNL     1      -5.541  62.311  10.008  1.00  0.00     0.012 C 
ENDROOT
BRANCH   1  27
ATOM     27  C   UNL     1      -9.357  67.043   4.396  1.00  0.00    -0.077 C 
ATOM     28  C   UNL     1     -10.787  66.653   4.681  1.00  0.00     0.039 C 
ATOM     29  C   UNL     1      -8.869  68.125   5.031  1.00  0.00     0.008 C 
ENDBRANCH   1  27
BRANCH   4  30
ATOM     30  C   UNL     1      -9.555  63.249   4.477  1.00  0.00     0.163 C 
BRANCH  30  31
ATOM     31  O   UNL     1     -10.751  63.255   3.741  1.00  0.00    -0.396 OA
ATOM     32  H   UNL     1     -10.977  62.307   3.552  1.00  0.00     0.210 HD
ENDBRANCH  30  31
ENDBRANCH   4  30
BRANCH  13  33
ATOM     33  O   UNL     1      -5.295  66.188  13.125  1.00  0.00    -0.393 OA
ATOM     34  H   UNL     1      -6.223  66.466  13.342  1.00  0.00     0.210 HD
ENDBRANCH  13  33
TORSDOF 4
ENDMDL
MODEL 7
REMARK VINA RESULT:    -4.741      1.749      7.532
REMARK INTER + INTRA:          -6.025
REMARK INTER:                  -5.466
REMARK INTRA:                  -0.559
REMARK UNBOUND:                -0.453
REMARK SMILES C=C(C)[C@@H]1CC[C@@]2(CO)CC[C@@]3(C)[C@H](CC[C@@H]4[C@]5(C)CC[C@@H](O)C(C)(C)[C@@H]5CC[C@@]43C)[C@H]12
REMARK SMILES IDX 4 1 5 2 6 3 7 4 32 5 14 6 15 7 16 8 17 9 18 10 20 11 21 12
REMARK SMILES IDX 22 13 24 14 27 15 28 16 29 17 30 18 12 19 11 20 10 21 13 22
REMARK SMILES IDX 31 23 25 24 26 25 19 26 2 27 3 28 1 29 8 30 9 31 23 33
REMARK H PARENT 9 32 23 34
REMARK Flexibility Score: inf
ROOT
ATOM      1  C   UNL     1      -0.065  59.036  13.031  1.00  0.00     0.018 C 
ATOM      2  C   UNL     1      -0.013  60.582  13.125  1.00  0.00     0.009 C 
ATOM      3  C   UNL     1       1.410  60.992  12.703  1.00  0.00     0.010 C 
ATOM      4  C   UNL     1       1.864  59.903  11.700  1.00  0.00    -0.003 C 
ATOM      5  C   UNL     1       1.300  58.652  12.408  1.00  0.00     0.008 C 
ATOM      6  C   UNL     1       1.629  57.263  11.772  1.00  0.00    -0.000 C 
ATOM      7  C   UNL     1       0.923  57.022  10.429  1.00  0.00     0.005 C 
ATOM      8  C   UNL     1       1.228  55.643   9.889  1.00  0.00     0.005 C 
ATOM      9  C   UNL     1       2.737  55.516   9.523  1.00  0.00     0.002 C 
ATOM     10  C   UNL     1       3.105  54.202   8.650  1.00  0.00    -0.026 C 
ATOM     11  C   UNL     1       1.935  53.798   7.677  1.00  0.00     0.010 C 
ATOM     12  C   UNL     1       0.965  52.773   8.268  1.00  0.00     0.033 C 
ATOM     13  C   UNL     1       1.644  51.430   8.626  1.00  0.00     0.120 C 
ATOM     14  C   UNL     1       3.176  51.540   8.959  1.00  0.00    -0.006 C 
ATOM     15  C   UNL     1       3.536  52.968   9.567  1.00  0.00     0.003 C 
ATOM     16  C   UNL     1       3.016  53.121  11.023  1.00  0.00     0.005 C 
ATOM     17  C   UNL     1       3.377  54.440  11.741  1.00  0.00     0.008 C 
ATOM     18  C   UNL     1       3.596  55.707  10.843  1.00  0.00    -0.024 C 
ATOM     19  C   UNL     1       3.203  57.065  11.664  1.00  0.00    -0.024 C 
ATOM     20  C   UNL     1       3.822  58.359  10.988  1.00  0.00     0.008 C 
ATOM     21  C   UNL     1       3.400  59.735  11.596  1.00  0.00     0.010 C 
ATOM     22  C   UNL     1       3.795  56.960  13.122  1.00  0.00     0.012 C 
ATOM     23  C   UNL     1       5.116  55.781  10.484  1.00  0.00     0.012 C 
ATOM     24  C   UNL     1       3.536  50.401   9.957  1.00  0.00     0.014 C 
ATOM     25  C   UNL     1       4.053  51.254   7.699  1.00  0.00     0.014 C 
ATOM     26  C   UNL     1       4.290  54.572   7.690  1.00  0.00     0.012 C 
ENDROOT
BRANCH   1  27
ATOM     27  C   UNL     1      -1.317  58.413  12.408  1.00  0.00    -0.077 C 
ATOM     28  C   UNL     1      -2.010  59.161  11.294  1.00  0.00     0.039 C 
ATOM     29  C   UNL     1      -1.836  57.229  12.779  1.00  0.00     0.008 C 
ENDBRANCH   1  27
BRANCH   4  30
ATOM     30  C   UNL     1       1.270  60.208  10.279  1.00  0.00     0.163 C 
BRANCH  30  31
ATOM     31  O   UNL     1       0.871  61.546  10.133  1.00  0.00    -0.396 OA
ATOM     32  H   UNL     1       1.553  62.101  10.594  1.00  0.00     0.210 HD
ENDBRANCH  30  31
ENDBRANCH   4  30
BRANCH  13  33
ATOM     33  O   UNL     1       1.431  50.495   7.594  1.00  0.00    -0.393 OA
ATOM     34  H   UNL     1       0.459  50.296   7.572  1.00  0.00     0.210 HD
ENDBRANCH  13  33
TORSDOF 4
ENDMDL
MODEL 8
REMARK VINA RESULT:    -4.711      3.125      7.032
REMARK INTER + INTRA:          -5.991
REMARK INTER:                  -5.676
REMARK INTRA:                  -0.314
REMARK UNBOUND:                -0.453
REMARK SMILES C=C(C)[C@@H]1CC[C@@]2(CO)CC[C@@]3(C)[C@H](CC[C@@H]4[C@]5(C)CC[C@@H](O)C(C)(C)[C@@H]5CC[C@@]43C)[C@H]12
REMARK SMILES IDX 4 1 5 2 6 3 7 4 32 5 14 6 15 7 16 8 17 9 18 10 20 11 21 12
REMARK SMILES IDX 22 13 24 14 27 15 28 16 29 17 30 18 12 19 11 20 10 21 13 22
REMARK SMILES IDX 31 23 25 24 26 25 19 26 2 27 3 28 1 29 8 30 9 31 23 33
REMARK H PARENT 9 32 23 34
REMARK Flexibility Score: inf
ROOT
ATOM      1  C   UNL     1       3.578  57.485   9.859  1.00  0.00     0.018 C 
ATOM      2  C   UNL     1       3.569  58.996  10.206  1.00  0.00     0.009 C 
ATOM      3  C   UNL     1       2.104  59.359  10.509  1.00  0.00     0.010 C 
ATOM      4  C   UNL     1       1.475  58.064  11.077  1.00  0.00    -0.003 C 
ATOM      5  C   UNL     1       2.123  57.029  10.134  1.00  0.00     0.008 C 
ATOM      6  C   UNL     1       1.671  55.541  10.288  1.00  0.00    -0.000 C 
ATOM      7  C   UNL     1       2.146  54.890  11.597  1.00  0.00     0.005 C 
ATOM      8  C   UNL     1       1.734  53.436  11.666  1.00  0.00     0.005 C 
ATOM      9  C   UNL     1       0.183  53.307  11.750  1.00  0.00     0.002 C 
ATOM     10  C   UNL     1      -0.344  51.828  12.144  1.00  0.00    -0.026 C 
ATOM     11  C   UNL     1       0.645  51.094  13.125  1.00  0.00     0.010 C 
ATOM     12  C   UNL     1       1.680  50.216  12.418  1.00  0.00     0.033 C 
ATOM     13  C   UNL     1       1.045  49.073  11.593  1.00  0.00     0.120 C 
ATOM     14  C   UNL     1      -0.412  49.369  11.079  1.00  0.00    -0.006 C 
ATOM     15  C   UNL     1      -0.643  50.930  10.859  1.00  0.00     0.003 C 
ATOM     16  C   UNL     1       0.108  51.450   9.602  1.00  0.00     0.005 C 
ATOM     17  C   UNL     1      -0.108  52.938   9.247  1.00  0.00     0.008 C 
ATOM     18  C   UNL     1      -0.447  53.914  10.427  1.00  0.00    -0.024 C 
ATOM     19  C   UNL     1       0.098  55.420  10.098  1.00  0.00    -0.024 C 
ATOM     20  C   UNL     1      -0.600  56.509  11.015  1.00  0.00     0.008 C 
ATOM     21  C   UNL     1      -0.061  57.971  10.897  1.00  0.00     0.010 C 
ATOM     22  C   UNL     1      -0.253  55.765   8.599  1.00  0.00     0.012 C 
ATOM     23  C   UNL     1      -2.004  53.981  10.560  1.00  0.00     0.012 C 
ATOM     24  C   UNL     1      -0.626  48.580   9.754  1.00  0.00     0.014 C 
ATOM     25  C   UNL     1      -1.486  48.797  12.057  1.00  0.00     0.014 C 
ATOM     26  C   UNL     1      -1.662  51.988  12.981  1.00  0.00     0.012 C 
ENDROOT
BRANCH   1  27
ATOM     27  C   UNL     1       4.701  56.635  10.459  1.00  0.00    -0.077 C 
ATOM     28  C   UNL     1       5.385  57.131  11.710  1.00  0.00     0.039 C 
ATOM     29  C   UNL     1       5.113  55.460   9.949  1.00  0.00     0.008 C 
ENDBRANCH   1  27
BRANCH   4  30
ATOM     30  C   UNL     1       1.836  57.921  12.599  1.00  0.00     0.163 C 
BRANCH  30  31
ATOM     31  O   UNL     1       2.517  59.041  13.103  1.00  0.00    -0.396 OA
ATOM     32  H   UNL     1       2.203  59.826  12.583  1.00  0.00     0.210 HD
ENDBRANCH  30  31
ENDBRANCH   4  30
BRANCH  13  33
ATOM     33  O   UNL     1       1.071  47.875  12.332  1.00  0.00    -0.393 OA
ATOM     34  H   UNL     1       1.677  48.019  13.105  1.00  0.00     0.210 HD
ENDBRANCH  13  33
TORSDOF 4
ENDMDL
