MODEL 1
REMARK VINA RESULT:    -6.789      0.000      0.000
REMARK INTER + INTRA:          -8.264
REMARK INTER:                  -8.179
REMARK INTRA:                  -0.086
REMARK UNBOUND:                -0.086
REMARK SMILES O=c1c(O)c(-c2ccc(O)c(O)c2)oc2cc(O)cc(O)c12
REMARK SMILES IDX 5 1 3 2 2 3 1 4 22 5 20 6 19 7 17 8 16 9 15 10 14 11 6 12
REMARK SMILES IDX 7 13 8 14 9 15 13 16 11 17 10 18 12 20 4 22 21 24 18 26
REMARK H PARENT 10 19 12 21 4 23 21 25 18 27
REMARK Flexibility Score: inf
ROOT
ATOM      1  C   UNL     1      45.304  45.512   9.835  1.00  0.00     0.180 A 
ATOM      2  C   UNL     1      45.661  44.686  10.915  1.00  0.00     0.208 A 
ATOM      3  C   UNL     1      45.621  43.292  10.749  1.00  0.00     0.238 A 
ATOM      4  O   UNL     1      45.889  42.559  11.736  1.00  0.00    -0.285 OA
ATOM      5  C   UNL     1      45.239  42.742   9.502  1.00  0.00     0.111 A 
ATOM      6  C   UNL     1      45.202  41.346   9.210  1.00  0.00     0.134 A 
ATOM      7  C   UNL     1      44.684  40.910   7.984  1.00  0.00     0.093 A 
ATOM      8  C   UNL     1      44.264  41.821   7.016  1.00  0.00     0.123 A 
ATOM      9  C   UNL     1      44.351  43.190   7.268  1.00  0.00     0.094 A 
ATOM     10  C   UNL     1      44.829  43.655   8.495  1.00  0.00     0.146 A 
ATOM     11  O   UNL     1      44.887  44.966   8.699  1.00  0.00    -0.452 OA
ENDROOT
BRANCH   1  12
ATOM     12  C   UNL     1      45.345  46.989   9.925  1.00  0.00     0.025 A 
ATOM     13  C   UNL     1      44.211  47.735   9.572  1.00  0.00     0.016 A 
ATOM     14  C   UNL     1      44.236  49.129   9.631  1.00  0.00     0.051 A 
ATOM     15  C   UNL     1      45.395  49.808  10.027  1.00  0.00     0.157 A 
ATOM     16  C   UNL     1      46.518  47.667  10.301  1.00  0.00     0.062 A 
ATOM     17  C   UNL     1      46.553  49.066  10.360  1.00  0.00     0.158 A 
BRANCH  15  18
ATOM     18  O   UNL     1      45.352  51.202  10.071  1.00  0.00    -0.504 OA
ATOM     19  H   UNL     1      45.679  51.801   9.327  1.00  0.00     0.293 HD
ENDBRANCH  15  18
BRANCH  17  20
ATOM     20  O   UNL     1      47.752  49.673  10.744  1.00  0.00    -0.504 OA
ATOM     21  H   UNL     1      48.520  49.853  10.115  1.00  0.00     0.293 HD
ENDBRANCH  17  20
ENDBRANCH   1  12
BRANCH   2  22
ATOM     22  O   UNL     1      46.013  45.250  12.145  1.00  0.00    -0.502 OA
ATOM     23  H   UNL     1      46.418  44.706  12.897  1.00  0.00     0.293 HD
ENDBRANCH   2  22
BRANCH   6  24
ATOM     24  O   UNL     1      45.682  40.355  10.072  1.00  0.00    -0.507 OA
ATOM     25  H   UNL     1      45.373  39.395  10.071  1.00  0.00     0.293 HD
ENDBRANCH   6  24
BRANCH   8  26
ATOM     26  O   UNL     1      43.768  41.352   5.800  1.00  0.00    -0.508 OA
ATOM     27  H   UNL     1      43.029  40.661   5.760  1.00  0.00     0.293 HD
ENDBRANCH   8  26
TORSDOF 6
ENDMDL
MODEL 2
REMARK VINA RESULT:    -6.658      5.758      9.034
REMARK INTER + INTRA:          -8.107
REMARK INTER:                  -8.053
REMARK INTRA:                  -0.053
REMARK UNBOUND:                -0.086
REMARK SMILES O=c1c(O)c(-c2ccc(O)c(O)c2)oc2cc(O)cc(O)c12
REMARK SMILES IDX 5 1 3 2 2 3 1 4 22 5 20 6 19 7 17 8 16 9 15 10 14 11 6 12
REMARK SMILES IDX 7 13 8 14 9 15 13 16 11 17 10 18 12 20 4 22 21 24 18 26
REMARK H PARENT 10 19 12 21 4 23 21 25 18 27
REMARK Flexibility Score: inf
ROOT
ATOM      1  C   UNL     1      51.491  47.361  12.087  1.00  0.00     0.180 A 
ATOM      2  C   UNL     1      51.869  48.554  12.728  1.00  0.00     0.208 A 
ATOM      3  C   UNL     1      50.888  49.522  12.999  1.00  0.00     0.238 A 
ATOM      4  O   UNL     1      51.241  50.609  13.523  1.00  0.00    -0.285 OA
ATOM      5  C   UNL     1      49.540  49.278  12.640  1.00  0.00     0.111 A 
ATOM      6  C   UNL     1      48.458  50.171  12.902  1.00  0.00     0.134 A 
ATOM      7  C   UNL     1      47.188  49.887  12.387  1.00  0.00     0.093 A 
ATOM      8  C   UNL     1      46.945  48.712  11.676  1.00  0.00     0.123 A 
ATOM      9  C   UNL     1      47.983  47.804  11.465  1.00  0.00     0.094 A 
ATOM     10  C   UNL     1      49.269  48.076  11.935  1.00  0.00     0.146 A 
ATOM     11  O   UNL     1      50.231  47.191  11.704  1.00  0.00    -0.452 OA
ENDROOT
BRANCH   1  12
ATOM     12  C   UNL     1      52.462  46.284  11.790  1.00  0.00     0.025 A 
ATOM     13  C   UNL     1      52.517  45.740  10.499  1.00  0.00     0.016 A 
ATOM     14  C   UNL     1      53.413  44.710  10.204  1.00  0.00     0.051 A 
ATOM     15  C   UNL     1      54.258  44.192  11.193  1.00  0.00     0.157 A 
ATOM     16  C   UNL     1      53.293  45.752  12.791  1.00  0.00     0.062 A 
ATOM     17  C   UNL     1      54.193  44.716  12.505  1.00  0.00     0.158 A 
BRANCH  15  18
ATOM     18  O   UNL     1      55.134  43.168  10.831  1.00  0.00    -0.504 OA
ATOM     19  H   UNL     1      54.860  42.202  10.726  1.00  0.00     0.293 HD
ENDBRANCH  15  18
BRANCH  17  20
ATOM     20  O   UNL     1      54.989  44.238  13.548  1.00  0.00    -0.504 OA
ATOM     21  H   UNL     1      55.308  43.283  13.622  1.00  0.00     0.293 HD
ENDBRANCH  17  20
ENDBRANCH   1  12
BRANCH   2  22
ATOM     22  O   UNL     1      53.209  48.783  13.053  1.00  0.00    -0.502 OA
ATOM     23  H   UNL     1      53.756  49.517  12.619  1.00  0.00     0.293 HD
ENDBRANCH   2  22
BRANCH   6  24
ATOM     24  O   UNL     1      48.571  51.327  13.680  1.00  0.00    -0.507 OA
ATOM     25  H   UNL     1      48.958  51.357  14.611  1.00  0.00     0.293 HD
ENDBRANCH   6  24
BRANCH   8  26
ATOM     26  O   UNL     1      45.665  48.454  11.191  1.00  0.00    -0.508 OA
ATOM     27  H   UNL     1      45.142  49.152  10.675  1.00  0.00     0.293 HD
ENDBRANCH   8  26
TORSDOF 6
ENDMDL
MODEL 3
REMARK VINA RESULT:    -6.489      5.500      7.841
REMARK INTER + INTRA:          -7.903
REMARK INTER:                  -7.817
REMARK INTRA:                  -0.086
REMARK UNBOUND:                -0.086
REMARK SMILES O=c1c(O)c(-c2ccc(O)c(O)c2)oc2cc(O)cc(O)c12
REMARK SMILES IDX 5 1 3 2 2 3 1 4 22 5 20 6 19 7 17 8 16 9 15 10 14 11 6 12
REMARK SMILES IDX 7 13 8 14 9 15 13 16 11 17 10 18 12 20 4 22 21 24 18 26
REMARK H PARENT 10 19 12 21 4 23 21 25 18 27
REMARK Flexibility Score: inf
ROOT
ATOM      1  C   UNL     1      45.056  38.991   9.618  1.00  0.00     0.180 A 
ATOM      2  C   UNL     1      44.238  37.924   9.208  1.00  0.00     0.208 A 
ATOM      3  C   UNL     1      43.422  38.087   8.077  1.00  0.00     0.238 A 
ATOM      4  O   UNL     1      42.653  37.148   7.747  1.00  0.00    -0.285 OA
ATOM      5  C   UNL     1      43.445  39.309   7.362  1.00  0.00     0.111 A 
ATOM      6  C   UNL     1      42.689  39.570   6.180  1.00  0.00     0.134 A 
ATOM      7  C   UNL     1      42.690  40.858   5.631  1.00  0.00     0.093 A 
ATOM      8  C   UNL     1      43.469  41.875   6.181  1.00  0.00     0.123 A 
ATOM      9  C   UNL     1      44.257  41.615   7.302  1.00  0.00     0.094 A 
ATOM     10  C   UNL     1      44.250  40.350   7.895  1.00  0.00     0.146 A 
ATOM     11  O   UNL     1      45.007  40.146   8.966  1.00  0.00    -0.452 OA
ENDROOT
BRANCH   1  12
ATOM     12  C   UNL     1      45.962  38.886  10.785  1.00  0.00     0.025 A 
ATOM     13  C   UNL     1      45.902  39.856  11.796  1.00  0.00     0.016 A 
ATOM     14  C   UNL     1      46.761  39.786  12.894  1.00  0.00     0.051 A 
ATOM     15  C   UNL     1      47.707  38.759  12.998  1.00  0.00     0.157 A 
ATOM     16  C   UNL     1      46.925  37.866  10.874  1.00  0.00     0.062 A 
ATOM     17  C   UNL     1      47.794  37.790  11.971  1.00  0.00     0.158 A 
BRANCH  15  18
ATOM     18  O   UNL     1      48.530  38.743  14.124  1.00  0.00    -0.504 OA
ATOM     19  H   UNL     1      49.515  38.519  14.100  1.00  0.00     0.293 HD
ENDBRANCH  15  18
BRANCH  17  20
ATOM     20  O   UNL     1      48.724  36.749  11.995  1.00  0.00    -0.504 OA
ATOM     21  H   UNL     1      48.476  35.771  12.031  1.00  0.00     0.293 HD
ENDBRANCH  17  20
ENDBRANCH   1  12
BRANCH   2  22
ATOM     22  O   UNL     1      44.215  36.734   9.942  1.00  0.00    -0.502 OA
ATOM     23  H   UNL     1      43.503  36.537  10.634  1.00  0.00     0.293 HD
ENDBRANCH   2  22
BRANCH   6  24
ATOM     24  O   UNL     1      41.949  38.601   5.497  1.00  0.00    -0.507 OA
ATOM     25  H   UNL     1      42.269  37.663   5.307  1.00  0.00     0.293 HD
ENDBRANCH   6  24
BRANCH   8  26
ATOM     26  O   UNL     1      43.457  43.141   5.599  1.00  0.00    -0.508 OA
ATOM     27  H   UNL     1      42.914  43.901   5.992  1.00  0.00     0.293 HD
ENDBRANCH   8  26
TORSDOF 6
ENDMDL
MODEL 4
REMARK VINA RESULT:    -6.353      5.126     10.900
REMARK INTER + INTRA:          -7.739
REMARK INTER:                  -7.640
REMARK INTRA:                  -0.099
REMARK UNBOUND:                -0.086
REMARK SMILES O=c1c(O)c(-c2ccc(O)c(O)c2)oc2cc(O)cc(O)c12
REMARK SMILES IDX 5 1 3 2 2 3 1 4 22 5 20 6 19 7 17 8 16 9 15 10 14 11 6 12
REMARK SMILES IDX 7 13 8 14 9 15 13 16 11 17 10 18 12 20 4 22 21 24 18 26
REMARK H PARENT 10 19 12 21 4 23 21 25 18 27
REMARK Flexibility Score: inf
ROOT
ATOM      1  C   UNL     1      41.467  38.902   5.039  1.00  0.00     0.180 A 
ATOM      2  C   UNL     1      40.510  39.756   4.462  1.00  0.00     0.208 A 
ATOM      3  C   UNL     1      40.684  41.145   4.570  1.00  0.00     0.238 A 
ATOM      4  O   UNL     1      39.798  41.903   4.098  1.00  0.00    -0.285 OA
ATOM      5  C   UNL     1      41.819  41.663   5.241  1.00  0.00     0.111 A 
ATOM      6  C   UNL     1      42.115  43.053   5.376  1.00  0.00     0.134 A 
ATOM      7  C   UNL     1      43.195  43.454   6.171  1.00  0.00     0.093 A 
ATOM      8  C   UNL     1      44.027  42.517   6.782  1.00  0.00     0.123 A 
ATOM      9  C   UNL     1      43.781  41.154   6.608  1.00  0.00     0.094 A 
ATOM     10  C   UNL     1      42.690  40.723   5.851  1.00  0.00     0.146 A 
ATOM     11  O   UNL     1      42.485  39.418   5.718  1.00  0.00    -0.452 OA
ENDROOT
BRANCH   1  12
ATOM     12  C   UNL     1      41.366  37.428   4.945  1.00  0.00     0.025 A 
ATOM     13  C   UNL     1      41.418  36.656   6.115  1.00  0.00     0.016 A 
ATOM     14  C   UNL     1      41.345  35.264   6.046  1.00  0.00     0.051 A 
ATOM     15  C   UNL     1      41.235  34.614   4.811  1.00  0.00     0.157 A 
ATOM     16  C   UNL     1      41.278  36.779   3.702  1.00  0.00     0.062 A 
ATOM     17  C   UNL     1      41.207  35.381   3.623  1.00  0.00     0.158 A 
BRANCH  15  18
ATOM     18  O   UNL     1      41.158  33.220   4.812  1.00  0.00    -0.504 OA
ATOM     19  H   UNL     1      41.702  32.625   4.204  1.00  0.00     0.293 HD
ENDBRANCH  15  18
BRANCH  17  20
ATOM     20  O   UNL     1      41.119  34.803   2.354  1.00  0.00    -0.504 OA
ATOM     21  H   UNL     1      41.702  34.042   2.040  1.00  0.00     0.293 HD
ENDBRANCH  17  20
ENDBRANCH   1  12
BRANCH   2  22
ATOM     22  O   UNL     1      39.387  39.223   3.824  1.00  0.00    -0.502 OA
ATOM     23  H   UNL     1      38.449  39.563   4.000  1.00  0.00     0.293 HD
ENDBRANCH   2  22
BRANCH   6  24
ATOM     24  O   UNL     1      41.403  44.069   4.732  1.00  0.00    -0.507 OA
ATOM     25  H   UNL     1      40.455  43.983   4.398  1.00  0.00     0.293 HD
ENDBRANCH   6  24
BRANCH   8  26
ATOM     26  O   UNL     1      45.102  42.952   7.554  1.00  0.00    -0.508 OA
ATOM     27  H   UNL     1      45.783  42.302   7.930  1.00  0.00     0.293 HD
ENDBRANCH   8  26
TORSDOF 6
ENDMDL
MODEL 5
REMARK VINA RESULT:    -6.290      3.729      8.684
REMARK INTER + INTRA:          -7.663
REMARK INTER:                  -7.659
REMARK INTRA:                  -0.004
REMARK UNBOUND:                -0.086
REMARK SMILES O=c1c(O)c(-c2ccc(O)c(O)c2)oc2cc(O)cc(O)c12
REMARK SMILES IDX 5 1 3 2 2 3 1 4 22 5 20 6 19 7 17 8 16 9 15 10 14 11 6 12
REMARK SMILES IDX 7 13 8 14 9 15 13 16 11 17 10 18 12 20 4 22 21 24 18 26
REMARK H PARENT 10 19 12 21 4 23 21 25 18 27
REMARK Flexibility Score: inf
ROOT
ATOM      1  C   UNL     1      45.385  38.952  10.115  1.00  0.00     0.180 A 
ATOM      2  C   UNL     1      45.810  39.800  11.152  1.00  0.00     0.208 A 
ATOM      3  C   UNL     1      45.749  41.190  10.963  1.00  0.00     0.238 A 
ATOM      4  O   UNL     1      46.181  41.943  11.873  1.00  0.00    -0.285 OA
ATOM      5  C   UNL     1      45.250  41.714   9.745  1.00  0.00     0.111 A 
ATOM      6  C   UNL     1      45.107  43.105   9.461  1.00  0.00     0.134 A 
ATOM      7  C   UNL     1      44.725  43.511   8.176  1.00  0.00     0.093 A 
ATOM      8  C   UNL     1      44.419  42.578   7.187  1.00  0.00     0.123 A 
ATOM      9  C   UNL     1      44.499  41.214   7.473  1.00  0.00     0.094 A 
ATOM     10  C   UNL     1      44.912  40.778   8.734  1.00  0.00     0.146 A 
ATOM     11  O   UNL     1      44.985  39.472   8.962  1.00  0.00    -0.452 OA
ENDROOT
BRANCH   1  12
ATOM     12  C   UNL     1      45.396  37.477  10.249  1.00  0.00     0.025 A 
ATOM     13  C   UNL     1      44.217  36.754  10.019  1.00  0.00     0.016 A 
ATOM     14  C   UNL     1      44.201  35.365  10.159  1.00  0.00     0.051 A 
ATOM     15  C   UNL     1      45.355  34.672  10.546  1.00  0.00     0.157 A 
ATOM     16  C   UNL     1      46.551  36.788  10.659  1.00  0.00     0.062 A 
ATOM     17  C   UNL     1      46.543  35.394  10.806  1.00  0.00     0.158 A 
BRANCH  15  18
ATOM     18  O   UNL     1      45.274  33.284  10.661  1.00  0.00    -0.504 OA
ATOM     19  H   UNL     1      46.065  32.687  10.854  1.00  0.00     0.293 HD
ENDBRANCH  15  18
BRANCH  17  20
ATOM     20  O   UNL     1      47.727  34.776  11.215  1.00  0.00    -0.504 OA
ATOM     21  H   UNL     1      48.593  35.267  11.376  1.00  0.00     0.293 HD
ENDBRANCH  17  20
ENDBRANCH   1  12
BRANCH   2  22
ATOM     22  O   UNL     1      46.320  39.261  12.337  1.00  0.00    -0.502 OA
ATOM     23  H   UNL     1      46.963  38.479  12.346  1.00  0.00     0.293 HD
ENDBRANCH   2  22
BRANCH   6  24
ATOM     24  O   UNL     1      45.298  44.119  10.405  1.00  0.00    -0.507 OA
ATOM     25  H   UNL     1      45.663  43.976  11.334  1.00  0.00     0.293 HD
ENDBRANCH   6  24
BRANCH   8  26
ATOM     26  O   UNL     1      44.028  43.018   5.924  1.00  0.00    -0.508 OA
ATOM     27  H   UNL     1      43.136  43.474   5.774  1.00  0.00     0.293 HD
ENDBRANCH   8  26
TORSDOF 6
ENDMDL
MODEL 6
REMARK VINA RESULT:    -6.204      3.947      9.512
REMARK INTER + INTRA:          -7.560
REMARK INTER:                  -7.275
REMARK INTRA:                  -0.284
REMARK UNBOUND:                -0.086
REMARK SMILES O=c1c(O)c(-c2ccc(O)c(O)c2)oc2cc(O)cc(O)c12
REMARK SMILES IDX 5 1 3 2 2 3 1 4 22 5 20 6 19 7 17 8 16 9 15 10 14 11 6 12
REMARK SMILES IDX 7 13 8 14 9 15 13 16 11 17 10 18 12 20 4 22 21 24 18 26
REMARK H PARENT 10 19 12 21 4 23 21 25 18 27
REMARK Flexibility Score: inf
ROOT
ATOM      1  C   UNL     1      43.734  38.420   8.709  1.00  0.00     0.180 A 
ATOM      2  C   UNL     1      43.290  38.709   7.406  1.00  0.00     0.208 A 
ATOM      3  C   UNL     1      43.471  40.005   6.897  1.00  0.00     0.238 A 
ATOM      4  O   UNL     1      43.023  40.271   5.752  1.00  0.00    -0.285 OA
ATOM      5  C   UNL     1      44.106  40.992   7.689  1.00  0.00     0.111 A 
ATOM      6  C   UNL     1      44.376  42.325   7.260  1.00  0.00     0.134 A 
ATOM      7  C   UNL     1      44.892  43.253   8.173  1.00  0.00     0.093 A 
ATOM      8  C   UNL     1      45.207  42.881   9.478  1.00  0.00     0.123 A 
ATOM      9  C   UNL     1      45.002  41.564   9.892  1.00  0.00     0.094 A 
ATOM     10  C   UNL     1      44.456  40.624   9.015  1.00  0.00     0.146 A 
ATOM     11  O   UNL     1      44.266  39.384   9.451  1.00  0.00    -0.452 OA
ENDROOT
BRANCH   1  12
ATOM     12  C   UNL     1      43.602  37.072   9.306  1.00  0.00     0.025 A 
ATOM     13  C   UNL     1      42.370  36.671   9.841  1.00  0.00     0.016 A 
ATOM     14  C   UNL     1      42.230  35.411  10.427  1.00  0.00     0.051 A 
ATOM     15  C   UNL     1      43.318  34.534  10.504  1.00  0.00     0.157 A 
ATOM     16  C   UNL     1      44.703  36.203   9.401  1.00  0.00     0.062 A 
ATOM     17  C   UNL     1      44.573  34.938   9.990  1.00  0.00     0.158 A 
BRANCH  15  18
ATOM     18  O   UNL     1      43.110  33.287  11.095  1.00  0.00    -0.504 OA
ATOM     19  H   UNL     1      42.434  33.114  11.825  1.00  0.00     0.293 HD
ENDBRANCH  15  18
BRANCH  17  20
ATOM     20  O   UNL     1      45.709  34.126  10.049  1.00  0.00    -0.504 OA
ATOM     21  H   UNL     1      46.070  33.723  10.900  1.00  0.00     0.293 HD
ENDBRANCH  17  20
ENDBRANCH   1  12
BRANCH   2  22
ATOM     22  O   UNL     1      42.646  37.726   6.650  1.00  0.00    -0.502 OA
ATOM     23  H   UNL     1      41.672  37.484   6.789  1.00  0.00     0.293 HD
ENDBRANCH   2  22
BRANCH   6  24
ATOM     24  O   UNL     1      44.184  42.777   5.951  1.00  0.00    -0.507 OA
ATOM     25  H   UNL     1      44.893  43.221   5.387  1.00  0.00     0.293 HD
ENDBRANCH   6  24
BRANCH   8  26
ATOM     26  O   UNL     1      45.733  43.827  10.355  1.00  0.00    -0.508 OA
ATOM     27  H   UNL     1      46.077  44.722  10.027  1.00  0.00     0.293 HD
ENDBRANCH   8  26
TORSDOF 6
ENDMDL
MODEL 7
REMARK VINA RESULT:    -6.156      5.250      7.168
REMARK INTER + INTRA:          -7.501
REMARK INTER:                  -7.167
REMARK INTRA:                  -0.334
REMARK UNBOUND:                -0.086
REMARK SMILES O=c1c(O)c(-c2ccc(O)c(O)c2)oc2cc(O)cc(O)c12
REMARK SMILES IDX 5 1 3 2 2 3 1 4 22 5 20 6 19 7 17 8 16 9 15 10 14 11 6 12
REMARK SMILES IDX 7 13 8 14 9 15 13 16 11 17 10 18 12 20 4 22 21 24 18 26
REMARK H PARENT 10 19 12 21 4 23 21 25 18 27
REMARK Flexibility Score: inf
ROOT
ATOM      1  C   UNL     1      45.147  39.303   9.974  1.00  0.00     0.180 A 
ATOM      2  C   UNL     1      45.943  39.730  11.052  1.00  0.00     0.208 A 
ATOM      3  C   UNL     1      46.645  38.772  11.801  1.00  0.00     0.238 A 
ATOM      4  O   UNL     1      47.312  39.155  12.796  1.00  0.00    -0.285 OA
ATOM      5  C   UNL     1      46.555  37.402  11.454  1.00  0.00     0.111 A 
ATOM      6  C   UNL     1      47.255  36.351  12.118  1.00  0.00     0.134 A 
ATOM      7  C   UNL     1      46.990  35.020  11.774  1.00  0.00     0.093 A 
ATOM      8  C   UNL     1      46.102  34.705  10.748  1.00  0.00     0.123 A 
ATOM      9  C   UNL     1      45.456  35.727  10.051  1.00  0.00     0.094 A 
ATOM     10  C   UNL     1      45.672  37.063  10.395  1.00  0.00     0.146 A 
ATOM     11  O   UNL     1      45.031  38.006   9.715  1.00  0.00    -0.452 OA
ENDROOT
BRANCH   1  12
ATOM     12  C   UNL     1      44.397  40.254   9.123  1.00  0.00     0.025 A 
ATOM     13  C   UNL     1      43.053  40.530   9.413  1.00  0.00     0.016 A 
ATOM     14  C   UNL     1      42.323  41.409   8.611  1.00  0.00     0.051 A 
ATOM     15  C   UNL     1      42.912  42.017   7.496  1.00  0.00     0.157 A 
ATOM     16  C   UNL     1      44.986  40.845   7.991  1.00  0.00     0.062 A 
ATOM     17  C   UNL     1      44.260  41.726   7.179  1.00  0.00     0.158 A 
BRANCH  15  18
ATOM     18  O   UNL     1      42.130  42.890   6.740  1.00  0.00    -0.504 OA
ATOM     19  H   UNL     1      41.561  43.625   7.136  1.00  0.00     0.293 HD
ENDBRANCH  15  18
BRANCH  17  20
ATOM     20  O   UNL     1      44.910  42.277   6.072  1.00  0.00    -0.504 OA
ATOM     21  H   UNL     1      44.756  41.978   5.121  1.00  0.00     0.293 HD
ENDBRANCH  17  20
ENDBRANCH   1  12
BRANCH   2  22
ATOM     22  O   UNL     1      45.999  41.085  11.390  1.00  0.00    -0.502 OA
ATOM     23  H   UNL     1      45.174  41.671  11.425  1.00  0.00     0.293 HD
ENDBRANCH   2  22
BRANCH   6  24
ATOM     24  O   UNL     1      48.233  36.560  13.096  1.00  0.00    -0.507 OA
ATOM     25  H   UNL     1      49.224  36.610  12.915  1.00  0.00     0.293 HD
ENDBRANCH   6  24
BRANCH   8  26
ATOM     26  O   UNL     1      45.874  33.369  10.421  1.00  0.00    -0.508 OA
ATOM     27  H   UNL     1      46.139  32.617  11.047  1.00  0.00     0.293 HD
ENDBRANCH   8  26
TORSDOF 6
ENDMDL
MODEL 8
REMARK VINA RESULT:    -6.116      3.948      8.635
REMARK INTER + INTRA:          -7.453
REMARK INTER:                  -7.269
REMARK INTRA:                  -0.184
REMARK UNBOUND:                -0.086
REMARK SMILES O=c1c(O)c(-c2ccc(O)c(O)c2)oc2cc(O)cc(O)c12
REMARK SMILES IDX 5 1 3 2 2 3 1 4 22 5 20 6 19 7 17 8 16 9 15 10 14 11 6 12
REMARK SMILES IDX 7 13 8 14 9 15 13 16 11 17 10 18 12 20 4 22 21 24 18 26
REMARK H PARENT 10 19 12 21 4 23 21 25 18 27
REMARK Flexibility Score: inf
ROOT
ATOM      1  C   UNL     1      44.940  38.671   9.821  1.00  0.00     0.180 A 
ATOM      2  C   UNL     1      44.165  38.165   8.762  1.00  0.00     0.208 A 
ATOM      3  C   UNL     1      43.752  39.039   7.743  1.00  0.00     0.238 A 
ATOM      4  O   UNL     1      43.014  38.593   6.827  1.00  0.00    -0.285 OA
ATOM      5  C   UNL     1      44.131  40.403   7.788  1.00  0.00     0.111 A 
ATOM      6  C   UNL     1      43.802  41.368   6.789  1.00  0.00     0.134 A 
ATOM      7  C   UNL     1      44.117  42.715   7.001  1.00  0.00     0.093 A 
ATOM      8  C   UNL     1      44.807  43.123   8.142  1.00  0.00     0.123 A 
ATOM      9  C   UNL     1      45.185  42.179   9.097  1.00  0.00     0.094 A 
ATOM     10  C   UNL     1      44.853  40.832   8.932  1.00  0.00     0.146 A 
ATOM     11  O   UNL     1      45.223  39.967   9.869  1.00  0.00    -0.452 OA
ENDROOT
BRANCH   1  12
ATOM     12  C   UNL     1      45.434  37.808  10.918  1.00  0.00     0.025 A 
ATOM     13  C   UNL     1      44.523  37.271  11.838  1.00  0.00     0.016 A 
ATOM     14  C   UNL     1      44.971  36.471  12.891  1.00  0.00     0.051 A 
ATOM     15  C   UNL     1      46.336  36.204  13.056  1.00  0.00     0.157 A 
ATOM     16  C   UNL     1      46.807  37.561  11.092  1.00  0.00     0.062 A 
ATOM     17  C   UNL     1      47.266  36.761  12.147  1.00  0.00     0.158 A 
BRANCH  15  18
ATOM     18  O   UNL     1      46.717  35.391  14.124  1.00  0.00    -0.504 OA
ATOM     19  H   UNL     1      47.601  34.906  14.177  1.00  0.00     0.293 HD
ENDBRANCH  15  18
BRANCH  17  20
ATOM     20  O   UNL     1      48.643  36.556  12.259  1.00  0.00    -0.504 OA
ATOM     21  H   UNL     1      49.311  36.813  11.547  1.00  0.00     0.293 HD
ENDBRANCH  17  20
ENDBRANCH   1  12
BRANCH   2  22
ATOM     22  O   UNL     1      43.784  36.821   8.750  1.00  0.00    -0.502 OA
ATOM     23  H   UNL     1      44.309  36.103   9.234  1.00  0.00     0.293 HD
ENDBRANCH   2  22
BRANCH   6  24
ATOM     24  O   UNL     1      43.194  41.053   5.570  1.00  0.00    -0.507 OA
ATOM     25  H   UNL     1      42.242  41.278   5.328  1.00  0.00     0.293 HD
ENDBRANCH   6  24
BRANCH   8  26
ATOM     26  O   UNL     1      45.118  44.470   8.313  1.00  0.00    -0.508 OA
ATOM     27  H   UNL     1      45.538  44.814   9.169  1.00  0.00     0.293 HD
ENDBRANCH   8  26
TORSDOF 6
ENDMDL
MODEL 9
REMARK VINA RESULT:    -6.109     10.998     13.319
REMARK INTER + INTRA:          -7.445
REMARK INTER:                  -7.639
REMARK INTRA:                   0.194
REMARK UNBOUND:                -0.086
REMARK SMILES O=c1c(O)c(-c2ccc(O)c(O)c2)oc2cc(O)cc(O)c12
REMARK SMILES IDX 5 1 3 2 2 3 1 4 22 5 20 6 19 7 17 8 16 9 15 10 14 11 6 12
REMARK SMILES IDX 7 13 8 14 9 15 13 16 11 17 10 18 12 20 4 22 21 24 18 26
REMARK H PARENT 10 19 12 21 4 23 21 25 18 27
REMARK Flexibility Score: inf
ROOT
ATOM      1  C   UNL     1      52.411  51.001   1.578  1.00  0.00     0.180 A 
ATOM      2  C   UNL     1      53.274  50.617   0.536  1.00  0.00     0.208 A 
ATOM      3  C   UNL     1      54.632  50.403   0.820  1.00  0.00     0.238 A 
ATOM      4  O   UNL     1      55.408  50.113  -0.126  1.00  0.00    -0.285 OA
ATOM      5  C   UNL     1      55.108  50.559   2.145  1.00  0.00     0.111 A 
ATOM      6  C   UNL     1      56.455  50.329   2.554  1.00  0.00     0.134 A 
ATOM      7  C   UNL     1      56.842  50.640   3.863  1.00  0.00     0.093 A 
ATOM      8  C   UNL     1      55.918  51.110   4.794  1.00  0.00     0.123 A 
ATOM      9  C   UNL     1      54.585  51.283   4.421  1.00  0.00     0.094 A 
ATOM     10  C   UNL     1      54.175  51.016   3.113  1.00  0.00     0.146 A 
ATOM     11  O   UNL     1      52.900  51.203   2.796  1.00  0.00    -0.452 OA
ENDROOT
BRANCH   1  12
ATOM     12  C   UNL     1      50.963  51.221   1.362  1.00  0.00     0.025 A 
ATOM     13  C   UNL     1      50.530  51.879   0.203  1.00  0.00     0.016 A 
ATOM     14  C   UNL     1      49.170  52.114  -0.010  1.00  0.00     0.051 A 
ATOM     15  C   UNL     1      48.219  51.711   0.935  1.00  0.00     0.157 A 
ATOM     16  C   UNL     1      50.013  50.835   2.324  1.00  0.00     0.062 A 
ATOM     17  C   UNL     1      48.647  51.069   2.120  1.00  0.00     0.158 A 
BRANCH  15  18
ATOM     18  O   UNL     1      46.875  51.969   0.658  1.00  0.00    -0.504 OA
ATOM     19  H   UNL     1      46.254  52.458   1.286  1.00  0.00     0.293 HD
ENDBRANCH  15  18
BRANCH  17  20
ATOM     20  O   UNL     1      47.759  50.657   3.117  1.00  0.00    -0.504 OA
ATOM     21  H   UNL     1      47.756  49.733   3.523  1.00  0.00     0.293 HD
ENDBRANCH  17  20
ENDBRANCH   1  12
BRANCH   2  22
ATOM     22  O   UNL     1      52.787  50.491  -0.768  1.00  0.00    -0.502 OA
ATOM     23  H   UNL     1      51.802  50.570  -0.991  1.00  0.00     0.293 HD
ENDBRANCH   2  22
BRANCH   6  24
ATOM     24  O   UNL     1      57.438  49.775   1.728  1.00  0.00    -0.507 OA
ATOM     25  H   UNL     1      58.243  50.273   1.380  1.00  0.00     0.293 HD
ENDBRANCH   6  24
BRANCH   8  26
ATOM     26  O   UNL     1      56.335  51.395   6.093  1.00  0.00    -0.508 OA
ATOM     27  H   UNL     1      56.706  50.675   6.702  1.00  0.00     0.293 HD
ENDBRANCH   8  26
TORSDOF 6
ENDMDL
