MODEL 1
REMARK VINA RESULT:    -1.690      0.000      0.000
REMARK INTER + INTRA:          -1.300
REMARK INTER:                  -1.838
REMARK INTRA:                   0.538
REMARK UNBOUND:                 0.538
REMARK SMILES C=C1C[C@@]2(O)O[C@@]3(C[C@H]2C(C)C)[C@H](C)CC[C@H]13
REMARK SMILES IDX 14 1 13 2 15 3 16 4 17 5 7 6 8 7 9 8 4 9 6 10 3 11 2 12 1 13
REMARK SMILES IDX 10 14 11 15 12 16 5 17
REMARK H PARENT 5 18
REMARK Flexibility Score: inf
ROOT
ATOM      1  C   UNL     1      52.451  -4.033  20.123  1.00  0.00     0.011 C 
ATOM      2  C   UNL     1      53.194  -5.317  19.726  1.00  0.00     0.019 C 
ATOM      3  C   UNL     1      54.278  -5.094  18.648  1.00  0.00     0.007 C 
ATOM      4  C   UNL     1      54.347  -6.394  17.818  1.00  0.00     0.011 C 
ATOM      5  C   UNL     1      53.420  -7.357  18.555  1.00  0.00     0.047 C 
ATOM      6  C   UNL     1      52.336  -6.456  19.152  1.00  0.00     0.081 C 
ATOM      7  C   UNL     1      51.277  -6.013  18.099  1.00  0.00     0.046 C 
ATOM      8  C   UNL     1      50.106  -6.950  18.371  1.00  0.00     0.054 C 
ATOM      9  C   UNL     1      50.751  -7.991  19.309  1.00  0.00     0.173 C 
ATOM     10  O   UNL     1      51.647  -7.229  20.107  1.00  0.00    -0.342 OA
ATOM     11  C   UNL     1      51.553  -9.106  18.542  1.00  0.00     0.096 C 
ATOM     12  C   UNL     1      52.767  -8.516  17.841  1.00  0.00    -0.066 C 
ATOM     13  C   UNL     1      53.330  -9.125  16.790  1.00  0.00     0.008 C 
ENDROOT
BRANCH   8  14
ATOM     14  C   UNL     1      49.397  -7.470  17.083  1.00  0.00    -0.009 C 
ATOM     15  C   UNL     1      48.268  -6.516  16.658  1.00  0.00     0.008 C 
ATOM     16  C   UNL     1      48.802  -8.873  17.296  1.00  0.00     0.008 C 
ENDBRANCH   8  14
BRANCH   9  17
ATOM     17  O   UNL     1      49.766  -8.573  20.125  1.00  0.00    -0.365 OA
ATOM     18  H   UNL     1      49.430  -7.861  20.728  1.00  0.00     0.214 HD
ENDBRANCH   9  17
TORSDOF 2
ENDMDL
MODEL 2
REMARK VINA RESULT:    -1.350      2.086      5.392
REMARK INTER + INTRA:          -0.930
REMARK INTER:                  -2.047
REMARK INTRA:                   1.116
REMARK UNBOUND:                 0.538
REMARK SMILES C=C1C[C@@]2(O)O[C@@]3(C[C@H]2C(C)C)[C@H](C)CC[C@H]13
REMARK SMILES IDX 14 1 13 2 15 3 16 4 17 5 7 6 8 7 9 8 4 9 6 10 3 11 2 12 1 13
REMARK SMILES IDX 10 14 11 15 12 16 5 17
REMARK H PARENT 5 18
REMARK Flexibility Score: inf
ROOT
ATOM      1  C   UNL     1      47.979  -7.001  14.239  1.00  0.00     0.011 C 
ATOM      2  C   UNL     1      47.458  -7.890  15.378  1.00  0.00     0.019 C 
ATOM      3  C   UNL     1      46.086  -7.441  15.931  1.00  0.00     0.007 C 
ATOM      4  C   UNL     1      46.070  -7.822  17.427  1.00  0.00     0.011 C 
ATOM      5  C   UNL     1      47.360  -8.613  17.625  1.00  0.00     0.047 C 
ATOM      6  C   UNL     1      48.343  -7.989  16.630  1.00  0.00     0.081 C 
ATOM      7  C   UNL     1      48.925  -6.634  17.131  1.00  0.00     0.046 C 
ATOM      8  C   UNL     1      50.302  -7.024  17.657  1.00  0.00     0.054 C 
ATOM      9  C   UNL     1      50.204  -8.563  17.678  1.00  0.00     0.173 C 
ATOM     10  O   UNL     1      49.432  -8.876  16.526  1.00  0.00    -0.342 OA
ATOM     11  C   UNL     1      49.482  -9.123  18.959  1.00  0.00     0.096 C 
ATOM     12  C   UNL     1      48.019  -8.711  18.980  1.00  0.00    -0.066 C 
ATOM     13  C   UNL     1      47.325  -8.658  20.124  1.00  0.00     0.008 C 
ENDROOT
BRANCH   8  14
ATOM     14  C   UNL     1      50.705  -6.301  18.978  1.00  0.00    -0.009 C 
ATOM     15  C   UNL     1      51.997  -5.489  18.784  1.00  0.00     0.008 C 
ATOM     16  C   UNL     1      50.921  -7.304  20.125  1.00  0.00     0.008 C 
ENDBRANCH   8  14
BRANCH   9  17
ATOM     17  O   UNL     1      51.487  -9.125  17.557  1.00  0.00    -0.365 OA
ATOM     18  H   UNL     1      51.907  -9.084  18.455  1.00  0.00     0.214 HD
ENDBRANCH   9  17
TORSDOF 2
ENDMDL
MODEL 3
REMARK VINA RESULT:     0.265      4.085      6.317
REMARK INTER + INTRA:           0.827
REMARK INTER:                  -0.029
REMARK INTRA:                   0.855
REMARK UNBOUND:                 0.538
REMARK SMILES C=C1C[C@@]2(O)O[C@@]3(C[C@H]2C(C)C)[C@H](C)CC[C@H]13
REMARK SMILES IDX 14 1 13 2 15 3 16 4 17 5 7 6 8 7 9 8 4 9 6 10 3 11 2 12 1 13
REMARK SMILES IDX 10 14 11 15 12 16 5 17
REMARK H PARENT 5 18
REMARK Flexibility Score: inf
ROOT
ATOM      1  C   UNL     1      43.591  -8.221  18.828  1.00  0.00     0.011 C 
ATOM      2  C   UNL     1      44.954  -8.928  18.821  1.00  0.00     0.019 C 
ATOM      3  C   UNL     1      45.765  -8.715  20.119  1.00  0.00     0.007 C 
ATOM      4  C   UNL     1      47.254  -8.739  19.715  1.00  0.00     0.011 C 
ATOM      5  C   UNL     1      47.235  -9.125  18.239  1.00  0.00     0.047 C 
ATOM      6  C   UNL     1      45.931  -8.522  17.707  1.00  0.00     0.081 C 
ATOM      7  C   UNL     1      46.039  -6.989  17.456  1.00  0.00     0.046 C 
ATOM      8  C   UNL     1      46.244  -6.900  15.948  1.00  0.00     0.054 C 
ATOM      9  C   UNL     1      46.537  -8.371  15.586  1.00  0.00     0.173 C 
ATOM     10  O   UNL     1      45.692  -9.115  16.452  1.00  0.00    -0.342 OA
ATOM     11  C   UNL     1      48.035  -8.784  15.832  1.00  0.00     0.096 C 
ATOM     12  C   UNL     1      48.369  -8.749  17.316  1.00  0.00    -0.066 C 
ATOM     13  C   UNL     1      49.631  -8.610  17.743  1.00  0.00     0.008 C 
ENDROOT
BRANCH   8  14
ATOM     14  C   UNL     1      47.280  -5.821  15.510  1.00  0.00    -0.009 C 
ATOM     15  C   UNL     1      48.028  -6.265  14.241  1.00  0.00     0.008 C 
ATOM     16  C   UNL     1      48.311  -5.548  16.619  1.00  0.00     0.008 C 
ENDBRANCH   8  14
BRANCH   9  17
ATOM     17  O   UNL     1      46.179  -8.614  14.248  1.00  0.00    -0.365 OA
ATOM     18  H   UNL     1      47.021  -8.760  13.744  1.00  0.00     0.214 HD
ENDBRANCH   9  17
TORSDOF 2
ENDMDL
