MODEL 1
REMARK VINA RESULT:    -2.875      0.000      0.000
REMARK INTER + INTRA:          -3.241
REMARK INTER:                  -3.212
REMARK INTRA:                  -0.030
REMARK UNBOUND:                -0.030
REMARK SMILES CCCC(=O)[O-]
REMARK SMILES IDX 3 1 4 2 5 3 6 4 2 5 1 6
REMARK H PARENT
REMARK Flexibility Score: inf
ROOT
ATOM      1  C   UNL     1      -6.561  17.000  -7.539  1.00  0.00     0.052 C 
ENDROOT
BRANCH   1   2
ATOM      2  C   UNL     1      -6.563  16.647  -8.995  1.00  0.00     0.041 C 
ATOM      3  O   UNL     1      -5.553  16.107  -9.518  1.00  0.00    -0.550 OA
ATOM      4  O   UNL     1      -7.694  16.884  -9.766  1.00  0.00    -0.550 OA
ENDBRANCH   1   2
BRANCH   1   5
ATOM      5  C   UNL     1      -5.356  16.393  -6.810  1.00  0.00     0.003 C 
ATOM      6  C   UNL     1      -4.569  17.436  -6.017  1.00  0.00     0.004 C 
ENDBRANCH   1   5
TORSDOF 2
ENDMDL
MODEL 2
REMARK VINA RESULT:    -2.613     21.778     22.281
REMARK INTER + INTRA:          -2.948
REMARK INTER:                  -2.941
REMARK INTRA:                  -0.007
REMARK UNBOUND:                -0.030
REMARK SMILES CCCC(=O)[O-]
REMARK SMILES IDX 3 1 4 2 5 3 6 4 2 5 1 6
REMARK H PARENT
REMARK Flexibility Score: inf
ROOT
ATOM      1  C   UNL     1     -21.052   1.811  -4.335  1.00  0.00     0.052 C 
ENDROOT
BRANCH   1   2
ATOM      2  C   UNL     1     -22.394   1.372  -3.836  1.00  0.00     0.041 C 
ATOM      3  O   UNL     1     -22.581   1.179  -2.605  1.00  0.00    -0.550 OA
ATOM      4  O   UNL     1     -23.448   1.209  -4.725  1.00  0.00    -0.550 OA
ENDBRANCH   1   2
BRANCH   1   5
ATOM      5  C   UNL     1     -20.749   1.237  -5.725  1.00  0.00     0.003 C 
ATOM      6  C   UNL     1     -19.342   1.592  -6.207  1.00  0.00     0.004 C 
ENDBRANCH   1   5
TORSDOF 2
ENDMDL
MODEL 3
REMARK VINA RESULT:    -2.610      1.858      3.224
REMARK INTER + INTRA:          -2.945
REMARK INTER:                  -2.907
REMARK INTRA:                  -0.038
REMARK UNBOUND:                -0.030
REMARK SMILES CCCC(=O)[O-]
REMARK SMILES IDX 3 1 4 2 5 3 6 4 2 5 1 6
REMARK H PARENT
REMARK Flexibility Score: inf
ROOT
ATOM      1  C   UNL     1      -6.635  17.010  -7.636  1.00  0.00     0.052 C 
ENDROOT
BRANCH   1   2
ATOM      2  C   UNL     1      -5.237  16.648  -7.239  1.00  0.00     0.041 C 
ATOM      3  O   UNL     1      -4.934  16.528  -6.022  1.00  0.00    -0.550 OA
ATOM      4  O   UNL     1      -4.277  16.408  -8.213  1.00  0.00    -0.550 OA
ENDBRANCH   1   2
BRANCH   1   5
ATOM      5  C   UNL     1      -6.940  16.592  -9.080  1.00  0.00     0.003 C 
ATOM      6  C   UNL     1      -7.160  17.794  -9.999  1.00  0.00     0.004 C 
ENDBRANCH   1   5
TORSDOF 2
ENDMDL
MODEL 4
REMARK VINA RESULT:    -2.523      1.738      1.924
REMARK INTER + INTRA:          -2.848
REMARK INTER:                  -2.811
REMARK INTRA:                  -0.038
REMARK UNBOUND:                -0.030
REMARK SMILES CCCC(=O)[O-]
REMARK SMILES IDX 3 1 4 2 5 3 6 4 2 5 1 6
REMARK H PARENT
REMARK Flexibility Score: inf
ROOT
ATOM      1  C   UNL     1      -6.452  16.958  -7.338  1.00  0.00     0.052 C 
ENDROOT
BRANCH   1   2
ATOM      2  C   UNL     1      -6.502  18.197  -8.177  1.00  0.00     0.041 C 
ATOM      3  O   UNL     1      -6.724  18.117  -9.414  1.00  0.00    -0.550 OA
ATOM      4  O   UNL     1      -6.338  19.444  -7.586  1.00  0.00    -0.550 OA
ENDBRANCH   1   2
BRANCH   1   5
ATOM      5  C   UNL     1      -5.011  16.578  -6.974  1.00  0.00     0.003 C 
ATOM      6  C   UNL     1      -4.615  17.064  -5.580  1.00  0.00     0.004 C 
ENDBRANCH   1   5
TORSDOF 2
ENDMDL
MODEL 5
REMARK VINA RESULT:    -2.485      6.089      7.093
REMARK INTER + INTRA:          -2.805
REMARK INTER:                  -2.789
REMARK INTRA:                  -0.016
REMARK UNBOUND:                -0.030
REMARK SMILES CCCC(=O)[O-]
REMARK SMILES IDX 3 1 4 2 5 3 6 4 2 5 1 6
REMARK H PARENT
REMARK Flexibility Score: inf
ROOT
ATOM      1  C   UNL     1     -10.952  18.860 -11.115  1.00  0.00     0.052 C 
ENDROOT
BRANCH   1   2
ATOM      2  C   UNL     1     -11.193  17.408 -11.388  1.00  0.00     0.041 C 
ATOM      3  O   UNL     1     -12.026  17.057 -12.266  1.00  0.00    -0.550 OA
ATOM      4  O   UNL     1     -10.473  16.442 -10.698  1.00  0.00    -0.550 OA
ENDBRANCH   1   2
BRANCH   1   5
ATOM      5  C   UNL     1     -11.613  19.754 -12.172  1.00  0.00     0.003 C 
ATOM      6  C   UNL     1     -12.005  21.122 -11.615  1.00  0.00     0.004 C 
ENDBRANCH   1   5
TORSDOF 2
ENDMDL
MODEL 6
REMARK VINA RESULT:    -2.477      2.868      3.819
REMARK INTER + INTRA:          -2.797
REMARK INTER:                  -2.786
REMARK INTRA:                  -0.011
REMARK UNBOUND:                -0.030
REMARK SMILES CCCC(=O)[O-]
REMARK SMILES IDX 3 1 4 2 5 3 6 4 2 5 1 6
REMARK H PARENT
REMARK Flexibility Score: inf
ROOT
ATOM      1  C   UNL     1      -5.074  16.622  -6.846  1.00  0.00     0.052 C 
ENDROOT
BRANCH   1   2
ATOM      2  C   UNL     1      -4.519  17.583  -5.841  1.00  0.00     0.041 C 
ATOM      3  O   UNL     1      -4.251  17.195  -4.673  1.00  0.00    -0.550 OA
ATOM      4  O   UNL     1      -4.265  18.899  -6.204  1.00  0.00    -0.550 OA
ENDBRANCH   1   2
BRANCH   1   5
ATOM      5  C   UNL     1      -6.502  16.997  -7.261  1.00  0.00     0.003 C 
ATOM      6  C   UNL     1      -6.803  16.625  -8.713  1.00  0.00     0.004 C 
ENDBRANCH   1   5
TORSDOF 2
ENDMDL
MODEL 7
REMARK VINA RESULT:    -2.448      5.902      6.893
REMARK INTER + INTRA:          -2.764
REMARK INTER:                  -2.707
REMARK INTRA:                  -0.057
REMARK UNBOUND:                -0.030
REMARK SMILES CCCC(=O)[O-]
REMARK SMILES IDX 3 1 4 2 5 3 6 4 2 5 1 6
REMARK H PARENT
REMARK Flexibility Score: inf
ROOT
ATOM      1  C   UNL     1     -11.847  17.515 -12.295  1.00  0.00     0.052 C 
ENDROOT
BRANCH   1   2
ATOM      2  C   UNL     1     -11.472  18.958 -12.437  1.00  0.00     0.041 C 
ATOM      3  O   UNL     1     -11.004  19.388 -13.525  1.00  0.00    -0.550 OA
ATOM      4  O   UNL     1     -11.671  19.836 -11.379  1.00  0.00    -0.550 OA
ENDBRANCH   1   2
BRANCH   1   5
ATOM      5  C   UNL     1     -10.609  16.615 -12.197  1.00  0.00     0.003 C 
ATOM      6  C   UNL     1      -9.955  16.672 -10.816  1.00  0.00     0.004 C 
ENDBRANCH   1   5
TORSDOF 2
ENDMDL
MODEL 8
REMARK VINA RESULT:    -2.411      2.395      3.263
REMARK INTER + INTRA:          -2.723
REMARK INTER:                  -2.715
REMARK INTRA:                  -0.008
REMARK UNBOUND:                -0.030
REMARK SMILES CCCC(=O)[O-]
REMARK SMILES IDX 3 1 4 2 5 3 6 4 2 5 1 6
REMARK H PARENT
REMARK Flexibility Score: inf
ROOT
ATOM      1  C   UNL     1      -5.666  16.234  -9.136  1.00  0.00     0.052 C 
ENDROOT
BRANCH   1   2
ATOM      2  C   UNL     1      -5.913  16.849  -7.793  1.00  0.00     0.041 C 
ATOM      3  O   UNL     1      -6.624  17.884  -7.690  1.00  0.00    -0.550 OA
ATOM      4  O   UNL     1      -5.387  16.259  -6.651  1.00  0.00    -0.550 OA
ENDBRANCH   1   2
BRANCH   1   5
ATOM      5  C   UNL     1      -4.167  16.122  -9.441  1.00  0.00     0.003 C 
ATOM      6  C   UNL     1      -3.878  15.150 -10.585  1.00  0.00     0.004 C 
ENDBRANCH   1   5
TORSDOF 2
ENDMDL
MODEL 9
REMARK VINA RESULT:    -2.344      2.250      3.188
REMARK INTER + INTRA:          -2.647
REMARK INTER:                  -2.576
REMARK INTRA:                  -0.071
REMARK UNBOUND:                -0.030
REMARK SMILES CCCC(=O)[O-]
REMARK SMILES IDX 3 1 4 2 5 3 6 4 2 5 1 6
REMARK H PARENT
REMARK Flexibility Score: inf
ROOT
ATOM      1  C   UNL     1      -6.159  17.114  -7.280  1.00  0.00     0.052 C 
ENDROOT
BRANCH   1   2
ATOM      2  C   UNL     1      -5.840  18.553  -7.549  1.00  0.00     0.041 C 
ATOM      3  O   UNL     1      -6.732  19.331  -7.981  1.00  0.00    -0.550 OA
ATOM      4  O   UNL     1      -4.567  19.042  -7.291  1.00  0.00    -0.550 OA
ENDBRANCH   1   2
BRANCH   1   5
ATOM      5  C   UNL     1      -6.626  16.390  -8.549  1.00  0.00     0.003 C 
ATOM      6  C   UNL     1      -5.541  16.345  -9.625  1.00  0.00     0.004 C 
ENDBRANCH   1   5
TORSDOF 2
ENDMDL
