MODEL 1
REMARK VINA RESULT:    -6.644      0.000      0.000
REMARK INTER + INTRA:          -7.925
REMARK INTER:                  -7.615
REMARK INTRA:                  -0.310
REMARK UNBOUND:                -0.310
REMARK SMILES O=C1C[C@@H](c2ccc(O)cc2)Oc2cc(O)cc(O)c21
REMARK SMILES IDX 3 1 4 2 12 3 13 4 14 5 15 6 17 7 18 8 20 9 2 10 1 11 5 12
REMARK SMILES IDX 6 13 11 14 7 15 10 16 8 17 9 18 19 20 16 22
REMARK H PARENT 9 19 19 21 16 23
REMARK Flexibility Score: inf
ROOT
ATOM      1  C   UNL     1      27.152  -1.656  37.053  1.00  0.00     0.131 C 
ATOM      2  C   UNL     1      27.532  -1.677  35.566  1.00  0.00     0.211 C 
ATOM      3  O   UNL     1      26.364  -1.551  34.749  1.00  0.00    -0.484 OA
ATOM      4  C   UNL     1      25.306  -0.690  35.072  1.00  0.00     0.138 A 
ATOM      5  C   UNL     1      24.346  -0.402  34.100  1.00  0.00     0.093 A 
ATOM      6  C   UNL     1      23.289   0.466  34.388  1.00  0.00     0.123 A 
ATOM      7  C   UNL     1      23.179   1.026  35.663  1.00  0.00     0.093 A 
ATOM      8  C   UNL     1      24.106   0.719  36.666  1.00  0.00     0.133 A 
ATOM      9  C   UNL     1      25.209  -0.125  36.364  1.00  0.00     0.102 A 
ATOM     10  C   UNL     1      26.289  -0.460  37.324  1.00  0.00     0.174 C 
ATOM     11  O   UNL     1      26.527   0.257  38.332  1.00  0.00    -0.294 OA
ENDROOT
BRANCH   2  12
ATOM     12  C   UNL     1      28.269  -2.948  35.220  1.00  0.00    -0.007 A 
ATOM     13  C   UNL     1      27.708  -3.868  34.317  1.00  0.00     0.011 A 
ATOM     14  C   UNL     1      29.547  -3.200  35.749  1.00  0.00     0.011 A 
ATOM     15  C   UNL     1      28.403  -5.031  33.970  1.00  0.00     0.046 A 
ATOM     16  C   UNL     1      30.241  -4.362  35.398  1.00  0.00     0.046 A 
ATOM     17  C   UNL     1      29.671  -5.281  34.511  1.00  0.00     0.115 A 
BRANCH  17  18
ATOM     18  O   UNL     1      30.374  -6.435  34.171  1.00  0.00    -0.508 OA
ATOM     19  H   UNL     1      29.952  -7.162  33.604  1.00  0.00     0.293 HD
ENDBRANCH  17  18
ENDBRANCH   2  12
BRANCH   8  20
ATOM     20  O   UNL     1      23.871   1.241  37.938  1.00  0.00    -0.507 OA
ATOM     21  H   UNL     1      22.952   1.445  38.304  1.00  0.00     0.293 HD
ENDBRANCH   8  20
BRANCH   6  22
ATOM     22  O   UNL     1      22.339   0.776  33.416  1.00  0.00    -0.508 OA
ATOM     23  H   UNL     1      22.547   1.417  32.659  1.00  0.00     0.293 HD
ENDBRANCH   6  22
TORSDOF 4
ENDMDL
MODEL 2
REMARK VINA RESULT:    -6.237      1.571      3.267
REMARK INTER + INTRA:          -7.459
REMARK INTER:                  -7.143
REMARK INTRA:                  -0.315
REMARK UNBOUND:                -0.310
REMARK SMILES O=C1C[C@@H](c2ccc(O)cc2)Oc2cc(O)cc(O)c21
REMARK SMILES IDX 3 1 4 2 12 3 13 4 14 5 15 6 17 7 18 8 20 9 2 10 1 11 5 12
REMARK SMILES IDX 6 13 11 14 7 15 10 16 8 17 9 18 19 20 16 22
REMARK H PARENT 9 19 19 21 16 23
REMARK Flexibility Score: inf
ROOT
ATOM      1  C   UNL     1      26.838  -3.276  33.814  1.00  0.00     0.131 C 
ATOM      2  C   UNL     1      27.742  -3.501  35.033  1.00  0.00     0.211 C 
ATOM      3  O   UNL     1      27.850  -2.302  35.806  1.00  0.00    -0.484 OA
ATOM      4  C   UNL     1      26.760  -1.450  36.033  1.00  0.00     0.138 A 
ATOM      5  C   UNL     1      26.862  -0.468  37.020  1.00  0.00     0.093 A 
ATOM      6  C   UNL     1      25.787   0.386  37.280  1.00  0.00     0.123 A 
ATOM      7  C   UNL     1      24.614   0.272  36.530  1.00  0.00     0.093 A 
ATOM      8  C   UNL     1      24.504  -0.678  35.507  1.00  0.00     0.133 A 
ATOM      9  C   UNL     1      25.577  -1.579  35.271  1.00  0.00     0.102 A 
ATOM     10  C   UNL     1      25.543  -2.669  34.265  1.00  0.00     0.174 C 
ATOM     11  O   UNL     1      24.458  -3.126  33.818  1.00  0.00    -0.294 OA
ENDROOT
BRANCH   2  12
ATOM     12  C   UNL     1      29.113  -3.964  34.604  1.00  0.00    -0.007 A 
ATOM     13  C   UNL     1      30.259  -3.482  35.259  1.00  0.00     0.011 A 
ATOM     14  C   UNL     1      29.258  -4.924  33.587  1.00  0.00     0.011 A 
ATOM     15  C   UNL     1      31.529  -3.933  34.886  1.00  0.00     0.046 A 
ATOM     16  C   UNL     1      30.528  -5.376  33.218  1.00  0.00     0.046 A 
ATOM     17  C   UNL     1      31.666  -4.881  33.863  1.00  0.00     0.115 A 
BRANCH  17  18
ATOM     18  O   UNL     1      32.926  -5.340  33.484  1.00  0.00    -0.508 OA
ATOM     19  H   UNL     1      33.773  -4.900  33.826  1.00  0.00     0.293 HD
ENDBRANCH  17  18
ENDBRANCH   2  12
BRANCH   8  20
ATOM     20  O   UNL     1      23.338  -0.662  34.740  1.00  0.00    -0.507 OA
ATOM     21  H   UNL     1      22.408  -0.739  35.125  1.00  0.00     0.293 HD
ENDBRANCH   8  20
BRANCH   6  22
ATOM     22  O   UNL     1      25.873   1.354  38.278  1.00  0.00    -0.508 OA
ATOM     23  H   UNL     1      25.163   2.070  38.382  1.00  0.00     0.293 HD
ENDBRANCH   6  22
TORSDOF 4
ENDMDL
MODEL 3
REMARK VINA RESULT:    -6.031      1.914      3.012
REMARK INTER + INTRA:          -7.223
REMARK INTER:                  -6.936
REMARK INTRA:                  -0.287
REMARK UNBOUND:                -0.310
REMARK SMILES O=C1C[C@@H](c2ccc(O)cc2)Oc2cc(O)cc(O)c21
REMARK SMILES IDX 3 1 4 2 12 3 13 4 14 5 15 6 17 7 18 8 20 9 2 10 1 11 5 12
REMARK SMILES IDX 6 13 11 14 7 15 10 16 8 17 9 18 19 20 16 22
REMARK H PARENT 9 19 19 21 16 23
REMARK Flexibility Score: inf
ROOT
ATOM      1  C   UNL     1      24.623  -2.041  34.454  1.00  0.00     0.131 C 
ATOM      2  C   UNL     1      25.888  -1.429  35.070  1.00  0.00     0.211 C 
ATOM      3  O   UNL     1      26.272  -0.249  34.357  1.00  0.00    -0.484 OA
ATOM      4  C   UNL     1      25.338   0.684  33.884  1.00  0.00     0.138 A 
ATOM      5  C   UNL     1      25.787   1.936  33.459  1.00  0.00     0.093 A 
ATOM      6  C   UNL     1      24.879   2.893  32.999  1.00  0.00     0.123 A 
ATOM      7  C   UNL     1      23.518   2.583  32.936  1.00  0.00     0.093 A 
ATOM      8  C   UNL     1      23.050   1.320  33.316  1.00  0.00     0.133 A 
ATOM      9  C   UNL     1      23.964   0.361  33.831  1.00  0.00     0.102 A 
ATOM     10  C   UNL     1      23.571  -0.980  34.331  1.00  0.00     0.174 C 
ATOM     11  O   UNL     1      22.393  -1.234  34.694  1.00  0.00    -0.294 OA
ENDROOT
BRANCH   2  12
ATOM     12  C   UNL     1      27.022  -2.425  35.066  1.00  0.00    -0.007 A 
ATOM     13  C   UNL     1      27.042  -3.471  34.127  1.00  0.00     0.011 A 
ATOM     14  C   UNL     1      28.098  -2.287  35.961  1.00  0.00     0.011 A 
ATOM     15  C   UNL     1      28.107  -4.376  34.101  1.00  0.00     0.046 A 
ATOM     16  C   UNL     1      29.163  -3.192  35.930  1.00  0.00     0.046 A 
ATOM     17  C   UNL     1      29.170  -4.239  35.003  1.00  0.00     0.115 A 
BRANCH  17  18
ATOM     18  O   UNL     1      30.238  -5.134  34.985  1.00  0.00    -0.508 OA
ATOM     19  H   UNL     1      31.192  -4.814  34.856  1.00  0.00     0.293 HD
ENDBRANCH  17  18
ENDBRANCH   2  12
BRANCH   8  20
ATOM     20  O   UNL     1      21.692   1.057  33.132  1.00  0.00    -0.507 OA
ATOM     21  H   UNL     1      20.952   1.532  33.629  1.00  0.00     0.293 HD
ENDBRANCH   8  20
BRANCH   6  22
ATOM     22  O   UNL     1      25.317   4.152  32.594  1.00  0.00    -0.508 OA
ATOM     23  H   UNL     1      24.670   4.926  32.482  1.00  0.00     0.293 HD
ENDBRANCH   6  22
TORSDOF 4
ENDMDL
MODEL 4
REMARK VINA RESULT:    -5.583      1.731      2.962
REMARK INTER + INTRA:          -6.709
REMARK INTER:                  -6.398
REMARK INTRA:                  -0.311
REMARK UNBOUND:                -0.310
REMARK SMILES O=C1C[C@@H](c2ccc(O)cc2)Oc2cc(O)cc(O)c21
REMARK SMILES IDX 3 1 4 2 12 3 13 4 14 5 15 6 17 7 18 8 20 9 2 10 1 11 5 12
REMARK SMILES IDX 6 13 11 14 7 15 10 16 8 17 9 18 19 20 16 22
REMARK H PARENT 9 19 19 21 16 23
REMARK Flexibility Score: inf
ROOT
ATOM      1  C   UNL     1      26.483  -2.649  34.601  1.00  0.00     0.131 C 
ATOM      2  C   UNL     1      27.676  -2.588  35.564  1.00  0.00     0.211 C 
ATOM      3  O   UNL     1      28.101  -1.234  35.750  1.00  0.00    -0.484 OA
ATOM      4  C   UNL     1      27.198  -0.168  35.865  1.00  0.00     0.138 A 
ATOM      5  C   UNL     1      27.662   1.065  36.328  1.00  0.00     0.093 A 
ATOM      6  C   UNL     1      26.782   2.141  36.470  1.00  0.00     0.123 A 
ATOM      7  C   UNL     1      25.438   1.989  36.120  1.00  0.00     0.093 A 
ATOM      8  C   UNL     1      24.960   0.775  35.614  1.00  0.00     0.133 A 
ATOM      9  C   UNL     1      25.840  -0.336  35.514  1.00  0.00     0.102 A 
ATOM     10  C   UNL     1      25.428  -1.688  35.061  1.00  0.00     0.174 C 
ATOM     11  O   UNL     1      24.226  -2.061  35.096  1.00  0.00    -0.294 OA
ENDROOT
BRANCH   2  12
ATOM     12  C   UNL     1      28.823  -3.423  35.050  1.00  0.00    -0.007 A 
ATOM     13  C   UNL     1      30.143  -3.120  35.425  1.00  0.00     0.011 A 
ATOM     14  C   UNL     1      28.581  -4.547  34.240  1.00  0.00     0.011 A 
ATOM     15  C   UNL     1      31.204  -3.912  34.976  1.00  0.00     0.046 A 
ATOM     16  C   UNL     1      29.644  -5.339  33.794  1.00  0.00     0.046 A 
ATOM     17  C   UNL     1      30.957  -5.023  34.158  1.00  0.00     0.115 A 
BRANCH  17  18
ATOM     18  O   UNL     1      32.007  -5.821  33.707  1.00  0.00    -0.508 OA
ATOM     19  H   UNL     1      31.992  -6.239  32.784  1.00  0.00     0.293 HD
ENDBRANCH  17  18
ENDBRANCH   2  12
BRANCH   8  20
ATOM     20  O   UNL     1      23.629   0.734  35.196  1.00  0.00    -0.507 OA
ATOM     21  H   UNL     1      22.875   0.355  35.750  1.00  0.00     0.293 HD
ENDBRANCH   8  20
BRANCH   6  22
ATOM     22  O   UNL     1      27.232   3.368  36.952  1.00  0.00    -0.508 OA
ATOM     23  H   UNL     1      26.917   3.733  37.845  1.00  0.00     0.293 HD
ENDBRANCH   6  22
TORSDOF 4
ENDMDL
MODEL 5
REMARK VINA RESULT:    -5.453      2.962      6.514
REMARK INTER + INTRA:          -6.560
REMARK INTER:                  -6.249
REMARK INTRA:                  -0.312
REMARK UNBOUND:                -0.310
REMARK SMILES O=C1C[C@@H](c2ccc(O)cc2)Oc2cc(O)cc(O)c21
REMARK SMILES IDX 3 1 4 2 12 3 13 4 14 5 15 6 17 7 18 8 20 9 2 10 1 11 5 12
REMARK SMILES IDX 6 13 11 14 7 15 10 16 8 17 9 18 19 20 16 22
REMARK H PARENT 9 19 19 21 16 23
REMARK Flexibility Score: inf
ROOT
ATOM      1  C   UNL     1      27.281   0.613  36.769  1.00  0.00     0.131 C 
ATOM      2  C   UNL     1      26.195   0.692  37.850  1.00  0.00     0.211 C 
ATOM      3  O   UNL     1      24.900   0.493  37.275  1.00  0.00    -0.484 OA
ATOM      4  C   UNL     1      24.659  -0.453  36.268  1.00  0.00     0.138 A 
ATOM      5  C   UNL     1      23.340  -0.794  35.962  1.00  0.00     0.093 A 
ATOM      6  C   UNL     1      23.069  -1.745  34.975  1.00  0.00     0.123 A 
ATOM      7  C   UNL     1      24.122  -2.337  34.273  1.00  0.00     0.093 A 
ATOM      8  C   UNL     1      25.450  -1.979  34.534  1.00  0.00     0.133 A 
ATOM      9  C   UNL     1      25.733  -1.048  35.570  1.00  0.00     0.102 A 
ATOM     10  C   UNL     1      27.102  -0.650  35.982  1.00  0.00     0.174 C 
ATOM     11  O   UNL     1      28.106  -1.366  35.726  1.00  0.00    -0.294 OA
ENDROOT
BRANCH   2  12
ATOM     12  C   UNL     1      26.244   2.022  38.562  1.00  0.00    -0.007 A 
ATOM     13  C   UNL     1      25.091   2.821  38.649  1.00  0.00     0.011 A 
ATOM     14  C   UNL     1      27.424   2.451  39.195  1.00  0.00     0.011 A 
ATOM     15  C   UNL     1      25.126   4.039  39.336  1.00  0.00     0.046 A 
ATOM     16  C   UNL     1      27.455   3.667  39.884  1.00  0.00     0.046 A 
ATOM     17  C   UNL     1      26.308   4.465  39.954  1.00  0.00     0.115 A 
BRANCH  17  18
ATOM     18  O   UNL     1      26.354   5.676  40.643  1.00  0.00    -0.508 OA
ATOM     19  H   UNL     1      27.155   5.930  41.210  1.00  0.00     0.293 HD
ENDBRANCH  17  18
ENDBRANCH   2  12
BRANCH   8  20
ATOM     20  O   UNL     1      26.437  -2.542  33.724  1.00  0.00    -0.507 OA
ATOM     21  H   UNL     1      26.285  -2.836  32.770  1.00  0.00     0.293 HD
ENDBRANCH   8  20
BRANCH   6  22
ATOM     22  O   UNL     1      21.756  -2.108  34.678  1.00  0.00    -0.508 OA
ATOM     23  H   UNL     1      21.365  -2.986  35.002  1.00  0.00     0.293 HD
ENDBRANCH   6  22
TORSDOF 4
ENDMDL
MODEL 6
REMARK VINA RESULT:    -5.412      4.289      8.615
REMARK INTER + INTRA:          -6.513
REMARK INTER:                  -6.198
REMARK INTRA:                  -0.315
REMARK UNBOUND:                -0.310
REMARK SMILES O=C1C[C@@H](c2ccc(O)cc2)Oc2cc(O)cc(O)c21
REMARK SMILES IDX 3 1 4 2 12 3 13 4 14 5 15 6 17 7 18 8 20 9 2 10 1 11 5 12
REMARK SMILES IDX 6 13 11 14 7 15 10 16 8 17 9 18 19 20 16 22
REMARK H PARENT 9 19 19 21 16 23
REMARK Flexibility Score: inf
ROOT
ATOM      1  C   UNL     1      21.282   3.131  37.557  1.00  0.00     0.131 C 
ATOM      2  C   UNL     1      22.664   3.029  38.215  1.00  0.00     0.211 C 
ATOM      3  O   UNL     1      23.169   1.694  38.116  1.00  0.00    -0.484 OA
ATOM      4  C   UNL     1      23.008   0.910  36.965  1.00  0.00     0.138 A 
ATOM      5  C   UNL     1      23.764  -0.257  36.829  1.00  0.00     0.093 A 
ATOM      6  C   UNL     1      23.638  -1.050  35.686  1.00  0.00     0.123 A 
ATOM      7  C   UNL     1      22.730  -0.689  34.688  1.00  0.00     0.093 A 
ATOM      8  C   UNL     1      21.931   0.453  34.822  1.00  0.00     0.133 A 
ATOM      9  C   UNL     1      22.091   1.289  35.960  1.00  0.00     0.102 A 
ATOM     10  C   UNL     1      21.352   2.558  36.172  1.00  0.00     0.174 C 
ATOM     11  O   UNL     1      20.824   3.186  35.217  1.00  0.00    -0.294 OA
ENDROOT
BRANCH   2  12
ATOM     12  C   UNL     1      22.599   3.450  39.663  1.00  0.00    -0.007 A 
ATOM     13  C   UNL     1      23.364   2.777  40.631  1.00  0.00     0.011 A 
ATOM     14  C   UNL     1      21.820   4.554  40.052  1.00  0.00     0.011 A 
ATOM     15  C   UNL     1      23.331   3.185  41.968  1.00  0.00     0.046 A 
ATOM     16  C   UNL     1      21.791   4.963  41.389  1.00  0.00     0.046 A 
ATOM     17  C   UNL     1      22.543   4.279  42.350  1.00  0.00     0.115 A 
BRANCH  17  18
ATOM     18  O   UNL     1      22.503   4.697  43.679  1.00  0.00    -0.508 OA
ATOM     19  H   UNL     1      22.116   5.597  43.938  1.00  0.00     0.293 HD
ENDBRANCH  17  18
ENDBRANCH   2  12
BRANCH   8  20
ATOM     20  O   UNL     1      20.980   0.691  33.828  1.00  0.00    -0.507 OA
ATOM     21  H   UNL     1      21.206   0.996  32.892  1.00  0.00     0.293 HD
ENDBRANCH   8  20
BRANCH   6  22
ATOM     22  O   UNL     1      24.405  -2.203  35.533  1.00  0.00    -0.508 OA
ATOM     23  H   UNL     1      25.275  -2.193  35.013  1.00  0.00     0.293 HD
ENDBRANCH   6  22
TORSDOF 4
ENDMDL
MODEL 7
REMARK VINA RESULT:    -5.371      2.331      4.740
REMARK INTER + INTRA:          -6.466
REMARK INTER:                  -6.145
REMARK INTRA:                  -0.321
REMARK UNBOUND:                -0.310
REMARK SMILES O=C1C[C@@H](c2ccc(O)cc2)Oc2cc(O)cc(O)c21
REMARK SMILES IDX 3 1 4 2 12 3 13 4 14 5 15 6 17 7 18 8 20 9 2 10 1 11 5 12
REMARK SMILES IDX 6 13 11 14 7 15 10 16 8 17 9 18 19 20 16 22
REMARK H PARENT 9 19 19 21 16 23
REMARK Flexibility Score: inf
ROOT
ATOM      1  C   UNL     1      22.903   0.200  34.252  1.00  0.00     0.131 C 
ATOM      2  C   UNL     1      23.285  -0.557  35.530  1.00  0.00     0.211 C 
ATOM      3  O   UNL     1      23.368   0.343  36.639  1.00  0.00    -0.484 OA
ATOM      4  C   UNL     1      22.460   1.394  36.828  1.00  0.00     0.138 A 
ATOM      5  C   UNL     1      22.424   2.044  38.064  1.00  0.00     0.093 A 
ATOM      6  C   UNL     1      21.518   3.084  38.288  1.00  0.00     0.123 A 
ATOM      7  C   UNL     1      20.664   3.493  37.261  1.00  0.00     0.093 A 
ATOM      8  C   UNL     1      20.712   2.884  36.001  1.00  0.00     0.133 A 
ATOM      9  C   UNL     1      21.597   1.795  35.784  1.00  0.00     0.102 A 
ATOM     10  C   UNL     1      21.682   1.029  34.515  1.00  0.00     0.174 C 
ATOM     11  O   UNL     1      20.739   1.023  33.680  1.00  0.00    -0.294 OA
ENDROOT
BRANCH   2  12
ATOM     12  C   UNL     1      24.598  -1.280  35.353  1.00  0.00    -0.007 A 
ATOM     13  C   UNL     1      24.799  -2.120  34.244  1.00  0.00     0.011 A 
ATOM     14  C   UNL     1      25.654  -1.077  36.259  1.00  0.00     0.011 A 
ATOM     15  C   UNL     1      26.025  -2.766  34.061  1.00  0.00     0.046 A 
ATOM     16  C   UNL     1      26.880  -1.721  36.071  1.00  0.00     0.046 A 
ATOM     17  C   UNL     1      27.068  -2.569  34.974  1.00  0.00     0.115 A 
BRANCH  17  18
ATOM     18  O   UNL     1      28.296  -3.205  34.800  1.00  0.00    -0.508 OA
ATOM     19  H   UNL     1      28.847  -3.515  35.592  1.00  0.00     0.293 HD
ENDBRANCH  17  18
ENDBRANCH   2  12
BRANCH   8  20
ATOM     20  O   UNL     1      19.896   3.415  35.001  1.00  0.00    -0.507 OA
ATOM     21  H   UNL     1      19.196   2.885  34.502  1.00  0.00     0.293 HD
ENDBRANCH   8  20
BRANCH   6  22
ATOM     22  O   UNL     1      21.460   3.723  39.525  1.00  0.00    -0.508 OA
ATOM     23  H   UNL     1      22.084   3.466  40.282  1.00  0.00     0.293 HD
ENDBRANCH   6  22
TORSDOF 4
ENDMDL
MODEL 8
REMARK VINA RESULT:    -5.352      3.165      8.187
REMARK INTER + INTRA:          -6.445
REMARK INTER:                  -6.146
REMARK INTRA:                  -0.299
REMARK UNBOUND:                -0.310
REMARK SMILES O=C1C[C@@H](c2ccc(O)cc2)Oc2cc(O)cc(O)c21
REMARK SMILES IDX 3 1 4 2 12 3 13 4 14 5 15 6 17 7 18 8 20 9 2 10 1 11 5 12
REMARK SMILES IDX 6 13 11 14 7 15 10 16 8 17 9 18 19 20 16 22
REMARK H PARENT 9 19 19 21 16 23
REMARK Flexibility Score: inf
ROOT
ATOM      1  C   UNL     1      22.194   0.483  37.222  1.00  0.00     0.131 C 
ATOM      2  C   UNL     1      22.924   1.832  37.177  1.00  0.00     0.211 C 
ATOM      3  O   UNL     1      24.338   1.640  37.288  1.00  0.00    -0.484 OA
ATOM      4  C   UNL     1      25.009   0.588  36.650  1.00  0.00     0.138 A 
ATOM      5  C   UNL     1      26.403   0.627  36.563  1.00  0.00     0.093 A 
ATOM      6  C   UNL     1      27.099  -0.398  35.918  1.00  0.00     0.123 A 
ATOM      7  C   UNL     1      26.398  -1.482  35.384  1.00  0.00     0.093 A 
ATOM      8  C   UNL     1      25.005  -1.564  35.496  1.00  0.00     0.133 A 
ATOM      9  C   UNL     1      24.289  -0.500  36.107  1.00  0.00     0.102 A 
ATOM     10  C   UNL     1      22.810  -0.444  36.217  1.00  0.00     0.174 C 
ATOM     11  O   UNL     1      22.063  -1.120  35.462  1.00  0.00    -0.294 OA
ENDROOT
BRANCH   2  12
ATOM     12  C   UNL     1      22.439   2.740  38.280  1.00  0.00    -0.007 A 
ATOM     13  C   UNL     1      22.961   2.618  39.579  1.00  0.00     0.011 A 
ATOM     14  C   UNL     1      21.504   3.756  38.010  1.00  0.00     0.011 A 
ATOM     15  C   UNL     1      22.536   3.479  40.595  1.00  0.00     0.046 A 
ATOM     16  C   UNL     1      21.084   4.618  39.027  1.00  0.00     0.046 A 
ATOM     17  C   UNL     1      21.595   4.481  40.321  1.00  0.00     0.115 A 
BRANCH  17  18
ATOM     18  O   UNL     1      21.166   5.347  41.325  1.00  0.00    -0.508 OA
ATOM     19  H   UNL     1      20.290   5.198  41.812  1.00  0.00     0.293 HD
ENDBRANCH  17  18
ENDBRANCH   2  12
BRANCH   8  20
ATOM     20  O   UNL     1      24.390  -2.724  35.023  1.00  0.00    -0.507 OA
ATOM     21  H   UNL     1      23.960  -3.418  35.618  1.00  0.00     0.293 HD
ENDBRANCH   8  20
BRANCH   6  22
ATOM     22  O   UNL     1      28.487  -0.356  35.808  1.00  0.00    -0.508 OA
ATOM     23  H   UNL     1      29.069  -1.103  36.169  1.00  0.00     0.293 HD
ENDBRANCH   6  22
TORSDOF 4
ENDMDL
MODEL 9
REMARK VINA RESULT:    -5.227      2.204      7.104
REMARK INTER + INTRA:          -6.301
REMARK INTER:                  -5.999
REMARK INTRA:                  -0.302
REMARK UNBOUND:                -0.310
REMARK SMILES O=C1C[C@@H](c2ccc(O)cc2)Oc2cc(O)cc(O)c21
REMARK SMILES IDX 3 1 4 2 12 3 13 4 14 5 15 6 17 7 18 8 20 9 2 10 1 11 5 12
REMARK SMILES IDX 6 13 11 14 7 15 10 16 8 17 9 18 19 20 16 22
REMARK H PARENT 9 19 19 21 16 23
REMARK Flexibility Score: inf
ROOT
ATOM      1  C   UNL     1      23.426   1.760  35.743  1.00  0.00     0.131 C 
ATOM      2  C   UNL     1      22.899   0.703  34.764  1.00  0.00     0.211 C 
ATOM      3  O   UNL     1      23.969  -0.121  34.291  1.00  0.00    -0.484 OA
ATOM      4  C   UNL     1      25.009  -0.558  35.123  1.00  0.00     0.138 A 
ATOM      5  C   UNL     1      25.850  -1.580  34.676  1.00  0.00     0.093 A 
ATOM      6  C   UNL     1      26.885  -2.048  35.489  1.00  0.00     0.123 A 
ATOM      7  C   UNL     1      27.096  -1.471  36.744  1.00  0.00     0.093 A 
ATOM      8  C   UNL     1      26.293  -0.417  37.196  1.00  0.00     0.133 A 
ATOM      9  C   UNL     1      25.209   0.029  36.392  1.00  0.00     0.102 A 
ATOM     10  C   UNL     1      24.250   1.086  36.799  1.00  0.00     0.174 C 
ATOM     11  O   UNL     1      24.081   1.399  38.007  1.00  0.00    -0.294 OA
ENDROOT
BRANCH   2  12
ATOM     12  C   UNL     1      22.196   1.355  33.599  1.00  0.00    -0.007 A 
ATOM     13  C   UNL     1      20.808   1.572  33.641  1.00  0.00     0.011 A 
ATOM     14  C   UNL     1      22.926   1.806  32.485  1.00  0.00     0.011 A 
ATOM     15  C   UNL     1      20.159   2.205  32.576  1.00  0.00     0.046 A 
ATOM     16  C   UNL     1      22.276   2.442  31.423  1.00  0.00     0.046 A 
ATOM     17  C   UNL     1      20.892   2.640  31.464  1.00  0.00     0.115 A 
BRANCH  17  18
ATOM     18  O   UNL     1      20.257   3.275  30.398  1.00  0.00    -0.508 OA
ATOM     19  H   UNL     1      19.463   2.853  29.930  1.00  0.00     0.293 HD
ENDBRANCH  17  18
ENDBRANCH   2  12
BRANCH   8  20
ATOM     20  O   UNL     1      26.630   0.169  38.417  1.00  0.00    -0.507 OA
ATOM     21  H   UNL     1      27.164   1.021  38.505  1.00  0.00     0.293 HD
ENDBRANCH   8  20
BRANCH   6  22
ATOM     22  O   UNL     1      27.714  -3.082  35.060  1.00  0.00    -0.508 OA
ATOM     23  H   UNL     1      27.385  -4.041  35.018  1.00  0.00     0.293 HD
ENDBRANCH   6  22
TORSDOF 4
ENDMDL
