MODEL 1
REMARK VINA RESULT:     0.000      0.000      0.000
REMARK INTER + INTRA:          -0.486
REMARK INTER:                   0.000
REMARK INTRA:                  -0.486
REMARK UNBOUND:                -0.486
REMARK SMILES CCCCCCC(=O)[O-]
REMARK SMILES IDX 5 1 6 2 7 3 8 4 9 5 4 6 3 7 2 8 1 9
REMARK H PARENT
REMARK Flexibility Score: inf
ROOT
ATOM      1  C   UNL     1     180.791 184.978 178.453  1.00  0.00     0.006 C 
ENDROOT
BRANCH   1   2
ATOM      2  C   UNL     1     180.865 186.397 179.027  1.00  0.00     0.053 C 
BRANCH   2   3
ATOM      3  C   UNL     1     181.174 186.356 180.490  1.00  0.00     0.041 C 
ATOM      4  O   UNL     1     182.045 187.126 180.975  1.00  0.00    -0.550 OA
ATOM      5  O   UNL     1     180.538 185.432 181.310  1.00  0.00    -0.550 OA
ENDBRANCH   2   3
ENDBRANCH   1   2
BRANCH   1   6
ATOM      6  C   UNL     1     182.198 184.392 178.257  1.00  0.00     0.000 C 
BRANCH   6   7
ATOM      7  C   UNL     1     182.421 183.104 179.065  1.00  0.00    -0.000 C 
BRANCH   7   8
ATOM      8  C   UNL     1     183.358 183.314 180.264  1.00  0.00    -0.003 C 
ATOM      9  C   UNL     1     184.347 184.445 179.995  1.00  0.00     0.004 C 
ENDBRANCH   7   8
ENDBRANCH   6   7
ENDBRANCH   1   6
TORSDOF 5
ENDMDL
MODEL 2
REMARK VINA RESULT:     0.000      3.700      4.950
REMARK INTER + INTRA:          -0.486
REMARK INTER:                   0.000
REMARK INTRA:                  -0.486
REMARK UNBOUND:                -0.486
REMARK SMILES CCCCCCC(=O)[O-]
REMARK SMILES IDX 5 1 6 2 7 3 8 4 9 5 4 6 3 7 2 8 1 9
REMARK H PARENT
REMARK Flexibility Score: inf
ROOT
ATOM      1  C   UNL     1     181.016 180.702 179.623  1.00  0.00     0.006 C 
ENDROOT
BRANCH   1   2
ATOM      2  C   UNL     1     182.219 180.192 180.421  1.00  0.00     0.053 C 
BRANCH   2   3
ATOM      3  C   UNL     1     183.471 180.295 179.608  1.00  0.00     0.041 C 
ATOM      4  O   UNL     1     184.521 180.765 180.120  1.00  0.00    -0.550 OA
ATOM      5  O   UNL     1     183.464 179.920 178.271  1.00  0.00    -0.550 OA
ENDBRANCH   2   3
ENDBRANCH   1   2
BRANCH   1   6
ATOM      6  C   UNL     1     181.000 182.237 179.574  1.00  0.00     0.000 C 
BRANCH   6   7
ATOM      7  C   UNL     1     181.062 182.785 178.140  1.00  0.00    -0.000 C 
BRANCH   7   8
ATOM      8  C   UNL     1     182.423 183.415 177.807  1.00  0.00    -0.003 C 
ATOM      9  C   UNL     1     183.091 183.972 179.061  1.00  0.00     0.004 C 
ENDBRANCH   7   8
ENDBRANCH   6   7
ENDBRANCH   1   6
TORSDOF 5
ENDMDL
MODEL 3
REMARK VINA RESULT:     0.000     10.466     11.502
REMARK INTER + INTRA:          -0.486
REMARK INTER:                   0.000
REMARK INTRA:                  -0.486
REMARK UNBOUND:                -0.486
REMARK SMILES CCCCCCC(=O)[O-]
REMARK SMILES IDX 5 1 6 2 7 3 8 4 9 5 4 6 3 7 2 8 1 9
REMARK H PARENT
REMARK Flexibility Score: inf
ROOT
ATOM      1  C   UNL     1     179.532 176.073 182.006  1.00  0.00     0.006 C 
ENDROOT
BRANCH   1   2
ATOM      2  C   UNL     1     180.711 175.258 181.466  1.00  0.00     0.053 C 
BRANCH   2   3
ATOM      3  C   UNL     1     180.383 173.798 181.463  1.00  0.00     0.041 C 
ATOM      4  O   UNL     1     180.649 173.091 180.456  1.00  0.00    -0.550 OA
ATOM      5  O   UNL     1     179.738 173.229 182.554  1.00  0.00    -0.550 OA
ENDBRANCH   2   3
ENDBRANCH   1   2
BRANCH   1   6
ATOM      6  C   UNL     1     178.424 176.202 180.950  1.00  0.00     0.000 C 
BRANCH   6   7
ATOM      7  C   UNL     1     177.086 175.610 181.420  1.00  0.00    -0.000 C 
BRANCH   7   8
ATOM      8  C   UNL     1     176.741 174.292 180.711  1.00  0.00    -0.003 C 
ATOM      9  C   UNL     1     177.359 174.242 179.315  1.00  0.00     0.004 C 
ENDBRANCH   7   8
ENDBRANCH   6   7
ENDBRANCH   1   6
TORSDOF 5
ENDMDL
MODEL 4
REMARK VINA RESULT:     0.000      3.583      4.093
REMARK INTER + INTRA:          -0.486
REMARK INTER:                   0.000
REMARK INTRA:                  -0.486
REMARK UNBOUND:                -0.486
REMARK SMILES CCCCCCC(=O)[O-]
REMARK SMILES IDX 5 1 6 2 7 3 8 4 9 5 4 6 3 7 2 8 1 9
REMARK H PARENT
REMARK Flexibility Score: inf
ROOT
ATOM      1  C   UNL     1     182.549 184.056 182.355  1.00  0.00     0.006 C 
ENDROOT
BRANCH   1   2
ATOM      2  C   UNL     1     183.749 184.832 181.804  1.00  0.00     0.053 C 
BRANCH   2   3
ATOM      3  C   UNL     1     184.966 183.963 181.769  1.00  0.00     0.041 C 
ATOM      4  O   UNL     1     185.703 183.946 180.748  1.00  0.00    -0.550 OA
ATOM      5  O   UNL     1     185.259 183.134 182.844  1.00  0.00    -0.550 OA
ENDBRANCH   2   3
ENDBRANCH   1   2
BRANCH   1   6
ATOM      6  C   UNL     1     181.981 183.099 181.296  1.00  0.00     0.000 C 
BRANCH   6   7
ATOM      7  C   UNL     1     182.014 181.630 181.747  1.00  0.00    -0.000 C 
BRANCH   7   8
ATOM      8  C   UNL     1     183.082 180.809 181.007  1.00  0.00    -0.003 C 
ATOM      9  C   UNL     1     183.343 181.377 179.614  1.00  0.00     0.004 C 
ENDBRANCH   7   8
ENDBRANCH   6   7
ENDBRANCH   1   6
TORSDOF 5
ENDMDL
MODEL 5
REMARK VINA RESULT:     0.000      5.634      6.886
REMARK INTER + INTRA:          -0.486
REMARK INTER:                   0.000
REMARK INTRA:                  -0.486
REMARK UNBOUND:                -0.486
REMARK SMILES CCCCCCC(=O)[O-]
REMARK SMILES IDX 5 1 6 2 7 3 8 4 9 5 4 6 3 7 2 8 1 9
REMARK H PARENT
REMARK Flexibility Score: inf
ROOT
ATOM      1  C   UNL     1     175.762 183.074 179.356  1.00  0.00     0.006 C 
ENDROOT
BRANCH   1   2
ATOM      2  C   UNL     1     175.896 181.565 179.585  1.00  0.00     0.053 C 
BRANCH   2   3
ATOM      3  C   UNL     1     176.046 180.848 178.280  1.00  0.00     0.041 C 
ATOM      4  O   UNL     1     176.923 179.955 178.146  1.00  0.00    -0.550 OA
ATOM      5  O   UNL     1     175.250 181.201 177.198  1.00  0.00    -0.550 OA
ENDBRANCH   2   3
ENDBRANCH   1   2
BRANCH   1   6
ATOM      6  C   UNL     1     177.124 183.703 179.030  1.00  0.00     0.000 C 
BRANCH   6   7
ATOM      7  C   UNL     1     177.145 184.392 177.656  1.00  0.00    -0.000 C 
BRANCH   7   8
ATOM      8  C   UNL     1     177.963 183.612 176.616  1.00  0.00    -0.003 C 
ATOM      9  C   UNL     1     179.071 182.802 177.285  1.00  0.00     0.004 C 
ENDBRANCH   7   8
ENDBRANCH   6   7
ENDBRANCH   1   6
TORSDOF 5
ENDMDL
MODEL 6
REMARK VINA RESULT:     0.000      6.305      7.476
REMARK INTER + INTRA:          -0.486
REMARK INTER:                   0.000
REMARK INTRA:                  -0.486
REMARK UNBOUND:                -0.486
REMARK SMILES CCCCCCC(=O)[O-]
REMARK SMILES IDX 5 1 6 2 7 3 8 4 9 5 4 6 3 7 2 8 1 9
REMARK H PARENT
REMARK Flexibility Score: inf
ROOT
ATOM      1  C   UNL     1     177.841 180.982 179.623  1.00  0.00     0.006 C 
ENDROOT
BRANCH   1   2
ATOM      2  C   UNL     1     176.502 180.314 179.951  1.00  0.00     0.053 C 
BRANCH   2   3
ATOM      3  C   UNL     1     175.472 180.672 178.926  1.00  0.00     0.041 C 
ATOM      4  O   UNL     1     174.727 179.781 178.440  1.00  0.00    -0.550 OA
ATOM      5  O   UNL     1     175.369 181.980 178.471  1.00  0.00    -0.550 OA
ENDBRANCH   2   3
ENDBRANCH   1   2
BRANCH   1   6
ATOM      6  C   UNL     1     178.554 180.249 178.477  1.00  0.00     0.000 C 
BRANCH   6   7
ATOM      7  C   UNL     1     178.813 181.156 177.264  1.00  0.00    -0.000 C 
BRANCH   7   8
ATOM      8  C   UNL     1     177.903 180.822 176.072  1.00  0.00    -0.003 C 
ATOM      9  C   UNL     1     177.504 179.348 176.083  1.00  0.00     0.004 C 
ENDBRANCH   7   8
ENDBRANCH   6   7
ENDBRANCH   1   6
TORSDOF 5
ENDMDL
MODEL 7
REMARK VINA RESULT:     0.000     12.192     13.181
REMARK INTER + INTRA:          -0.486
REMARK INTER:                   0.000
REMARK INTRA:                  -0.486
REMARK UNBOUND:                -0.486
REMARK SMILES CCCCCCC(=O)[O-]
REMARK SMILES IDX 5 1 6 2 7 3 8 4 9 5 4 6 3 7 2 8 1 9
REMARK H PARENT
REMARK Flexibility Score: inf
ROOT
ATOM      1  C   UNL     1     176.833 176.183 185.844  1.00  0.00     0.006 C 
ENDROOT
BRANCH   1   2
ATOM      2  C   UNL     1     176.775 175.097 186.922  1.00  0.00     0.053 C 
BRANCH   2   3
ATOM      3  C   UNL     1     176.748 175.712 188.286  1.00  0.00     0.041 C 
ATOM      4  O   UNL     1     175.935 175.295 189.152  1.00  0.00    -0.550 OA
ATOM      5  O   UNL     1     177.587 176.778 188.584  1.00  0.00    -0.550 OA
ENDBRANCH   2   3
ENDBRANCH   1   2
BRANCH   1   6
ATOM      6  C   UNL     1     175.458 176.839 185.649  1.00  0.00     0.000 C 
BRANCH   6   7
ATOM      7  C   UNL     1     175.479 178.351 185.924  1.00  0.00    -0.000 C 
BRANCH   7   8
ATOM      8  C   UNL     1     174.771 178.723 187.236  1.00  0.00    -0.003 C 
ATOM      9  C   UNL     1     173.675 177.715 187.573  1.00  0.00     0.004 C 
ENDBRANCH   7   8
ENDBRANCH   6   7
ENDBRANCH   1   6
TORSDOF 5
ENDMDL
MODEL 8
REMARK VINA RESULT:     0.000     10.373     11.783
REMARK INTER + INTRA:          -0.486
REMARK INTER:                   0.000
REMARK INTRA:                  -0.486
REMARK UNBOUND:                -0.486
REMARK SMILES CCCCCCC(=O)[O-]
REMARK SMILES IDX 5 1 6 2 7 3 8 4 9 5 4 6 3 7 2 8 1 9
REMARK H PARENT
REMARK Flexibility Score: inf
ROOT
ATOM      1  C   UNL     1     185.141 176.876 185.437  1.00  0.00     0.006 C 
ENDROOT
BRANCH   1   2
ATOM      2  C   UNL     1     186.176 176.867 184.308  1.00  0.00     0.053 C 
BRANCH   2   3
ATOM      3  C   UNL     1     187.437 177.543 184.746  1.00  0.00     0.041 C 
ATOM      4  O   UNL     1     188.555 177.015 184.506  1.00  0.00    -0.550 OA
ATOM      5  O   UNL     1     187.375 178.730 185.464  1.00  0.00    -0.550 OA
ENDBRANCH   2   3
ENDBRANCH   1   2
BRANCH   1   6
ATOM      6  C   UNL     1     185.479 175.820 186.500  1.00  0.00     0.000 C 
BRANCH   6   7
ATOM      7  C   UNL     1     185.699 176.432 187.893  1.00  0.00    -0.000 C 
BRANCH   7   8
ATOM      8  C   UNL     1     187.176 176.418 188.317  1.00  0.00    -0.003 C 
ATOM      9  C   UNL     1     187.924 175.259 187.664  1.00  0.00     0.004 C 
ENDBRANCH   7   8
ENDBRANCH   6   7
ENDBRANCH   1   6
TORSDOF 5
ENDMDL
MODEL 9
REMARK VINA RESULT:     0.000      7.822      8.897
REMARK INTER + INTRA:          -0.486
REMARK INTER:                   0.000
REMARK INTRA:                  -0.486
REMARK UNBOUND:                -0.486
REMARK SMILES CCCCCCC(=O)[O-]
REMARK SMILES IDX 5 1 6 2 7 3 8 4 9 5 4 6 3 7 2 8 1 9
REMARK H PARENT
REMARK Flexibility Score: inf
ROOT
ATOM      1  C   UNL     1     172.887 180.813 177.234  1.00  0.00     0.006 C 
ENDROOT
BRANCH   1   2
ATOM      2  C   UNL     1     173.287 181.483 175.916  1.00  0.00     0.053 C 
BRANCH   2   3
ATOM      3  C   UNL     1     173.942 182.803 176.176  1.00  0.00     0.041 C 
ATOM      4  O   UNL     1     175.000 183.115 175.568  1.00  0.00    -0.550 OA
ATOM      5  O   UNL     1     173.413 183.666 177.127  1.00  0.00    -0.550 OA
ENDBRANCH   2   3
ENDBRANCH   1   2
BRANCH   1   6
ATOM      6  C   UNL     1     174.110 180.202 177.933  1.00  0.00     0.000 C 
BRANCH   6   7
ATOM      7  C   UNL     1     174.350 180.794 179.331  1.00  0.00    -0.000 C 
BRANCH   7   8
ATOM      8  C   UNL     1     175.573 181.722 179.378  1.00  0.00    -0.003 C 
ATOM      9  C   UNL     1     176.609 181.318 178.333  1.00  0.00     0.004 C 
ENDBRANCH   7   8
ENDBRANCH   6   7
ENDBRANCH   1   6
TORSDOF 5
ENDMDL
