MODEL 1
REMARK VINA RESULT:    -3.951      0.000      0.000
REMARK INTER + INTRA:          -9.375
REMARK INTER:                  -7.185
REMARK INTRA:                  -2.190
REMARK UNBOUND:                -2.190
REMARK SMILES CCCCCCCCCCCCCCCC(=O)[O-]
REMARK SMILES IDX 9 1 10 2 11 3 12 4 13 5 14 6 15 7 16 8 17 9 18 10 8 11 7 12
REMARK SMILES IDX 6 13 5 14 4 15 3 16 2 17 1 18
REMARK H PARENT
REMARK Flexibility Score: inf
ROOT
ATOM      1  C   UNL     1     186.727 181.708 198.505  1.00  0.00     0.000 C 
ENDROOT
BRANCH   1   2
ATOM      2  C   UNL     1     185.936 183.027 198.538  1.00  0.00     0.000 C 
BRANCH   2   3
ATOM      3  C   UNL     1     185.827 183.612 199.957  1.00  0.00     0.000 C 
BRANCH   3   4
ATOM      4  C   UNL     1     184.504 184.363 200.196  1.00  0.00     0.000 C 
BRANCH   4   5
ATOM      5  C   UNL     1     183.489 184.273 199.043  1.00  0.00     0.000 C 
BRANCH   5   6
ATOM      6  C   UNL     1     182.727 185.586 198.813  1.00  0.00     0.006 C 
BRANCH   6   7
ATOM      7  C   UNL     1     183.669 186.684 198.309  1.00  0.00     0.053 C 
BRANCH   7   8
ATOM      8  C   UNL     1     184.220 186.324 196.965  1.00  0.00     0.041 C 
ATOM      9  O   UNL     1     185.465 186.289 196.779  1.00  0.00    -0.550 OA
ATOM     10  O   UNL     1     183.359 186.075 195.904  1.00  0.00    -0.550 OA
ENDBRANCH   7   8
ENDBRANCH   6   7
ENDBRANCH   5   6
ENDBRANCH   4   5
ENDBRANCH   3   4
ENDBRANCH   2   3
ENDBRANCH   1   2
BRANCH   1  11
ATOM     11  C   UNL     1     186.678 180.968 199.850  1.00  0.00     0.000 C 
BRANCH  11  12
ATOM     12  C   UNL     1     185.630 179.848 199.832  1.00  0.00    -0.000 C 
BRANCH  12  13
ATOM     13  C   UNL     1     185.103 179.497 201.235  1.00  0.00    -0.000 C 
BRANCH  13  14
ATOM     14  C   UNL     1     184.339 180.655 201.911  1.00  0.00    -0.000 C 
BRANCH  14  15
ATOM     15  C   UNL     1     183.129 181.117 201.076  1.00  0.00    -0.000 C 
BRANCH  15  16
ATOM     16  C   UNL     1     182.169 182.014 201.876  1.00  0.00    -0.000 C 
BRANCH  16  17
ATOM     17  C   UNL     1     180.868 182.358 201.124  1.00  0.00    -0.003 C 
ATOM     18  C   UNL     1     180.485 183.834 201.246  1.00  0.00     0.004 C 
ENDBRANCH  16  17
ENDBRANCH  15  16
ENDBRANCH  14  15
ENDBRANCH  13  14
ENDBRANCH  12  13
ENDBRANCH  11  12
ENDBRANCH   1  11
TORSDOF 14
ENDMDL
MODEL 2
REMARK VINA RESULT:    -3.653      1.435      2.703
REMARK INTER + INTRA:          -8.832
REMARK INTER:                  -6.847
REMARK INTRA:                  -1.984
REMARK UNBOUND:                -2.190
REMARK SMILES CCCCCCCCCCCCCCCC(=O)[O-]
REMARK SMILES IDX 9 1 10 2 11 3 12 4 13 5 14 6 15 7 16 8 17 9 18 10 8 11 7 12
REMARK SMILES IDX 6 13 5 14 4 15 3 16 2 17 1 18
REMARK H PARENT
REMARK Flexibility Score: inf
ROOT
ATOM      1  C   UNL     1     185.855 179.727 199.486  1.00  0.00     0.000 C 
ENDROOT
BRANCH   1   2
ATOM      2  C   UNL     1     186.708 180.997 199.650  1.00  0.00     0.000 C 
BRANCH   2   3
ATOM      3  C   UNL     1     186.570 181.955 198.454  1.00  0.00     0.000 C 
BRANCH   3   4
ATOM      4  C   UNL     1     185.633 183.142 198.742  1.00  0.00     0.000 C 
BRANCH   4   5
ATOM      5  C   UNL     1     186.071 184.048 199.906  1.00  0.00     0.000 C 
BRANCH   5   6
ATOM      6  C   UNL     1     185.923 185.543 199.588  1.00  0.00     0.006 C 
BRANCH   6   7
ATOM      7  C   UNL     1     186.353 185.842 198.148  1.00  0.00     0.053 C 
BRANCH   7   8
ATOM      8  C   UNL     1     185.907 187.211 197.742  1.00  0.00     0.041 C 
ATOM      9  O   UNL     1     184.709 187.415 197.412  1.00  0.00    -0.550 OA
ATOM     10  O   UNL     1     186.824 188.252 197.681  1.00  0.00    -0.550 OA
ENDBRANCH   7   8
ENDBRANCH   6   7
ENDBRANCH   5   6
ENDBRANCH   4   5
ENDBRANCH   3   4
ENDBRANCH   2   3
ENDBRANCH   1   2
BRANCH   1  11
ATOM     11  C   UNL     1     184.996 179.440 200.726  1.00  0.00     0.000 C 
BRANCH  11  12
ATOM     12  C   UNL     1     184.892 180.675 201.631  1.00  0.00    -0.000 C 
BRANCH  12  13
ATOM     13  C   UNL     1     183.502 181.334 201.589  1.00  0.00    -0.000 C 
BRANCH  13  14
ATOM     14  C   UNL     1     183.492 182.781 202.125  1.00  0.00    -0.000 C 
BRANCH  14  15
ATOM     15  C   UNL     1     182.127 183.467 201.920  1.00  0.00    -0.000 C 
BRANCH  15  16
ATOM     16  C   UNL     1     182.197 184.627 200.912  1.00  0.00    -0.000 C 
BRANCH  16  17
ATOM     17  C   UNL     1     181.657 184.268 199.514  1.00  0.00    -0.003 C 
ATOM     18  C   UNL     1     182.477 184.890 198.383  1.00  0.00     0.004 C 
ENDBRANCH  16  17
ENDBRANCH  15  16
ENDBRANCH  14  15
ENDBRANCH  13  14
ENDBRANCH  12  13
ENDBRANCH  11  12
ENDBRANCH   1  11
TORSDOF 14
ENDMDL
MODEL 3
REMARK VINA RESULT:    -3.643      1.857      2.305
REMARK INTER + INTRA:          -8.814
REMARK INTER:                  -6.931
REMARK INTRA:                  -1.883
REMARK UNBOUND:                -2.190
REMARK SMILES CCCCCCCCCCCCCCCC(=O)[O-]
REMARK SMILES IDX 9 1 10 2 11 3 12 4 13 5 14 6 15 7 16 8 17 9 18 10 8 11 7 12
REMARK SMILES IDX 6 13 5 14 4 15 3 16 2 17 1 18
REMARK H PARENT
REMARK Flexibility Score: inf
ROOT
ATOM      1  C   UNL     1     186.980 181.335 199.072  1.00  0.00     0.000 C 
ENDROOT
BRANCH   1   2
ATOM      2  C   UNL     1     186.320 182.399 198.179  1.00  0.00     0.000 C 
BRANCH   2   3
ATOM      3  C   UNL     1     185.170 183.133 198.892  1.00  0.00     0.000 C 
BRANCH   3   4
ATOM      4  C   UNL     1     185.663 184.100 199.984  1.00  0.00     0.000 C 
BRANCH   4   5
ATOM      5  C   UNL     1     185.019 185.498 199.952  1.00  0.00     0.000 C 
BRANCH   5   6
ATOM      6  C   UNL     1     185.222 186.220 198.613  1.00  0.00     0.006 C 
BRANCH   6   7
ATOM      7  C   UNL     1     186.696 186.588 198.407  1.00  0.00     0.053 C 
BRANCH   7   8
ATOM      8  C   UNL     1     186.887 188.067 198.520  1.00  0.00     0.041 C 
ATOM      9  O   UNL     1     186.001 188.781 199.060  1.00  0.00    -0.550 OA
ATOM     10  O   UNL     1     188.021 188.665 197.987  1.00  0.00    -0.550 OA
ENDBRANCH   7   8
ENDBRANCH   6   7
ENDBRANCH   5   6
ENDBRANCH   4   5
ENDBRANCH   3   4
ENDBRANCH   2   3
ENDBRANCH   1   2
BRANCH   1  11
ATOM     11  C   UNL     1     185.953 180.375 199.689  1.00  0.00     0.000 C 
BRANCH  11  12
ATOM     12  C   UNL     1     186.048 180.366 201.220  1.00  0.00    -0.000 C 
BRANCH  12  13
ATOM     13  C   UNL     1     184.686 180.151 201.905  1.00  0.00    -0.000 C 
BRANCH  13  14
ATOM     14  C   UNL     1     183.866 181.449 202.058  1.00  0.00    -0.000 C 
BRANCH  14  15
ATOM     15  C   UNL     1     182.664 181.494 201.095  1.00  0.00    -0.000 C 
BRANCH  15  16
ATOM     16  C   UNL     1     181.559 182.451 201.576  1.00  0.00    -0.000 C 
BRANCH  16  17
ATOM     17  C   UNL     1     181.720 183.894 201.059  1.00  0.00    -0.003 C 
ATOM     18  C   UNL     1     181.645 183.990 199.534  1.00  0.00     0.004 C 
ENDBRANCH  16  17
ENDBRANCH  15  16
ENDBRANCH  14  15
ENDBRANCH  13  14
ENDBRANCH  12  13
ENDBRANCH  11  12
ENDBRANCH   1  11
TORSDOF 14
ENDMDL
MODEL 4
REMARK VINA RESULT:    -3.635      2.183      5.792
REMARK INTER + INTRA:          -8.800
REMARK INTER:                  -6.815
REMARK INTRA:                  -1.986
REMARK UNBOUND:                -2.190
REMARK SMILES CCCCCCCCCCCCCCCC(=O)[O-]
REMARK SMILES IDX 9 1 10 2 11 3 12 4 13 5 14 6 15 7 16 8 17 9 18 10 8 11 7 12
REMARK SMILES IDX 6 13 5 14 4 15 3 16 2 17 1 18
REMARK H PARENT
REMARK Flexibility Score: inf
ROOT
ATOM      1  C   UNL     1     180.166 183.786 201.340  1.00  0.00     0.000 C 
ENDROOT
BRANCH   1   2
ATOM      2  C   UNL     1     181.151 182.628 201.108  1.00  0.00     0.000 C 
BRANCH   2   3
ATOM      3  C   UNL     1     182.345 182.669 202.078  1.00  0.00     0.000 C 
BRANCH   3   4
ATOM      4  C   UNL     1     183.247 181.426 201.970  1.00  0.00     0.000 C 
BRANCH   4   5
ATOM      5  C   UNL     1     184.146 181.382 200.721  1.00  0.00     0.000 C 
BRANCH   5   6
ATOM      6  C   UNL     1     185.227 180.294 200.800  1.00  0.00     0.006 C 
BRANCH   6   7
ATOM      7  C   UNL     1     185.967 180.159 199.465  1.00  0.00     0.053 C 
BRANCH   7   8
ATOM      8  C   UNL     1     186.807 181.371 199.208  1.00  0.00     0.041 C 
ATOM      9  O   UNL     1     187.600 181.790 200.092  1.00  0.00    -0.550 OA
ATOM     10  O   UNL     1     186.679 182.064 198.013  1.00  0.00    -0.550 OA
ENDBRANCH   7   8
ENDBRANCH   6   7
ENDBRANCH   5   6
ENDBRANCH   4   5
ENDBRANCH   3   4
ENDBRANCH   2   3
ENDBRANCH   1   2
BRANCH   1  11
ATOM     11  C   UNL     1     180.197 184.814 200.200  1.00  0.00     0.000 C 
BRANCH  11  12
ATOM     12  C   UNL     1     180.634 184.167 198.879  1.00  0.00    -0.000 C 
BRANCH  12  13
ATOM     13  C   UNL     1     181.184 185.187 197.865  1.00  0.00    -0.000 C 
BRANCH  13  14
ATOM     14  C   UNL     1     182.612 185.670 198.196  1.00  0.00    -0.000 C 
BRANCH  14  15
ATOM     15  C   UNL     1     183.495 184.535 198.750  1.00  0.00    -0.000 C 
BRANCH  15  16
ATOM     16  C   UNL     1     184.311 184.970 199.980  1.00  0.00    -0.000 C 
BRANCH  16  17
ATOM     17  C   UNL     1     183.608 186.033 200.846  1.00  0.00    -0.003 C 
ATOM     18  C   UNL     1     184.427 187.317 200.990  1.00  0.00     0.004 C 
ENDBRANCH  16  17
ENDBRANCH  15  16
ENDBRANCH  14  15
ENDBRANCH  13  14
ENDBRANCH  12  13
ENDBRANCH  11  12
ENDBRANCH   1  11
TORSDOF 14
ENDMDL
MODEL 5
REMARK VINA RESULT:    -3.621      1.693      3.995
REMARK INTER + INTRA:          -8.775
REMARK INTER:                  -6.903
REMARK INTRA:                  -1.872
REMARK UNBOUND:                -2.190
REMARK SMILES CCCCCCCCCCCCCCCC(=O)[O-]
REMARK SMILES IDX 9 1 10 2 11 3 12 4 13 5 14 6 15 7 16 8 17 9 18 10 8 11 7 12
REMARK SMILES IDX 6 13 5 14 4 15 3 16 2 17 1 18
REMARK H PARENT
REMARK Flexibility Score: inf
ROOT
ATOM      1  C   UNL     1     182.014 181.871 201.749  1.00  0.00     0.000 C 
ENDROOT
BRANCH   1   2
ATOM      2  C   UNL     1     181.898 183.337 201.300  1.00  0.00     0.000 C 
BRANCH   2   3
ATOM      3  C   UNL     1     183.207 183.869 200.690  1.00  0.00     0.000 C 
BRANCH   3   4
ATOM      4  C   UNL     1     183.088 184.168 199.184  1.00  0.00     0.000 C 
BRANCH   4   5
ATOM      5  C   UNL     1     183.505 185.591 198.769  1.00  0.00     0.000 C 
BRANCH   5   6
ATOM      6  C   UNL     1     185.002 185.706 198.447  1.00  0.00     0.006 C 
BRANCH   6   7
ATOM      7  C   UNL     1     185.752 186.413 199.581  1.00  0.00     0.053 C 
BRANCH   7   8
ATOM      8  C   UNL     1     186.274 187.737 199.117  1.00  0.00     0.041 C 
ATOM      9  O   UNL     1     185.630 188.791 199.360  1.00  0.00    -0.550 OA
ATOM     10  O   UNL     1     187.445 187.801 198.374  1.00  0.00    -0.550 OA
ENDBRANCH   7   8
ENDBRANCH   6   7
ENDBRANCH   5   6
ENDBRANCH   4   5
ENDBRANCH   3   4
ENDBRANCH   2   3
ENDBRANCH   1   2
BRANCH   1  11
ATOM     11  C   UNL     1     183.170 181.139 201.052  1.00  0.00     0.000 C 
BRANCH  11  12
ATOM     12  C   UNL     1     184.148 180.541 202.073  1.00  0.00    -0.000 C 
BRANCH  12  13
ATOM     13  C   UNL     1     185.227 179.656 201.422  1.00  0.00    -0.000 C 
BRANCH  13  14
ATOM     14  C   UNL     1     185.219 179.714 199.880  1.00  0.00    -0.000 C 
BRANCH  14  15
ATOM     15  C   UNL     1     186.433 180.481 199.321  1.00  0.00    -0.000 C 
BRANCH  15  16
ATOM     16  C   UNL     1     186.145 181.980 199.130  1.00  0.00    -0.000 C 
BRANCH  16  17
ATOM     17  C   UNL     1     186.681 182.866 200.271  1.00  0.00    -0.003 C 
ATOM     18  C   UNL     1     187.885 182.250 200.986  1.00  0.00     0.004 C 
ENDBRANCH  16  17
ENDBRANCH  15  16
ENDBRANCH  14  15
ENDBRANCH  13  14
ENDBRANCH  12  13
ENDBRANCH  11  12
ENDBRANCH   1  11
TORSDOF 14
ENDMDL
MODEL 6
REMARK VINA RESULT:    -3.614      2.071      4.207
REMARK INTER + INTRA:          -8.761
REMARK INTER:                  -7.213
REMARK INTRA:                  -1.548
REMARK UNBOUND:                -2.190
REMARK SMILES CCCCCCCCCCCCCCCC(=O)[O-]
REMARK SMILES IDX 9 1 10 2 11 3 12 4 13 5 14 6 15 7 16 8 17 9 18 10 8 11 7 12
REMARK SMILES IDX 6 13 5 14 4 15 3 16 2 17 1 18
REMARK H PARENT
REMARK Flexibility Score: inf
ROOT
ATOM      1  C   UNL     1     184.195 183.771 199.404  1.00  0.00     0.000 C 
ENDROOT
BRANCH   1   2
ATOM      2  C   UNL     1     185.397 184.600 198.920  1.00  0.00     0.000 C 
BRANCH   2   3
ATOM      3  C   UNL     1     184.976 185.967 198.351  1.00  0.00     0.000 C 
BRANCH   3   4
ATOM      4  C   UNL     1     185.806 186.387 197.125  1.00  0.00     0.000 C 
BRANCH   4   5
ATOM      5  C   UNL     1     185.097 187.354 196.159  1.00  0.00     0.000 C 
BRANCH   5   6
ATOM      6  C   UNL     1     184.388 186.632 195.004  1.00  0.00     0.006 C 
BRANCH   6   7
ATOM      7  C   UNL     1     185.305 186.527 193.780  1.00  0.00     0.053 C 
BRANCH   7   8
ATOM      8  C   UNL     1     185.679 185.101 193.527  1.00  0.00     0.041 C 
ATOM      9  O   UNL     1     184.995 184.397 192.738  1.00  0.00    -0.550 OA
ATOM     10  O   UNL     1     186.754 184.534 194.198  1.00  0.00    -0.550 OA
ENDBRANCH   7   8
ENDBRANCH   6   7
ENDBRANCH   5   6
ENDBRANCH   4   5
ENDBRANCH   3   4
ENDBRANCH   2   3
ENDBRANCH   1   2
BRANCH   1  11
ATOM     11  C   UNL     1     183.795 184.116 200.846  1.00  0.00     0.000 C 
BRANCH  11  12
ATOM     12  C   UNL     1     183.899 182.889 201.762  1.00  0.00    -0.000 C 
BRANCH  12  13
ATOM     13  C   UNL     1     183.597 181.569 201.031  1.00  0.00    -0.000 C 
BRANCH  13  14
ATOM     14  C   UNL     1     184.231 180.335 201.708  1.00  0.00    -0.000 C 
BRANCH  14  15
ATOM     15  C   UNL     1     185.674 180.087 201.226  1.00  0.00    -0.000 C 
BRANCH  15  16
ATOM     16  C   UNL     1     185.841 180.330 199.716  1.00  0.00    -0.000 C 
BRANCH  16  17
ATOM     17  C   UNL     1     186.988 181.298 199.366  1.00  0.00    -0.003 C 
ATOM     18  C   UNL     1     187.545 182.025 200.591  1.00  0.00     0.004 C 
ENDBRANCH  16  17
ENDBRANCH  15  16
ENDBRANCH  14  15
ENDBRANCH  13  14
ENDBRANCH  12  13
ENDBRANCH  11  12
ENDBRANCH   1  11
TORSDOF 14
ENDMDL
MODEL 7
REMARK VINA RESULT:    -3.602      2.443      4.470
REMARK INTER + INTRA:          -8.740
REMARK INTER:                  -6.942
REMARK INTRA:                  -1.798
REMARK UNBOUND:                -2.190
REMARK SMILES CCCCCCCCCCCCCCCC(=O)[O-]
REMARK SMILES IDX 9 1 10 2 11 3 12 4 13 5 14 6 15 7 16 8 17 9 18 10 8 11 7 12
REMARK SMILES IDX 6 13 5 14 4 15 3 16 2 17 1 18
REMARK H PARENT
REMARK Flexibility Score: inf
ROOT
ATOM      1  C   UNL     1     181.545 183.718 199.880  1.00  0.00     0.000 C 
ENDROOT
BRANCH   1   2
ATOM      2  C   UNL     1     182.652 184.479 199.131  1.00  0.00     0.000 C 
BRANCH   2   3
ATOM      3  C   UNL     1     183.997 183.730 199.153  1.00  0.00     0.000 C 
BRANCH   3   4
ATOM      4  C   UNL     1     185.114 184.526 199.852  1.00  0.00     0.000 C 
BRANCH   4   5
ATOM      5  C   UNL     1     184.736 185.964 200.251  1.00  0.00     0.000 C 
BRANCH   5   6
ATOM      6  C   UNL     1     185.502 187.027 199.451  1.00  0.00     0.006 C 
BRANCH   6   7
ATOM      7  C   UNL     1     186.901 186.527 199.076  1.00  0.00     0.053 C 
BRANCH   7   8
ATOM      8  C   UNL     1     187.903 186.959 200.101  1.00  0.00     0.041 C 
ATOM      9  O   UNL     1     187.992 188.172 200.427  1.00  0.00    -0.550 OA
ATOM     10  O   UNL     1     188.770 186.030 200.660  1.00  0.00    -0.550 OA
ENDBRANCH   7   8
ENDBRANCH   6   7
ENDBRANCH   5   6
ENDBRANCH   4   5
ENDBRANCH   3   4
ENDBRANCH   2   3
ENDBRANCH   1   2
BRANCH   1  11
ATOM     11  C   UNL     1     181.867 183.541 201.371  1.00  0.00     0.000 C 
BRANCH  11  12
ATOM     12  C   UNL     1     181.925 182.058 201.757  1.00  0.00    -0.000 C 
BRANCH  12  13
ATOM     13  C   UNL     1     183.352 181.578 202.079  1.00  0.00    -0.000 C 
BRANCH  13  14
ATOM     14  C   UNL     1     183.870 180.498 201.105  1.00  0.00    -0.000 C 
BRANCH  14  15
ATOM     15  C   UNL     1     185.129 179.789 201.641  1.00  0.00    -0.000 C 
BRANCH  15  16
ATOM     16  C   UNL     1     186.230 180.779 202.060  1.00  0.00    -0.000 C 
BRANCH  16  17
ATOM     17  C   UNL     1     186.971 181.421 200.871  1.00  0.00    -0.003 C 
ATOM     18  C   UNL     1     187.941 182.523 201.302  1.00  0.00     0.004 C 
ENDBRANCH  16  17
ENDBRANCH  15  16
ENDBRANCH  14  15
ENDBRANCH  13  14
ENDBRANCH  12  13
ENDBRANCH  11  12
ENDBRANCH   1  11
TORSDOF 14
ENDMDL
MODEL 8
REMARK VINA RESULT:    -3.597      1.237      3.935
REMARK INTER + INTRA:          -8.730
REMARK INTER:                  -6.819
REMARK INTRA:                  -1.911
REMARK UNBOUND:                -2.190
REMARK SMILES CCCCCCCCCCCCCCCC(=O)[O-]
REMARK SMILES IDX 9 1 10 2 11 3 12 4 13 5 14 6 15 7 16 8 17 9 18 10 8 11 7 12
REMARK SMILES IDX 6 13 5 14 4 15 3 16 2 17 1 18
REMARK H PARENT
REMARK Flexibility Score: inf
ROOT
ATOM      1  C   UNL     1     183.938 180.422 200.972  1.00  0.00     0.000 C 
ENDROOT
BRANCH   1   2
ATOM      2  C   UNL     1     185.447 180.132 200.912  1.00  0.00     0.000 C 
BRANCH   2   3
ATOM      3  C   UNL     1     185.995 180.167 199.474  1.00  0.00     0.000 C 
BRANCH   3   4
ATOM      4  C   UNL     1     186.852 181.414 199.190  1.00  0.00     0.000 C 
BRANCH   4   5
ATOM      5  C   UNL     1     186.833 182.482 200.298  1.00  0.00     0.000 C 
BRANCH   5   6
ATOM      6  C   UNL     1     186.277 183.831 199.818  1.00  0.00     0.006 C 
BRANCH   6   7
ATOM      7  C   UNL     1     186.037 183.817 198.305  1.00  0.00     0.053 C 
BRANCH   7   8
ATOM      8  C   UNL     1     186.110 185.205 197.751  1.00  0.00     0.041 C 
ATOM      9  O   UNL     1     186.850 186.066 198.295  1.00  0.00    -0.550 OA
ATOM     10  O   UNL     1     185.324 185.561 196.663  1.00  0.00    -0.550 OA
ENDBRANCH   7   8
ENDBRANCH   6   7
ENDBRANCH   5   6
ENDBRANCH   4   5
ENDBRANCH   3   4
ENDBRANCH   2   3
ENDBRANCH   1   2
BRANCH   1  11
ATOM     11  C   UNL     1     183.596 181.507 202.004  1.00  0.00     0.000 C 
BRANCH  11  12
ATOM     12  C   UNL     1     182.110 181.886 201.941  1.00  0.00    -0.000 C 
BRANCH  12  13
ATOM     13  C   UNL     1     181.885 183.391 201.707  1.00  0.00    -0.000 C 
BRANCH  13  14
ATOM     14  C   UNL     1     181.434 183.726 200.269  1.00  0.00    -0.000 C 
BRANCH  14  15
ATOM     15  C   UNL     1     182.623 184.088 199.358  1.00  0.00    -0.000 C 
BRANCH  15  16
ATOM     16  C   UNL     1     182.329 185.302 198.460  1.00  0.00    -0.000 C 
BRANCH  16  17
ATOM     17  C   UNL     1     182.667 186.655 199.116  1.00  0.00    -0.003 C 
ATOM     18  C   UNL     1     183.714 186.533 200.224  1.00  0.00     0.004 C 
ENDBRANCH  16  17
ENDBRANCH  15  16
ENDBRANCH  14  15
ENDBRANCH  13  14
ENDBRANCH  12  13
ENDBRANCH  11  12
ENDBRANCH   1  11
TORSDOF 14
ENDMDL
MODEL 9
REMARK VINA RESULT:    -3.524      2.006      4.129
REMARK INTER + INTRA:          -8.598
REMARK INTER:                  -6.581
REMARK INTRA:                  -2.017
REMARK UNBOUND:                -2.190
REMARK SMILES CCCCCCCCCCCCCCCC(=O)[O-]
REMARK SMILES IDX 9 1 10 2 11 3 12 4 13 5 14 6 15 7 16 8 17 9 18 10 8 11 7 12
REMARK SMILES IDX 6 13 5 14 4 15 3 16 2 17 1 18
REMARK H PARENT
REMARK Flexibility Score: inf
ROOT
ATOM      1  C   UNL     1     182.717 184.543 199.124  1.00  0.00     0.000 C 
ENDROOT
BRANCH   1   2
ATOM      2  C   UNL     1     183.702 185.006 200.210  1.00  0.00     0.000 C 
BRANCH   2   3
ATOM      3  C   UNL     1     185.135 184.505 199.955  1.00  0.00     0.000 C 
BRANCH   3   4
ATOM      4  C   UNL     1     185.383 184.123 198.484  1.00  0.00     0.000 C 
BRANCH   4   5
ATOM      5  C   UNL     1     186.025 185.226 197.625  1.00  0.00     0.000 C 
BRANCH   5   6
ATOM      6  C   UNL     1     186.744 186.295 198.462  1.00  0.00     0.006 C 
BRANCH   6   7
ATOM      7  C   UNL     1     186.163 187.686 198.188  1.00  0.00     0.053 C 
BRANCH   7   8
ATOM      8  C   UNL     1     185.437 188.197 199.393  1.00  0.00     0.041 C 
ATOM      9  O   UNL     1     185.895 187.984 200.546  1.00  0.00    -0.550 OA
ATOM     10  O   UNL     1     184.229 188.864 199.244  1.00  0.00    -0.550 OA
ENDBRANCH   7   8
ENDBRANCH   6   7
ENDBRANCH   5   6
ENDBRANCH   4   5
ENDBRANCH   3   4
ENDBRANCH   2   3
ENDBRANCH   1   2
BRANCH   1  11
ATOM     11  C   UNL     1     181.491 183.833 199.717  1.00  0.00     0.000 C 
BRANCH  11  12
ATOM     12  C   UNL     1     181.672 183.566 201.217  1.00  0.00    -0.000 C 
BRANCH  12  13
ATOM     13  C   UNL     1     181.782 182.067 201.550  1.00  0.00    -0.000 C 
BRANCH  13  14
ATOM     14  C   UNL     1     183.157 181.667 202.125  1.00  0.00    -0.000 C 
BRANCH  14  15
ATOM     15  C   UNL     1     184.059 181.004 201.065  1.00  0.00    -0.000 C 
BRANCH  15  16
ATOM     16  C   UNL     1     185.494 180.775 201.572  1.00  0.00    -0.000 C 
BRANCH  16  17
ATOM     17  C   UNL     1     186.578 181.054 200.513  1.00  0.00    -0.003 C 
ATOM     18  C   UNL     1     186.268 180.409 199.162  1.00  0.00     0.004 C 
ENDBRANCH  16  17
ENDBRANCH  15  16
ENDBRANCH  14  15
ENDBRANCH  13  14
ENDBRANCH  12  13
ENDBRANCH  11  12
ENDBRANCH   1  11
TORSDOF 14
ENDMDL
