MODEL 1
REMARK VINA RESULT:    -3.959      0.000      0.000
REMARK INTER + INTRA:          -6.090
REMARK INTER:                  -5.810
REMARK INTRA:                  -0.279
REMARK UNBOUND:                -0.279
REMARK SMILES CCCCCC(=O)CCCCC
REMARK SMILES IDX 6 1 7 2 5 3 4 4 3 5 2 6 1 7 8 8 9 9 10 10 11 11 12 12
REMARK H PARENT
REMARK Flexibility Score: inf
ROOT
ATOM      1  C   UNL     1     166.402 166.260 166.397  1.00  0.00     0.132 C 
ATOM      2  O   UNL     1     166.313 166.141 167.609  1.00  0.00    -0.300 OA
ENDROOT
BRANCH   1   3
ATOM      3  C   UNL     1     167.347 167.312 165.854  1.00  0.00     0.075 C 
BRANCH   3   4
ATOM      4  C   UNL     1     168.367 166.707 164.878  1.00  0.00     0.008 C 
BRANCH   4   5
ATOM      5  C   UNL     1     169.806 166.816 165.408  1.00  0.00     0.000 C 
BRANCH   5   6
ATOM      6  C   UNL     1     169.863 166.930 166.939  1.00  0.00    -0.003 C 
ATOM      7  C   UNL     1     171.248 167.323 167.451  1.00  0.00     0.004 C 
ENDBRANCH   5   6
ENDBRANCH   4   5
ENDBRANCH   3   4
ENDBRANCH   1   3
BRANCH   1   8
ATOM      8  C   UNL     1     165.551 165.344 165.539  1.00  0.00     0.075 C 
BRANCH   8   9
ATOM      9  C   UNL     1     164.398 164.639 166.267  1.00  0.00     0.008 C 
BRANCH   9  10
ATOM     10  C   UNL     1     163.571 163.789 165.290  1.00  0.00     0.000 C 
BRANCH  10  11
ATOM     11  C   UNL     1     162.183 164.391 165.015  1.00  0.00    -0.003 C 
ATOM     12  C   UNL     1     161.243 164.281 166.214  1.00  0.00     0.004 C 
ENDBRANCH  10  11
ENDBRANCH   9  10
ENDBRANCH   8   9
ENDBRANCH   1   8
TORSDOF 8
ENDMDL
MODEL 2
REMARK VINA RESULT:    -3.868      2.110      3.113
REMARK INTER + INTRA:          -5.957
REMARK INTER:                  -5.234
REMARK INTRA:                  -0.723
REMARK UNBOUND:                -0.279
REMARK SMILES CCCCCC(=O)CCCCC
REMARK SMILES IDX 6 1 7 2 5 3 4 4 3 5 2 6 1 7 8 8 9 9 10 10 11 11 12 12
REMARK H PARENT
REMARK Flexibility Score: inf
ROOT
ATOM      1  C   UNL     1     165.264 163.934 168.156  1.00  0.00     0.132 C 
ATOM      2  O   UNL     1     165.628 162.963 168.802  1.00  0.00    -0.300 OA
ENDROOT
BRANCH   1   3
ATOM      3  C   UNL     1     165.090 165.249 168.887  1.00  0.00     0.075 C 
BRANCH   3   4
ATOM      4  C   UNL     1     166.339 166.134 168.765  1.00  0.00     0.008 C 
BRANCH   4   5
ATOM      5  C   UNL     1     166.239 167.111 167.582  1.00  0.00     0.000 C 
BRANCH   5   6
ATOM      6  C   UNL     1     167.224 166.773 166.452  1.00  0.00    -0.003 C 
ATOM      7  C   UNL     1     166.712 167.196 165.075  1.00  0.00     0.004 C 
ENDBRANCH   5   6
ENDBRANCH   4   5
ENDBRANCH   3   4
ENDBRANCH   1   3
BRANCH   1   8
ATOM      8  C   UNL     1     165.015 163.734 166.673  1.00  0.00     0.075 C 
BRANCH   8   9
ATOM      9  C   UNL     1     163.997 164.694 166.040  1.00  0.00     0.008 C 
BRANCH   9  10
ATOM     10  C   UNL     1     163.005 163.930 165.150  1.00  0.00     0.000 C 
BRANCH  10  11
ATOM     11  C   UNL     1     161.588 164.525 165.200  1.00  0.00    -0.003 C 
ATOM     12  C   UNL     1     160.839 164.161 166.481  1.00  0.00     0.004 C 
ENDBRANCH  10  11
ENDBRANCH   9  10
ENDBRANCH   8   9
ENDBRANCH   1   8
TORSDOF 8
ENDMDL
MODEL 3
REMARK VINA RESULT:    -3.838      2.000      6.110
REMARK INTER + INTRA:          -5.912
REMARK INTER:                  -5.203
REMARK INTRA:                  -0.708
REMARK UNBOUND:                -0.279
REMARK SMILES CCCCCC(=O)CCCCC
REMARK SMILES IDX 6 1 7 2 5 3 4 4 3 5 2 6 1 7 8 8 9 9 10 10 11 11 12 12
REMARK H PARENT
REMARK Flexibility Score: inf
ROOT
ATOM      1  C   UNL     1     165.296 163.945 168.388  1.00  0.00     0.132 C 
ATOM      2  O   UNL     1     165.570 162.941 169.028  1.00  0.00    -0.300 OA
ENDROOT
BRANCH   1   3
ATOM      3  C   UNL     1     164.972 163.783 166.917  1.00  0.00     0.075 C 
BRANCH   3   4
ATOM      4  C   UNL     1     163.783 164.662 166.500  1.00  0.00     0.008 C 
BRANCH   4   5
ATOM      5  C   UNL     1     162.981 164.036 165.347  1.00  0.00     0.000 C 
BRANCH   5   6
ATOM      6  C   UNL     1     161.508 164.471 165.349  1.00  0.00    -0.003 C 
ATOM      7  C   UNL     1     160.819 164.218 166.689  1.00  0.00     0.004 C 
ENDBRANCH   5   6
ENDBRANCH   4   5
ENDBRANCH   3   4
ENDBRANCH   1   3
BRANCH   1   8
ATOM      8  C   UNL     1     165.307 165.270 169.126  1.00  0.00     0.075 C 
BRANCH   8   9
ATOM      9  C   UNL     1     166.445 166.227 168.746  1.00  0.00     0.008 C 
BRANCH   9  10
ATOM     10  C   UNL     1     165.915 167.407 167.917  1.00  0.00     0.000 C 
BRANCH  10  11
ATOM     11  C   UNL     1     166.255 167.278 166.424  1.00  0.00    -0.003 C 
ATOM     12  C   UNL     1     167.680 166.783 166.182  1.00  0.00     0.004 C 
ENDBRANCH  10  11
ENDBRANCH   9  10
ENDBRANCH   8   9
ENDBRANCH   1   8
TORSDOF 8
ENDMDL
MODEL 4
REMARK VINA RESULT:    -3.816      1.677      2.506
REMARK INTER + INTRA:          -5.880
REMARK INTER:                  -5.179
REMARK INTRA:                  -0.701
REMARK UNBOUND:                -0.279
REMARK SMILES CCCCCC(=O)CCCCC
REMARK SMILES IDX 6 1 7 2 5 3 4 4 3 5 2 6 1 7 8 8 9 9 10 10 11 11 12 12
REMARK H PARENT
REMARK Flexibility Score: inf
ROOT
ATOM      1  C   UNL     1     165.791 165.833 169.240  1.00  0.00     0.132 C 
ATOM      2  O   UNL     1     166.030 165.979 170.429  1.00  0.00    -0.300 OA
ENDROOT
BRANCH   1   3
ATOM      3  C   UNL     1     166.142 166.969 168.301  1.00  0.00     0.075 C 
BRANCH   3   4
ATOM      4  C   UNL     1     167.284 166.583 167.349  1.00  0.00     0.008 C 
BRANCH   4   5
ATOM      5  C   UNL     1     166.916 166.832 165.877  1.00  0.00     0.000 C 
BRANCH   5   6
ATOM      6  C   UNL     1     168.152 166.991 164.979  1.00  0.00    -0.003 C 
ATOM      7  C   UNL     1     169.464 166.912 165.759  1.00  0.00     0.004 C 
ENDBRANCH   5   6
ENDBRANCH   4   5
ENDBRANCH   3   4
ENDBRANCH   1   3
BRANCH   1   8
ATOM      8  C   UNL     1     165.159 164.524 168.809  1.00  0.00     0.075 C 
BRANCH   8   9
ATOM      9  C   UNL     1     164.229 164.610 167.589  1.00  0.00     0.008 C 
BRANCH   9  10
ATOM     10  C   UNL     1     164.837 163.876 166.384  1.00  0.00     0.000 C 
BRANCH  10  11
ATOM     11  C   UNL     1     164.061 164.136 165.083  1.00  0.00    -0.003 C 
ATOM     12  C   UNL     1     162.557 164.283 165.312  1.00  0.00     0.004 C 
ENDBRANCH  10  11
ENDBRANCH   9  10
ENDBRANCH   8   9
ENDBRANCH   1   8
TORSDOF 8
ENDMDL
MODEL 5
REMARK VINA RESULT:    -3.750      2.339      5.908
REMARK INTER + INTRA:          -5.782
REMARK INTER:                  -5.088
REMARK INTRA:                  -0.694
REMARK UNBOUND:                -0.279
REMARK SMILES CCCCCC(=O)CCCCC
REMARK SMILES IDX 6 1 7 2 5 3 4 4 3 5 2 6 1 7 8 8 9 9 10 10 11 11 12 12
REMARK H PARENT
REMARK Flexibility Score: inf
ROOT
ATOM      1  C   UNL     1     165.794 165.777 165.948  1.00  0.00     0.132 C 
ATOM      2  O   UNL     1     165.577 166.347 164.890  1.00  0.00    -0.300 OA
ENDROOT
BRANCH   1   3
ATOM      3  C   UNL     1     165.177 164.408 166.156  1.00  0.00     0.075 C 
BRANCH   3   4
ATOM      4  C   UNL     1     163.673 164.504 166.448  1.00  0.00     0.008 C 
BRANCH   4   5
ATOM      5  C   UNL     1     162.824 164.127 165.222  1.00  0.00     0.000 C 
BRANCH   5   6
ATOM      6  C   UNL     1     161.345 164.512 165.388  1.00  0.00    -0.003 C 
ATOM      7  C   UNL     1     160.792 164.149 166.766  1.00  0.00     0.004 C 
ENDBRANCH   5   6
ENDBRANCH   4   5
ENDBRANCH   3   4
ENDBRANCH   1   3
BRANCH   1   8
ATOM      8  C   UNL     1     166.661 166.493 166.965  1.00  0.00     0.075 C 
BRANCH   8   9
ATOM      9  C   UNL     1     165.913 167.102 168.159  1.00  0.00     0.008 C 
BRANCH   9  10
ATOM     10  C   UNL     1     166.262 166.363 169.460  1.00  0.00     0.000 C 
BRANCH  10  11
ATOM     11  C   UNL     1     165.061 165.603 170.046  1.00  0.00    -0.003 C 
ATOM     12  C   UNL     1     165.132 164.098 169.790  1.00  0.00     0.004 C 
ENDBRANCH  10  11
ENDBRANCH   9  10
ENDBRANCH   8   9
ENDBRANCH   1   8
TORSDOF 8
ENDMDL
MODEL 6
REMARK VINA RESULT:    -3.724      2.273      3.588
REMARK INTER + INTRA:          -5.744
REMARK INTER:                  -4.944
REMARK INTRA:                  -0.800
REMARK UNBOUND:                -0.279
REMARK SMILES CCCCCC(=O)CCCCC
REMARK SMILES IDX 6 1 7 2 5 3 4 4 3 5 2 6 1 7 8 8 9 9 10 10 11 11 12 12
REMARK H PARENT
REMARK Flexibility Score: inf
ROOT
ATOM      1  C   UNL     1     166.416 166.420 165.611  1.00  0.00     0.132 C 
ATOM      2  O   UNL     1     167.525 166.595 165.128  1.00  0.00    -0.300 OA
ENDROOT
BRANCH   1   3
ATOM      3  C   UNL     1     166.062 167.185 166.870  1.00  0.00     0.075 C 
BRANCH   3   4
ATOM      4  C   UNL     1     166.712 166.560 168.114  1.00  0.00     0.008 C 
BRANCH   4   5
ATOM      5  C   UNL     1     165.671 166.202 169.188  1.00  0.00     0.000 C 
BRANCH   5   6
ATOM      6  C   UNL     1     165.554 164.687 169.414  1.00  0.00    -0.003 C 
ATOM      7  C   UNL     1     164.182 164.273 169.944  1.00  0.00     0.004 C 
ENDBRANCH   5   6
ENDBRANCH   4   5
ENDBRANCH   3   4
ENDBRANCH   1   3
BRANCH   1   8
ATOM      8  C   UNL     1     165.491 165.446 164.909  1.00  0.00     0.075 C 
BRANCH   8   9
ATOM      9  C   UNL     1     165.049 164.235 165.743  1.00  0.00     0.008 C 
BRANCH   9  10
ATOM     10  C   UNL     1     163.635 164.445 166.306  1.00  0.00     0.000 C 
BRANCH  10  11
ATOM     11  C   UNL     1     162.538 164.144 165.273  1.00  0.00    -0.003 C 
ATOM     12  C   UNL     1     161.130 164.385 165.817  1.00  0.00     0.004 C 
ENDBRANCH  10  11
ENDBRANCH   9  10
ENDBRANCH   8   9
ENDBRANCH   1   8
TORSDOF 8
ENDMDL
MODEL 7
REMARK VINA RESULT:    -3.685      1.386      2.048
REMARK INTER + INTRA:          -5.687
REMARK INTER:                  -5.148
REMARK INTRA:                  -0.539
REMARK UNBOUND:                -0.279
REMARK SMILES CCCCCC(=O)CCCCC
REMARK SMILES IDX 6 1 7 2 5 3 4 4 3 5 2 6 1 7 8 8 9 9 10 10 11 11 12 12
REMARK H PARENT
REMARK Flexibility Score: inf
ROOT
ATOM      1  C   UNL     1     167.011 167.426 165.342  1.00  0.00     0.132 C 
ATOM      2  O   UNL     1     167.154 168.583 164.977  1.00  0.00    -0.300 OA
ENDROOT
BRANCH   1   3
ATOM      3  C   UNL     1     168.052 166.412 164.913  1.00  0.00     0.075 C 
BRANCH   3   4
ATOM      4  C   UNL     1     169.477 166.907 165.203  1.00  0.00     0.008 C 
BRANCH   4   5
ATOM      5  C   UNL     1     169.834 166.791 166.695  1.00  0.00     0.000 C 
BRANCH   5   6
ATOM      6  C   UNL     1     171.325 167.047 166.965  1.00  0.00    -0.003 C 
ATOM      7  C   UNL     1     171.559 167.943 168.181  1.00  0.00     0.004 C 
ENDBRANCH   5   6
ENDBRANCH   4   5
ENDBRANCH   3   4
ENDBRANCH   1   3
BRANCH   1   8
ATOM      8  C   UNL     1     165.798 167.105 166.193  1.00  0.00     0.075 C 
BRANCH   8   9
ATOM      9  C   UNL     1     165.999 166.000 167.240  1.00  0.00     0.008 C 
BRANCH   9  10
ATOM     10  C   UNL     1     164.857 164.973 167.178  1.00  0.00     0.000 C 
BRANCH  10  11
ATOM     11  C   UNL     1     164.543 164.528 165.741  1.00  0.00    -0.003 C 
ATOM     12  C   UNL     1     163.060 164.223 165.528  1.00  0.00     0.004 C 
ENDBRANCH  10  11
ENDBRANCH   9  10
ENDBRANCH   8   9
ENDBRANCH   1   8
TORSDOF 8
ENDMDL
MODEL 8
REMARK VINA RESULT:    -3.539      2.435      3.294
REMARK INTER + INTRA:          -5.473
REMARK INTER:                  -5.006
REMARK INTRA:                  -0.467
REMARK UNBOUND:                -0.279
REMARK SMILES CCCCCC(=O)CCCCC
REMARK SMILES IDX 6 1 7 2 5 3 4 4 3 5 2 6 1 7 8 8 9 9 10 10 11 11 12 12
REMARK H PARENT
REMARK Flexibility Score: inf
ROOT
ATOM      1  C   UNL     1     165.436 165.431 166.285  1.00  0.00     0.132 C 
ATOM      2  O   UNL     1     165.115 165.288 165.114  1.00  0.00    -0.300 OA
ENDROOT
BRANCH   1   3
ATOM      3  C   UNL     1     166.049 166.754 166.697  1.00  0.00     0.075 C 
BRANCH   3   4
ATOM      4  C   UNL     1     167.580 166.668 166.773  1.00  0.00     0.008 C 
BRANCH   4   5
ATOM      5  C   UNL     1     168.248 167.120 165.463  1.00  0.00     0.000 C 
BRANCH   5   6
ATOM      6  C   UNL     1     169.727 166.713 165.384  1.00  0.00    -0.003 C 
ATOM      7  C   UNL     1     170.502 167.053 166.657  1.00  0.00     0.004 C 
ENDBRANCH   5   6
ENDBRANCH   4   5
ENDBRANCH   3   4
ENDBRANCH   1   3
BRANCH   1   8
ATOM      8  C   UNL     1     165.194 164.266 167.224  1.00  0.00     0.075 C 
BRANCH   8   9
ATOM      9  C   UNL     1     164.210 164.535 168.372  1.00  0.00     0.008 C 
BRANCH   9  10
ATOM     10  C   UNL     1     164.957 164.957 169.646  1.00  0.00     0.000 C 
BRANCH  10  11
ATOM     11  C   UNL     1     165.786 163.812 170.249  1.00  0.00    -0.003 C 
ATOM     12  C   UNL     1     164.948 162.569 170.547  1.00  0.00     0.004 C 
ENDBRANCH  10  11
ENDBRANCH   9  10
ENDBRANCH   8   9
ENDBRANCH   1   8
TORSDOF 8
ENDMDL
MODEL 9
REMARK VINA RESULT:    -1.700      2.882      5.686
REMARK INTER + INTRA:          -2.775
REMARK INTER:                  -1.679
REMARK INTRA:                  -1.096
REMARK UNBOUND:                -0.279
REMARK SMILES CCCCCC(=O)CCCCC
REMARK SMILES IDX 6 1 7 2 5 3 4 4 3 5 2 6 1 7 8 8 9 9 10 10 11 11 12 12
REMARK H PARENT
REMARK Flexibility Score: inf
ROOT
ATOM      1  C   UNL     1     165.276 165.216 166.009  1.00  0.00     0.132 C 
ATOM      2  O   UNL     1     165.166 164.776 164.875  1.00  0.00    -0.300 OA
ENDROOT
BRANCH   1   3
ATOM      3  C   UNL     1     164.476 164.551 167.110  1.00  0.00     0.075 C 
BRANCH   3   4
ATOM      4  C   UNL     1     165.317 163.520 167.877  1.00  0.00     0.008 C 
BRANCH   4   5
ATOM      5  C   UNL     1     165.244 163.733 169.398  1.00  0.00     0.000 C 
BRANCH   5   6
ATOM      6  C   UNL     1     164.140 164.723 169.802  1.00  0.00    -0.003 C 
ATOM      7  C   UNL     1     162.958 164.042 170.489  1.00  0.00     0.004 C 
ENDBRANCH   5   6
ENDBRANCH   4   5
ENDBRANCH   3   4
ENDBRANCH   1   3
BRANCH   1   8
ATOM      8  C   UNL     1     166.205 166.397 166.216  1.00  0.00     0.075 C 
BRANCH   8   9
ATOM      9  C   UNL     1     166.034 167.148 167.544  1.00  0.00     0.008 C 
BRANCH   9  10
ATOM     10  C   UNL     1     167.134 166.752 168.542  1.00  0.00     0.000 C 
BRANCH  10  11
ATOM     11  C   UNL     1     166.847 167.257 169.965  1.00  0.00    -0.003 C 
ATOM     12  C   UNL     1     165.626 168.174 170.033  1.00  0.00     0.004 C 
ENDBRANCH  10  11
ENDBRANCH   9  10
ENDBRANCH   8   9
ENDBRANCH   1   8
TORSDOF 8
ENDMDL
