MODEL 1
REMARK VINA RESULT:    -4.873      0.000      0.000
REMARK INTER + INTRA:          -9.874
REMARK INTER:                  -8.576
REMARK INTRA:                  -1.299
REMARK UNBOUND:                -1.299
REMARK SMILES CCCCCCCCCCCCCCC(=O)[O-]
REMARK SMILES IDX 9 1 10 2 11 3 12 4 13 5 14 6 15 7 16 8 17 9 8 10 7 11 6 12
REMARK SMILES IDX 5 13 4 14 3 15 2 16 1 17
REMARK H PARENT
REMARK Flexibility Score: inf
ROOT
ATOM      1  C   UNL     1       5.919  12.293   7.469  1.00  0.00     0.000 C 
ENDROOT
BRANCH   1   2
ATOM      2  C   UNL     1       7.085  11.980   8.422  1.00  0.00     0.000 C 
BRANCH   2   3
ATOM      3  C   UNL     1       8.213  11.195   7.732  1.00  0.00     0.000 C 
BRANCH   3   4
ATOM      4  C   UNL     1       9.509  12.015   7.606  1.00  0.00     0.000 C 
BRANCH   4   5
ATOM      5  C   UNL     1       9.763  12.500   6.170  1.00  0.00     0.006 C 
BRANCH   5   6
ATOM      6  C   UNL     1       9.158  11.567   5.113  1.00  0.00     0.053 C 
BRANCH   6   7
ATOM      7  C   UNL     1       8.459  12.361   4.055  1.00  0.00     0.041 C 
ATOM      8  O   UNL     1       8.850  12.305   2.859  1.00  0.00    -0.550 OA
ATOM      9  O   UNL     1       7.345  13.125   4.380  1.00  0.00    -0.550 OA
ENDBRANCH   6   7
ENDBRANCH   5   6
ENDBRANCH   4   5
ENDBRANCH   3   4
ENDBRANCH   2   3
ENDBRANCH   1   2
BRANCH   1  10
ATOM     10  C   UNL     1       5.518  11.087   6.598  1.00  0.00     0.000 C 
BRANCH  10  11
ATOM     11  C   UNL     1       4.227  10.369   7.031  1.00  0.00    -0.000 C 
BRANCH  11  12
ATOM     12  C   UNL     1       4.421   9.477   8.267  1.00  0.00    -0.000 C 
BRANCH  12  13
ATOM     13  C   UNL     1       3.447   9.836   9.411  1.00  0.00    -0.000 C 
BRANCH  13  14
ATOM     14  C   UNL     1       2.898  11.274   9.325  1.00  0.00    -0.000 C 
BRANCH  14  15
ATOM     15  C   UNL     1       1.364  11.380   9.251  1.00  0.00    -0.000 C 
BRANCH  15  16
ATOM     16  C   UNL     1       0.790  12.744   9.675  1.00  0.00    -0.003 C 
ATOM     17  C   UNL     1      -0.474  13.125   8.906  1.00  0.00     0.004 C 
ENDBRANCH  15  16
ENDBRANCH  14  15
ENDBRANCH  13  14
ENDBRANCH  12  13
ENDBRANCH  11  12
ENDBRANCH  10  11
ENDBRANCH   1  10
TORSDOF 13
ENDMDL
MODEL 2
REMARK VINA RESULT:    -4.833      3.398      6.912
REMARK INTER + INTRA:          -9.804
REMARK INTER:                  -8.315
REMARK INTRA:                  -1.490
REMARK UNBOUND:                -1.299
REMARK SMILES CCCCCCCCCCCCCCC(=O)[O-]
REMARK SMILES IDX 9 1 10 2 11 3 12 4 13 5 14 6 15 7 16 8 17 9 8 10 7 11 6 12
REMARK SMILES IDX 5 13 4 14 3 15 2 16 1 17
REMARK H PARENT
REMARK Flexibility Score: inf
ROOT
ATOM      1  C   UNL     1       5.154  10.842   5.075  1.00  0.00     0.000 C 
ENDROOT
BRANCH   1   2
ATOM      2  C   UNL     1       5.781  10.644   6.465  1.00  0.00     0.000 C 
BRANCH   2   3
ATOM      3  C   UNL     1       4.895  11.197   7.594  1.00  0.00     0.000 C 
BRANCH   3   4
ATOM      4  C   UNL     1       4.644  10.162   8.705  1.00  0.00     0.000 C 
BRANCH   4   5
ATOM      5  C   UNL     1       3.686  10.680   9.789  1.00  0.00     0.006 C 
BRANCH   5   6
ATOM      6  C   UNL     1       2.806  11.838   9.299  1.00  0.00     0.053 C 
BRANCH   6   7
ATOM      7  C   UNL     1       1.379  11.609   9.686  1.00  0.00     0.041 C 
ATOM      8  O   UNL     1       0.448  12.038   8.954  1.00  0.00    -0.550 OA
ATOM      9  O   UNL     1       1.077  10.881  10.829  1.00  0.00    -0.550 OA
ENDBRANCH   6   7
ENDBRANCH   5   6
ENDBRANCH   4   5
ENDBRANCH   3   4
ENDBRANCH   2   3
ENDBRANCH   1   2
BRANCH   1  10
ATOM     10  C   UNL     1       5.972  11.790   4.178  1.00  0.00     0.000 C 
BRANCH  10  11
ATOM     11  C   UNL     1       6.632  12.973   4.910  1.00  0.00    -0.000 C 
BRANCH  11  12
ATOM     12  C   UNL     1       8.136  13.099   4.616  1.00  0.00    -0.000 C 
BRANCH  12  13
ATOM     13  C   UNL     1       8.900  11.785   4.891  1.00  0.00    -0.000 C 
BRANCH  13  14
ATOM     14  C   UNL     1       9.790  11.840   6.147  1.00  0.00    -0.000 C 
BRANCH  14  15
ATOM     15  C   UNL     1       9.041  11.671   7.483  1.00  0.00    -0.000 C 
BRANCH  15  16
ATOM     16  C   UNL     1       8.803  12.979   8.259  1.00  0.00    -0.003 C 
ATOM     17  C   UNL     1       7.611  12.899   9.212  1.00  0.00     0.004 C 
ENDBRANCH  15  16
ENDBRANCH  14  15
ENDBRANCH  13  14
ENDBRANCH  12  13
ENDBRANCH  11  12
ENDBRANCH  10  11
ENDBRANCH   1  10
TORSDOF 13
ENDMDL
MODEL 3
REMARK VINA RESULT:    -4.826      3.392      6.886
REMARK INTER + INTRA:          -9.792
REMARK INTER:                  -8.218
REMARK INTRA:                  -1.575
REMARK UNBOUND:                -1.299
REMARK SMILES CCCCCCCCCCCCCCC(=O)[O-]
REMARK SMILES IDX 9 1 10 2 11 3 12 4 13 5 14 6 15 7 16 8 17 9 8 10 7 11 6 12
REMARK SMILES IDX 5 13 4 14 3 15 2 16 1 17
REMARK H PARENT
REMARK Flexibility Score: inf
ROOT
ATOM      1  C   UNL     1       6.823  10.926   8.127  1.00  0.00     0.000 C 
ENDROOT
BRANCH   1   2
ATOM      2  C   UNL     1       6.367  12.364   8.431  1.00  0.00     0.000 C 
BRANCH   2   3
ATOM      3  C   UNL     1       4.898  12.431   8.882  1.00  0.00     0.000 C 
BRANCH   3   4
ATOM      4  C   UNL     1       4.163  11.092   8.692  1.00  0.00     0.000 C 
BRANCH   4   5
ATOM      5  C   UNL     1       2.898  10.985   9.558  1.00  0.00     0.006 C 
BRANCH   5   6
ATOM      6  C   UNL     1       1.612  11.244   8.764  1.00  0.00     0.053 C 
BRANCH   6   7
ATOM      7  C   UNL     1       0.878  12.421   9.327  1.00  0.00     0.041 C 
ATOM      8  O   UNL     1       1.408  13.125  10.227  1.00  0.00    -0.550 OA
ATOM      9  O   UNL     1      -0.369  12.769   8.825  1.00  0.00    -0.550 OA
ENDBRANCH   6   7
ENDBRANCH   5   6
ENDBRANCH   4   5
ENDBRANCH   3   4
ENDBRANCH   2   3
ENDBRANCH   1   2
BRANCH   1  10
ATOM     10  C   UNL     1       8.241  10.862   7.528  1.00  0.00     0.000 C 
BRANCH  10  11
ATOM     11  C   UNL     1       9.109  12.110   7.770  1.00  0.00    -0.000 C 
BRANCH  11  12
ATOM     12  C   UNL     1       9.644  12.732   6.471  1.00  0.00    -0.000 C 
BRANCH  12  13
ATOM     13  C   UNL     1       9.263  11.906   5.223  1.00  0.00    -0.000 C 
BRANCH  13  14
ATOM     14  C   UNL     1       8.328  12.651   4.250  1.00  0.00    -0.000 C 
BRANCH  14  15
ATOM     15  C   UNL     1       6.858  12.740   4.702  1.00  0.00    -0.000 C 
BRANCH  15  16
ATOM     16  C   UNL     1       5.930  11.674   4.092  1.00  0.00    -0.003 C 
ATOM     17  C   UNL     1       5.129  10.907   5.143  1.00  0.00     0.004 C 
ENDBRANCH  15  16
ENDBRANCH  14  15
ENDBRANCH  13  14
ENDBRANCH  12  13
ENDBRANCH  11  12
ENDBRANCH  10  11
ENDBRANCH   1  10
TORSDOF 13
ENDMDL
MODEL 4
REMARK VINA RESULT:    -4.808      1.861      2.859
REMARK INTER + INTRA:          -9.761
REMARK INTER:                  -8.645
REMARK INTRA:                  -1.116
REMARK UNBOUND:                -1.299
REMARK SMILES CCCCCCCCCCCCCCC(=O)[O-]
REMARK SMILES IDX 9 1 10 2 11 3 12 4 13 5 14 6 15 7 16 8 17 9 8 10 7 11 6 12
REMARK SMILES IDX 5 13 4 14 3 15 2 16 1 17
REMARK H PARENT
REMARK Flexibility Score: inf
ROOT
ATOM      1  C   UNL     1       6.224  11.738   4.443  1.00  0.00     0.000 C 
ENDROOT
BRANCH   1   2
ATOM      2  C   UNL     1       7.300  12.836   4.376  1.00  0.00     0.000 C 
BRANCH   2   3
ATOM      3  C   UNL     1       8.570  12.370   3.644  1.00  0.00     0.000 C 
BRANCH   3   4
ATOM      4  C   UNL     1       9.852  12.681   4.437  1.00  0.00     0.000 C 
BRANCH   4   5
ATOM      5  C   UNL     1      10.113  11.664   5.559  1.00  0.00     0.006 C 
BRANCH   5   6
ATOM      6  C   UNL     1      10.038  12.291   6.957  1.00  0.00     0.053 C 
BRANCH   6   7
ATOM      7  C   UNL     1       8.826  11.801   7.684  1.00  0.00     0.041 C 
ATOM      8  O   UNL     1       8.164  12.587   8.413  1.00  0.00    -0.550 OA
ATOM      9  O   UNL     1       8.397  10.490   7.519  1.00  0.00    -0.550 OA
ENDBRANCH   6   7
ENDBRANCH   5   6
ENDBRANCH   4   5
ENDBRANCH   3   4
ENDBRANCH   2   3
ENDBRANCH   1   2
BRANCH   1  10
ATOM     10  C   UNL     1       5.633  11.565   5.855  1.00  0.00     0.000 C 
BRANCH  10  11
ATOM     11  C   UNL     1       4.518  10.510   5.971  1.00  0.00    -0.000 C 
BRANCH  11  12
ATOM     12  C   UNL     1       4.455   9.853   7.359  1.00  0.00    -0.000 C 
BRANCH  12  13
ATOM     13  C   UNL     1       5.025  10.764   8.467  1.00  0.00    -0.000 C 
BRANCH  13  14
ATOM     14  C   UNL     1       4.033  11.039   9.613  1.00  0.00    -0.000 C 
BRANCH  14  15
ATOM     15  C   UNL     1       2.898  12.021   9.269  1.00  0.00    -0.000 C 
BRANCH  15  16
ATOM     16  C   UNL     1       1.485  11.527   9.632  1.00  0.00    -0.003 C 
ATOM     17  C   UNL     1       0.396  12.551   9.318  1.00  0.00     0.004 C 
ENDBRANCH  15  16
ENDBRANCH  14  15
ENDBRANCH  13  14
ENDBRANCH  12  13
ENDBRANCH  11  12
ENDBRANCH  10  11
ENDBRANCH   1  10
TORSDOF 13
ENDMDL
MODEL 5
REMARK VINA RESULT:    -4.655      1.832      3.518
REMARK INTER + INTRA:          -9.490
REMARK INTER:                  -8.252
REMARK INTRA:                  -1.238
REMARK UNBOUND:                -1.299
REMARK SMILES CCCCCCCCCCCCCCC(=O)[O-]
REMARK SMILES IDX 9 1 10 2 11 3 12 4 13 5 14 6 15 7 16 8 17 9 8 10 7 11 6 12
REMARK SMILES IDX 5 13 4 14 3 15 2 16 1 17
REMARK H PARENT
REMARK Flexibility Score: inf
ROOT
ATOM      1  C   UNL     1       9.648  12.597   7.154  1.00  0.00     0.000 C 
ENDROOT
BRANCH   1   2
ATOM      2  C   UNL     1       9.724  11.666   5.932  1.00  0.00     0.000 C 
BRANCH   2   3
ATOM      3  C   UNL     1       9.766  12.442   4.605  1.00  0.00     0.000 C 
BRANCH   3   4
ATOM      4  C   UNL     1       8.459  12.306   3.803  1.00  0.00     0.000 C 
BRANCH   4   5
ATOM      5  C   UNL     1       7.214  12.630   4.644  1.00  0.00     0.006 C 
BRANCH   5   6
ATOM      6  C   UNL     1       5.993  11.793   4.243  1.00  0.00     0.053 C 
BRANCH   6   7
ATOM      7  C   UNL     1       5.595  10.882   5.361  1.00  0.00     0.041 C 
ATOM      8  O   UNL     1       4.377  10.659   5.594  1.00  0.00    -0.550 OA
ATOM      9  O   UNL     1       6.569  10.240   6.116  1.00  0.00    -0.550 OA
ENDBRANCH   6   7
ENDBRANCH   5   6
ENDBRANCH   4   5
ENDBRANCH   3   4
ENDBRANCH   2   3
ENDBRANCH   1   2
BRANCH   1  10
ATOM     10  C   UNL     1       8.698  12.072   8.248  1.00  0.00     0.000 C 
BRANCH  10  11
ATOM     11  C   UNL     1       7.714  13.112   8.813  1.00  0.00    -0.000 C 
BRANCH  11  12
ATOM     12  C   UNL     1       6.324  13.041   8.160  1.00  0.00    -0.000 C 
BRANCH  12  13
ATOM     13  C   UNL     1       5.220  12.658   9.169  1.00  0.00    -0.000 C 
BRANCH  13  14
ATOM     14  C   UNL     1       4.783  11.183   9.077  1.00  0.00    -0.000 C 
BRANCH  14  15
ATOM     15  C   UNL     1       3.308  10.918   9.436  1.00  0.00    -0.000 C 
BRANCH  15  16
ATOM     16  C   UNL     1       2.381  12.139   9.293  1.00  0.00    -0.003 C 
ATOM     17  C   UNL     1       1.046  11.962  10.017  1.00  0.00     0.004 C 
ENDBRANCH  15  16
ENDBRANCH  14  15
ENDBRANCH  13  14
ENDBRANCH  12  13
ENDBRANCH  11  12
ENDBRANCH  10  11
ENDBRANCH   1  10
TORSDOF 13
ENDMDL
MODEL 6
REMARK VINA RESULT:    -4.650      3.274      7.103
REMARK INTER + INTRA:          -9.483
REMARK INTER:                  -8.061
REMARK INTRA:                  -1.423
REMARK UNBOUND:                -1.299
REMARK SMILES CCCCCCCCCCCCCCC(=O)[O-]
REMARK SMILES IDX 9 1 10 2 11 3 12 4 13 5 14 6 15 7 16 8 17 9 8 10 7 11 6 12
REMARK SMILES IDX 5 13 4 14 3 15 2 16 1 17
REMARK H PARENT
REMARK Flexibility Score: inf
ROOT
ATOM      1  C   UNL     1       5.410  10.886   5.500  1.00  0.00     0.000 C 
ENDROOT
BRANCH   1   2
ATOM      2  C   UNL     1       4.312  10.690   6.559  1.00  0.00     0.000 C 
BRANCH   2   3
ATOM      3  C   UNL     1       4.543   9.438   7.421  1.00  0.00     0.000 C 
BRANCH   3   4
ATOM      4  C   UNL     1       4.846   9.784   8.890  1.00  0.00     0.000 C 
BRANCH   4   5
ATOM      5  C   UNL     1       4.024  10.979   9.397  1.00  0.00     0.006 C 
BRANCH   5   6
ATOM      6  C   UNL     1       2.626  10.575   9.883  1.00  0.00     0.053 C 
BRANCH   6   7
ATOM      7  C   UNL     1       1.603  11.555   9.401  1.00  0.00     0.041 C 
ATOM      8  O   UNL     1       0.804  11.235   8.482  1.00  0.00    -0.550 OA
ATOM      9  O   UNL     1       1.499  12.803  10.001  1.00  0.00    -0.550 OA
ENDBRANCH   6   7
ENDBRANCH   5   6
ENDBRANCH   4   5
ENDBRANCH   3   4
ENDBRANCH   2   3
ENDBRANCH   1   2
BRANCH   1  10
ATOM     10  C   UNL     1       6.137  12.237   5.633  1.00  0.00     0.000 C 
BRANCH  10  11
ATOM     11  C   UNL     1       6.472  12.659   7.076  1.00  0.00    -0.000 C 
BRANCH  11  12
ATOM     12  C   UNL     1       7.900  12.278   7.498  1.00  0.00    -0.000 C 
BRANCH  12  13
ATOM     13  C   UNL     1       8.293  10.861   7.025  1.00  0.00    -0.000 C 
BRANCH  13  14
ATOM     14  C   UNL     1       9.247  10.856   5.815  1.00  0.00    -0.000 C 
BRANCH  14  15
ATOM     15  C   UNL     1      10.054  12.153   5.618  1.00  0.00    -0.000 C 
BRANCH  15  16
ATOM     16  C   UNL     1      10.118  12.659   4.166  1.00  0.00    -0.003 C 
ATOM     17  C   UNL     1       8.876  12.298   3.353  1.00  0.00     0.004 C 
ENDBRANCH  15  16
ENDBRANCH  14  15
ENDBRANCH  13  14
ENDBRANCH  12  13
ENDBRANCH  11  12
ENDBRANCH  10  11
ENDBRANCH   1  10
TORSDOF 13
ENDMDL
MODEL 7
REMARK VINA RESULT:    -4.636      1.404      2.028
REMARK INTER + INTRA:          -9.458
REMARK INTER:                  -8.155
REMARK INTRA:                  -1.303
REMARK UNBOUND:                -1.299
REMARK SMILES CCCCCCCCCCCCCCC(=O)[O-]
REMARK SMILES IDX 9 1 10 2 11 3 12 4 13 5 14 6 15 7 16 8 17 9 8 10 7 11 6 12
REMARK SMILES IDX 5 13 4 14 3 15 2 16 1 17
REMARK H PARENT
REMARK Flexibility Score: inf
ROOT
ATOM      1  C   UNL     1       7.342  11.960   8.584  1.00  0.00     0.000 C 
ENDROOT
BRANCH   1   2
ATOM      2  C   UNL     1       8.726  12.620   8.452  1.00  0.00     0.000 C 
BRANCH   2   3
ATOM      3  C   UNL     1       9.532  12.063   7.267  1.00  0.00     0.000 C 
BRANCH   3   4
ATOM      4  C   UNL     1       9.689  13.088   6.129  1.00  0.00     0.000 C 
BRANCH   4   5
ATOM      5  C   UNL     1       8.894  12.701   4.872  1.00  0.00     0.006 C 
BRANCH   5   6
ATOM      6  C   UNL     1       7.386  12.938   5.028  1.00  0.00     0.053 C 
BRANCH   6   7
ATOM      7  C   UNL     1       6.632  11.663   4.817  1.00  0.00     0.041 C 
ATOM      8  O   UNL     1       5.619  11.642   4.069  1.00  0.00    -0.550 OA
ATOM      9  O   UNL     1       7.077  10.486   5.407  1.00  0.00    -0.550 OA
ENDBRANCH   6   7
ENDBRANCH   5   6
ENDBRANCH   4   5
ENDBRANCH   3   4
ENDBRANCH   2   3
ENDBRANCH   1   2
BRANCH   1  10
ATOM     10  C   UNL     1       6.275  12.916   9.150  1.00  0.00     0.000 C 
BRANCH  10  11
ATOM     11  C   UNL     1       4.826  12.593   8.740  1.00  0.00    -0.000 C 
BRANCH  11  12
ATOM     12  C   UNL     1       4.712  11.318   7.889  1.00  0.00    -0.000 C 
BRANCH  12  13
ATOM     13  C   UNL     1       3.623  10.357   8.415  1.00  0.00    -0.000 C 
BRANCH  13  14
ATOM     14  C   UNL     1       3.054  10.761   9.788  1.00  0.00    -0.000 C 
BRANCH  14  15
ATOM     15  C   UNL     1       1.539  11.042   9.807  1.00  0.00    -0.000 C 
BRANCH  15  16
ATOM     16  C   UNL     1       1.161  12.527   9.948  1.00  0.00    -0.003 C 
ATOM     17  C   UNL     1      -0.016  12.930   9.060  1.00  0.00     0.004 C 
ENDBRANCH  15  16
ENDBRANCH  14  15
ENDBRANCH  13  14
ENDBRANCH  12  13
ENDBRANCH  11  12
ENDBRANCH  10  11
ENDBRANCH   1  10
TORSDOF 13
ENDMDL
MODEL 8
REMARK VINA RESULT:    -4.536      3.210      6.047
REMARK INTER + INTRA:          -9.281
REMARK INTER:                  -7.376
REMARK INTRA:                  -1.905
REMARK UNBOUND:                -1.299
REMARK SMILES CCCCCCCCCCCCCCC(=O)[O-]
REMARK SMILES IDX 9 1 10 2 11 3 12 4 13 5 14 6 15 7 16 8 17 9 8 10 7 11 6 12
REMARK SMILES IDX 5 13 4 14 3 15 2 16 1 17
REMARK H PARENT
REMARK Flexibility Score: inf
ROOT
ATOM      1  C   UNL     1       8.407  11.094   7.382  1.00  0.00     0.000 C 
ENDROOT
BRANCH   1   2
ATOM      2  C   UNL     1       7.366  11.464   8.452  1.00  0.00     0.000 C 
BRANCH   2   3
ATOM      3  C   UNL     1       6.954  12.944   8.383  1.00  0.00     0.000 C 
BRANCH   3   4
ATOM      4  C   UNL     1       5.434  13.124   8.218  1.00  0.00     0.000 C 
BRANCH   4   5
ATOM      5  C   UNL     1       4.633  12.423   9.327  1.00  0.00     0.006 C 
BRANCH   5   6
ATOM      6  C   UNL     1       3.122  12.662   9.209  1.00  0.00     0.053 C 
BRANCH   6   7
ATOM      7  C   UNL     1       2.380  11.367   9.311  1.00  0.00     0.041 C 
ATOM      8  O   UNL     1       1.223  11.260   8.824  1.00  0.00    -0.550 OA
ATOM      9  O   UNL     1       2.983  10.263   9.900  1.00  0.00    -0.550 OA
ENDBRANCH   6   7
ENDBRANCH   5   6
ENDBRANCH   4   5
ENDBRANCH   3   4
ENDBRANCH   2   3
ENDBRANCH   1   2
BRANCH   1  10
ATOM     10  C   UNL     1       9.026  12.327   6.696  1.00  0.00     0.000 C 
BRANCH  10  11
ATOM     11  C   UNL     1       9.287  12.173   5.187  1.00  0.00    -0.000 C 
BRANCH  11  12
ATOM     12  C   UNL     1       8.325  13.004   4.323  1.00  0.00    -0.000 C 
BRANCH  12  13
ATOM     13  C   UNL     1       6.875  12.964   4.852  1.00  0.00    -0.000 C 
BRANCH  13  14
ATOM     14  C   UNL     1       6.000  11.891   4.176  1.00  0.00    -0.000 C 
BRANCH  14  15
ATOM     15  C   UNL     1       5.790  10.608   5.002  1.00  0.00    -0.000 C 
BRANCH  15  16
ATOM     16  C   UNL     1       4.640  10.678   6.022  1.00  0.00    -0.003 C 
ATOM     17  C   UNL     1       4.706   9.572   7.074  1.00  0.00     0.004 C 
ENDBRANCH  15  16
ENDBRANCH  14  15
ENDBRANCH  13  14
ENDBRANCH  12  13
ENDBRANCH  11  12
ENDBRANCH  10  11
ENDBRANCH   1  10
TORSDOF 13
ENDMDL
