MODEL 1
REMARK VINA RESULT:    39.237      0.000      0.000
REMARK INTER + INTRA:          47.296
REMARK INTER:                  47.265
REMARK INTRA:                   0.031
REMARK UNBOUND:                 0.031
REMARK SMILES O=c1c(O)c(-c2ccc(O)c(O)c2)oc2cc(O)cc(O)c12
REMARK SMILES IDX 5 1 3 2 2 3 1 4 22 5 20 6 19 7 17 8 16 9 15 10 14 11 6 12
REMARK SMILES IDX 7 13 8 14 9 15 13 16 11 17 10 18 12 20 4 22 21 24 18 26
REMARK H PARENT 10 19 12 21 4 23 21 25 18 27
REMARK Flexibility Score: inf
ROOT
ATOM      1  C   UNL     1      10.355  61.906  23.028  1.00  0.00     0.180 A 
ATOM      2  C   UNL     1      11.429  62.736  22.663  1.00  0.00     0.208 A 
ATOM      3  C   UNL     1      11.491  64.037  23.188  1.00  0.00     0.238 A 
ATOM      4  O   UNL     1      12.483  64.757  22.900  1.00  0.00    -0.285 OA
ATOM      5  C   UNL     1      10.472  64.497  24.056  1.00  0.00     0.111 A 
ATOM      6  C   UNL     1      10.413  65.809  24.613  1.00  0.00     0.134 A 
ATOM      7  C   UNL     1       9.430  66.112  25.564  1.00  0.00     0.093 A 
ATOM      8  C   UNL     1       8.464  65.170  25.926  1.00  0.00     0.123 A 
ATOM      9  C   UNL     1       8.478  63.905  25.343  1.00  0.00     0.094 A 
ATOM     10  C   UNL     1       9.468  63.562  24.419  1.00  0.00     0.146 A 
ATOM     11  O   UNL     1       9.450  62.342  23.895  1.00  0.00    -0.452 OA
ENDROOT
BRANCH   1  12
ATOM     12  C   UNL     1      10.207  60.531  22.497  1.00  0.00     0.025 A 
ATOM     13  C   UNL     1      11.279  59.621  22.512  1.00  0.00     0.016 A 
ATOM     14  C   UNL     1      11.123  58.336  21.984  1.00  0.00     0.051 A 
ATOM     15  C   UNL     1       9.900  57.947  21.423  1.00  0.00     0.157 A 
ATOM     16  C   UNL     1       8.990  60.141  21.914  1.00  0.00     0.062 A 
ATOM     17  C   UNL     1       8.832  58.853  21.384  1.00  0.00     0.158 A 
BRANCH  15  18
ATOM     18  O   UNL     1       9.740  56.666  20.897  1.00  0.00    -0.504 OA
ATOM     19  H   UNL     1       9.515  56.520  19.920  1.00  0.00     0.293 HD
ENDBRANCH  15  18
BRANCH  17  20
ATOM     20  O   UNL     1       7.619  58.466  20.818  1.00  0.00    -0.504 OA
ATOM     21  H   UNL     1       7.573  58.045  19.898  1.00  0.00     0.293 HD
ENDBRANCH  17  20
ENDBRANCH   1  12
BRANCH   2  22
ATOM     22  O   UNL     1      12.436  62.255  21.821  1.00  0.00    -0.502 OA
ATOM     23  H   UNL     1      12.352  61.379  21.319  1.00  0.00     0.293 HD
ENDBRANCH   2  22
BRANCH   6  24
ATOM     24  O   UNL     1      11.272  66.851  24.250  1.00  0.00    -0.507 OA
ATOM     25  H   UNL     1      11.154  67.437  23.438  1.00  0.00     0.293 HD
ENDBRANCH   6  24
BRANCH   8  26
ATOM     26  O   UNL     1       7.480  65.485  26.861  1.00  0.00    -0.508 OA
ATOM     27  H   UNL     1       7.172  66.439  27.006  1.00  0.00     0.293 HD
ENDBRANCH   8  26
TORSDOF 6
ENDMDL
MODEL 2
REMARK VINA RESULT:    39.401      1.408      2.013
REMARK INTER + INTRA:          47.493
REMARK INTER:                  47.693
REMARK INTRA:                  -0.200
REMARK UNBOUND:                 0.031
REMARK SMILES O=c1c(O)c(-c2ccc(O)c(O)c2)oc2cc(O)cc(O)c12
REMARK SMILES IDX 5 1 3 2 2 3 1 4 22 5 20 6 19 7 17 8 16 9 15 10 14 11 6 12
REMARK SMILES IDX 7 13 8 14 9 15 13 16 11 17 10 18 12 20 4 22 21 24 18 26
REMARK H PARENT 10 19 12 21 4 23 21 25 18 27
REMARK Flexibility Score: inf
ROOT
ATOM      1  C   UNL     1       9.810  60.629  22.490  1.00  0.00     0.180 A 
ATOM      2  C   UNL     1      11.172  60.849  22.221  1.00  0.00     0.208 A 
ATOM      3  C   UNL     1      11.799  61.981  22.765  1.00  0.00     0.238 A 
ATOM      4  O   UNL     1      13.031  62.144  22.565  1.00  0.00    -0.285 OA
ATOM      5  C   UNL     1      11.053  62.888  23.556  1.00  0.00     0.111 A 
ATOM      6  C   UNL     1      11.577  64.088  24.124  1.00  0.00     0.134 A 
ATOM      7  C   UNL     1      10.783  64.842  24.998  1.00  0.00     0.093 A 
ATOM      8  C   UNL     1       9.464  64.474  25.272  1.00  0.00     0.123 A 
ATOM      9  C   UNL     1       8.925  63.335  24.675  1.00  0.00     0.094 A 
ATOM     10  C   UNL     1       9.703  62.544  23.828  1.00  0.00     0.146 A 
ATOM     11  O   UNL     1       9.153  61.462  23.289  1.00  0.00    -0.452 OA
ENDROOT
BRANCH   1  12
ATOM     12  C   UNL     1       9.073  59.472  21.932  1.00  0.00     0.025 A 
ATOM     13  C   UNL     1       9.346  58.159  22.352  1.00  0.00     0.016 A 
ATOM     14  C   UNL     1       8.655  57.080  21.795  1.00  0.00     0.051 A 
ATOM     15  C   UNL     1       7.692  57.296  20.802  1.00  0.00     0.157 A 
ATOM     16  C   UNL     1       8.120  59.680  20.920  1.00  0.00     0.062 A 
ATOM     17  C   UNL     1       7.426  58.598  20.361  1.00  0.00     0.158 A 
BRANCH  15  18
ATOM     18  O   UNL     1       6.998  56.222  20.244  1.00  0.00    -0.504 OA
ATOM     19  H   UNL     1       6.190  55.819  20.702  1.00  0.00     0.293 HD
ENDBRANCH  15  18
BRANCH  17  20
ATOM     20  O   UNL     1       6.472  58.810  19.367  1.00  0.00    -0.504 OA
ATOM     21  H   UNL     1       5.735  58.139  19.188  1.00  0.00     0.293 HD
ENDBRANCH  17  20
ENDBRANCH   1  12
BRANCH   2  22
ATOM     22  O   UNL     1      11.894  59.930  21.454  1.00  0.00    -0.502 OA
ATOM     23  H   UNL     1      11.727  59.798  20.463  1.00  0.00     0.293 HD
ENDBRANCH   2  22
BRANCH   6  24
ATOM     24  O   UNL     1      12.849  64.595  23.843  1.00  0.00    -0.507 OA
ATOM     25  H   UNL     1      13.035  65.367  23.221  1.00  0.00     0.293 HD
ENDBRANCH   6  24
BRANCH   8  26
ATOM     26  O   UNL     1       8.676  65.238  26.130  1.00  0.00    -0.508 OA
ATOM     27  H   UNL     1       7.729  65.503  25.886  1.00  0.00     0.293 HD
ENDBRANCH   8  26
TORSDOF 6
ENDMDL
