MODEL 1
REMARK VINA RESULT:    -4.943      0.000      0.000
REMARK INTER + INTRA:          -6.063
REMARK INTER:                  -5.954
REMARK INTRA:                  -0.109
REMARK UNBOUND:                -0.109
REMARK SMILES NC(=O)C[C@@H]([NH3+])C(=O)[O-]
REMARK SMILES IDX 4 1 5 2 6 3 7 7 8 8 9 9 2 10 3 11 1 12
REMARK H PARENT 6 4 6 5 6 6 1 13 1 14
REMARK Flexibility Score: inf
ROOT
ATOM      1  C   UNL     1      23.973   4.965  15.004  1.00  0.00     0.171 C 
ENDROOT
BRANCH   1   2
ATOM      2  C   UNL     1      24.283   6.387  14.492  1.00  0.00     0.237 C 
BRANCH   2   3
ATOM      3  N   UNL     1      24.325   6.434  13.025  1.00  0.00    -0.350 N 
ATOM      4  H   UNL     1      23.456   6.019  12.614  1.00  0.00     0.345 HD
ATOM      5  H   UNL     1      25.156   5.906  12.673  1.00  0.00     0.345 HD
ATOM      6  H   UNL     1      24.415   7.425  12.703  1.00  0.00     0.345 HD
ENDBRANCH   2   3
BRANCH   2   7
ATOM      7  C   UNL     1      23.253   7.353  15.015  1.00  0.00     0.100 C 
ATOM      8  O   UNL     1      23.516   8.581  15.103  1.00  0.00    -0.544 OA
ATOM      9  O   UNL     1      21.996   6.893  15.386  1.00  0.00    -0.544 OA
ENDBRANCH   2   7
ENDBRANCH   1   2
BRANCH   1  10
ATOM     10  C   UNL     1      24.864   4.580  16.148  1.00  0.00     0.223 C 
ATOM     11  O   UNL     1      26.078   4.920  16.138  1.00  0.00    -0.275 OA
ATOM     12  N   UNL     1      24.357   3.802  17.233  1.00  0.00    -0.369 N 
ATOM     13  H   UNL     1      24.983   3.527  18.021  1.00  0.00     0.159 HD
ATOM     14  H   UNL     1      23.361   3.492  17.247  1.00  0.00     0.159 HD
ENDBRANCH   1  10
TORSDOF 4
ENDMDL
MODEL 2
REMARK VINA RESULT:    -4.935      0.074      1.080
REMARK INTER + INTRA:          -6.054
REMARK INTER:                  -5.947
REMARK INTRA:                  -0.107
REMARK UNBOUND:                -0.109
REMARK SMILES NC(=O)C[C@@H]([NH3+])C(=O)[O-]
REMARK SMILES IDX 4 1 5 2 6 3 7 7 8 8 9 9 2 10 3 11 1 12
REMARK H PARENT 6 4 6 5 6 6 1 13 1 14
REMARK Flexibility Score: inf
ROOT
ATOM      1  C   UNL     1      23.973   4.959  15.048  1.00  0.00     0.171 C 
ENDROOT
BRANCH   1   2
ATOM      2  C   UNL     1      24.266   6.392  14.559  1.00  0.00     0.237 C 
BRANCH   2   3
ATOM      3  N   UNL     1      24.375   6.449  13.095  1.00  0.00    -0.350 N 
ATOM      4  H   UNL     1      25.021   5.706  12.741  1.00  0.00     0.345 HD
ATOM      5  H   UNL     1      24.733   7.386  12.798  1.00  0.00     0.345 HD
ATOM      6  H   UNL     1      23.432   6.316  12.663  1.00  0.00     0.345 HD
ENDBRANCH   2   3
BRANCH   2   7
ATOM      7  C   UNL     1      23.186   7.326  15.038  1.00  0.00     0.100 C 
ATOM      8  O   UNL     1      22.056   6.879  15.371  1.00  0.00    -0.544 OA
ATOM      9  O   UNL     1      23.438   8.688  15.132  1.00  0.00    -0.544 OA
ENDBRANCH   2   7
ENDBRANCH   1   2
BRANCH   1  10
ATOM     10  C   UNL     1      24.868   4.567  16.187  1.00  0.00     0.223 C 
ATOM     11  O   UNL     1      26.087   4.886  16.162  1.00  0.00    -0.275 OA
ATOM     12  N   UNL     1      24.359   3.805  17.282  1.00  0.00    -0.369 N 
ATOM     13  H   UNL     1      24.988   3.524  18.066  1.00  0.00     0.159 HD
ATOM     14  H   UNL     1      23.357   3.512  17.307  1.00  0.00     0.159 HD
ENDBRANCH   1  10
TORSDOF 4
ENDMDL
MODEL 3
REMARK VINA RESULT:    -4.784      1.983      3.699
REMARK INTER + INTRA:          -5.872
REMARK INTER:                  -5.653
REMARK INTRA:                  -0.219
REMARK UNBOUND:                -0.109
REMARK SMILES NC(=O)C[C@@H]([NH3+])C(=O)[O-]
REMARK SMILES IDX 4 1 5 2 6 3 7 7 8 8 9 9 2 10 3 11 1 12
REMARK H PARENT 6 4 6 5 6 6 1 13 1 14
REMARK Flexibility Score: inf
ROOT
ATOM      1  C   UNL     1      24.093   7.785  14.966  1.00  0.00     0.171 C 
ENDROOT
BRANCH   1   2
ATOM      2  C   UNL     1      23.560   6.493  14.314  1.00  0.00     0.237 C 
BRANCH   2   3
ATOM      3  N   UNL     1      24.454   6.020  13.248  1.00  0.00    -0.350 N 
ATOM      4  H   UNL     1      25.354   5.664  13.648  1.00  0.00     0.345 HD
ATOM      5  H   UNL     1      24.660   6.799  12.581  1.00  0.00     0.345 HD
ATOM      6  H   UNL     1      23.992   5.252  12.710  1.00  0.00     0.345 HD
ENDBRANCH   2   3
BRANCH   2   7
ATOM      7  C   UNL     1      23.388   5.425  15.361  1.00  0.00     0.100 C 
ATOM      8  O   UNL     1      22.368   5.413  16.099  1.00  0.00    -0.544 OA
ATOM      9  O   UNL     1      24.350   4.434  15.505  1.00  0.00    -0.544 OA
ENDBRANCH   2   7
ENDBRANCH   1   2
BRANCH   1  10
ATOM     10  C   UNL     1      22.980   8.727  15.322  1.00  0.00     0.223 C 
ATOM     11  O   UNL     1      23.246   9.833  15.864  1.00  0.00    -0.275 OA
ATOM     12  N   UNL     1      21.619   8.366  15.085  1.00  0.00    -0.369 N 
ATOM     13  H   UNL     1      20.848   9.019  15.344  1.00  0.00     0.159 HD
ATOM     14  H   UNL     1      21.378   7.444  14.658  1.00  0.00     0.159 HD
ENDBRANCH   1  10
TORSDOF 4
ENDMDL
MODEL 4
REMARK VINA RESULT:    -4.752      1.796      3.927
REMARK INTER + INTRA:          -5.833
REMARK INTER:                  -5.738
REMARK INTRA:                  -0.095
REMARK UNBOUND:                -0.109
REMARK SMILES NC(=O)C[C@@H]([NH3+])C(=O)[O-]
REMARK SMILES IDX 4 1 5 2 6 3 7 7 8 8 9 9 2 10 3 11 1 12
REMARK H PARENT 6 4 6 5 6 6 1 13 1 14
REMARK Flexibility Score: inf
ROOT
ATOM      1  C   UNL     1      24.438   7.531  14.750  1.00  0.00     0.171 C 
ENDROOT
BRANCH   1   2
ATOM      2  C   UNL     1      24.068   6.074  14.410  1.00  0.00     0.237 C 
BRANCH   2   3
ATOM      3  N   UNL     1      24.352   5.760  13.003  1.00  0.00    -0.350 N 
ATOM      4  H   UNL     1      23.567   5.214  12.577  1.00  0.00     0.345 HD
ATOM      5  H   UNL     1      25.235   5.204  12.931  1.00  0.00     0.345 HD
ATOM      6  H   UNL     1      24.486   6.644  12.462  1.00  0.00     0.345 HD
ENDBRANCH   2   3
BRANCH   2   7
ATOM      7  C   UNL     1      24.817   5.133  15.315  1.00  0.00     0.100 C 
ATOM      8  O   UNL     1      24.331   4.009  15.612  1.00  0.00    -0.544 OA
ATOM      9  O   UNL     1      26.062   5.493  15.814  1.00  0.00    -0.544 OA
ENDBRANCH   2   7
ENDBRANCH   1   2
BRANCH   1  10
ATOM     10  C   UNL     1      23.227   8.346  15.100  1.00  0.00     0.223 C 
ATOM     11  O   UNL     1      22.123   7.771  15.298  1.00  0.00    -0.275 OA
ATOM     12  N   UNL     1      23.307   9.769  15.176  1.00  0.00    -0.369 N 
ATOM     13  H   UNL     1      22.459  10.332  15.408  1.00  0.00     0.159 HD
ATOM     14  H   UNL     1      24.207  10.264  14.992  1.00  0.00     0.159 HD
ENDBRANCH   1  10
TORSDOF 4
ENDMDL
MODEL 5
REMARK VINA RESULT:    -4.434      2.359      3.941
REMARK INTER + INTRA:          -5.450
REMARK INTER:                  -5.318
REMARK INTRA:                  -0.132
REMARK UNBOUND:                -0.109
REMARK SMILES NC(=O)C[C@@H]([NH3+])C(=O)[O-]
REMARK SMILES IDX 4 1 5 2 6 3 7 7 8 8 9 9 2 10 3 11 1 12
REMARK H PARENT 6 4 6 5 6 6 1 13 1 14
REMARK Flexibility Score: inf
ROOT
ATOM      1  C   UNL     1      22.422   8.035  14.875  1.00  0.00     0.171 C 
ENDROOT
BRANCH   1   2
ATOM      2  C   UNL     1      22.497   6.685  15.617  1.00  0.00     0.237 C 
BRANCH   2   3
ATOM      3  N   UNL     1      21.178   6.043  15.700  1.00  0.00    -0.350 N 
ATOM      4  H   UNL     1      20.517   6.624  16.269  1.00  0.00     0.345 HD
ATOM      5  H   UNL     1      21.267   5.097  16.137  1.00  0.00     0.345 HD
ATOM      6  H   UNL     1      20.783   5.917  14.740  1.00  0.00     0.345 HD
ENDBRANCH   2   3
BRANCH   2   7
ATOM      7  C   UNL     1      23.476   5.776  14.924  1.00  0.00     0.100 C 
ATOM      8  O   UNL     1      23.919   6.065  13.781  1.00  0.00    -0.544 OA
ATOM      9  O   UNL     1      23.911   4.616  15.553  1.00  0.00    -0.544 OA
ENDBRANCH   2   7
ENDBRANCH   1   2
BRANCH   1  10
ATOM     10  C   UNL     1      23.495   8.980  15.331  1.00  0.00     0.223 C 
ATOM     11  O   UNL     1      23.206   9.920  16.120  1.00  0.00    -0.275 OA
ATOM     12  N   UNL     1      24.833   8.846  14.853  1.00  0.00    -0.369 N 
ATOM     13  H   UNL     1      25.573   9.512  15.164  1.00  0.00     0.159 HD
ATOM     14  H   UNL     1      25.086   8.088  14.181  1.00  0.00     0.159 HD
ENDBRANCH   1  10
TORSDOF 4
ENDMDL
MODEL 6
REMARK VINA RESULT:    -4.360      2.177      2.673
REMARK INTER + INTRA:          -5.360
REMARK INTER:                  -5.244
REMARK INTRA:                  -0.117
REMARK UNBOUND:                -0.109
REMARK SMILES NC(=O)C[C@@H]([NH3+])C(=O)[O-]
REMARK SMILES IDX 4 1 5 2 6 3 7 7 8 8 9 9 2 10 3 11 1 12
REMARK H PARENT 6 4 6 5 6 6 1 13 1 14
REMARK Flexibility Score: inf
ROOT
ATOM      1  C   UNL     1      23.512   6.941  14.311  1.00  0.00     0.171 C 
ENDROOT
BRANCH   1   2
ATOM      2  C   UNL     1      24.045   8.042  15.251  1.00  0.00     0.237 C 
BRANCH   2   3
ATOM      3  N   UNL     1      25.297   8.621  14.745  1.00  0.00    -0.350 N 
ATOM      4  H   UNL     1      25.195   8.913  13.745  1.00  0.00     0.345 HD
ATOM      5  H   UNL     1      26.072   7.923  14.823  1.00  0.00     0.345 HD
ATOM      6  H   UNL     1      25.560   9.455  15.319  1.00  0.00     0.345 HD
ENDBRANCH   2   3
BRANCH   2   7
ATOM      7  C   UNL     1      23.004   9.117  15.419  1.00  0.00     0.100 C 
ATOM      8  O   UNL     1      21.851   8.972  14.933  1.00  0.00    -0.544 OA
ATOM      9  O   UNL     1      23.308  10.271  16.129  1.00  0.00    -0.544 OA
ENDBRANCH   2   7
ENDBRANCH   1   2
BRANCH   1  10
ATOM     10  C   UNL     1      23.128   5.703  15.067  1.00  0.00     0.223 C 
ATOM     11  O   UNL     1      22.150   5.733  15.860  1.00  0.00    -0.275 OA
ATOM     12  N   UNL     1      23.885   4.501  14.923  1.00  0.00    -0.369 N 
ATOM     13  H   UNL     1      23.621   3.645  15.459  1.00  0.00     0.159 HD
ATOM     14  H   UNL     1      24.712   4.464  14.288  1.00  0.00     0.159 HD
ENDBRANCH   1  10
TORSDOF 4
ENDMDL
MODEL 7
REMARK VINA RESULT:    -4.237      1.540      3.920
REMARK INTER + INTRA:          -5.213
REMARK INTER:                  -5.120
REMARK INTRA:                  -0.093
REMARK UNBOUND:                -0.109
REMARK SMILES NC(=O)C[C@@H]([NH3+])C(=O)[O-]
REMARK SMILES IDX 4 1 5 2 6 3 7 7 8 8 9 9 2 10 3 11 1 12
REMARK H PARENT 6 4 6 5 6 6 1 13 1 14
REMARK Flexibility Score: inf
ROOT
ATOM      1  C   UNL     1      24.398   5.700  14.727  1.00  0.00     0.171 C 
ENDROOT
BRANCH   1   2
ATOM      2  C   UNL     1      24.596   4.689  15.875  1.00  0.00     0.237 C 
BRANCH   2   3
ATOM      3  N   UNL     1      24.452   3.305  15.404  1.00  0.00    -0.350 N 
ATOM      4  H   UNL     1      24.637   2.627  16.179  1.00  0.00     0.345 HD
ATOM      5  H   UNL     1      25.119   3.122  14.620  1.00  0.00     0.345 HD
ATOM      6  H   UNL     1      23.483   3.152  15.041  1.00  0.00     0.345 HD
ENDBRANCH   2   3
BRANCH   2   7
ATOM      7  C   UNL     1      25.949   4.888  16.503  1.00  0.00     0.100 C 
ATOM      8  O   UNL     1      26.871   5.463  15.866  1.00  0.00    -0.544 OA
ATOM      9  O   UNL     1      26.183   4.452  17.801  1.00  0.00    -0.544 OA
ENDBRANCH   2   7
ENDBRANCH   1   2
BRANCH   1  10
ATOM     10  C   UNL     1      23.240   6.618  14.988  1.00  0.00     0.223 C 
ATOM     11  O   UNL     1      22.161   6.150  15.440  1.00  0.00    -0.275 OA
ATOM     12  N   UNL     1      23.337   8.012  14.695  1.00  0.00    -0.369 N 
ATOM     13  H   UNL     1      22.526   8.644  14.868  1.00  0.00     0.159 HD
ATOM     14  H   UNL     1      24.216   8.413  14.299  1.00  0.00     0.159 HD
ENDBRANCH   1  10
TORSDOF 4
ENDMDL
MODEL 8
REMARK VINA RESULT:    -4.208      1.720      3.827
REMARK INTER + INTRA:          -5.177
REMARK INTER:                  -4.888
REMARK INTRA:                  -0.290
REMARK UNBOUND:                -0.109
REMARK SMILES NC(=O)C[C@@H]([NH3+])C(=O)[O-]
REMARK SMILES IDX 4 1 5 2 6 3 7 7 8 8 9 9 2 10 3 11 1 12
REMARK H PARENT 6 4 6 5 6 6 1 13 1 14
REMARK Flexibility Score: inf
ROOT
ATOM      1  C   UNL     1      23.841   5.136  15.151  1.00  0.00     0.171 C 
ENDROOT
BRANCH   1   2
ATOM      2  C   UNL     1      25.065   4.520  15.860  1.00  0.00     0.237 C 
BRANCH   2   3
ATOM      3  N   UNL     1      26.269   5.338  15.661  1.00  0.00    -0.350 N 
ATOM      4  H   UNL     1      27.101   4.893  16.117  1.00  0.00     0.345 HD
ATOM      5  H   UNL     1      26.126   6.292  16.066  1.00  0.00     0.345 HD
ATOM      6  H   UNL     1      26.459   5.449  14.639  1.00  0.00     0.345 HD
ENDBRANCH   2   3
BRANCH   2   7
ATOM      7  C   UNL     1      24.778   4.363  17.329  1.00  0.00     0.100 C 
ATOM      8  O   UNL     1      23.591   4.312  17.747  1.00  0.00    -0.544 OA
ATOM      9  O   UNL     1      25.827   4.255  18.233  1.00  0.00    -0.544 OA
ENDBRANCH   2   7
ENDBRANCH   1   2
BRANCH   1  10
ATOM     10  C   UNL     1      24.232   6.279  14.261  1.00  0.00     0.223 C 
ATOM     11  O   UNL     1      24.399   7.427  14.754  1.00  0.00    -0.275 OA
ATOM     12  N   UNL     1      24.381   6.086  12.854  1.00  0.00    -0.369 N 
ATOM     13  H   UNL     1      24.642   6.886  12.237  1.00  0.00     0.159 HD
ATOM     14  H   UNL     1      24.224   5.147  12.425  1.00  0.00     0.159 HD
ENDBRANCH   1  10
TORSDOF 4
ENDMDL
MODEL 9
REMARK VINA RESULT:    -4.200      1.836      1.991
REMARK INTER + INTRA:          -5.169
REMARK INTER:                  -5.060
REMARK INTRA:                  -0.109
REMARK UNBOUND:                -0.109
REMARK SMILES NC(=O)C[C@@H]([NH3+])C(=O)[O-]
REMARK SMILES IDX 4 1 5 2 6 3 7 7 8 8 9 9 2 10 3 11 1 12
REMARK H PARENT 6 4 6 5 6 6 1 13 1 14
REMARK Flexibility Score: inf
ROOT
ATOM      1  C   UNL     1      24.127   6.410  14.247  1.00  0.00     0.171 C 
ENDROOT
BRANCH   1   2
ATOM      2  C   UNL     1      23.614   7.515  15.193  1.00  0.00     0.237 C 
BRANCH   2   3
ATOM      3  N   UNL     1      24.064   8.845  14.760  1.00  0.00    -0.350 N 
ATOM      4  H   UNL     1      23.338   9.307  14.163  1.00  0.00     0.345 HD
ATOM      5  H   UNL     1      24.954   8.764  14.218  1.00  0.00     0.345 HD
ATOM      6  H   UNL     1      24.252   9.446  15.595  1.00  0.00     0.345 HD
ENDBRANCH   2   3
BRANCH   2   7
ATOM      7  C   UNL     1      22.111   7.471  15.262  1.00  0.00     0.100 C 
ATOM      8  O   UNL     1      21.430   8.507  15.043  1.00  0.00    -0.544 OA
ATOM      9  O   UNL     1      21.465   6.276  15.552  1.00  0.00    -0.544 OA
ENDBRANCH   2   7
ENDBRANCH   1   2
BRANCH   1  10
ATOM     10  C   UNL     1      24.724   5.262  15.007  1.00  0.00     0.223 C 
ATOM     11  O   UNL     1      24.036   4.227  15.218  1.00  0.00    -0.275 OA
ATOM     12  N   UNL     1      26.052   5.345  15.523  1.00  0.00    -0.369 N 
ATOM     13  H   UNL     1      26.459   4.548  16.060  1.00  0.00     0.159 HD
ATOM     14  H   UNL     1      26.628   6.203  15.377  1.00  0.00     0.159 HD
ENDBRANCH   1  10
TORSDOF 4
ENDMDL
