MODEL 1
REMARK VINA RESULT:    -3.378      0.000      0.000
REMARK INTER + INTRA:          -3.835
REMARK INTER:                  -3.773
REMARK INTRA:                  -0.062
REMARK UNBOUND:                -0.062
REMARK SMILES CCCC(=O)[O-]
REMARK SMILES IDX 3 1 4 2 5 3 6 4 2 5 1 6
REMARK H PARENT
REMARK Flexibility Score: inf
ROOT
ATOM      1  C   UNL     1      14.410   7.006  48.039  1.00  0.00     0.052 C 
ENDROOT
BRANCH   1   2
ATOM      2  C   UNL     1      15.443   6.750  49.093  1.00  0.00     0.041 C 
ATOM      3  O   UNL     1      15.832   5.576  49.328  1.00  0.00    -0.550 OA
ATOM      4  O   UNL     1      15.952   7.805  49.840  1.00  0.00    -0.550 OA
ENDBRANCH   1   2
BRANCH   1   5
ATOM      5  C   UNL     1      14.822   8.151  47.105  1.00  0.00     0.003 C 
ATOM      6  C   UNL     1      16.096   7.832  46.323  1.00  0.00     0.004 C 
ENDBRANCH   1   5
TORSDOF 2
ENDMDL
MODEL 2
REMARK VINA RESULT:    -3.359      2.403      3.218
REMARK INTER + INTRA:          -3.814
REMARK INTER:                  -3.772
REMARK INTRA:                  -0.042
REMARK UNBOUND:                -0.062
REMARK SMILES CCCC(=O)[O-]
REMARK SMILES IDX 3 1 4 2 5 3 6 4 2 5 1 6
REMARK H PARENT
REMARK Flexibility Score: inf
ROOT
ATOM      1  C   UNL     1      16.054   8.159  48.142  1.00  0.00     0.052 C 
ENDROOT
BRANCH   1   2
ATOM      2  C   UNL     1      15.365   8.123  46.812  1.00  0.00     0.041 C 
ATOM      3  O   UNL     1      16.036   8.178  45.748  1.00  0.00    -0.550 OA
ATOM      4  O   UNL     1      13.978   8.065  46.748  1.00  0.00    -0.550 OA
ENDBRANCH   1   2
BRANCH   1   5
ATOM      5  C   UNL     1      15.283   7.364  49.203  1.00  0.00     0.003 C 
ATOM      6  C   UNL     1      15.741   5.907  49.284  1.00  0.00     0.004 C 
ENDBRANCH   1   5
TORSDOF 2
ENDMDL
MODEL 3
REMARK VINA RESULT:    -3.313      4.484      5.686
REMARK INTER + INTRA:          -3.763
REMARK INTER:                  -3.754
REMARK INTRA:                  -0.009
REMARK UNBOUND:                -0.062
REMARK SMILES CCCC(=O)[O-]
REMARK SMILES IDX 3 1 4 2 5 3 6 4 2 5 1 6
REMARK H PARENT
REMARK Flexibility Score: inf
ROOT
ATOM      1  C   UNL     1      18.546   9.681  51.693  1.00  0.00     0.052 C 
ENDROOT
BRANCH   1   2
ATOM      2  C   UNL     1      17.819   9.261  50.452  1.00  0.00     0.041 C 
ATOM      3  O   UNL     1      17.778  10.025  49.452  1.00  0.00    -0.550 OA
ATOM      4  O   UNL     1      17.157   8.040  50.413  1.00  0.00    -0.550 OA
ENDBRANCH   1   2
BRANCH   1   5
ATOM      5  C   UNL     1      18.932   8.477  52.561  1.00  0.00     0.003 C 
ATOM      6  C   UNL     1      19.528   8.898  53.905  1.00  0.00     0.004 C 
ENDBRANCH   1   5
TORSDOF 2
ENDMDL
MODEL 4
REMARK VINA RESULT:    -3.306      4.848      5.897
REMARK INTER + INTRA:          -3.755
REMARK INTER:                  -3.746
REMARK INTRA:                  -0.009
REMARK UNBOUND:                -0.062
REMARK SMILES CCCC(=O)[O-]
REMARK SMILES IDX 3 1 4 2 5 3 6 4 2 5 1 6
REMARK H PARENT
REMARK Flexibility Score: inf
ROOT
ATOM      1  C   UNL     1      18.343  10.042  51.647  1.00  0.00     0.052 C 
ENDROOT
BRANCH   1   2
ATOM      2  C   UNL     1      18.545   9.997  50.164  1.00  0.00     0.041 C 
ATOM      3  O   UNL     1      17.613   9.614  49.408  1.00  0.00    -0.550 OA
ATOM      4  O   UNL     1      19.773  10.345  49.617  1.00  0.00    -0.550 OA
ENDBRANCH   1   2
BRANCH   1   5
ATOM      5  C   UNL     1      18.738   8.719  52.315  1.00  0.00     0.003 C 
ATOM      6  C   UNL     1      19.415   8.932  53.670  1.00  0.00     0.004 C 
ENDBRANCH   1   5
TORSDOF 2
ENDMDL
MODEL 5
REMARK VINA RESULT:    -3.224      5.009      5.424
REMARK INTER + INTRA:          -3.663
REMARK INTER:                  -3.646
REMARK INTRA:                  -0.017
REMARK UNBOUND:                -0.062
REMARK SMILES CCCC(=O)[O-]
REMARK SMILES IDX 3 1 4 2 5 3 6 4 2 5 1 6
REMARK H PARENT
REMARK Flexibility Score: inf
ROOT
ATOM      1  C   UNL     1      18.381   9.979  51.481  1.00  0.00     0.052 C 
ENDROOT
BRANCH   1   2
ATOM      2  C   UNL     1      19.042   8.986  52.387  1.00  0.00     0.041 C 
ATOM      3  O   UNL     1      19.441   7.881  51.933  1.00  0.00    -0.550 OA
ATOM      4  O   UNL     1      19.186   9.266  53.739  1.00  0.00    -0.550 OA
ENDBRANCH   1   2
BRANCH   1   5
ATOM      5  C   UNL     1      18.706   9.709  50.006  1.00  0.00     0.003 C 
ATOM      6  C   UNL     1      20.040  10.324  49.584  1.00  0.00     0.004 C 
ENDBRANCH   1   5
TORSDOF 2
ENDMDL
MODEL 6
REMARK VINA RESULT:    -3.216      2.151      2.749
REMARK INTER + INTRA:          -3.654
REMARK INTER:                  -3.644
REMARK INTRA:                  -0.010
REMARK UNBOUND:                -0.062
REMARK SMILES CCCC(=O)[O-]
REMARK SMILES IDX 3 1 4 2 5 3 6 4 2 5 1 6
REMARK H PARENT
REMARK Flexibility Score: inf
ROOT
ATOM      1  C   UNL     1      15.675   7.319  49.639  1.00  0.00     0.052 C 
ENDROOT
BRANCH   1   2
ATOM      2  C   UNL     1      14.825   6.928  48.470  1.00  0.00     0.041 C 
ATOM      3  O   UNL     1      14.008   5.975  48.569  1.00  0.00    -0.550 OA
ATOM      4  O   UNL     1      14.958   7.595  47.258  1.00  0.00    -0.550 OA
ENDBRANCH   1   2
BRANCH   1   5
ATOM      5  C   UNL     1      16.767   8.319  49.240  1.00  0.00     0.003 C 
ATOM      6  C   UNL     1      17.423   8.978  50.454  1.00  0.00     0.004 C 
ENDBRANCH   1   5
TORSDOF 2
ENDMDL
MODEL 7
REMARK VINA RESULT:    -3.201      4.229      4.963
REMARK INTER + INTRA:          -3.638
REMARK INTER:                  -3.608
REMARK INTRA:                  -0.030
REMARK UNBOUND:                -0.062
REMARK SMILES CCCC(=O)[O-]
REMARK SMILES IDX 3 1 4 2 5 3 6 4 2 5 1 6
REMARK H PARENT
REMARK Flexibility Score: inf
ROOT
ATOM      1  C   UNL     1      18.070   9.972  51.178  1.00  0.00     0.052 C 
ENDROOT
BRANCH   1   2
ATOM      2  C   UNL     1      19.057   9.157  51.955  1.00  0.00     0.041 C 
ATOM      3  O   UNL     1      19.096   9.237  53.211  1.00  0.00    -0.550 OA
ATOM      4  O   UNL     1      19.957   8.333  51.291  1.00  0.00    -0.550 OA
ENDBRANCH   1   2
BRANCH   1   5
ATOM      5  C   UNL     1      17.736   9.326  49.827  1.00  0.00     0.003 C 
ATOM      6  C   UNL     1      16.762   8.157  49.968  1.00  0.00     0.004 C 
ENDBRANCH   1   5
TORSDOF 2
ENDMDL
MODEL 8
REMARK VINA RESULT:    -3.186      2.410      3.008
REMARK INTER + INTRA:          -3.621
REMARK INTER:                  -3.616
REMARK INTRA:                  -0.005
REMARK UNBOUND:                -0.062
REMARK SMILES CCCC(=O)[O-]
REMARK SMILES IDX 3 1 4 2 5 3 6 4 2 5 1 6
REMARK H PARENT
REMARK Flexibility Score: inf
ROOT
ATOM      1  C   UNL     1      16.483   8.014  49.172  1.00  0.00     0.052 C 
ENDROOT
BRANCH   1   2
ATOM      2  C   UNL     1      17.615   8.375  50.084  1.00  0.00     0.041 C 
ATOM      3  O   UNL     1      18.649   7.657  50.126  1.00  0.00    -0.550 OA
ATOM      4  O   UNL     1      17.515   9.486  50.912  1.00  0.00    -0.550 OA
ENDBRANCH   1   2
BRANCH   1   5
ATOM      5  C   UNL     1      15.575   6.943  49.789  1.00  0.00     0.003 C 
ATOM      6  C   UNL     1      14.443   6.529  48.848  1.00  0.00     0.004 C 
ENDBRANCH   1   5
TORSDOF 2
ENDMDL
MODEL 9
REMARK VINA RESULT:    -3.139      2.923      3.558
REMARK INTER + INTRA:          -3.568
REMARK INTER:                  -3.562
REMARK INTRA:                  -0.006
REMARK UNBOUND:                -0.062
REMARK SMILES CCCC(=O)[O-]
REMARK SMILES IDX 3 1 4 2 5 3 6 4 2 5 1 6
REMARK H PARENT
REMARK Flexibility Score: inf
ROOT
ATOM      1  C   UNL     1      17.193   8.148  50.175  1.00  0.00     0.052 C 
ENDROOT
BRANCH   1   2
ATOM      2  C   UNL     1      16.052   7.854  49.251  1.00  0.00     0.041 C 
ATOM      3  O   UNL     1      15.019   7.277  49.682  1.00  0.00    -0.550 OA
ATOM      4  O   UNL     1      16.143   8.186  47.905  1.00  0.00    -0.550 OA
ENDBRANCH   1   2
BRANCH   1   5
ATOM      5  C   UNL     1      17.764   9.553  49.944  1.00  0.00     0.003 C 
ATOM      6  C   UNL     1      18.235  10.209  51.243  1.00  0.00     0.004 C 
ENDBRANCH   1   5
TORSDOF 2
ENDMDL
