MODEL 1
REMARK VINA RESULT:    -6.171      0.000      0.000
REMARK INTER + INTRA:          -6.171
REMARK INTER:                  -6.171
REMARK INTRA:                   0.000
REMARK UNBOUND:                 0.000
REMARK SMILES C=C1CCC[C@@]2(C)CC(=O)C(=C(C)C)C[C@H]12
REMARK SMILES IDX 13 1 12 2 11 3 15 4 16 5 2 6 1 7 3 8 4 9 5 10 6 11 8 12 9 13
REMARK SMILES IDX 10 14 7 15 14 16
REMARK H PARENT
REMARK Flexibility Score: inf
ROOT
ATOM      1  C   UNL     1      -9.001  73.770  23.519  1.00  0.00     0.039 C 
ATOM      2  C   UNL     1      -8.683  73.103  24.838  1.00  0.00    -0.070 C 
ATOM      3  C   UNL     1      -9.483  73.259  25.935  1.00  0.00    -0.006 C 
ATOM      4  C   UNL     1      -9.117  72.631  27.272  1.00  0.00     0.047 C 
ATOM      5  C   UNL     1      -9.630  73.451  28.481  1.00  0.00     0.025 C 
ATOM      6  C   UNL     1      -9.328  72.846  29.853  1.00  0.00    -0.073 C 
ATOM      7  C   UNL     1      -8.675  71.682  30.036  1.00  0.00     0.008 C 
ATOM      8  C   UNL     1      -9.765  73.655  31.051  1.00  0.00     0.031 C 
ATOM      9  C   UNL     1     -11.250  74.012  30.939  1.00  0.00     0.005 C 
ATOM     10  C   UNL     1     -11.577  74.665  29.584  1.00  0.00     0.008 C 
ATOM     11  C   UNL     1     -11.150  73.790  28.366  1.00  0.00    -0.018 C 
ATOM     12  C   UNL     1     -11.376  74.618  27.077  1.00  0.00     0.088 C 
ATOM     13  C   UNL     1     -10.809  73.940  25.863  1.00  0.00     0.159 C 
ATOM     14  O   UNL     1     -11.482  73.950  24.798  1.00  0.00    -0.295 OA
ATOM     15  C   UNL     1     -12.026  72.508  28.314  1.00  0.00     0.012 C 
ATOM     16  C   UNL     1      -7.415  72.282  24.901  1.00  0.00     0.039 C 
ENDROOT
TORSDOF 0
ENDMDL
MODEL 2
REMARK VINA RESULT:    -5.845      4.545      6.542
REMARK INTER + INTRA:          -5.845
REMARK INTER:                  -5.845
REMARK INTRA:                   0.000
REMARK UNBOUND:                 0.000
REMARK SMILES C=C1CCC[C@@]2(C)CC(=O)C(=C(C)C)C[C@H]12
REMARK SMILES IDX 13 1 12 2 11 3 15 4 16 5 2 6 1 7 3 8 4 9 5 10 6 11 8 12 9 13
REMARK SMILES IDX 10 14 7 15 14 16
REMARK H PARENT
REMARK Flexibility Score: inf
ROOT
ATOM      1  C   UNL     1     -10.465  74.954  21.663  1.00  0.00     0.039 C 
ATOM      2  C   UNL     1      -9.140  74.345  21.266  1.00  0.00    -0.070 C 
ATOM      3  C   UNL     1      -8.483  73.462  22.076  1.00  0.00    -0.006 C 
ATOM      4  C   UNL     1      -7.120  72.904  21.688  1.00  0.00     0.047 C 
ATOM      5  C   UNL     1      -6.234  72.578  22.916  1.00  0.00     0.025 C 
ATOM      6  C   UNL     1      -4.868  71.974  22.590  1.00  0.00    -0.073 C 
ATOM      7  C   UNL     1      -4.434  71.720  21.340  1.00  0.00     0.008 C 
ATOM      8  C   UNL     1      -3.960  71.701  23.766  1.00  0.00     0.031 C 
ATOM      9  C   UNL     1      -4.685  70.850  24.812  1.00  0.00     0.005 C 
ATOM     10  C   UNL     1      -6.046  71.457  25.193  1.00  0.00     0.008 C 
ATOM     11  C   UNL     1      -6.977  71.692  23.965  1.00  0.00    -0.018 C 
ATOM     12  C   UNL     1      -8.235  72.451  24.453  1.00  0.00     0.088 C 
ATOM     13  C   UNL     1      -9.101  72.902  23.312  1.00  0.00     0.159 C 
ATOM     14  O   UNL     1     -10.351  72.781  23.420  1.00  0.00    -0.295 OA
ATOM     15  C   UNL     1      -7.403  70.322  23.367  1.00  0.00     0.012 C 
ATOM     16  C   UNL     1      -8.554  74.785  19.943  1.00  0.00     0.039 C 
ENDROOT
TORSDOF 0
ENDMDL
MODEL 3
REMARK VINA RESULT:    -5.494      4.921      7.552
REMARK INTER + INTRA:          -5.494
REMARK INTER:                  -5.494
REMARK INTRA:                   0.000
REMARK UNBOUND:                 0.000
REMARK SMILES C=C1CCC[C@@]2(C)CC(=O)C(=C(C)C)C[C@H]12
REMARK SMILES IDX 13 1 12 2 11 3 15 4 16 5 2 6 1 7 3 8 4 9 5 10 6 11 8 12 9 13
REMARK SMILES IDX 10 14 7 15 14 16
REMARK H PARENT
REMARK Flexibility Score: inf
ROOT
ATOM      1  C   UNL     1     -10.822  74.971  21.183  1.00  0.00     0.039 C 
ATOM      2  C   UNL     1      -9.935  74.310  22.214  1.00  0.00    -0.070 C 
ATOM      3  C   UNL     1      -8.704  73.814  21.891  1.00  0.00    -0.006 C 
ATOM      4  C   UNL     1      -7.849  73.096  22.927  1.00  0.00     0.047 C 
ATOM      5  C   UNL     1      -6.935  72.012  22.304  1.00  0.00     0.025 C 
ATOM      6  C   UNL     1      -6.021  71.286  23.292  1.00  0.00    -0.073 C 
ATOM      7  C   UNL     1      -5.977  71.549  24.613  1.00  0.00     0.008 C 
ATOM      8  C   UNL     1      -5.162  70.183  22.721  1.00  0.00     0.031 C 
ATOM      9  C   UNL     1      -4.355  70.700  21.527  1.00  0.00     0.005 C 
ATOM     10  C   UNL     1      -5.256  71.399  20.492  1.00  0.00     0.008 C 
ATOM     11  C   UNL     1      -6.101  72.558  21.102  1.00  0.00    -0.018 C 
ATOM     12  C   UNL     1      -7.078  73.065  20.012  1.00  0.00     0.088 C 
ATOM     13  C   UNL     1      -8.075  74.046  20.559  1.00  0.00     0.159 C 
ATOM     14  O   UNL     1      -8.352  75.068  19.875  1.00  0.00    -0.295 OA
ATOM     15  C   UNL     1      -5.161  73.718  21.529  1.00  0.00     0.012 C 
ATOM     16  C   UNL     1     -10.489  74.189  23.616  1.00  0.00     0.039 C 
ENDROOT
TORSDOF 0
ENDMDL
MODEL 4
REMARK VINA RESULT:    -5.492      8.591     10.835
REMARK INTER + INTRA:          -5.492
REMARK INTER:                  -5.492
REMARK INTRA:                   0.000
REMARK UNBOUND:                 0.000
REMARK SMILES C=C1CCC[C@@]2(C)CC(=O)C(=C(C)C)C[C@H]12
REMARK SMILES IDX 13 1 12 2 11 3 15 4 16 5 2 6 1 7 3 8 4 9 5 10 6 11 8 12 9 13
REMARK SMILES IDX 10 14 7 15 14 16
REMARK H PARENT
REMARK Flexibility Score: inf
ROOT
ATOM      1  C   UNL     1     -12.008  73.103  36.664  1.00  0.00     0.039 C 
ATOM      2  C   UNL     1     -11.403  72.032  37.543  1.00  0.00    -0.070 C 
ATOM      3  C   UNL     1     -10.380  71.237  37.108  1.00  0.00    -0.006 C 
ATOM      4  C   UNL     1      -9.823  70.122  37.983  1.00  0.00     0.047 C 
ATOM      5  C   UNL     1      -9.277  68.929  37.159  1.00  0.00     0.025 C 
ATOM      6  C   UNL     1      -8.666  67.796  37.984  1.00  0.00    -0.073 C 
ATOM      7  C   UNL     1      -8.580  67.803  39.329  1.00  0.00     0.008 C 
ATOM      8  C   UNL     1      -8.180  66.594  37.210  1.00  0.00     0.031 C 
ATOM      9  C   UNL     1      -7.218  67.027  36.101  1.00  0.00     0.005 C 
ATOM     10  C   UNL     1      -7.824  68.138  35.226  1.00  0.00     0.008 C 
ATOM     11  C   UNL     1      -8.281  69.382  36.047  1.00  0.00    -0.018 C 
ATOM     12  C   UNL     1      -9.018  70.348  35.086  1.00  0.00     0.088 C 
ATOM     13  C   UNL     1      -9.672  71.484  35.819  1.00  0.00     0.159 C 
ATOM     14  O   UNL     1      -9.595  72.642  35.327  1.00  0.00    -0.295 OA
ATOM     15  C   UNL     1      -7.037  70.099  36.641  1.00  0.00     0.012 C 
ATOM     16  C   UNL     1     -12.007  71.853  38.918  1.00  0.00     0.039 C 
ENDROOT
TORSDOF 0
ENDMDL
MODEL 5
REMARK VINA RESULT:    -5.411      2.724      6.565
REMARK INTER + INTRA:          -5.411
REMARK INTER:                  -5.411
REMARK INTRA:                   0.000
REMARK UNBOUND:                 0.000
REMARK SMILES C=C1CCC[C@@]2(C)CC(=O)C(=C(C)C)C[C@H]12
REMARK SMILES IDX 13 1 12 2 11 3 15 4 16 5 2 6 1 7 3 8 4 9 5 10 6 11 8 12 9 13
REMARK SMILES IDX 10 14 7 15 14 16
REMARK H PARENT
REMARK Flexibility Score: inf
ROOT
ATOM      1  C   UNL     1     -10.495  74.278  24.719  1.00  0.00     0.039 C 
ATOM      2  C   UNL     1      -9.368  73.455  25.301  1.00  0.00    -0.070 C 
ATOM      3  C   UNL     1      -8.374  72.940  24.517  1.00  0.00    -0.006 C 
ATOM      4  C   UNL     1      -7.280  72.062  25.109  1.00  0.00     0.047 C 
ATOM      5  C   UNL     1      -6.739  71.016  24.103  1.00  0.00     0.025 C 
ATOM      6  C   UNL     1      -5.608  70.132  24.628  1.00  0.00    -0.073 C 
ATOM      7  C   UNL     1      -5.086  70.232  25.867  1.00  0.00     0.008 C 
ATOM      8  C   UNL     1      -5.102  69.065  23.688  1.00  0.00     0.031 C 
ATOM      9  C   UNL     1      -4.717  69.681  22.340  1.00  0.00     0.005 C 
ATOM     10  C   UNL     1      -5.855  70.543  21.764  1.00  0.00     0.008 C 
ATOM     11  C   UNL     1      -6.330  71.661  22.741  1.00  0.00    -0.018 C 
ATOM     12  C   UNL     1      -7.574  72.343  22.122  1.00  0.00     0.088 C 
ATOM     13  C   UNL     1      -8.228  73.300  23.077  1.00  0.00     0.159 C 
ATOM     14  O   UNL     1      -8.633  74.409  22.636  1.00  0.00    -0.295 OA
ATOM     15  C   UNL     1      -5.200  72.713  22.915  1.00  0.00     0.012 C 
ATOM     16  C   UNL     1      -9.410  73.194  26.790  1.00  0.00     0.039 C 
ENDROOT
TORSDOF 0
ENDMDL
MODEL 6
REMARK VINA RESULT:    -5.205      9.730     10.216
REMARK INTER + INTRA:          -5.205
REMARK INTER:                  -5.205
REMARK INTRA:                   0.000
REMARK UNBOUND:                 0.000
REMARK SMILES C=C1CCC[C@@]2(C)CC(=O)C(=C(C)C)C[C@H]12
REMARK SMILES IDX 13 1 12 2 11 3 15 4 16 5 2 6 1 7 3 8 4 9 5 10 6 11 8 12 9 13
REMARK SMILES IDX 10 14 7 15 14 16
REMARK H PARENT
REMARK Flexibility Score: inf
ROOT
ATOM      1  C   UNL     1      -3.282  67.526  31.786  1.00  0.00     0.039 C 
ATOM      2  C   UNL     1      -3.561  68.290  33.059  1.00  0.00    -0.070 C 
ATOM      3  C   UNL     1      -4.648  68.014  33.841  1.00  0.00    -0.006 C 
ATOM      4  C   UNL     1      -4.949  68.834  35.088  1.00  0.00     0.047 C 
ATOM      5  C   UNL     1      -6.464  68.920  35.399  1.00  0.00     0.025 C 
ATOM      6  C   UNL     1      -6.825  69.696  36.665  1.00  0.00    -0.073 C 
ATOM      7  C   UNL     1      -5.920  70.269  37.483  1.00  0.00     0.008 C 
ATOM      8  C   UNL     1      -8.298  69.846  36.960  1.00  0.00     0.031 C 
ATOM      9  C   UNL     1      -8.984  68.477  36.959  1.00  0.00     0.005 C 
ATOM     10  C   UNL     1      -8.674  67.688  35.674  1.00  0.00     0.008 C 
ATOM     11  C   UNL     1      -7.147  67.516  35.416  1.00  0.00    -0.018 C 
ATOM     12  C   UNL     1      -6.965  66.860  34.025  1.00  0.00     0.088 C 
ATOM     13  C   UNL     1      -5.526  66.833  33.596  1.00  0.00     0.159 C 
ATOM     14  O   UNL     1      -5.082  65.792  33.042  1.00  0.00    -0.295 OA
ATOM     15  C   UNL     1      -6.537  66.589  36.504  1.00  0.00     0.012 C 
ATOM     16  C   UNL     1      -2.602  69.404  33.413  1.00  0.00     0.039 C 
ENDROOT
TORSDOF 0
ENDMDL
MODEL 7
REMARK VINA RESULT:    -5.138      8.749     10.579
REMARK INTER + INTRA:          -5.138
REMARK INTER:                  -5.138
REMARK INTRA:                   0.000
REMARK UNBOUND:                 0.000
REMARK SMILES C=C1CCC[C@@]2(C)CC(=O)C(=C(C)C)C[C@H]12
REMARK SMILES IDX 13 1 12 2 11 3 15 4 16 5 2 6 1 7 3 8 4 9 5 10 6 11 8 12 9 13
REMARK SMILES IDX 10 14 7 15 14 16
REMARK H PARENT
REMARK Flexibility Score: inf
ROOT
ATOM      1  C   UNL     1      -6.373  67.238  31.478  1.00  0.00     0.039 C 
ATOM      2  C   UNL     1      -5.150  67.520  32.321  1.00  0.00    -0.070 C 
ATOM      3  C   UNL     1      -5.249  67.852  33.643  1.00  0.00    -0.006 C 
ATOM      4  C   UNL     1      -4.012  68.193  34.463  1.00  0.00     0.047 C 
ATOM      5  C   UNL     1      -4.304  69.207  35.597  1.00  0.00     0.025 C 
ATOM      6  C   UNL     1      -3.107  69.555  36.482  1.00  0.00    -0.073 C 
ATOM      7  C   UNL     1      -1.875  69.032  36.325  1.00  0.00     0.008 C 
ATOM      8  C   UNL     1      -3.350  70.585  37.558  1.00  0.00     0.031 C 
ATOM      9  C   UNL     1      -4.552  70.185  38.418  1.00  0.00     0.005 C 
ATOM     10  C   UNL     1      -5.787  69.871  37.556  1.00  0.00     0.008 C 
ATOM     11  C   UNL     1      -5.518  68.776  36.479  1.00  0.00    -0.018 C 
ATOM     12  C   UNL     1      -6.773  68.670  35.578  1.00  0.00     0.088 C 
ATOM     13  C   UNL     1      -6.540  67.785  34.387  1.00  0.00     0.159 C 
ATOM     14  O   UNL     1      -7.449  66.982  34.046  1.00  0.00    -0.295 OA
ATOM     15  C   UNL     1      -5.270  67.410  37.178  1.00  0.00     0.012 C 
ATOM     16  C   UNL     1      -3.809  67.453  31.625  1.00  0.00     0.039 C 
ENDROOT
TORSDOF 0
ENDMDL
MODEL 8
REMARK VINA RESULT:    -5.047      9.907     11.220
REMARK INTER + INTRA:          -5.047
REMARK INTER:                  -5.047
REMARK INTRA:                   0.000
REMARK UNBOUND:                 0.000
REMARK SMILES C=C1CCC[C@@]2(C)CC(=O)C(=C(C)C)C[C@H]12
REMARK SMILES IDX 13 1 12 2 11 3 15 4 16 5 2 6 1 7 3 8 4 9 5 10 6 11 8 12 9 13
REMARK SMILES IDX 10 14 7 15 14 16
REMARK H PARENT
REMARK Flexibility Score: inf
ROOT
ATOM      1  C   UNL     1      -8.463  70.068  37.240  1.00  0.00     0.039 C 
ATOM      2  C   UNL     1      -7.976  68.953  36.344  1.00  0.00    -0.070 C 
ATOM      3  C   UNL     1      -6.679  68.887  35.919  1.00  0.00    -0.006 C 
ATOM      4  C   UNL     1      -6.218  67.792  34.966  1.00  0.00     0.047 C 
ATOM      5  C   UNL     1      -5.058  68.247  34.045  1.00  0.00     0.025 C 
ATOM      6  C   UNL     1      -4.525  67.175  33.094  1.00  0.00    -0.073 C 
ATOM      7  C   UNL     1      -4.994  65.913  33.040  1.00  0.00     0.008 C 
ATOM      8  C   UNL     1      -3.434  67.608  32.144  1.00  0.00     0.031 C 
ATOM      9  C   UNL     1      -2.283  68.260  32.915  1.00  0.00     0.005 C 
ATOM     10  C   UNL     1      -2.786  69.375  33.850  1.00  0.00     0.008 C 
ATOM     11  C   UNL     1      -3.882  68.890  34.846  1.00  0.00    -0.018 C 
ATOM     12  C   UNL     1      -4.420  70.125  35.608  1.00  0.00     0.088 C 
ATOM     13  C   UNL     1      -5.620  69.794  36.448  1.00  0.00     0.159 C 
ATOM     14  O   UNL     1      -5.700  70.286  37.606  1.00  0.00    -0.295 OA
ATOM     15  C   UNL     1      -3.258  67.891  35.860  1.00  0.00     0.012 C 
ATOM     16  C   UNL     1      -8.999  67.930  35.905  1.00  0.00     0.039 C 
ENDROOT
TORSDOF 0
ENDMDL
MODEL 9
REMARK VINA RESULT:    -5.011      6.755      8.870
REMARK INTER + INTRA:          -5.011
REMARK INTER:                  -5.011
REMARK INTRA:                   0.000
REMARK UNBOUND:                 0.000
REMARK SMILES C=C1CCC[C@@]2(C)CC(=O)C(=C(C)C)C[C@H]12
REMARK SMILES IDX 13 1 12 2 11 3 15 4 16 5 2 6 1 7 3 8 4 9 5 10 6 11 8 12 9 13
REMARK SMILES IDX 10 14 7 15 14 16
REMARK H PARENT
REMARK Flexibility Score: inf
ROOT
ATOM      1  C   UNL     1      -4.237  69.384  28.856  1.00  0.00     0.039 C 
ATOM      2  C   UNL     1      -4.489  68.160  28.005  1.00  0.00    -0.070 C 
ATOM      3  C   UNL     1      -4.817  68.259  26.682  1.00  0.00    -0.006 C 
ATOM      4  C   UNL     1      -5.128  67.019  25.855  1.00  0.00     0.047 C 
ATOM      5  C   UNL     1      -6.141  67.297  24.716  1.00  0.00     0.025 C 
ATOM      6  C   UNL     1      -6.461  66.097  23.824  1.00  0.00    -0.073 C 
ATOM      7  C   UNL     1      -5.915  64.875  23.978  1.00  0.00     0.008 C 
ATOM      8  C   UNL     1      -7.490  66.324  22.743  1.00  0.00     0.031 C 
ATOM      9  C   UNL     1      -7.109  67.538  21.891  1.00  0.00     0.005 C 
ATOM     10  C   UNL     1      -6.823  68.775  22.760  1.00  0.00     0.008 C 
ATOM     11  C   UNL     1      -5.729  68.523  23.842  1.00  0.00    -0.018 C 
ATOM     12  C   UNL     1      -5.652  69.775  24.749  1.00  0.00     0.088 C 
ATOM     13  C   UNL     1      -4.770  69.554  25.944  1.00  0.00     0.159 C 
ATOM     14  O   UNL     1      -3.987  70.477  26.294  1.00  0.00    -0.295 OA
ATOM     15  C   UNL     1      -4.355  68.304  23.150  1.00  0.00     0.012 C 
ATOM     16  C   UNL     1      -4.400  66.818  28.695  1.00  0.00     0.039 C 
ENDROOT
TORSDOF 0
ENDMDL
