MODEL 1
REMARK VINA RESULT:    -2.587      0.000      0.000
REMARK INTER + INTRA:          -6.997
REMARK INTER:                  -5.007
REMARK INTRA:                  -1.990
REMARK UNBOUND:                -1.990
REMARK SMILES CCCCCCCCCCCCCCCCCC(=O)[O-]
REMARK SMILES IDX 10 1 11 2 12 3 13 4 14 5 15 6 16 7 17 8 18 9 19 10 20 11
REMARK SMILES IDX 9 12 8 13 7 14 6 15 5 16 4 17 3 18 2 19 1 20
REMARK H PARENT
REMARK Flexibility Score: inf
ROOT
ATOM      1  C   UNL     1      52.802  81.466  31.825  1.00  0.00     0.000 C 
ENDROOT
BRANCH   1   2
ATOM      2  C   UNL     1      51.726  81.202  30.758  1.00  0.00     0.000 C 
BRANCH   2   3
ATOM      3  C   UNL     1      52.164  81.652  29.355  1.00  0.00     0.000 C 
BRANCH   3   4
ATOM      4  C   UNL     1      51.612  83.037  28.976  1.00  0.00     0.000 C 
BRANCH   4   5
ATOM      5  C   UNL     1      50.088  83.133  29.150  1.00  0.00     0.000 C 
BRANCH   5   6
ATOM      6  C   UNL     1      49.603  84.581  29.316  1.00  0.00     0.000 C 
BRANCH   6   7
ATOM      7  C   UNL     1      48.445  84.661  30.322  1.00  0.00     0.006 C 
BRANCH   7   8
ATOM      8  C   UNL     1      48.405  83.446  31.259  1.00  0.00     0.053 C 
BRANCH   8   9
ATOM      9  C   UNL     1      49.015  83.752  32.592  1.00  0.00     0.041 C 
ATOM     10  O   UNL     1      50.244  84.009  32.682  1.00  0.00    -0.550 OA
ATOM     11  O   UNL     1      48.220  83.787  33.730  1.00  0.00    -0.550 OA
ENDBRANCH   8   9
ENDBRANCH   7   8
ENDBRANCH   6   7
ENDBRANCH   5   6
ENDBRANCH   4   5
ENDBRANCH   3   4
ENDBRANCH   2   3
ENDBRANCH   1   2
BRANCH   1  12
ATOM     12  C   UNL     1      54.205  81.638  31.219  1.00  0.00     0.000 C 
BRANCH  12  13
ATOM     13  C   UNL     1      55.288  81.856  32.289  1.00  0.00    -0.000 C 
BRANCH  13  14
ATOM     14  C   UNL     1      55.116  83.188  33.038  1.00  0.00    -0.000 C 
BRANCH  14  15
ATOM     15  C   UNL     1      55.480  84.407  32.171  1.00  0.00    -0.000 C 
BRANCH  15  16
ATOM     16  C   UNL     1      54.268  84.986  31.425  1.00  0.00    -0.000 C 
BRANCH  16  17
ATOM     17  C   UNL     1      54.516  85.123  29.912  1.00  0.00    -0.000 C 
BRANCH  17  18
ATOM     18  C   UNL     1      55.642  84.202  29.414  1.00  0.00    -0.000 C 
BRANCH  18  19
ATOM     19  C   UNL     1      56.853  84.981  28.881  1.00  0.00    -0.003 C 
ATOM     20  C   UNL     1      58.137  84.546  29.582  1.00  0.00     0.004 C 
ENDBRANCH  18  19
ENDBRANCH  17  18
ENDBRANCH  16  17
ENDBRANCH  15  16
ENDBRANCH  14  15
ENDBRANCH  13  14
ENDBRANCH  12  13
ENDBRANCH   1  12
TORSDOF 16
ENDMDL
MODEL 2
REMARK VINA RESULT:    -2.179      2.259      5.978
REMARK INTER + INTRA:          -6.207
REMARK INTER:                  -4.403
REMARK INTRA:                  -1.804
REMARK UNBOUND:                -1.990
REMARK SMILES CCCCCCCCCCCCCCCCCC(=O)[O-]
REMARK SMILES IDX 10 1 11 2 12 3 13 4 14 5 15 6 16 7 17 8 18 9 19 10 20 11
REMARK SMILES IDX 9 12 8 13 7 14 6 15 5 16 4 17 3 18 2 19 1 20
REMARK H PARENT
REMARK Flexibility Score: inf
ROOT
ATOM      1  C   UNL     1      52.950  81.950  30.601  1.00  0.00     0.000 C 
ENDROOT
BRANCH   1   2
ATOM      2  C   UNL     1      53.869  81.168  29.646  1.00  0.00     0.000 C 
BRANCH   2   3
ATOM      3  C   UNL     1      54.833  82.084  28.875  1.00  0.00     0.000 C 
BRANCH   3   4
ATOM      4  C   UNL     1      56.068  82.478  29.704  1.00  0.00     0.000 C 
BRANCH   4   5
ATOM      5  C   UNL     1      56.713  83.785  29.218  1.00  0.00     0.000 C 
BRANCH   5   6
ATOM      6  C   UNL     1      56.459  84.960  30.174  1.00  0.00     0.000 C 
BRANCH   6   7
ATOM      7  C   UNL     1      55.001  84.973  30.654  1.00  0.00     0.006 C 
BRANCH   7   8
ATOM      8  C   UNL     1      54.893  84.995  32.185  1.00  0.00     0.053 C 
BRANCH   8   9
ATOM      9  C   UNL     1      55.596  83.828  32.808  1.00  0.00     0.041 C 
ATOM     10  O   UNL     1      55.017  82.714  32.898  1.00  0.00    -0.550 OA
ATOM     11  O   UNL     1      56.903  83.962  33.259  1.00  0.00    -0.550 OA
ENDBRANCH   8   9
ENDBRANCH   7   8
ENDBRANCH   6   7
ENDBRANCH   5   6
ENDBRANCH   4   5
ENDBRANCH   3   4
ENDBRANCH   2   3
ENDBRANCH   1   2
BRANCH   1  12
ATOM     12  C   UNL     1      51.689  81.159  30.985  1.00  0.00     0.000 C 
BRANCH  12  13
ATOM     13  C   UNL     1      50.408  81.764  30.385  1.00  0.00    -0.000 C 
BRANCH  13  14
ATOM     14  C   UNL     1      50.702  82.760  29.250  1.00  0.00    -0.000 C 
BRANCH  14  15
ATOM     15  C   UNL     1      50.092  84.150  29.507  1.00  0.00    -0.000 C 
BRANCH  15  16
ATOM     16  C   UNL     1      48.625  84.078  29.957  1.00  0.00    -0.000 C 
BRANCH  16  17
ATOM     17  C   UNL     1      48.345  84.946  31.197  1.00  0.00    -0.000 C 
BRANCH  17  18
ATOM     18  C   UNL     1      48.897  84.323  32.489  1.00  0.00    -0.000 C 
BRANCH  18  19
ATOM     19  C   UNL     1      50.066  85.125  33.082  1.00  0.00    -0.003 C 
ATOM     20  C   UNL     1      51.378  84.356  32.959  1.00  0.00     0.004 C 
ENDBRANCH  18  19
ENDBRANCH  17  18
ENDBRANCH  16  17
ENDBRANCH  15  16
ENDBRANCH  14  15
ENDBRANCH  13  14
ENDBRANCH  12  13
ENDBRANCH   1  12
TORSDOF 16
ENDMDL
MODEL 3
REMARK VINA RESULT:    -2.176      2.430      5.932
REMARK INTER + INTRA:          -6.202
REMARK INTER:                  -4.285
REMARK INTRA:                  -1.916
REMARK UNBOUND:                -1.990
REMARK SMILES CCCCCCCCCCCCCCCCCC(=O)[O-]
REMARK SMILES IDX 10 1 11 2 12 3 13 4 14 5 15 6 16 7 17 8 18 9 19 10 20 11
REMARK SMILES IDX 9 12 8 13 7 14 6 15 5 16 4 17 3 18 2 19 1 20
REMARK H PARENT
REMARK Flexibility Score: inf
ROOT
ATOM      1  C   UNL     1      53.447  82.185  32.097  1.00  0.00     0.000 C 
ENDROOT
BRANCH   1   2
ATOM      2  C   UNL     1      53.156  81.509  30.746  1.00  0.00     0.000 C 
BRANCH   2   3
ATOM      3  C   UNL     1      54.397  80.825  30.150  1.00  0.00     0.000 C 
BRANCH   3   4
ATOM      4  C   UNL     1      54.903  81.520  28.875  1.00  0.00     0.000 C 
BRANCH   4   5
ATOM      5  C   UNL     1      55.941  82.614  29.171  1.00  0.00     0.000 C 
BRANCH   5   6
ATOM      6  C   UNL     1      55.329  84.023  29.182  1.00  0.00     0.000 C 
BRANCH   6   7
ATOM      7  C   UNL     1      55.859  84.843  30.367  1.00  0.00     0.006 C 
BRANCH   7   8
ATOM      8  C   UNL     1      56.793  84.025  31.269  1.00  0.00     0.053 C 
BRANCH   8   9
ATOM      9  C   UNL     1      56.207  83.815  32.631  1.00  0.00     0.041 C 
ATOM     10  O   UNL     1      56.301  82.693  33.194  1.00  0.00    -0.550 OA
ATOM     11  O   UNL     1      55.587  84.868  33.292  1.00  0.00    -0.550 OA
ENDBRANCH   8   9
ENDBRANCH   7   8
ENDBRANCH   6   7
ENDBRANCH   5   6
ENDBRANCH   4   5
ENDBRANCH   3   4
ENDBRANCH   2   3
ENDBRANCH   1   2
BRANCH   1  12
ATOM     12  C   UNL     1      52.426  83.281  32.440  1.00  0.00     0.000 C 
BRANCH  12  13
ATOM     13  C   UNL     1      52.757  84.626  31.771  1.00  0.00    -0.000 C 
BRANCH  13  14
ATOM     14  C   UNL     1      51.629  85.120  30.851  1.00  0.00    -0.000 C 
BRANCH  14  15
ATOM     15  C   UNL     1      51.849  84.727  29.379  1.00  0.00    -0.000 C 
BRANCH  15  16
ATOM     16  C   UNL     1      51.204  83.377  29.025  1.00  0.00    -0.000 C 
BRANCH  16  17
ATOM     17  C   UNL     1      49.673  83.395  29.181  1.00  0.00    -0.000 C 
BRANCH  17  18
ATOM     18  C   UNL     1      49.215  82.891  30.559  1.00  0.00    -0.000 C 
BRANCH  18  19
ATOM     19  C   UNL     1      47.986  83.645  31.087  1.00  0.00    -0.003 C 
ATOM     20  C   UNL     1      48.017  85.111  30.665  1.00  0.00     0.004 C 
ENDBRANCH  18  19
ENDBRANCH  17  18
ENDBRANCH  16  17
ENDBRANCH  15  16
ENDBRANCH  14  15
ENDBRANCH  13  14
ENDBRANCH  12  13
ENDBRANCH   1  12
TORSDOF 16
ENDMDL
MODEL 4
REMARK VINA RESULT:    -2.072      2.049      6.402
REMARK INTER + INTRA:          -5.999
REMARK INTER:                  -4.210
REMARK INTRA:                  -1.790
REMARK UNBOUND:                -1.990
REMARK SMILES CCCCCCCCCCCCCCCCCC(=O)[O-]
REMARK SMILES IDX 10 1 11 2 12 3 13 4 14 5 15 6 16 7 17 8 18 9 19 10 20 11
REMARK SMILES IDX 9 12 8 13 7 14 6 15 5 16 4 17 3 18 2 19 1 20
REMARK H PARENT
REMARK Flexibility Score: inf
ROOT
ATOM      1  C   UNL     1      52.907  84.149  31.881  1.00  0.00     0.000 C 
ENDROOT
BRANCH   1   2
ATOM      2  C   UNL     1      53.662  84.902  32.990  1.00  0.00     0.000 C 
BRANCH   2   3
ATOM      3  C   UNL     1      55.144  85.125  32.648  1.00  0.00     0.000 C 
BRANCH   3   4
ATOM      4  C   UNL     1      55.857  83.828  32.228  1.00  0.00     0.000 C 
BRANCH   4   5
ATOM      5  C   UNL     1      56.359  83.874  30.776  1.00  0.00     0.000 C 
BRANCH   5   6
ATOM      6  C   UNL     1      55.389  83.201  29.794  1.00  0.00     0.000 C 
BRANCH   6   7
ATOM      7  C   UNL     1      54.856  81.879  30.366  1.00  0.00     0.006 C 
BRANCH   7   8
ATOM      8  C   UNL     1      53.801  81.236  29.456  1.00  0.00     0.053 C 
BRANCH   8   9
ATOM      9  C   UNL     1      52.716  80.571  30.247  1.00  0.00     0.041 C 
ATOM     10  O   UNL     1      52.244  81.131  31.270  1.00  0.00    -0.550 OA
ATOM     11  O   UNL     1      52.204  79.348  29.833  1.00  0.00    -0.550 OA
ENDBRANCH   8   9
ENDBRANCH   7   8
ENDBRANCH   6   7
ENDBRANCH   5   6
ENDBRANCH   4   5
ENDBRANCH   3   4
ENDBRANCH   2   3
ENDBRANCH   1   2
BRANCH   1  12
ATOM     12  C   UNL     1      52.199  85.097  30.900  1.00  0.00     0.000 C 
BRANCH  12  13
ATOM     13  C   UNL     1      52.179  84.551  29.462  1.00  0.00    -0.000 C 
BRANCH  13  14
ATOM     14  C   UNL     1      50.752  84.392  28.912  1.00  0.00    -0.000 C 
BRANCH  14  15
ATOM     15  C   UNL     1      49.955  83.292  29.637  1.00  0.00    -0.000 C 
BRANCH  15  16
ATOM     16  C   UNL     1      48.553  83.757  30.061  1.00  0.00    -0.000 C 
BRANCH  16  17
ATOM     17  C   UNL     1      48.586  84.682  31.291  1.00  0.00    -0.000 C 
BRANCH  17  18
ATOM     18  C   UNL     1      49.094  83.967  32.553  1.00  0.00    -0.000 C 
BRANCH  18  19
ATOM     19  C   UNL     1      48.004  83.804  33.622  1.00  0.00    -0.003 C 
ATOM     20  C   UNL     1      48.202  84.797  34.764  1.00  0.00     0.004 C 
ENDBRANCH  18  19
ENDBRANCH  17  18
ENDBRANCH  16  17
ENDBRANCH  15  16
ENDBRANCH  14  15
ENDBRANCH  13  14
ENDBRANCH  12  13
ENDBRANCH   1  12
TORSDOF 16
ENDMDL
MODEL 5
REMARK VINA RESULT:    -1.721      1.832      5.985
REMARK INTER + INTRA:          -5.320
REMARK INTER:                  -4.296
REMARK INTRA:                  -1.024
REMARK UNBOUND:                -1.990
REMARK SMILES CCCCCCCCCCCCCCCCCC(=O)[O-]
REMARK SMILES IDX 10 1 11 2 12 3 13 4 14 5 15 6 16 7 17 8 18 9 19 10 20 11
REMARK SMILES IDX 9 12 8 13 7 14 6 15 5 16 4 17 3 18 2 19 1 20
REMARK H PARENT
REMARK Flexibility Score: inf
ROOT
ATOM      1  C   UNL     1      55.750  82.670  29.281  1.00  0.00     0.000 C 
ENDROOT
BRANCH   1   2
ATOM      2  C   UNL     1      56.473  84.012  29.493  1.00  0.00     0.000 C 
BRANCH   2   3
ATOM      3  C   UNL     1      57.049  84.152  30.912  1.00  0.00     0.000 C 
BRANCH   3   4
ATOM      4  C   UNL     1      56.005  84.646  31.929  1.00  0.00     0.000 C 
BRANCH   4   5
ATOM      5  C   UNL     1      55.587  83.552  32.924  1.00  0.00     0.000 C 
BRANCH   5   6
ATOM      6  C   UNL     1      55.378  82.188  32.250  1.00  0.00     0.000 C 
BRANCH   6   7
ATOM      7  C   UNL     1      54.128  81.487  32.803  1.00  0.00     0.006 C 
BRANCH   7   8
ATOM      8  C   UNL     1      52.831  82.077  32.232  1.00  0.00     0.053 C 
BRANCH   8   9
ATOM      9  C   UNL     1      52.209  81.171  31.215  1.00  0.00     0.041 C 
ATOM     10  O   UNL     1      50.961  81.005  31.195  1.00  0.00    -0.550 OA
ATOM     11  O   UNL     1      53.003  80.536  30.269  1.00  0.00    -0.550 OA
ENDBRANCH   8   9
ENDBRANCH   7   8
ENDBRANCH   6   7
ENDBRANCH   5   6
ENDBRANCH   4   5
ENDBRANCH   3   4
ENDBRANCH   2   3
ENDBRANCH   1   2
BRANCH   1  12
ATOM     12  C   UNL     1      54.269  82.850  28.910  1.00  0.00     0.000 C 
BRANCH  12  13
ATOM     13  C   UNL     1      53.841  84.328  28.892  1.00  0.00    -0.000 C 
BRANCH  13  14
ATOM     14  C   UNL     1      52.313  84.498  28.875  1.00  0.00    -0.000 C 
BRANCH  14  15
ATOM     15  C   UNL     1      51.767  85.088  30.188  1.00  0.00    -0.000 C 
BRANCH  15  16
ATOM     16  C   UNL     1      50.231  85.124  30.228  1.00  0.00    -0.000 C 
BRANCH  16  17
ATOM     17  C   UNL     1      49.602  83.740  29.989  1.00  0.00    -0.000 C 
BRANCH  17  18
ATOM     18  C   UNL     1      48.861  83.207  31.226  1.00  0.00    -0.000 C 
BRANCH  18  19
ATOM     19  C   UNL     1      48.371  84.330  32.152  1.00  0.00    -0.003 C 
ATOM     20  C   UNL     1      48.121  83.808  33.564  1.00  0.00     0.004 C 
ENDBRANCH  18  19
ENDBRANCH  17  18
ENDBRANCH  16  17
ENDBRANCH  15  16
ENDBRANCH  14  15
ENDBRANCH  13  14
ENDBRANCH  12  13
ENDBRANCH   1  12
TORSDOF 16
ENDMDL
MODEL 6
REMARK VINA RESULT:    -1.715      2.248      5.852
REMARK INTER + INTRA:          -5.308
REMARK INTER:                  -4.592
REMARK INTRA:                  -0.716
REMARK UNBOUND:                -1.990
REMARK SMILES CCCCCCCCCCCCCCCCCC(=O)[O-]
REMARK SMILES IDX 10 1 11 2 12 3 13 4 14 5 15 6 16 7 17 8 18 9 19 10 20 11
REMARK SMILES IDX 9 12 8 13 7 14 6 15 5 16 4 17 3 18 2 19 1 20
REMARK H PARENT
REMARK Flexibility Score: inf
ROOT
ATOM      1  C   UNL     1      55.327  82.211  32.485  1.00  0.00     0.000 C 
ENDROOT
BRANCH   1   2
ATOM      2  C   UNL     1      55.616  83.709  32.286  1.00  0.00     0.000 C 
BRANCH   2   3
ATOM      3  C   UNL     1      56.832  83.959  31.379  1.00  0.00     0.000 C 
BRANCH   3   4
ATOM      4  C   UNL     1      56.433  84.318  29.937  1.00  0.00     0.000 C 
BRANCH   4   5
ATOM      5  C   UNL     1      57.012  83.339  28.903  1.00  0.00     0.000 C 
BRANCH   5   6
ATOM      6  C   UNL     1      56.305  81.976  28.918  1.00  0.00     0.000 C 
BRANCH   6   7
ATOM      7  C   UNL     1      54.816  82.133  29.261  1.00  0.00     0.006 C 
BRANCH   7   8
ATOM      8  C   UNL     1      54.041  80.818  29.102  1.00  0.00     0.053 C 
BRANCH   8   9
ATOM      9  C   UNL     1      52.582  80.994  29.391  1.00  0.00     0.041 C 
ATOM     10  O   UNL     1      51.979  80.170  30.127  1.00  0.00    -0.550 OA
ATOM     11  O   UNL     1      51.897  82.087  28.875  1.00  0.00    -0.550 OA
ENDBRANCH   8   9
ENDBRANCH   7   8
ENDBRANCH   6   7
ENDBRANCH   5   6
ENDBRANCH   4   5
ENDBRANCH   3   4
ENDBRANCH   2   3
ENDBRANCH   1   2
BRANCH   1  12
ATOM     12  C   UNL     1      53.862  81.938  32.862  1.00  0.00     0.000 C 
BRANCH  12  13
ATOM     13  C   UNL     1      53.008  83.217  32.875  1.00  0.00    -0.000 C 
BRANCH  13  14
ATOM     14  C   UNL     1      52.730  83.755  31.461  1.00  0.00    -0.000 C 
BRANCH  14  15
ATOM     15  C   UNL     1      51.661  84.862  31.447  1.00  0.00    -0.000 C 
BRANCH  15  16
ATOM     16  C   UNL     1      51.062  85.125  32.839  1.00  0.00    -0.000 C 
BRANCH  16  17
ATOM     17  C   UNL     1      49.777  84.317  33.091  1.00  0.00    -0.000 C 
BRANCH  17  18
ATOM     18  C   UNL     1      48.713  84.548  32.005  1.00  0.00    -0.000 C 
BRANCH  18  19
ATOM     19  C   UNL     1      48.688  83.430  30.953  1.00  0.00    -0.003 C 
ATOM     20  C   UNL     1      48.023  83.904  29.664  1.00  0.00     0.004 C 
ENDBRANCH  18  19
ENDBRANCH  17  18
ENDBRANCH  16  17
ENDBRANCH  15  16
ENDBRANCH  14  15
ENDBRANCH  13  14
ENDBRANCH  12  13
ENDBRANCH   1  12
TORSDOF 16
ENDMDL
MODEL 7
REMARK VINA RESULT:    -1.713      1.884      4.011
REMARK INTER + INTRA:          -5.304
REMARK INTER:                  -4.055
REMARK INTRA:                  -1.249
REMARK UNBOUND:                -1.990
REMARK SMILES CCCCCCCCCCCCCCCCCC(=O)[O-]
REMARK SMILES IDX 10 1 11 2 12 3 13 4 14 5 15 6 16 7 17 8 18 9 19 10 20 11
REMARK SMILES IDX 9 12 8 13 7 14 6 15 5 16 4 17 3 18 2 19 1 20
REMARK H PARENT
REMARK Flexibility Score: inf
ROOT
ATOM      1  C   UNL     1      55.742  85.125  30.201  1.00  0.00     0.000 C 
ENDROOT
BRANCH   1   2
ATOM      2  C   UNL     1      54.960  85.072  28.877  1.00  0.00     0.000 C 
BRANCH   2   3
ATOM      3  C   UNL     1      53.439  85.015  29.092  1.00  0.00     0.000 C 
BRANCH   3   4
ATOM      4  C   UNL     1      53.056  84.841  30.571  1.00  0.00     0.000 C 
BRANCH   4   5
ATOM      5  C   UNL     1      51.536  84.887  30.797  1.00  0.00     0.000 C 
BRANCH   5   6
ATOM      6  C   UNL     1      51.165  85.125  32.269  1.00  0.00     0.000 C 
BRANCH   6   7
ATOM      7  C   UNL     1      49.776  84.550  32.585  1.00  0.00     0.006 C 
BRANCH   7   8
ATOM      8  C   UNL     1      48.716  85.003  31.572  1.00  0.00     0.053 C 
BRANCH   8   9
ATOM      9  C   UNL     1      48.414  83.933  30.568  1.00  0.00     0.041 C 
ATOM     10  O   UNL     1      48.404  82.723  30.915  1.00  0.00    -0.550 OA
ATOM     11  O   UNL     1      48.109  84.275  29.256  1.00  0.00    -0.550 OA
ENDBRANCH   8   9
ENDBRANCH   7   8
ENDBRANCH   6   7
ENDBRANCH   5   6
ENDBRANCH   4   5
ENDBRANCH   3   4
ENDBRANCH   2   3
ENDBRANCH   1   2
BRANCH   1  12
ATOM     12  C   UNL     1      56.291  83.751  30.617  1.00  0.00     0.000 C 
BRANCH  12  13
ATOM     13  C   UNL     1      56.645  83.685  32.113  1.00  0.00    -0.000 C 
BRANCH  13  14
ATOM     14  C   UNL     1      55.561  82.978  32.944  1.00  0.00    -0.000 C 
BRANCH  14  15
ATOM     15  C   UNL     1      55.007  81.721  32.249  1.00  0.00    -0.000 C 
BRANCH  15  16
ATOM     16  C   UNL     1      53.472  81.714  32.174  1.00  0.00    -0.000 C 
BRANCH  16  17
ATOM     17  C   UNL     1      52.952  81.634  30.727  1.00  0.00    -0.000 C 
BRANCH  17  18
ATOM     18  C   UNL     1      52.381  80.250  30.382  1.00  0.00    -0.000 C 
BRANCH  18  19
ATOM     19  C   UNL     1      52.700  79.820  28.942  1.00  0.00    -0.003 C 
ATOM     20  C   UNL     1      53.038  78.333  28.875  1.00  0.00     0.004 C 
ENDBRANCH  18  19
ENDBRANCH  17  18
ENDBRANCH  16  17
ENDBRANCH  15  16
ENDBRANCH  14  15
ENDBRANCH  13  14
ENDBRANCH  12  13
ENDBRANCH   1  12
TORSDOF 16
ENDMDL
MODEL 8
REMARK VINA RESULT:    -1.531      2.617      5.999
REMARK INTER + INTRA:          -4.954
REMARK INTER:                  -3.811
REMARK INTRA:                  -1.143
REMARK UNBOUND:                -1.990
REMARK SMILES CCCCCCCCCCCCCCCCCC(=O)[O-]
REMARK SMILES IDX 10 1 11 2 12 3 13 4 14 5 15 6 16 7 17 8 18 9 19 10 20 11
REMARK SMILES IDX 9 12 8 13 7 14 6 15 5 16 4 17 3 18 2 19 1 20
REMARK H PARENT
REMARK Flexibility Score: inf
ROOT
ATOM      1  C   UNL     1      53.929  81.769  31.691  1.00  0.00     0.000 C 
ENDROOT
BRANCH   1   2
ATOM      2  C   UNL     1      54.245  81.236  30.282  1.00  0.00     0.000 C 
BRANCH   2   3
ATOM      3  C   UNL     1      54.535  82.364  29.278  1.00  0.00     0.000 C 
BRANCH   3   4
ATOM      4  C   UNL     1      53.270  83.140  28.875  1.00  0.00     0.000 C 
BRANCH   4   5
ATOM      5  C   UNL     1      53.412  84.655  29.091  1.00  0.00     0.000 C 
BRANCH   5   6
ATOM      6  C   UNL     1      52.840  85.116  30.440  1.00  0.00     0.000 C 
BRANCH   6   7
ATOM      7  C   UNL     1      53.912  85.062  31.539  1.00  0.00     0.006 C 
BRANCH   7   8
ATOM      8  C   UNL     1      55.334  85.125  30.967  1.00  0.00     0.053 C 
BRANCH   8   9
ATOM      9  C   UNL     1      56.288  84.280  31.754  1.00  0.00     0.041 C 
ATOM     10  O   UNL     1      56.091  84.078  32.980  1.00  0.00    -0.550 OA
ATOM     11  O   UNL     1      57.377  83.689  31.125  1.00  0.00    -0.550 OA
ENDBRANCH   8   9
ENDBRANCH   7   8
ENDBRANCH   6   7
ENDBRANCH   5   6
ENDBRANCH   4   5
ENDBRANCH   3   4
ENDBRANCH   2   3
ENDBRANCH   1   2
BRANCH   1  12
ATOM     12  C   UNL     1      52.424  81.756  32.002  1.00  0.00     0.000 C 
BRANCH  12  13
ATOM     13  C   UNL     1      51.606  81.017  30.929  1.00  0.00    -0.000 C 
BRANCH  13  14
ATOM     14  C   UNL     1      50.224  81.653  30.701  1.00  0.00    -0.000 C 
BRANCH  14  15
ATOM     15  C   UNL     1      50.315  83.120  30.241  1.00  0.00    -0.000 C 
BRANCH  15  16
ATOM     16  C   UNL     1      48.985  83.648  29.681  1.00  0.00    -0.000 C 
BRANCH  16  17
ATOM     17  C   UNL     1      48.604  85.022  30.261  1.00  0.00    -0.000 C 
BRANCH  17  18
ATOM     18  C   UNL     1      47.893  84.912  31.619  1.00  0.00    -0.000 C 
BRANCH  18  19
ATOM     19  C   UNL     1      48.858  84.591  32.770  1.00  0.00    -0.003 C 
ATOM     20  C   UNL     1      48.107  84.034  33.977  1.00  0.00     0.004 C 
ENDBRANCH  18  19
ENDBRANCH  17  18
ENDBRANCH  16  17
ENDBRANCH  15  16
ENDBRANCH  14  15
ENDBRANCH  13  14
ENDBRANCH  12  13
ENDBRANCH   1  12
TORSDOF 16
ENDMDL
MODEL 9
REMARK VINA RESULT:    -1.479      1.559      3.544
REMARK INTER + INTRA:          -4.852
REMARK INTER:                  -3.831
REMARK INTRA:                  -1.021
REMARK UNBOUND:                -1.990
REMARK SMILES CCCCCCCCCCCCCCCCCC(=O)[O-]
REMARK SMILES IDX 10 1 11 2 12 3 13 4 14 5 15 6 16 7 17 8 18 9 19 10 20 11
REMARK SMILES IDX 9 12 8 13 7 14 6 15 5 16 4 17 3 18 2 19 1 20
REMARK H PARENT
REMARK Flexibility Score: inf
ROOT
ATOM      1  C   UNL     1      53.262  84.131  29.401  1.00  0.00     0.000 C 
ENDROOT
BRANCH   1   2
ATOM      2  C   UNL     1      51.793  83.975  28.973  1.00  0.00     0.000 C 
BRANCH   2   3
ATOM      3  C   UNL     1      50.894  85.087  29.538  1.00  0.00     0.000 C 
BRANCH   3   4
ATOM      4  C   UNL     1      49.506  85.122  28.875  1.00  0.00     0.000 C 
BRANCH   4   5
ATOM      5  C   UNL     1      48.659  83.884  29.212  1.00  0.00     0.000 C 
BRANCH   5   6
ATOM      6  C   UNL     1      47.912  84.025  30.547  1.00  0.00     0.000 C 
BRANCH   6   7
ATOM      7  C   UNL     1      48.883  84.367  31.687  1.00  0.00     0.006 C 
BRANCH   7   8
ATOM      8  C   UNL     1      48.190  85.113  32.835  1.00  0.00     0.053 C 
BRANCH   8   9
ATOM      9  C   UNL     1      48.185  84.309  34.098  1.00  0.00     0.041 C 
ATOM     10  O   UNL     1      48.212  83.051  34.048  1.00  0.00    -0.550 OA
ATOM     11  O   UNL     1      48.184  84.948  35.331  1.00  0.00    -0.550 OA
ENDBRANCH   8   9
ENDBRANCH   7   8
ENDBRANCH   6   7
ENDBRANCH   5   6
ENDBRANCH   4   5
ENDBRANCH   3   4
ENDBRANCH   2   3
ENDBRANCH   1   2
BRANCH   1  12
ATOM     12  C   UNL     1      53.434  85.108  30.577  1.00  0.00     0.000 C 
BRANCH  12  13
ATOM     13  C   UNL     1      54.869  85.119  31.130  1.00  0.00    -0.000 C 
BRANCH  13  14
ATOM     14  C   UNL     1      54.929  84.749  32.621  1.00  0.00    -0.000 C 
BRANCH  14  15
ATOM     15  C   UNL     1      55.997  83.682  32.926  1.00  0.00    -0.000 C 
BRANCH  15  16
ATOM     16  C   UNL     1      55.531  82.261  32.573  1.00  0.00    -0.000 C 
BRANCH  16  17
ATOM     17  C   UNL     1      54.000  82.111  32.626  1.00  0.00    -0.000 C 
BRANCH  17  18
ATOM     18  C   UNL     1      53.443  81.325  31.428  1.00  0.00    -0.000 C 
BRANCH  18  19
ATOM     19  C   UNL     1      51.911  81.214  31.453  1.00  0.00    -0.003 C 
ATOM     20  C   UNL     1      51.337  81.237  30.039  1.00  0.00     0.004 C 
ENDBRANCH  18  19
ENDBRANCH  17  18
ENDBRANCH  16  17
ENDBRANCH  15  16
ENDBRANCH  14  15
ENDBRANCH  13  14
ENDBRANCH  12  13
ENDBRANCH   1  12
TORSDOF 16
ENDMDL
