MODEL 1
REMARK VINA RESULT:    11.381      0.000      0.000
REMARK INTER + INTRA:          29.731
REMARK INTER:                  30.009
REMARK INTRA:                  -0.279
REMARK UNBOUND:                -0.279
REMARK SMILES CCCCCCCCCCCCCCCCCCCCCCCCCCCCCC(=O)[O-]
REMARK SMILES IDX 16 1 17 2 18 3 19 4 20 5 21 6 22 7 23 8 24 9 25 10 26 11
REMARK SMILES IDX 27 12 28 13 29 14 30 15 31 16 32 17 15 18 14 19 13 20 12 21
REMARK SMILES IDX 11 22 10 23 9 24 8 25 7 26 6 27 5 28 4 29 3 30 2 31 1 32
REMARK H PARENT
REMARK Flexibility Score: inf
ROOT
ATOM      1  C   UNL     1      -7.794  13.752 -12.213  1.00  0.00     0.000 C 
ENDROOT
BRANCH   1   2
ATOM      2  C   UNL     1      -7.291  12.787 -11.123  1.00  0.00     0.000 C 
BRANCH   2   3
ATOM      3  C   UNL     1      -7.688  13.160  -9.682  1.00  0.00     0.000 C 
BRANCH   3   4
ATOM      4  C   UNL     1      -6.658  12.776  -8.599  1.00  0.00     0.000 C 
BRANCH   4   5
ATOM      5  C   UNL     1      -6.215  13.928  -7.674  1.00  0.00     0.000 C 
BRANCH   5   6
ATOM      6  C   UNL     1      -6.222  13.603  -6.170  1.00  0.00     0.000 C 
BRANCH   6   7
ATOM      7  C   UNL     1      -6.891  12.255  -5.853  1.00  0.00     0.000 C 
BRANCH   7   8
ATOM      8  C   UNL     1      -7.518  12.213  -4.447  1.00  0.00     0.000 C 
BRANCH   8   9
ATOM      9  C   UNL     1      -8.511  11.061  -4.205  1.00  0.00     0.000 C 
BRANCH   9  10
ATOM     10  C   UNL     1      -9.105  10.496  -5.506  1.00  0.00     0.000 C 
BRANCH  10  11
ATOM     11  C   UNL     1     -10.613  10.774  -5.627  1.00  0.00     0.000 C 
BRANCH  11  12
ATOM     12  C   UNL     1     -10.934  12.278  -5.627  1.00  0.00     0.000 C 
BRANCH  12  13
ATOM     13  C   UNL     1     -10.527  12.982  -6.933  1.00  0.00     0.006 C 
BRANCH  13  14
ATOM     14  C   UNL     1     -11.700  13.249  -7.892  1.00  0.00     0.053 C 
BRANCH  14  15
ATOM     15  C   UNL     1     -12.267  14.627  -7.737  1.00  0.00     0.041 C 
ATOM     16  O   UNL     1     -12.891  14.941  -6.690  1.00  0.00    -0.550 OA
ATOM     17  O   UNL     1     -12.137  15.556  -8.763  1.00  0.00    -0.550 OA
ENDBRANCH  14  15
ENDBRANCH  13  14
ENDBRANCH  12  13
ENDBRANCH  11  12
ENDBRANCH  10  11
ENDBRANCH   9  10
ENDBRANCH   8   9
ENDBRANCH   7   8
ENDBRANCH   6   7
ENDBRANCH   5   6
ENDBRANCH   4   5
ENDBRANCH   3   4
ENDBRANCH   2   3
ENDBRANCH   1   2
BRANCH   1  18
ATOM     18  C   UNL     1      -7.186  13.500 -13.608  1.00  0.00     0.000 C 
BRANCH  18  19
ATOM     19  C   UNL     1      -7.955  12.439 -14.416  1.00  0.00     0.000 C 
BRANCH  19  20
ATOM     20  C   UNL     1      -9.377  12.891 -14.800  1.00  0.00     0.000 C 
BRANCH  20  21
ATOM     21  C   UNL     1      -9.449  13.921 -15.942  1.00  0.00     0.000 C 
BRANCH  21  22
ATOM     22  C   UNL     1      -8.171  14.766 -16.069  1.00  0.00     0.000 C 
BRANCH  22  23
ATOM     23  C   UNL     1      -8.456  16.276 -16.075  1.00  0.00     0.000 C 
BRANCH  23  24
ATOM     24  C   UNL     1      -7.176  17.126 -16.122  1.00  0.00    -0.000 C 
BRANCH  24  25
ATOM     25  C   UNL     1      -6.126  16.598 -15.139  1.00  0.00    -0.000 C 
BRANCH  25  26
ATOM     26  C   UNL     1      -6.279  17.266 -13.764  1.00  0.00    -0.000 C 
BRANCH  26  27
ATOM     27  C   UNL     1      -5.876  18.748 -13.775  1.00  0.00    -0.000 C 
BRANCH  27  28
ATOM     28  C   UNL     1      -6.986  19.661 -14.326  1.00  0.00    -0.000 C 
BRANCH  28  29
ATOM     29  C   UNL     1      -8.283  19.571 -13.496  1.00  0.00    -0.000 C 
BRANCH  29  30
ATOM     30  C   UNL     1      -8.962  18.193 -13.556  1.00  0.00    -0.000 C 
BRANCH  30  31
ATOM     31  C   UNL     1      -8.540  17.266 -12.409  1.00  0.00    -0.003 C 
ATOM     32  C   UNL     1      -9.746  16.548 -11.806  1.00  0.00     0.004 C 
ENDBRANCH  30  31
ENDBRANCH  29  30
ENDBRANCH  28  29
ENDBRANCH  27  28
ENDBRANCH  26  27
ENDBRANCH  25  26
ENDBRANCH  24  25
ENDBRANCH  23  24
ENDBRANCH  22  23
ENDBRANCH  21  22
ENDBRANCH  20  21
ENDBRANCH  19  20
ENDBRANCH  18  19
ENDBRANCH   1  18
TORSDOF 28
ENDMDL
MODEL 2
REMARK VINA RESULT:    11.722      2.276      9.237
REMARK INTER + INTRA:          30.632
REMARK INTER:                  31.599
REMARK INTRA:                  -0.967
REMARK UNBOUND:                -0.279
REMARK SMILES CCCCCCCCCCCCCCCCCCCCCCCCCCCCCC(=O)[O-]
REMARK SMILES IDX 16 1 17 2 18 3 19 4 20 5 21 6 22 7 23 8 24 9 25 10 26 11
REMARK SMILES IDX 27 12 28 13 29 14 30 15 31 16 32 17 15 18 14 19 13 20 12 21
REMARK SMILES IDX 11 22 10 23 9 24 8 25 7 26 6 27 5 28 4 29 3 30 2 31 1 32
REMARK H PARENT
REMARK Flexibility Score: inf
ROOT
ATOM      1  C   UNL     1      -7.052  15.619 -12.364  1.00  0.00     0.000 C 
ENDROOT
BRANCH   1   2
ATOM      2  C   UNL     1      -6.038  15.170 -13.434  1.00  0.00     0.000 C 
BRANCH   2   3
ATOM      3  C   UNL     1      -6.020  16.019 -14.718  1.00  0.00     0.000 C 
BRANCH   3   4
ATOM      4  C   UNL     1      -5.875  17.540 -14.496  1.00  0.00     0.000 C 
BRANCH   4   5
ATOM      5  C   UNL     1      -6.263  18.421 -15.701  1.00  0.00     0.000 C 
BRANCH   5   6
ATOM      6  C   UNL     1      -7.503  19.310 -15.493  1.00  0.00     0.000 C 
BRANCH   6   7
ATOM      7  C   UNL     1      -7.510  20.012 -14.125  1.00  0.00     0.000 C 
BRANCH   7   8
ATOM      8  C   UNL     1      -8.655  19.534 -13.212  1.00  0.00     0.000 C 
BRANCH   8   9
ATOM      9  C   UNL     1      -8.601  18.048 -12.813  1.00  0.00     0.000 C 
BRANCH   9  10
ATOM     10  C   UNL     1      -9.904  17.293 -13.128  1.00  0.00     0.000 C 
BRANCH  10  11
ATOM     11  C   UNL     1      -9.659  16.037 -13.980  1.00  0.00     0.000 C 
BRANCH  11  12
ATOM     12  C   UNL     1      -8.905  16.351 -15.284  1.00  0.00     0.000 C 
BRANCH  12  13
ATOM     13  C   UNL     1      -8.533  15.091 -16.085  1.00  0.00     0.006 C 
BRANCH  13  14
ATOM     14  C   UNL     1      -9.637  14.020 -16.115  1.00  0.00     0.053 C 
BRANCH  14  15
ATOM     15  C   UNL     1      -9.222  12.748 -15.441  1.00  0.00     0.041 C 
ATOM     16  O   UNL     1      -8.459  12.781 -14.439  1.00  0.00    -0.550 OA
ATOM     17  O   UNL     1      -9.650  11.522 -15.936  1.00  0.00    -0.550 OA
ENDBRANCH  14  15
ENDBRANCH  13  14
ENDBRANCH  12  13
ENDBRANCH  11  12
ENDBRANCH  10  11
ENDBRANCH   9  10
ENDBRANCH   8   9
ENDBRANCH   7   8
ENDBRANCH   6   7
ENDBRANCH   5   6
ENDBRANCH   4   5
ENDBRANCH   3   4
ENDBRANCH   2   3
ENDBRANCH   1   2
BRANCH   1  18
ATOM     18  C   UNL     1      -7.679  14.459 -11.564  1.00  0.00     0.000 C 
BRANCH  18  19
ATOM     19  C   UNL     1      -6.680  13.776 -10.612  1.00  0.00     0.000 C 
BRANCH  19  20
ATOM     20  C   UNL     1      -7.353  13.184  -9.360  1.00  0.00     0.000 C 
BRANCH  20  21
ATOM     21  C   UNL     1      -6.385  12.695  -8.266  1.00  0.00     0.000 C 
BRANCH  21  22
ATOM     22  C   UNL     1      -6.631  13.366  -6.905  1.00  0.00     0.000 C 
BRANCH  22  23
ATOM     23  C   UNL     1      -6.417  12.406  -5.723  1.00  0.00     0.000 C 
BRANCH  23  24
ATOM     24  C   UNL     1      -7.589  12.409  -4.730  1.00  0.00    -0.000 C 
BRANCH  24  25
ATOM     25  C   UNL     1      -8.063  10.982  -4.430  1.00  0.00    -0.000 C 
BRANCH  25  26
ATOM     26  C   UNL     1      -9.309  10.633  -5.260  1.00  0.00    -0.000 C 
BRANCH  26  27
ATOM     27  C   UNL     1     -10.608  11.155  -4.627  1.00  0.00    -0.000 C 
BRANCH  27  28
ATOM     28  C   UNL     1     -11.401  12.075  -5.571  1.00  0.00    -0.000 C 
BRANCH  28  29
ATOM     29  C   UNL     1     -10.778  12.142  -6.982  1.00  0.00    -0.000 C 
BRANCH  29  30
ATOM     30  C   UNL     1     -10.830  13.542  -7.617  1.00  0.00    -0.000 C 
BRANCH  30  31
ATOM     31  C   UNL     1     -12.188  13.859  -8.257  1.00  0.00    -0.003 C 
ATOM     32  C   UNL     1     -12.625  15.288  -7.943  1.00  0.00     0.004 C 
ENDBRANCH  30  31
ENDBRANCH  29  30
ENDBRANCH  28  29
ENDBRANCH  27  28
ENDBRANCH  26  27
ENDBRANCH  25  26
ENDBRANCH  24  25
ENDBRANCH  23  24
ENDBRANCH  22  23
ENDBRANCH  21  22
ENDBRANCH  20  21
ENDBRANCH  19  20
ENDBRANCH  18  19
ENDBRANCH   1  18
TORSDOF 28
ENDMDL
MODEL 3
REMARK VINA RESULT:    11.862      2.019      4.508
REMARK INTER + INTRA:          31.000
REMARK INTER:                  32.503
REMARK INTRA:                  -1.503
REMARK UNBOUND:                -0.279
REMARK SMILES CCCCCCCCCCCCCCCCCCCCCCCCCCCCCC(=O)[O-]
REMARK SMILES IDX 16 1 17 2 18 3 19 4 20 5 21 6 22 7 23 8 24 9 25 10 26 11
REMARK SMILES IDX 27 12 28 13 29 14 30 15 31 16 32 17 15 18 14 19 13 20 12 21
REMARK SMILES IDX 11 22 10 23 9 24 8 25 7 26 6 27 5 28 4 29 3 30 2 31 1 32
REMARK H PARENT
REMARK Flexibility Score: inf
ROOT
ATOM      1  C   UNL     1      -9.360  13.642 -14.439  1.00  0.00     0.000 C 
ENDROOT
BRANCH   1   2
ATOM      2  C   UNL     1      -8.945  12.196 -14.770  1.00  0.00     0.000 C 
BRANCH   2   3
ATOM      3  C   UNL     1      -7.918  12.053 -15.909  1.00  0.00     0.000 C 
BRANCH   3   4
ATOM      4  C   UNL     1      -6.452  12.320 -15.507  1.00  0.00     0.000 C 
BRANCH   4   5
ATOM      5  C   UNL     1      -6.005  11.674 -14.180  1.00  0.00     0.000 C 
BRANCH   5   6
ATOM      6  C   UNL     1      -5.902  12.635 -12.983  1.00  0.00     0.000 C 
BRANCH   6   7
ATOM      7  C   UNL     1      -6.702  12.155 -11.760  1.00  0.00     0.000 C 
BRANCH   7   8
ATOM      8  C   UNL     1      -7.395  13.307 -11.008  1.00  0.00     0.000 C 
BRANCH   8   9
ATOM      9  C   UNL     1      -6.749  13.699  -9.667  1.00  0.00     0.000 C 
BRANCH   9  10
ATOM     10  C   UNL     1      -6.532  12.497  -8.730  1.00  0.00     0.000 C 
BRANCH  10  11
ATOM     11  C   UNL     1      -6.345  12.928  -7.265  1.00  0.00     0.000 C 
BRANCH  11  12
ATOM     12  C   UNL     1      -7.676  12.983  -6.496  1.00  0.00     0.000 C 
BRANCH  12  13
ATOM     13  C   UNL     1      -8.787  12.143  -7.151  1.00  0.00     0.006 C 
BRANCH  13  14
ATOM     14  C   UNL     1     -10.046  11.983  -6.282  1.00  0.00     0.053 C 
BRANCH  14  15
ATOM     15  C   UNL     1      -9.848  11.014  -5.157  1.00  0.00     0.041 C 
ATOM     16  O   UNL     1     -10.596  11.058  -4.144  1.00  0.00    -0.550 OA
ATOM     17  O   UNL     1      -8.817  10.084  -5.208  1.00  0.00    -0.550 OA
ENDBRANCH  14  15
ENDBRANCH  13  14
ENDBRANCH  12  13
ENDBRANCH  11  12
ENDBRANCH  10  11
ENDBRANCH   9  10
ENDBRANCH   8   9
ENDBRANCH   7   8
ENDBRANCH   6   7
ENDBRANCH   5   6
ENDBRANCH   4   5
ENDBRANCH   3   4
ENDBRANCH   2   3
ENDBRANCH   1   2
BRANCH   1  18
ATOM     18  C   UNL     1      -9.342  14.596 -15.650  1.00  0.00     0.000 C 
BRANCH  18  19
ATOM     19  C   UNL     1      -7.921  15.031 -16.053  1.00  0.00     0.000 C 
BRANCH  19  20
ATOM     20  C   UNL     1      -6.997  15.258 -14.842  1.00  0.00     0.000 C 
BRANCH  20  21
ATOM     21  C   UNL     1      -5.963  16.386 -15.011  1.00  0.00     0.000 C 
BRANCH  21  22
ATOM     22  C   UNL     1      -6.401  17.453 -16.028  1.00  0.00     0.000 C 
BRANCH  22  23
ATOM     23  C   UNL     1      -5.876  18.855 -15.680  1.00  0.00     0.000 C 
BRANCH  23  24
ATOM     24  C   UNL     1      -6.832  19.977 -16.117  1.00  0.00    -0.000 C 
BRANCH  24  25
ATOM     25  C   UNL     1      -7.267  20.829 -14.919  1.00  0.00    -0.000 C 
BRANCH  25  26
ATOM     26  C   UNL     1      -8.364  20.118 -14.112  1.00  0.00    -0.000 C 
BRANCH  26  27
ATOM     27  C   UNL     1      -9.374  19.381 -15.004  1.00  0.00    -0.000 C 
BRANCH  27  28
ATOM     28  C   UNL     1      -9.588  17.918 -14.577  1.00  0.00    -0.000 C 
BRANCH  28  29
ATOM     29  C   UNL     1      -9.548  17.745 -13.044  1.00  0.00    -0.000 C 
BRANCH  29  30
ATOM     30  C   UNL     1      -8.250  17.103 -12.526  1.00  0.00    -0.000 C 
BRANCH  30  31
ATOM     31  C   UNL     1      -8.481  15.742 -11.855  1.00  0.00    -0.003 C 
ATOM     32  C   UNL     1      -9.788  15.731 -11.066  1.00  0.00     0.004 C 
ENDBRANCH  30  31
ENDBRANCH  29  30
ENDBRANCH  28  29
ENDBRANCH  27  28
ENDBRANCH  26  27
ENDBRANCH  25  26
ENDBRANCH  24  25
ENDBRANCH  23  24
ENDBRANCH  22  23
ENDBRANCH  21  22
ENDBRANCH  20  21
ENDBRANCH  19  20
ENDBRANCH  18  19
ENDBRANCH   1  18
TORSDOF 28
ENDMDL
MODEL 4
REMARK VINA RESULT:    12.130      1.138      2.096
REMARK INTER + INTRA:          31.707
REMARK INTER:                  30.218
REMARK INTRA:                   1.488
REMARK UNBOUND:                -0.279
REMARK SMILES CCCCCCCCCCCCCCCCCCCCCCCCCCCCCC(=O)[O-]
REMARK SMILES IDX 16 1 17 2 18 3 19 4 20 5 21 6 22 7 23 8 24 9 25 10 26 11
REMARK SMILES IDX 27 12 28 13 29 14 30 15 31 16 32 17 15 18 14 19 13 20 12 21
REMARK SMILES IDX 11 22 10 23 9 24 8 25 7 26 6 27 5 28 4 29 3 30 2 31 1 32
REMARK H PARENT
REMARK Flexibility Score: inf
ROOT
ATOM      1  C   UNL     1      -7.609  14.399 -12.424  1.00  0.00     0.000 C 
ENDROOT
BRANCH   1   2
ATOM      2  C   UNL     1      -7.538  13.520 -11.161  1.00  0.00     0.000 C 
BRANCH   2   3
ATOM      3  C   UNL     1      -7.392  14.289  -9.834  1.00  0.00     0.000 C 
BRANCH   3   4
ATOM      4  C   UNL     1      -7.439  13.416  -8.563  1.00  0.00     0.000 C 
BRANCH   4   5
ATOM      5  C   UNL     1      -6.103  13.290  -7.801  1.00  0.00     0.000 C 
BRANCH   5   6
ATOM      6  C   UNL     1      -6.231  13.053  -6.286  1.00  0.00     0.000 C 
BRANCH   6   7
ATOM      7  C   UNL     1      -7.692  12.945  -5.819  1.00  0.00     0.000 C 
BRANCH   7   8
ATOM      8  C   UNL     1      -7.899  11.866  -4.740  1.00  0.00     0.000 C 
BRANCH   8   9
ATOM      9  C   UNL     1      -8.406  10.508  -5.257  1.00  0.00     0.000 C 
BRANCH   9  10
ATOM     10  C   UNL     1      -9.521  10.643  -6.309  1.00  0.00     0.000 C 
BRANCH  10  11
ATOM     11  C   UNL     1      -9.365  11.914  -7.162  1.00  0.00     0.000 C 
BRANCH  11  12
ATOM     12  C   UNL     1     -10.719  12.556  -7.509  1.00  0.00     0.000 C 
BRANCH  12  13
ATOM     13  C   UNL     1     -11.527  12.971  -6.267  1.00  0.00     0.006 C 
BRANCH  13  14
ATOM     14  C   UNL     1     -12.593  14.045  -6.543  1.00  0.00     0.053 C 
BRANCH  14  15
ATOM     15  C   UNL     1     -12.332  14.801  -7.810  1.00  0.00     0.041 C 
ATOM     16  O   UNL     1     -12.593  16.031  -7.878  1.00  0.00    -0.550 OA
ATOM     17  O   UNL     1     -11.833  14.143  -8.927  1.00  0.00    -0.550 OA
ENDBRANCH  14  15
ENDBRANCH  13  14
ENDBRANCH  12  13
ENDBRANCH  11  12
ENDBRANCH  10  11
ENDBRANCH   9  10
ENDBRANCH   8   9
ENDBRANCH   7   8
ENDBRANCH   6   7
ENDBRANCH   5   6
ENDBRANCH   4   5
ENDBRANCH   3   4
ENDBRANCH   2   3
ENDBRANCH   1   2
BRANCH   1  18
ATOM     18  C   UNL     1      -6.850  13.822 -13.636  1.00  0.00     0.000 C 
BRANCH  18  19
ATOM     19  C   UNL     1      -7.547  12.596 -14.254  1.00  0.00     0.000 C 
BRANCH  19  20
ATOM     20  C   UNL     1      -8.987  12.892 -14.714  1.00  0.00     0.000 C 
BRANCH  20  21
ATOM     21  C   UNL     1      -9.114  13.962 -15.814  1.00  0.00     0.000 C 
BRANCH  21  22
ATOM     22  C   UNL     1      -7.866  14.853 -15.930  1.00  0.00     0.000 C 
BRANCH  22  23
ATOM     23  C   UNL     1      -8.214  16.338 -16.124  1.00  0.00     0.000 C 
BRANCH  23  24
ATOM     24  C   UNL     1      -7.270  17.278 -15.357  1.00  0.00    -0.000 C 
BRANCH  24  25
ATOM     25  C   UNL     1      -7.669  17.377 -13.881  1.00  0.00    -0.000 C 
BRANCH  25  26
ATOM     26  C   UNL     1      -8.881  18.304 -13.702  1.00  0.00    -0.000 C 
BRANCH  26  27
ATOM     27  C   UNL     1      -8.917  18.974 -12.320  1.00  0.00    -0.000 C 
BRANCH  27  28
ATOM     28  C   UNL     1      -7.684  19.856 -12.055  1.00  0.00    -0.000 C 
BRANCH  28  29
ATOM     29  C   UNL     1      -7.531  20.978 -13.103  1.00  0.00    -0.000 C 
BRANCH  29  30
ATOM     30  C   UNL     1      -6.132  21.047 -13.736  1.00  0.00    -0.000 C 
BRANCH  30  31
ATOM     31  C   UNL     1      -6.139  20.741 -15.240  1.00  0.00    -0.003 C 
ATOM     32  C   UNL     1      -7.560  20.756 -15.799  1.00  0.00     0.004 C 
ENDBRANCH  30  31
ENDBRANCH  29  30
ENDBRANCH  28  29
ENDBRANCH  27  28
ENDBRANCH  26  27
ENDBRANCH  25  26
ENDBRANCH  24  25
ENDBRANCH  23  24
ENDBRANCH  22  23
ENDBRANCH  21  22
ENDBRANCH  20  21
ENDBRANCH  19  20
ENDBRANCH  18  19
ENDBRANCH   1  18
TORSDOF 28
ENDMDL
MODEL 5
REMARK VINA RESULT:    12.591      1.219      1.999
REMARK INTER + INTRA:          32.923
REMARK INTER:                  34.745
REMARK INTRA:                  -1.821
REMARK UNBOUND:                -0.279
REMARK SMILES CCCCCCCCCCCCCCCCCCCCCCCCCCCCCC(=O)[O-]
REMARK SMILES IDX 16 1 17 2 18 3 19 4 20 5 21 6 22 7 23 8 24 9 25 10 26 11
REMARK SMILES IDX 27 12 28 13 29 14 30 15 31 16 32 17 15 18 14 19 13 20 12 21
REMARK SMILES IDX 11 22 10 23 9 24 8 25 7 26 6 27 5 28 4 29 3 30 2 31 1 32
REMARK H PARENT
REMARK Flexibility Score: inf
ROOT
ATOM      1  C   UNL     1      -7.689  13.444 -12.271  1.00  0.00     0.000 C 
ENDROOT
BRANCH   1   2
ATOM      2  C   UNL     1      -7.597  12.588 -10.993  1.00  0.00     0.000 C 
BRANCH   2   3
ATOM      3  C   UNL     1      -7.579  13.381  -9.673  1.00  0.00     0.000 C 
BRANCH   3   4
ATOM      4  C   UNL     1      -6.576  12.871  -8.616  1.00  0.00     0.000 C 
BRANCH   4   5
ATOM      5  C   UNL     1      -6.876  13.298  -7.165  1.00  0.00     0.000 C 
BRANCH   5   6
ATOM      6  C   UNL     1      -6.367  12.333  -6.078  1.00  0.00     0.000 C 
BRANCH   6   7
ATOM      7  C   UNL     1      -7.043  12.558  -4.716  1.00  0.00     0.000 C 
BRANCH   7   8
ATOM      8  C   UNL     1      -7.740  11.295  -4.176  1.00  0.00     0.000 C 
BRANCH   8   9
ATOM      9  C   UNL     1      -8.715  10.614  -5.153  1.00  0.00     0.000 C 
BRANCH   9  10
ATOM     10  C   UNL     1      -9.743  11.589  -5.754  1.00  0.00     0.000 C 
BRANCH  10  11
ATOM     11  C   UNL     1      -9.574  11.750  -7.275  1.00  0.00     0.000 C 
BRANCH  11  12
ATOM     12  C   UNL     1     -10.636  12.678  -7.888  1.00  0.00     0.000 C 
BRANCH  12  13
ATOM     13  C   UNL     1     -11.506  13.381  -6.831  1.00  0.00     0.006 C 
BRANCH  13  14
ATOM     14  C   UNL     1     -12.745  14.087  -7.408  1.00  0.00     0.053 C 
BRANCH  14  15
ATOM     15  C   UNL     1     -12.729  15.565  -7.166  1.00  0.00     0.041 C 
ATOM     16  O   UNL     1     -12.821  16.015  -5.993  1.00  0.00    -0.550 OA
ATOM     17  O   UNL     1     -12.647  16.449  -8.235  1.00  0.00    -0.550 OA
ENDBRANCH  14  15
ENDBRANCH  13  14
ENDBRANCH  12  13
ENDBRANCH  11  12
ENDBRANCH  10  11
ENDBRANCH   9  10
ENDBRANCH   8   9
ENDBRANCH   7   8
ENDBRANCH   6   7
ENDBRANCH   5   6
ENDBRANCH   4   5
ENDBRANCH   3   4
ENDBRANCH   2   3
ENDBRANCH   1   2
BRANCH   1  18
ATOM     18  C   UNL     1      -7.997  12.637 -13.549  1.00  0.00     0.000 C 
BRANCH  18  19
ATOM     19  C   UNL     1      -7.098  13.026 -14.737  1.00  0.00     0.000 C 
BRANCH  19  20
ATOM     20  C   UNL     1      -6.191  14.233 -14.433  1.00  0.00     0.000 C 
BRANCH  20  21
ATOM     21  C   UNL     1      -6.137  15.304 -15.538  1.00  0.00     0.000 C 
BRANCH  21  22
ATOM     22  C   UNL     1      -6.412  16.723 -15.012  1.00  0.00     0.000 C 
BRANCH  22  23
ATOM     23  C   UNL     1      -6.358  17.787 -16.120  1.00  0.00     0.000 C 
BRANCH  23  24
ATOM     24  C   UNL     1      -7.584  18.714 -16.119  1.00  0.00    -0.000 C 
BRANCH  24  25
ATOM     25  C   UNL     1      -7.267  20.046 -15.430  1.00  0.00    -0.000 C 
BRANCH  25  26
ATOM     26  C   UNL     1      -7.216  19.875 -13.904  1.00  0.00    -0.000 C 
BRANCH  26  27
ATOM     27  C   UNL     1      -8.573  19.474 -13.305  1.00  0.00    -0.000 C 
BRANCH  27  28
ATOM     28  C   UNL     1      -8.436  18.765 -11.946  1.00  0.00    -0.000 C 
BRANCH  28  29
ATOM     29  C   UNL     1      -7.472  17.562 -12.008  1.00  0.00    -0.000 C 
BRANCH  29  30
ATOM     30  C   UNL     1      -8.146  16.249 -12.436  1.00  0.00    -0.000 C 
BRANCH  30  31
ATOM     31  C   UNL     1      -9.678  16.333 -12.433  1.00  0.00    -0.003 C 
ATOM     32  C   UNL     1     -10.241  16.182 -13.844  1.00  0.00     0.004 C 
ENDBRANCH  30  31
ENDBRANCH  29  30
ENDBRANCH  28  29
ENDBRANCH  27  28
ENDBRANCH  26  27
ENDBRANCH  25  26
ENDBRANCH  24  25
ENDBRANCH  23  24
ENDBRANCH  22  23
ENDBRANCH  21  22
ENDBRANCH  20  21
ENDBRANCH  19  20
ENDBRANCH  18  19
ENDBRANCH   1  18
TORSDOF 28
ENDMDL
MODEL 6
REMARK VINA RESULT:    13.116      1.777      9.165
REMARK INTER + INTRA:          34.307
REMARK INTER:                  35.727
REMARK INTRA:                  -1.420
REMARK UNBOUND:                -0.279
REMARK SMILES CCCCCCCCCCCCCCCCCCCCCCCCCCCCCC(=O)[O-]
REMARK SMILES IDX 16 1 17 2 18 3 19 4 20 5 21 6 22 7 23 8 24 9 25 10 26 11
REMARK SMILES IDX 27 12 28 13 29 14 30 15 31 16 32 17 15 18 14 19 13 20 12 21
REMARK SMILES IDX 11 22 10 23 9 24 8 25 7 26 6 27 5 28 4 29 3 30 2 31 1 32
REMARK H PARENT
REMARK Flexibility Score: inf
ROOT
ATOM      1  C   UNL     1      -6.824  13.934 -10.411  1.00  0.00     0.000 C 
ENDROOT
BRANCH   1   2
ATOM      2  C   UNL     1      -7.710  14.457 -11.557  1.00  0.00     0.000 C 
BRANCH   2   3
ATOM      3  C   UNL     1      -6.978  14.716 -12.887  1.00  0.00     0.000 C 
BRANCH   3   4
ATOM      4  C   UNL     1      -6.577  13.448 -13.671  1.00  0.00     0.000 C 
BRANCH   4   5
ATOM      5  C   UNL     1      -7.556  12.262 -13.549  1.00  0.00     0.000 C 
BRANCH   5   6
ATOM      6  C   UNL     1      -8.535  12.094 -14.725  1.00  0.00     0.000 C 
BRANCH   6   7
ATOM      7  C   UNL     1      -9.504  13.279 -14.869  1.00  0.00     0.000 C 
BRANCH   7   8
ATOM      8  C   UNL     1      -9.231  14.129 -16.124  1.00  0.00     0.000 C 
BRANCH   8   9
ATOM      9  C   UNL     1      -7.906  14.912 -16.113  1.00  0.00     0.000 C 
BRANCH   9  10
ATOM     10  C   UNL     1      -8.103  16.422 -15.887  1.00  0.00     0.000 C 
BRANCH  10  11
ATOM     11  C   UNL     1      -6.765  17.169 -15.745  1.00  0.00     0.000 C 
BRANCH  11  12
ATOM     12  C   UNL     1      -6.840  18.317 -14.724  1.00  0.00     0.000 C 
BRANCH  12  13
ATOM     13  C   UNL     1      -8.206  19.025 -14.713  1.00  0.00     0.006 C 
BRANCH  13  14
ATOM     14  C   UNL     1      -8.861  19.099 -13.323  1.00  0.00     0.053 C 
BRANCH  14  15
ATOM     15  C   UNL     1      -9.190  17.747 -12.769  1.00  0.00     0.041 C 
ATOM     16  O   UNL     1     -10.041  17.017 -13.343  1.00  0.00    -0.550 OA
ATOM     17  O   UNL     1      -8.582  17.303 -11.601  1.00  0.00    -0.550 OA
ENDBRANCH  14  15
ENDBRANCH  13  14
ENDBRANCH  12  13
ENDBRANCH  11  12
ENDBRANCH  10  11
ENDBRANCH   9  10
ENDBRANCH   8   9
ENDBRANCH   7   8
ENDBRANCH   6   7
ENDBRANCH   5   6
ENDBRANCH   4   5
ENDBRANCH   3   4
ENDBRANCH   2   3
ENDBRANCH   1   2
BRANCH   1  18
ATOM     18  C   UNL     1      -7.359  14.258  -9.002  1.00  0.00     0.000 C 
BRANCH  18  19
ATOM     19  C   UNL     1      -6.288  14.116  -7.905  1.00  0.00     0.000 C 
BRANCH  19  20
ATOM     20  C   UNL     1      -6.335  12.750  -7.193  1.00  0.00     0.000 C 
BRANCH  20  21
ATOM     21  C   UNL     1      -7.259  12.686  -5.963  1.00  0.00     0.000 C 
BRANCH  21  22
ATOM     22  C   UNL     1      -6.674  11.843  -4.817  1.00  0.00     0.000 C 
BRANCH  22  23
ATOM     23  C   UNL     1      -7.758  11.127  -3.995  1.00  0.00     0.000 C 
BRANCH  23  24
ATOM     24  C   UNL     1      -9.183  11.545  -4.390  1.00  0.00    -0.000 C 
BRANCH  24  25
ATOM     25  C   UNL     1      -9.626  10.847  -5.680  1.00  0.00    -0.000 C 
BRANCH  25  26
ATOM     26  C   UNL     1     -10.729  11.650  -6.386  1.00  0.00    -0.000 C 
BRANCH  26  27
ATOM     27  C   UNL     1     -10.235  13.009  -6.905  1.00  0.00    -0.000 C 
BRANCH  27  28
ATOM     28  C   UNL     1     -10.744  13.325  -8.322  1.00  0.00    -0.000 C 
BRANCH  28  29
ATOM     29  C   UNL     1     -12.276  13.504  -8.367  1.00  0.00    -0.000 C 
BRANCH  29  30
ATOM     30  C   UNL     1     -12.868  14.098  -7.078  1.00  0.00    -0.000 C 
BRANCH  30  31
ATOM     31  C   UNL     1     -13.264  15.573  -7.224  1.00  0.00    -0.003 C 
ATOM     32  C   UNL     1     -12.236  16.487  -6.561  1.00  0.00     0.004 C 
ENDBRANCH  30  31
ENDBRANCH  29  30
ENDBRANCH  28  29
ENDBRANCH  27  28
ENDBRANCH  26  27
ENDBRANCH  25  26
ENDBRANCH  24  25
ENDBRANCH  23  24
ENDBRANCH  22  23
ENDBRANCH  21  22
ENDBRANCH  20  21
ENDBRANCH  19  20
ENDBRANCH  18  19
ENDBRANCH   1  18
TORSDOF 28
ENDMDL
MODEL 7
REMARK VINA RESULT:    13.557      2.201      9.253
REMARK INTER + INTRA:          35.471
REMARK INTER:                  37.714
REMARK INTRA:                  -2.243
REMARK UNBOUND:                -0.279
REMARK SMILES CCCCCCCCCCCCCCCCCCCCCCCCCCCCCC(=O)[O-]
REMARK SMILES IDX 16 1 17 2 18 3 19 4 20 5 21 6 22 7 23 8 24 9 25 10 26 11
REMARK SMILES IDX 27 12 28 13 29 14 30 15 31 16 32 17 15 18 14 19 13 20 12 21
REMARK SMILES IDX 11 22 10 23 9 24 8 25 7 26 6 27 5 28 4 29 3 30 2 31 1 32
REMARK H PARENT
REMARK Flexibility Score: inf
ROOT
ATOM      1  C   UNL     1      -6.179  12.619  -7.135  1.00  0.00     0.000 C 
ENDROOT
BRANCH   1   2
ATOM      2  C   UNL     1      -6.468  12.334  -8.621  1.00  0.00     0.000 C 
BRANCH   2   3
ATOM      3  C   UNL     1      -6.847  13.566  -9.464  1.00  0.00     0.000 C 
BRANCH   3   4
ATOM      4  C   UNL     1      -7.817  13.288 -10.631  1.00  0.00     0.000 C 
BRANCH   4   5
ATOM      5  C   UNL     1      -7.641  14.198 -11.864  1.00  0.00     0.000 C 
BRANCH   5   6
ATOM      6  C   UNL     1      -7.070  13.506 -13.115  1.00  0.00     0.000 C 
BRANCH   6   7
ATOM      7  C   UNL     1      -8.159  13.086 -14.115  1.00  0.00     0.000 C 
BRANCH   7   8
ATOM      8  C   UNL     1      -9.034  14.266 -14.580  1.00  0.00     0.000 C 
BRANCH   8   9
ATOM      9  C   UNL     1      -8.266  15.549 -14.947  1.00  0.00     0.000 C 
BRANCH   9  10
ATOM     10  C   UNL     1      -7.288  15.350 -16.119  1.00  0.00     0.000 C 
BRANCH  10  11
ATOM     11  C   UNL     1      -6.027  16.219 -15.979  1.00  0.00     0.000 C 
BRANCH  11  12
ATOM     12  C   UNL     1      -6.126  17.213 -14.809  1.00  0.00     0.000 C 
BRANCH  12  13
ATOM     13  C   UNL     1      -6.525  18.631 -15.255  1.00  0.00     0.006 C 
BRANCH  13  14
ATOM     14  C   UNL     1      -8.011  18.962 -15.034  1.00  0.00     0.053 C 
BRANCH  14  15
ATOM     15  C   UNL     1      -8.419  18.845 -13.598  1.00  0.00     0.041 C 
ATOM     16  O   UNL     1      -9.393  18.115 -13.274  1.00  0.00    -0.550 OA
ATOM     17  O   UNL     1      -7.747  19.567 -12.619  1.00  0.00    -0.550 OA
ENDBRANCH  14  15
ENDBRANCH  13  14
ENDBRANCH  12  13
ENDBRANCH  11  12
ENDBRANCH  10  11
ENDBRANCH   9  10
ENDBRANCH   8   9
ENDBRANCH   7   8
ENDBRANCH   6   7
ENDBRANCH   5   6
ENDBRANCH   4   5
ENDBRANCH   3   4
ENDBRANCH   2   3
ENDBRANCH   1   2
BRANCH   1  18
ATOM     18  C   UNL     1      -7.195  13.566  -6.466  1.00  0.00     0.000 C 
BRANCH  18  19
ATOM     19  C   UNL     1      -7.633  13.088  -5.069  1.00  0.00     0.000 C 
BRANCH  19  20
ATOM     20  C   UNL     1      -6.842  11.860  -4.579  1.00  0.00     0.000 C 
BRANCH  20  21
ATOM     21  C   UNL     1      -7.694  10.620  -4.256  1.00  0.00     0.000 C 
BRANCH  21  22
ATOM     22  C   UNL     1      -8.374  10.019  -5.497  1.00  0.00     0.000 C 
BRANCH  22  23
ATOM     23  C   UNL     1      -9.886  10.295  -5.538  1.00  0.00     0.000 C 
BRANCH  23  24
ATOM     24  C   UNL     1     -10.218  11.766  -5.834  1.00  0.00    -0.000 C 
BRANCH  24  25
ATOM     25  C   UNL     1     -10.389  12.002  -7.338  1.00  0.00    -0.000 C 
BRANCH  25  26
ATOM     26  C   UNL     1     -10.724  13.474  -7.627  1.00  0.00    -0.000 C 
BRANCH  26  27
ATOM     27  C   UNL     1     -12.225  13.777  -7.501  1.00  0.00    -0.000 C 
BRANCH  27  28
ATOM     28  C   UNL     1     -12.645  15.033  -8.285  1.00  0.00    -0.000 C 
BRANCH  28  29
ATOM     29  C   UNL     1     -12.824  16.261  -7.368  1.00  0.00    -0.000 C 
BRANCH  29  30
ATOM     30  C   UNL     1     -12.868  15.916  -5.870  1.00  0.00    -0.000 C 
BRANCH  30  31
ATOM     31  C   UNL     1     -12.774  17.152  -4.967  1.00  0.00    -0.003 C 
ATOM     32  C   UNL     1     -14.129  17.843  -4.835  1.00  0.00     0.004 C 
ENDBRANCH  30  31
ENDBRANCH  29  30
ENDBRANCH  28  29
ENDBRANCH  27  28
ENDBRANCH  26  27
ENDBRANCH  25  26
ENDBRANCH  24  25
ENDBRANCH  23  24
ENDBRANCH  22  23
ENDBRANCH  21  22
ENDBRANCH  20  21
ENDBRANCH  19  20
ENDBRANCH  18  19
ENDBRANCH   1  18
TORSDOF 28
ENDMDL
MODEL 8
REMARK VINA RESULT:    13.672      1.464      4.099
REMARK INTER + INTRA:          35.772
REMARK INTER:                  36.082
REMARK INTRA:                  -0.310
REMARK UNBOUND:                -0.279
REMARK SMILES CCCCCCCCCCCCCCCCCCCCCCCCCCCCCC(=O)[O-]
REMARK SMILES IDX 16 1 17 2 18 3 19 4 20 5 21 6 22 7 23 8 24 9 25 10 26 11
REMARK SMILES IDX 27 12 28 13 29 14 30 15 31 16 32 17 15 18 14 19 13 20 12 21
REMARK SMILES IDX 11 22 10 23 9 24 8 25 7 26 6 27 5 28 4 29 3 30 2 31 1 32
REMARK H PARENT
REMARK Flexibility Score: inf
ROOT
ATOM      1  C   UNL     1      -9.249  13.733 -14.473  1.00  0.00     0.000 C 
ENDROOT
BRANCH   1   2
ATOM      2  C   UNL     1      -9.081  12.269 -14.922  1.00  0.00     0.000 C 
BRANCH   2   3
ATOM      3  C   UNL     1      -8.020  12.036 -16.015  1.00  0.00     0.000 C 
BRANCH   3   4
ATOM      4  C   UNL     1      -6.649  12.691 -15.747  1.00  0.00     0.000 C 
BRANCH   4   5
ATOM      5  C   UNL     1      -5.908  12.178 -14.495  1.00  0.00     0.000 C 
BRANCH   5   6
ATOM      6  C   UNL     1      -6.165  12.978 -13.205  1.00  0.00     0.000 C 
BRANCH   6   7
ATOM      7  C   UNL     1      -5.940  12.146 -11.932  1.00  0.00     0.000 C 
BRANCH   7   8
ATOM      8  C   UNL     1      -6.662  12.727 -10.701  1.00  0.00     0.000 C 
BRANCH   8   9
ATOM      9  C   UNL     1      -6.036  12.368  -9.342  1.00  0.00     0.000 C 
BRANCH   9  10
ATOM     10  C   UNL     1      -7.036  11.715  -8.373  1.00  0.00     0.000 C 
BRANCH  10  11
ATOM     11  C   UNL     1      -7.920  12.753  -7.660  1.00  0.00     0.000 C 
BRANCH  11  12
ATOM     12  C   UNL     1      -8.900  12.105  -6.667  1.00  0.00     0.000 C 
BRANCH  12  13
ATOM     13  C   UNL     1     -10.365  12.175  -7.132  1.00  0.00     0.006 C 
BRANCH  13  14
ATOM     14  C   UNL     1     -10.653  13.314  -8.126  1.00  0.00     0.053 C 
BRANCH  14  15
ATOM     15  C   UNL     1     -11.969  13.982  -7.868  1.00  0.00     0.041 C 
ATOM     16  O   UNL     1     -13.019  13.295  -7.759  1.00  0.00    -0.550 OA
ATOM     17  O   UNL     1     -12.044  15.367  -7.780  1.00  0.00    -0.550 OA
ENDBRANCH  14  15
ENDBRANCH  13  14
ENDBRANCH  12  13
ENDBRANCH  11  12
ENDBRANCH  10  11
ENDBRANCH   9  10
ENDBRANCH   8   9
ENDBRANCH   7   8
ENDBRANCH   6   7
ENDBRANCH   5   6
ENDBRANCH   4   5
ENDBRANCH   3   4
ENDBRANCH   2   3
ENDBRANCH   1   2
BRANCH   1  18
ATOM     18  C   UNL     1      -9.249  14.751 -15.631  1.00  0.00     0.000 C 
BRANCH  18  19
ATOM     19  C   UNL     1      -7.835  15.221 -16.019  1.00  0.00     0.000 C 
BRANCH  19  20
ATOM     20  C   UNL     1      -6.971  15.593 -14.800  1.00  0.00     0.000 C 
BRANCH  20  21
ATOM     21  C   UNL     1      -5.877  16.642 -15.070  1.00  0.00     0.000 C 
BRANCH  21  22
ATOM     22  C   UNL     1      -6.291  17.682 -16.124  1.00  0.00     0.000 C 
BRANCH  22  23
ATOM     23  C   UNL     1      -5.875  19.112 -15.741  1.00  0.00     0.000 C 
BRANCH  23  24
ATOM     24  C   UNL     1      -7.076  20.043 -15.514  1.00  0.00    -0.000 C 
BRANCH  24  25
ATOM     25  C   UNL     1      -6.935  20.815 -14.197  1.00  0.00    -0.000 C 
BRANCH  25  26
ATOM     26  C   UNL     1      -7.742  20.141 -13.077  1.00  0.00    -0.000 C 
BRANCH  26  27
ATOM     27  C   UNL     1      -8.885  19.266 -13.614  1.00  0.00    -0.000 C 
BRANCH  27  28
ATOM     28  C   UNL     1      -8.790  17.806 -13.136  1.00  0.00    -0.000 C 
BRANCH  28  29
ATOM     29  C   UNL     1      -9.975  17.408 -12.231  1.00  0.00    -0.000 C 
BRANCH  29  30
ATOM     30  C   UNL     1      -9.920  15.952 -11.742  1.00  0.00    -0.000 C 
BRANCH  30  31
ATOM     31  C   UNL     1      -8.602  15.251 -12.095  1.00  0.00    -0.003 C 
ATOM     32  C   UNL     1      -7.435  15.843 -11.309  1.00  0.00     0.004 C 
ENDBRANCH  30  31
ENDBRANCH  29  30
ENDBRANCH  28  29
ENDBRANCH  27  28
ENDBRANCH  26  27
ENDBRANCH  25  26
ENDBRANCH  24  25
ENDBRANCH  23  24
ENDBRANCH  22  23
ENDBRANCH  21  22
ENDBRANCH  20  21
ENDBRANCH  19  20
ENDBRANCH  18  19
ENDBRANCH   1  18
TORSDOF 28
ENDMDL
MODEL 9
REMARK VINA RESULT:    14.027      2.013      9.220
REMARK INTER + INTRA:          36.708
REMARK INTER:                  38.978
REMARK INTRA:                  -2.269
REMARK UNBOUND:                -0.279
REMARK SMILES CCCCCCCCCCCCCCCCCCCCCCCCCCCCCC(=O)[O-]
REMARK SMILES IDX 16 1 17 2 18 3 19 4 20 5 21 6 22 7 23 8 24 9 25 10 26 11
REMARK SMILES IDX 27 12 28 13 29 14 30 15 31 16 32 17 15 18 14 19 13 20 12 21
REMARK SMILES IDX 11 22 10 23 9 24 8 25 7 26 6 27 5 28 4 29 3 30 2 31 1 32
REMARK H PARENT
REMARK Flexibility Score: inf
ROOT
ATOM      1  C   UNL     1      -8.154  12.638 -12.520  1.00  0.00     0.000 C 
ENDROOT
BRANCH   1   2
ATOM      2  C   UNL     1      -7.085  12.170 -13.526  1.00  0.00     0.000 C 
BRANCH   2   3
ATOM      3  C   UNL     1      -7.251  12.709 -14.959  1.00  0.00     0.000 C 
BRANCH   3   4
ATOM      4  C   UNL     1      -8.245  13.880 -15.106  1.00  0.00     0.000 C 
BRANCH   4   5
ATOM      5  C   UNL     1      -7.681  15.139 -15.796  1.00  0.00     0.000 C 
BRANCH   5   6
ATOM      6  C   UNL     1      -6.341  15.650 -15.235  1.00  0.00     0.000 C 
BRANCH   6   7
ATOM      7  C   UNL     1      -5.875  16.956 -15.899  1.00  0.00     0.000 C 
BRANCH   7   8
ATOM      8  C   UNL     1      -7.016  17.973 -16.087  1.00  0.00     0.000 C 
BRANCH   8   9
ATOM      9  C   UNL     1      -6.584  19.451 -16.109  1.00  0.00     0.000 C 
BRANCH   9  10
ATOM     10  C   UNL     1      -7.680  20.405 -15.604  1.00  0.00     0.000 C 
BRANCH  10  11
ATOM     11  C   UNL     1      -7.616  20.611 -14.080  1.00  0.00     0.000 C 
BRANCH  11  12
ATOM     12  C   UNL     1      -8.993  20.465 -13.411  1.00  0.00     0.000 C 
BRANCH  12  13
ATOM     13  C   UNL     1      -9.011  19.409 -12.291  1.00  0.00     0.006 C 
BRANCH  13  14
ATOM     14  C   UNL     1      -8.153  18.167 -12.588  1.00  0.00     0.053 C 
BRANCH  14  15
ATOM     15  C   UNL     1      -8.980  16.953 -12.880  1.00  0.00     0.041 C 
ATOM     16  O   UNL     1      -9.949  17.024 -13.682  1.00  0.00    -0.550 OA
ATOM     17  O   UNL     1      -8.706  15.750 -12.241  1.00  0.00    -0.550 OA
ENDBRANCH  14  15
ENDBRANCH  13  14
ENDBRANCH  12  13
ENDBRANCH  11  12
ENDBRANCH  10  11
ENDBRANCH   9  10
ENDBRANCH   8   9
ENDBRANCH   7   8
ENDBRANCH   6   7
ENDBRANCH   5   6
ENDBRANCH   4   5
ENDBRANCH   3   4
ENDBRANCH   2   3
ENDBRANCH   1   2
BRANCH   1  18
ATOM     18  C   UNL     1      -7.586  13.407 -11.309  1.00  0.00     0.000 C 
BRANCH  18  19
ATOM     19  C   UNL     1      -7.960  12.765  -9.961  1.00  0.00     0.000 C 
BRANCH  19  20
ATOM     20  C   UNL     1      -7.057  13.231  -8.803  1.00  0.00     0.000 C 
BRANCH  20  21
ATOM     21  C   UNL     1      -6.920  12.233  -7.639  1.00  0.00     0.000 C 
BRANCH  21  22
ATOM     22  C   UNL     1      -7.650  12.692  -6.366  1.00  0.00     0.000 C 
BRANCH  22  23
ATOM     23  C   UNL     1      -8.354  11.537  -5.636  1.00  0.00     0.000 C 
BRANCH  23  24
ATOM     24  C   UNL     1      -9.886  11.642  -5.689  1.00  0.00    -0.000 C 
BRANCH  24  25
ATOM     25  C   UNL     1     -10.327  12.957  -6.341  1.00  0.00    -0.000 C 
BRANCH  25  26
ATOM     26  C   UNL     1     -11.121  12.690  -7.629  1.00  0.00    -0.000 C 
BRANCH  26  27
ATOM     27  C   UNL     1     -11.487  13.980  -8.379  1.00  0.00    -0.000 C 
BRANCH  27  28
ATOM     28  C   UNL     1     -12.735  14.671  -7.800  1.00  0.00    -0.000 C 
BRANCH  28  29
ATOM     29  C   UNL     1     -12.373  15.796  -6.807  1.00  0.00    -0.000 C 
BRANCH  29  30
ATOM     30  C   UNL     1     -13.077  15.670  -5.446  1.00  0.00    -0.000 C 
BRANCH  30  31
ATOM     31  C   UNL     1     -13.136  16.997  -4.678  1.00  0.00    -0.003 C 
ATOM     32  C   UNL     1     -14.054  17.998  -5.376  1.00  0.00     0.004 C 
ENDBRANCH  30  31
ENDBRANCH  29  30
ENDBRANCH  28  29
ENDBRANCH  27  28
ENDBRANCH  26  27
ENDBRANCH  25  26
ENDBRANCH  24  25
ENDBRANCH  23  24
ENDBRANCH  22  23
ENDBRANCH  21  22
ENDBRANCH  20  21
ENDBRANCH  19  20
ENDBRANCH  18  19
ENDBRANCH   1  18
TORSDOF 28
ENDMDL
