MODEL 1
REMARK VINA RESULT:    -4.462      0.000      0.000
REMARK INTER + INTRA:          -5.953
REMARK INTER:                  -5.767
REMARK INTRA:                  -0.186
REMARK UNBOUND:                -0.186
REMARK SMILES CCO[C@H]1O[C@H](CO)[C@H](O)[C@H](O)[C@@H]1O
REMARK SMILES IDX 4 1 13 2 11 3 9 4 6 5 5 6 3 7 2 8 1 9 14 10 12 12 7 14 8 15
REMARK SMILES IDX 10 17
REMARK H PARENT 14 11 12 13 8 16 10 18
REMARK Flexibility Score: inf
ROOT
ATOM      1  C   UNL     1     -15.889  -4.467  19.374  1.00  0.00     0.281 C 
ATOM      2  C   UNL     1     -17.281  -4.968  18.928  1.00  0.00     0.202 C 
ATOM      3  C   UNL     1     -17.162  -6.355  18.260  1.00  0.00     0.179 C 
ATOM      4  C   UNL     1     -16.077  -6.338  17.169  1.00  0.00     0.177 C 
ATOM      5  C   UNL     1     -14.770  -5.775  17.769  1.00  0.00     0.178 C 
ATOM      6  O   UNL     1     -14.974  -4.468  18.286  1.00  0.00    -0.341 OA
ENDROOT
BRANCH   1   7
ATOM      7  O   UNL     1     -15.385  -5.262  20.440  1.00  0.00    -0.350 OA
BRANCH   7   8
ATOM      8  C   UNL     1     -16.246  -5.216  21.560  1.00  0.00     0.160 C 
ATOM      9  C   UNL     1     -15.885  -6.346  22.511  1.00  0.00     0.035 C 
ENDBRANCH   7   8
ENDBRANCH   1   7
BRANCH   2  10
ATOM     10  O   UNL     1     -17.841  -4.036  18.037  1.00  0.00    -0.385 OA
ATOM     11  H   UNL     1     -17.662  -4.366  17.119  1.00  0.00     0.211 HD
ENDBRANCH   2  10
BRANCH   3  12
ATOM     12  O   UNL     1     -18.391  -6.751  17.707  1.00  0.00    -0.387 OA
ATOM     13  H   UNL     1     -18.436  -7.739  17.791  1.00  0.00     0.211 HD
ENDBRANCH   3  12
BRANCH   5  14
ATOM     14  C   UNL     1     -13.658  -5.724  16.711  1.00  0.00     0.191 C 
BRANCH  14  15
ATOM     15  O   UNL     1     -12.875  -4.573  16.881  1.00  0.00    -0.394 OA
ATOM     16  H   UNL     1     -12.574  -4.569  17.826  1.00  0.00     0.210 HD
ENDBRANCH  14  15
ENDBRANCH   5  14
BRANCH   4  17
ATOM     17  O   UNL     1     -16.484  -5.547  16.080  1.00  0.00    -0.387 OA
ATOM     18  H   UNL     1     -17.362  -5.151  16.322  1.00  0.00     0.211 HD
ENDBRANCH   4  17
TORSDOF 7
ENDMDL
MODEL 2
REMARK VINA RESULT:    -4.419     17.688     19.507
REMARK INTER + INTRA:          -5.897
REMARK INTER:                  -5.495
REMARK INTRA:                  -0.402
REMARK UNBOUND:                -0.186
REMARK SMILES CCO[C@H]1O[C@H](CO)[C@H](O)[C@H](O)[C@@H]1O
REMARK SMILES IDX 4 1 13 2 11 3 9 4 6 5 5 6 3 7 2 8 1 9 14 10 12 12 7 14 8 15
REMARK SMILES IDX 10 17
REMARK H PARENT 14 11 12 13 8 16 10 18
REMARK Flexibility Score: inf
ROOT
ATOM      1  C   UNL     1     -15.495  10.363  30.674  1.00  0.00     0.281 C 
ATOM      2  C   UNL     1     -15.421  10.056  32.187  1.00  0.00     0.202 C 
ATOM      3  C   UNL     1     -14.129   9.276  32.512  1.00  0.00     0.179 C 
ATOM      4  C   UNL     1     -13.979   8.064  31.575  1.00  0.00     0.177 C 
ATOM      5  C   UNL     1     -14.119   8.539  30.112  1.00  0.00     0.178 C 
ATOM      6  O   UNL     1     -15.372   9.174  29.905  1.00  0.00    -0.341 OA
ENDROOT
BRANCH   1   7
ATOM      7  O   UNL     1     -14.490  11.297  30.300  1.00  0.00    -0.350 OA
BRANCH   7   8
ATOM      8  C   UNL     1     -14.838  11.971  29.108  1.00  0.00     0.160 C 
ATOM      9  C   UNL     1     -13.733  11.773  28.083  1.00  0.00     0.035 C 
ENDBRANCH   7   8
ENDBRANCH   1   7
BRANCH   2  10
ATOM     10  O   UNL     1     -16.555   9.314  32.560  1.00  0.00    -0.385 OA
ATOM     11  H   UNL     1     -16.363   8.363  32.350  1.00  0.00     0.211 HD
ENDBRANCH   2  10
BRANCH   3  12
ATOM     12  O   UNL     1     -14.125   8.850  33.850  1.00  0.00    -0.387 OA
ATOM     13  H   UNL     1     -14.642   8.004  33.882  1.00  0.00     0.211 HD
ENDBRANCH   3  12
BRANCH   5  14
ATOM     14  C   UNL     1     -13.991   7.359  29.138  1.00  0.00     0.191 C 
BRANCH  14  15
ATOM     15  O   UNL     1     -15.234   6.731  28.966  1.00  0.00    -0.394 OA
ATOM     16  H   UNL     1     -15.762   6.915  29.786  1.00  0.00     0.210 HD
ENDBRANCH  14  15
ENDBRANCH   5  14
BRANCH   4  17
ATOM     17  O   UNL     1     -14.958   7.096  31.861  1.00  0.00    -0.387 OA
ATOM     18  H   UNL     1     -14.504   6.214  31.855  1.00  0.00     0.211 HD
ENDBRANCH   4  17
TORSDOF 7
ENDMDL
MODEL 3
REMARK VINA RESULT:    -4.317      2.178      4.082
REMARK INTER + INTRA:          -5.765
REMARK INTER:                  -5.615
REMARK INTRA:                  -0.150
REMARK UNBOUND:                -0.186
REMARK SMILES CCO[C@H]1O[C@H](CO)[C@H](O)[C@H](O)[C@@H]1O
REMARK SMILES IDX 4 1 13 2 11 3 9 4 6 5 5 6 3 7 2 8 1 9 14 10 12 12 7 14 8 15
REMARK SMILES IDX 10 17
REMARK H PARENT 14 11 12 13 8 16 10 18
REMARK Flexibility Score: inf
ROOT
ATOM      1  C   UNL     1     -16.461  -4.992  17.616  1.00  0.00     0.281 C 
ATOM      2  C   UNL     1     -15.369  -4.064  18.193  1.00  0.00     0.202 C 
ATOM      3  C   UNL     1     -14.373  -3.657  17.086  1.00  0.00     0.179 C 
ATOM      4  C   UNL     1     -13.866  -4.898  16.332  1.00  0.00     0.177 C 
ATOM      5  C   UNL     1     -15.077  -5.732  15.862  1.00  0.00     0.178 C 
ATOM      6  O   UNL     1     -15.884  -6.117  16.966  1.00  0.00    -0.341 OA
ENDROOT
BRANCH   1   7
ATOM      7  O   UNL     1     -17.302  -4.282  16.716  1.00  0.00    -0.350 OA
BRANCH   7   8
ATOM      8  C   UNL     1     -18.276  -3.533  17.412  1.00  0.00     0.160 C 
ATOM      9  C   UNL     1     -19.529  -3.430  16.557  1.00  0.00     0.035 C 
ENDBRANCH   7   8
ENDBRANCH   1   7
BRANCH   2  10
ATOM     10  O   UNL     1     -14.703  -4.732  19.236  1.00  0.00    -0.385 OA
ATOM     11  H   UNL     1     -13.991  -5.284  18.821  1.00  0.00     0.211 HD
ENDBRANCH   2  10
BRANCH   3  12
ATOM     12  O   UNL     1     -13.287  -2.947  17.625  1.00  0.00    -0.387 OA
ATOM     13  H   UNL     1     -12.467  -3.447  17.375  1.00  0.00     0.211 HD
ENDBRANCH   3  12
BRANCH   5  14
ATOM     14  C   UNL     1     -14.620  -6.993  15.115  1.00  0.00     0.191 C 
BRANCH  14  15
ATOM     15  O   UNL     1     -15.275  -7.092  13.878  1.00  0.00    -0.394 OA
ATOM     16  H   UNL     1     -14.963  -6.327  13.329  1.00  0.00     0.210 HD
ENDBRANCH  14  15
ENDBRANCH   5  14
BRANCH   4  17
ATOM     17  O   UNL     1     -13.041  -5.677  17.163  1.00  0.00    -0.387 OA
ATOM     18  H   UNL     1     -12.758  -6.467  16.633  1.00  0.00     0.211 HD
ENDBRANCH   4  17
TORSDOF 7
ENDMDL
MODEL 4
REMARK VINA RESULT:    -4.262      1.433      3.421
REMARK INTER + INTRA:          -5.695
REMARK INTER:                  -5.312
REMARK INTRA:                  -0.382
REMARK UNBOUND:                -0.186
REMARK SMILES CCO[C@H]1O[C@H](CO)[C@H](O)[C@H](O)[C@@H]1O
REMARK SMILES IDX 4 1 13 2 11 3 9 4 6 5 5 6 3 7 2 8 1 9 14 10 12 12 7 14 8 15
REMARK SMILES IDX 10 17
REMARK H PARENT 14 11 12 13 8 16 10 18
REMARK Flexibility Score: inf
ROOT
ATOM      1  C   UNL     1     -15.285  -6.514  18.776  1.00  0.00     0.281 C 
ATOM      2  C   UNL     1     -14.447  -6.002  17.584  1.00  0.00     0.202 C 
ATOM      3  C   UNL     1     -15.020  -4.668  17.060  1.00  0.00     0.179 C 
ATOM      4  C   UNL     1     -16.533  -4.790  16.811  1.00  0.00     0.177 C 
ATOM      5  C   UNL     1     -17.209  -5.351  18.081  1.00  0.00     0.178 C 
ATOM      6  O   UNL     1     -16.660  -6.614  18.429  1.00  0.00    -0.341 OA
ENDROOT
BRANCH   1   7
ATOM      7  O   UNL     1     -15.123  -5.665  19.906  1.00  0.00    -0.350 OA
BRANCH   7   8
ATOM      8  C   UNL     1     -14.845  -6.415  21.071  1.00  0.00     0.160 C 
ATOM      9  C   UNL     1     -15.847  -6.044  22.153  1.00  0.00     0.035 C 
ENDBRANCH   7   8
ENDBRANCH   1   7
BRANCH   2  10
ATOM     10  O   UNL     1     -14.452  -6.975  16.568  1.00  0.00    -0.385 OA
ATOM     11  H   UNL     1     -13.876  -6.634  15.836  1.00  0.00     0.211 HD
ENDBRANCH   2  10
BRANCH   3  12
ATOM     12  O   UNL     1     -14.370  -4.272  15.880  1.00  0.00    -0.387 OA
ATOM     13  H   UNL     1     -13.399  -4.250  16.083  1.00  0.00     0.211 HD
ENDBRANCH   3  12
BRANCH   5  14
ATOM     14  C   UNL     1     -18.723  -5.505  17.875  1.00  0.00     0.191 C 
BRANCH  14  15
ATOM     15  O   UNL     1     -19.025  -6.801  17.432  1.00  0.00    -0.394 OA
ATOM     16  H   UNL     1     -20.004  -6.918  17.540  1.00  0.00     0.210 HD
ENDBRANCH  14  15
ENDBRANCH   5  14
BRANCH   4  17
ATOM     17  O   UNL     1     -16.786  -5.639  15.719  1.00  0.00    -0.387 OA
ATOM     18  H   UNL     1     -17.114  -6.499  16.090  1.00  0.00     0.211 HD
ENDBRANCH   4  17
TORSDOF 7
ENDMDL
MODEL 5
REMARK VINA RESULT:    -4.260     17.235     19.045
REMARK INTER + INTRA:          -5.691
REMARK INTER:                  -5.325
REMARK INTRA:                  -0.366
REMARK UNBOUND:                -0.186
REMARK SMILES CCO[C@H]1O[C@H](CO)[C@H](O)[C@H](O)[C@@H]1O
REMARK SMILES IDX 4 1 13 2 11 3 9 4 6 5 5 6 3 7 2 8 1 9 14 10 12 12 7 14 8 15
REMARK SMILES IDX 10 17
REMARK H PARENT 14 11 12 13 8 16 10 18
REMARK Flexibility Score: inf
ROOT
ATOM      1  C   UNL     1     -14.330   7.665  30.681  1.00  0.00     0.281 C 
ATOM      2  C   UNL     1     -15.116   8.003  31.968  1.00  0.00     0.202 C 
ATOM      3  C   UNL     1     -16.197   9.065  31.672  1.00  0.00     0.179 C 
ATOM      4  C   UNL     1     -15.587  10.264  30.925  1.00  0.00     0.177 C 
ATOM      5  C   UNL     1     -14.807   9.749  29.697  1.00  0.00     0.178 C 
ATOM      6  O   UNL     1     -13.789   8.839  30.090  1.00  0.00    -0.341 OA
ENDROOT
BRANCH   1   7
ATOM      7  O   UNL     1     -15.160   6.982  29.749  1.00  0.00    -0.350 OA
BRANCH   7   8
ATOM      8  C   UNL     1     -14.801   5.620  29.650  1.00  0.00     0.160 C 
ATOM      9  C   UNL     1     -13.847   5.440  28.480  1.00  0.00     0.035 C 
ENDBRANCH   7   8
ENDBRANCH   1   7
BRANCH   2  10
ATOM     10  O   UNL     1     -14.217   8.470  32.944  1.00  0.00    -0.385 OA
ATOM     11  H   UNL     1     -13.364   8.672  32.481  1.00  0.00     0.211 HD
ENDBRANCH   2  10
BRANCH   3  12
ATOM     12  O   UNL     1     -16.810   9.499  32.858  1.00  0.00    -0.387 OA
ATOM     13  H   UNL     1     -16.118   9.454  33.569  1.00  0.00     0.211 HD
ENDBRANCH   3  12
BRANCH   5  14
ATOM     14  C   UNL     1     -14.166  10.912  28.926  1.00  0.00     0.191 C 
BRANCH  14  15
ATOM     15  O   UNL     1     -14.796  12.122  29.256  1.00  0.00    -0.394 OA
ATOM     16  H   UNL     1     -14.412  12.814  28.658  1.00  0.00     0.210 HD
ENDBRANCH  14  15
ENDBRANCH   5  14
BRANCH   4  17
ATOM     17  O   UNL     1     -14.726  10.985  31.772  1.00  0.00    -0.387 OA
ATOM     18  H   UNL     1     -13.798  10.723  31.533  1.00  0.00     0.211 HD
ENDBRANCH   4  17
TORSDOF 7
ENDMDL
MODEL 6
REMARK VINA RESULT:    -4.258      2.307      4.477
REMARK INTER + INTRA:          -5.689
REMARK INTER:                  -5.333
REMARK INTRA:                  -0.356
REMARK UNBOUND:                -0.186
REMARK SMILES CCO[C@H]1O[C@H](CO)[C@H](O)[C@H](O)[C@@H]1O
REMARK SMILES IDX 4 1 13 2 11 3 9 4 6 5 5 6 3 7 2 8 1 9 14 10 12 12 7 14 8 15
REMARK SMILES IDX 10 17
REMARK H PARENT 14 11 12 13 8 16 10 18
REMARK Flexibility Score: inf
ROOT
ATOM      1  C   UNL     1     -14.388  -3.628  17.408  1.00  0.00     0.281 C 
ATOM      2  C   UNL     1     -13.770  -4.506  16.297  1.00  0.00     0.202 C 
ATOM      3  C   UNL     1     -14.879  -5.251  15.524  1.00  0.00     0.179 C 
ATOM      4  C   UNL     1     -15.827  -5.972  16.498  1.00  0.00     0.177 C 
ATOM      5  C   UNL     1     -16.318  -4.965  17.561  1.00  0.00     0.178 C 
ATOM      6  O   UNL     1     -15.222  -4.398  18.263  1.00  0.00    -0.341 OA
ENDROOT
BRANCH   1   7
ATOM      7  O   UNL     1     -15.124  -2.548  16.845  1.00  0.00    -0.350 OA
BRANCH   7   8
ATOM      8  C   UNL     1     -14.802  -1.327  17.478  1.00  0.00     0.160 C 
ATOM      9  C   UNL     1     -14.852  -0.207  16.451  1.00  0.00     0.035 C 
ENDBRANCH   7   8
ENDBRANCH   1   7
BRANCH   2  10
ATOM     10  O   UNL     1     -12.875  -5.421  16.881  1.00  0.00    -0.385 OA
ATOM     11  H   UNL     1     -12.794  -5.177  17.839  1.00  0.00     0.211 HD
ENDBRANCH   2  10
BRANCH   3  12
ATOM     12  O   UNL     1     -14.327  -6.174  14.621  1.00  0.00    -0.387 OA
ATOM     13  H   UNL     1     -13.752  -5.655  14.000  1.00  0.00     0.211 HD
ENDBRANCH   3  12
BRANCH   5  14
ATOM     14  C   UNL     1     -17.258  -5.644  18.567  1.00  0.00     0.191 C 
BRANCH  14  15
ATOM     15  O   UNL     1     -17.892  -6.747  17.976  1.00  0.00    -0.394 OA
ATOM     16  H   UNL     1     -17.618  -6.755  17.022  1.00  0.00     0.210 HD
ENDBRANCH  14  15
ENDBRANCH   5  14
BRANCH   4  17
ATOM     17  O   UNL     1     -15.168  -7.045  17.123  1.00  0.00    -0.387 OA
ATOM     18  H   UNL     1     -14.673  -6.670  17.898  1.00  0.00     0.211 HD
ENDBRANCH   4  17
TORSDOF 7
ENDMDL
MODEL 7
REMARK VINA RESULT:    -4.215      1.595      4.173
REMARK INTER + INTRA:          -5.633
REMARK INTER:                  -5.284
REMARK INTRA:                  -0.349
REMARK UNBOUND:                -0.186
REMARK SMILES CCO[C@H]1O[C@H](CO)[C@H](O)[C@H](O)[C@@H]1O
REMARK SMILES IDX 4 1 13 2 11 3 9 4 6 5 5 6 3 7 2 8 1 9 14 10 12 12 7 14 8 15
REMARK SMILES IDX 10 17
REMARK H PARENT 14 11 12 13 8 16 10 18
REMARK Flexibility Score: inf
ROOT
ATOM      1  C   UNL     1     -15.553  -6.347  18.038  1.00  0.00     0.281 C 
ATOM      2  C   UNL     1     -16.970  -5.738  18.129  1.00  0.00     0.202 C 
ATOM      3  C   UNL     1     -17.106  -4.885  19.408  1.00  0.00     0.179 C 
ATOM      4  C   UNL     1     -16.639  -5.679  20.640  1.00  0.00     0.177 C 
ATOM      5  C   UNL     1     -15.230  -6.249  20.367  1.00  0.00     0.178 C 
ATOM      6  O   UNL     1     -15.236  -7.079  19.214  1.00  0.00    -0.341 OA
ENDROOT
BRANCH   1   7
ATOM      7  O   UNL     1     -14.582  -5.332  17.814  1.00  0.00    -0.350 OA
BRANCH   7   8
ATOM      8  C   UNL     1     -13.781  -5.632  16.690  1.00  0.00     0.160 C 
ATOM      9  C   UNL     1     -14.350  -4.926  15.470  1.00  0.00     0.035 C 
ENDBRANCH   7   8
ENDBRANCH   1   7
BRANCH   2  10
ATOM     10  O   UNL     1     -17.917  -6.778  18.125  1.00  0.00    -0.385 OA
ATOM     11  H   UNL     1     -18.112  -6.997  19.073  1.00  0.00     0.211 HD
ENDBRANCH   2  10
BRANCH   3  12
ATOM     12  O   UNL     1     -18.432  -4.458  19.587  1.00  0.00    -0.387 OA
ATOM     13  H   UNL     1     -18.430  -3.471  19.478  1.00  0.00     0.211 HD
ENDBRANCH   3  12
BRANCH   5  14
ATOM     14  C   UNL     1     -14.727  -7.065  21.567  1.00  0.00     0.191 C 
BRANCH  14  15
ATOM     15  O   UNL     1     -15.489  -6.776  22.708  1.00  0.00    -0.394 OA
ATOM     16  H   UNL     1     -15.039  -6.021  23.168  1.00  0.00     0.210 HD
ENDBRANCH  14  15
ENDBRANCH   5  14
BRANCH   4  17
ATOM     17  O   UNL     1     -17.534  -6.727  20.919  1.00  0.00    -0.387 OA
ATOM     18  H   UNL     1     -17.437  -6.943  21.883  1.00  0.00     0.211 HD
ENDBRANCH   4  17
TORSDOF 7
ENDMDL
MODEL 8
REMARK VINA RESULT:    -4.165      1.367      2.114
REMARK INTER + INTRA:          -5.569
REMARK INTER:                  -5.228
REMARK INTRA:                  -0.342
REMARK UNBOUND:                -0.186
REMARK SMILES CCO[C@H]1O[C@H](CO)[C@H](O)[C@H](O)[C@@H]1O
REMARK SMILES IDX 4 1 13 2 11 3 9 4 6 5 5 6 3 7 2 8 1 9 14 10 12 12 7 14 8 15
REMARK SMILES IDX 10 17
REMARK H PARENT 14 11 12 13 8 16 10 18
REMARK Flexibility Score: inf
ROOT
ATOM      1  C   UNL     1     -17.149  -5.662  19.134  1.00  0.00     0.281 C 
ATOM      2  C   UNL     1     -17.018  -6.369  17.767  1.00  0.00     0.202 C 
ATOM      3  C   UNL     1     -15.559  -6.305  17.268  1.00  0.00     0.179 C 
ATOM      4  C   UNL     1     -15.030  -4.862  17.328  1.00  0.00     0.177 C 
ATOM      5  C   UNL     1     -15.274  -4.294  18.743  1.00  0.00     0.178 C 
ATOM      6  O   UNL     1     -16.656  -4.330  19.069  1.00  0.00    -0.341 OA
ENDROOT
BRANCH   1   7
ATOM      7  O   UNL     1     -16.464  -6.391  20.145  1.00  0.00    -0.350 OA
BRANCH   7   8
ATOM      8  C   UNL     1     -16.950  -6.059  21.430  1.00  0.00     0.160 C 
ATOM      9  C   UNL     1     -15.872  -6.355  22.461  1.00  0.00     0.035 C 
ENDBRANCH   7   8
ENDBRANCH   1   7
BRANCH   2  10
ATOM     10  O   UNL     1     -17.883  -5.750  16.846  1.00  0.00    -0.385 OA
ATOM     11  H   UNL     1     -18.810  -5.925  17.155  1.00  0.00     0.211 HD
ENDBRANCH   2  10
BRANCH   3  12
ATOM     12  O   UNL     1     -15.456  -6.800  15.957  1.00  0.00    -0.387 OA
ATOM     13  H   UNL     1     -16.168  -7.483  15.854  1.00  0.00     0.211 HD
ENDBRANCH   3  12
BRANCH   5  14
ATOM     14  C   UNL     1     -14.774  -2.846  18.847  1.00  0.00     0.191 C 
BRANCH  14  15
ATOM     15  O   UNL     1     -13.596  -2.682  18.103  1.00  0.00    -0.394 OA
ATOM     16  H   UNL     1     -13.842  -2.167  17.291  1.00  0.00     0.210 HD
ENDBRANCH  14  15
ENDBRANCH   5  14
BRANCH   4  17
ATOM     17  O   UNL     1     -15.677  -4.060  16.371  1.00  0.00    -0.387 OA
ATOM     18  H   UNL     1     -16.243  -4.663  15.822  1.00  0.00     0.211 HD
ENDBRANCH   4  17
TORSDOF 7
ENDMDL
MODEL 9
REMARK VINA RESULT:    -4.019      1.699      2.277
REMARK INTER + INTRA:          -5.380
REMARK INTER:                  -4.972
REMARK INTRA:                  -0.408
REMARK UNBOUND:                -0.186
REMARK SMILES CCO[C@H]1O[C@H](CO)[C@H](O)[C@H](O)[C@@H]1O
REMARK SMILES IDX 4 1 13 2 11 3 9 4 6 5 5 6 3 7 2 8 1 9 14 10 12 12 7 14 8 15
REMARK SMILES IDX 10 17
REMARK H PARENT 14 11 12 13 8 16 10 18
REMARK Flexibility Score: inf
ROOT
ATOM      1  C   UNL     1     -15.371  -5.134  19.830  1.00  0.00     0.281 C 
ATOM      2  C   UNL     1     -15.625  -3.684  19.361  1.00  0.00     0.202 C 
ATOM      3  C   UNL     1     -16.450  -3.680  18.057  1.00  0.00     0.179 C 
ATOM      4  C   UNL     1     -15.820  -4.620  17.015  1.00  0.00     0.177 C 
ATOM      5  C   UNL     1     -15.597  -6.006  17.656  1.00  0.00     0.178 C 
ATOM      6  O   UNL     1     -14.763  -5.905  18.802  1.00  0.00    -0.341 OA
ENDROOT
BRANCH   1   7
ATOM      7  O   UNL     1     -16.584  -5.746  20.252  1.00  0.00    -0.350 OA
BRANCH   7   8
ATOM      8  C   UNL     1     -16.842  -5.479  21.615  1.00  0.00     0.160 C 
ATOM      9  C   UNL     1     -15.919  -6.331  22.473  1.00  0.00     0.035 C 
ENDBRANCH   7   8
ENDBRANCH   1   7
BRANCH   2  10
ATOM     10  O   UNL     1     -14.389  -3.042  19.166  1.00  0.00    -0.385 OA
ATOM     11  H   UNL     1     -13.867  -3.601  18.534  1.00  0.00     0.211 HD
ENDBRANCH   2  10
BRANCH   3  12
ATOM     12  O   UNL     1     -16.552  -2.381  17.532  1.00  0.00    -0.387 OA
ATOM     13  H   UNL     1     -15.624  -2.066  17.370  1.00  0.00     0.211 HD
ENDBRANCH   3  12
BRANCH   5  14
ATOM     14  C   UNL     1     -14.953  -6.978  16.656  1.00  0.00     0.191 C 
BRANCH  14  15
ATOM     15  O   UNL     1     -13.575  -6.735  16.558  1.00  0.00    -0.394 OA
ATOM     16  H   UNL     1     -13.127  -7.396  17.147  1.00  0.00     0.210 HD
ENDBRANCH  14  15
ENDBRANCH   5  14
BRANCH   4  17
ATOM     17  O   UNL     1     -14.595  -4.100  16.560  1.00  0.00    -0.387 OA
ATOM     18  H   UNL     1     -14.627  -4.108  15.567  1.00  0.00     0.211 HD
ENDBRANCH   4  17
TORSDOF 7
ENDMDL
