MODEL 1
REMARK VINA RESULT:    -4.737      0.000      0.000
REMARK INTER + INTRA:          -8.203
REMARK INTER:                  -7.229
REMARK INTRA:                  -0.974
REMARK UNBOUND:                -0.974
REMARK SMILES OC[C@H]1O[C@](CO)(O[C@@H]2O[C@H](CO)[C@@H](O)[C@H](O)[C@H]2O)[C@@H](O)[C@@H]1O
REMARK SMILES IDX 8 1 9 2 11 3 14 4 10 5 16 6 18 7 12 8 13 9 15 11 17 13 19 15
REMARK SMILES IDX 5 17 20 18 4 19 22 20 3 21 6 22 7 23 21 25 23 27 2 29 1 30
REMARK H PARENT 13 10 15 12 17 14 19 16 7 24 21 26 23 28 1 31
REMARK Flexibility Score: inf
ROOT
ATOM      1  O   UNL     1      10.368 -17.200   7.197  1.00  0.00    -0.313 OA
ENDROOT
BRANCH   1   2
ATOM      2  C   UNL     1      11.169 -17.266   8.369  1.00  0.00     0.285 C 
ATOM      3  C   UNL     1      12.049 -15.040   8.201  1.00  0.00     0.178 C 
ATOM      4  C   UNL     1      13.476 -15.550   7.879  1.00  0.00     0.177 C 
ATOM      5  O   UNL     1      11.270 -15.971   8.948  1.00  0.00    -0.341 OA
ATOM      6  C   UNL     1      13.462 -16.971   7.299  1.00  0.00     0.179 C 
ATOM      7  C   UNL     1      12.566 -17.894   8.144  1.00  0.00     0.202 C 
BRANCH   3   8
ATOM      8  C   UNL     1      11.307 -14.464   6.976  1.00  0.00     0.191 C 
BRANCH   8   9
ATOM      9  O   UNL     1      11.199 -13.069   7.078  1.00  0.00    -0.394 OA
ATOM     10  H   UNL     1      10.916 -12.737   6.187  1.00  0.00     0.210 HD
ENDBRANCH   8   9
ENDBRANCH   3   8
BRANCH   4  11
ATOM     11  O   UNL     1      14.254 -15.544   9.050  1.00  0.00    -0.387 OA
ATOM     12  H   UNL     1      14.017 -16.362   9.560  1.00  0.00     0.211 HD
ENDBRANCH   4  11
BRANCH   6  13
ATOM     13  O   UNL     1      13.021 -16.936   5.966  1.00  0.00    -0.387 OA
ATOM     14  H   UNL     1      12.411 -17.710   5.842  1.00  0.00     0.211 HD
ENDBRANCH   6  13
BRANCH   7  15
ATOM     15  O   UNL     1      13.160 -18.125   9.397  1.00  0.00    -0.385 OA
ATOM     16  H   UNL     1      13.558 -19.035   9.367  1.00  0.00     0.211 HD
ENDBRANCH   7  15
ENDBRANCH   1   2
BRANCH   1  17
ATOM     17  C   UNL     1       8.943 -17.174   7.330  1.00  0.00     0.224 C 
ATOM     18  C   UNL     1       8.247 -15.789   7.245  1.00  0.00     0.208 C 
ATOM     19  O   UNL     1       8.569 -17.735   8.573  1.00  0.00    -0.337 OA
ATOM     20  C   UNL     1       6.953 -16.041   7.991  1.00  0.00     0.180 C 
ATOM     21  C   UNL     1       7.394 -17.083   9.026  1.00  0.00     0.179 C 
BRANCH  17  22
ATOM     22  C   UNL     1       8.418 -18.125   6.223  1.00  0.00     0.225 C 
BRANCH  22  23
ATOM     23  O   UNL     1       9.205 -18.015   5.065  1.00  0.00    -0.391 OA
ATOM     24  H   UNL     1       9.705 -18.868   4.976  1.00  0.00     0.210 HD
ENDBRANCH  22  23
ENDBRANCH  17  22
BRANCH  18  25
ATOM     25  O   UNL     1       8.075 -15.313   5.928  1.00  0.00    -0.385 OA
ATOM     26  H   UNL     1       7.313 -15.789   5.508  1.00  0.00     0.211 HD
ENDBRANCH  18  25
BRANCH  20  27
ATOM     27  O   UNL     1       6.485 -14.877   8.622  1.00  0.00    -0.387 OA
ATOM     28  H   UNL     1       7.050 -14.750   9.428  1.00  0.00     0.211 HD
ENDBRANCH  20  27
BRANCH  21  29
ATOM     29  C   UNL     1       6.306 -18.125   9.315  1.00  0.00     0.191 C 
BRANCH  29  30
ATOM     30  O   UNL     1       5.037 -17.617   9.002  1.00  0.00    -0.394 OA
ATOM     31  H   UNL     1       4.754 -17.056   9.770  1.00  0.00     0.210 HD
ENDBRANCH  29  30
ENDBRANCH  21  29
ENDBRANCH   1  17
TORSDOF 13
ENDMDL
MODEL 2
REMARK VINA RESULT:    -4.563      1.630      5.935
REMARK INTER + INTRA:          -7.938
REMARK INTER:                  -6.826
REMARK INTRA:                  -1.112
REMARK UNBOUND:                -0.974
REMARK SMILES OC[C@H]1O[C@](CO)(O[C@@H]2O[C@H](CO)[C@@H](O)[C@H](O)[C@H]2O)[C@@H](O)[C@@H]1O
REMARK SMILES IDX 8 1 9 2 11 3 14 4 10 5 16 6 18 7 12 8 13 9 15 11 17 13 19 15
REMARK SMILES IDX 5 17 20 18 4 19 22 20 3 21 6 22 7 23 21 25 23 27 2 29 1 30
REMARK H PARENT 13 10 15 12 17 14 19 16 7 24 21 26 23 28 1 31
REMARK Flexibility Score: inf
ROOT
ATOM      1  O   UNL     1      11.100 -16.540   6.875  1.00  0.00    -0.313 OA
ENDROOT
BRANCH   1   2
ATOM      2  C   UNL     1      10.172 -16.868   7.900  1.00  0.00     0.285 C 
ATOM      3  C   UNL     1       8.680 -18.122   6.501  1.00  0.00     0.178 C 
ATOM      4  C   UNL     1       7.562 -17.054   6.611  1.00  0.00     0.177 C 
ATOM      5  O   UNL     1       9.571 -18.125   7.613  1.00  0.00    -0.341 OA
ATOM      6  C   UNL     1       8.121 -15.672   6.975  1.00  0.00     0.179 C 
ATOM      7  C   UNL     1       9.103 -15.777   8.156  1.00  0.00     0.202 C 
BRANCH   3   8
ATOM      8  C   UNL     1       9.401 -18.125   5.137  1.00  0.00     0.191 C 
BRANCH   8   9
ATOM      9  O   UNL     1       8.558 -17.624   4.134  1.00  0.00    -0.394 OA
ATOM     10  H   UNL     1       8.965 -16.779   3.811  1.00  0.00     0.210 HD
ENDBRANCH   8   9
ENDBRANCH   3   8
BRANCH   4  11
ATOM     11  O   UNL     1       6.634 -17.443   7.592  1.00  0.00    -0.387 OA
ATOM     12  H   UNL     1       5.752 -17.523   7.143  1.00  0.00     0.211 HD
ENDBRANCH   4  11
BRANCH   6  13
ATOM     13  O   UNL     1       8.751 -15.103   5.856  1.00  0.00    -0.387 OA
ATOM     14  H   UNL     1       9.422 -15.760   5.536  1.00  0.00     0.211 HD
ENDBRANCH   6  13
BRANCH   7  15
ATOM     15  O   UNL     1       8.406 -16.100   9.333  1.00  0.00    -0.385 OA
ATOM     16  H   UNL     1       7.750 -16.807   9.098  1.00  0.00     0.211 HD
ENDBRANCH   7  15
ENDBRANCH   1   2
BRANCH   1  17
ATOM     17  C   UNL     1      12.443 -16.201   7.237  1.00  0.00     0.224 C 
ATOM     18  C   UNL     1      12.969 -16.733   8.598  1.00  0.00     0.208 C 
ATOM     19  O   UNL     1      12.587 -14.795   7.273  1.00  0.00    -0.337 OA
ATOM     20  C   UNL     1      14.078 -15.751   8.912  1.00  0.00     0.180 C 
ATOM     21  C   UNL     1      13.540 -14.466   8.271  1.00  0.00     0.179 C 
BRANCH  17  22
ATOM     22  C   UNL     1      13.318 -16.719   6.066  1.00  0.00     0.225 C 
BRANCH  22  23
ATOM     23  O   UNL     1      12.828 -17.946   5.590  1.00  0.00    -0.391 OA
ATOM     24  H   UNL     1      11.900 -18.037   5.932  1.00  0.00     0.210 HD
ENDBRANCH  22  23
ENDBRANCH  17  22
BRANCH  18  25
ATOM     25  O   UNL     1      13.379 -18.083   8.566  1.00  0.00    -0.385 OA
ATOM     26  H   UNL     1      13.117 -18.481   7.696  1.00  0.00     0.211 HD
ENDBRANCH  18  25
BRANCH  20  27
ATOM     27  O   UNL     1      14.245 -15.586  10.297  1.00  0.00    -0.387 OA
ATOM     28  H   UNL     1      13.929 -14.670  10.509  1.00  0.00     0.211 HD
ENDBRANCH  20  27
BRANCH  21  29
ATOM     29  C   UNL     1      14.650 -13.602   7.657  1.00  0.00     0.191 C 
BRANCH  29  30
ATOM     30  O   UNL     1      15.116 -14.170   6.462  1.00  0.00    -0.394 OA
ATOM     31  H   UNL     1      15.286 -15.130   6.648  1.00  0.00     0.210 HD
ENDBRANCH  29  30
ENDBRANCH  21  29
ENDBRANCH   1  17
TORSDOF 13
ENDMDL
MODEL 3
REMARK VINA RESULT:    -3.872      0.911      2.477
REMARK INTER + INTRA:          -6.883
REMARK INTER:                  -6.696
REMARK INTRA:                  -0.187
REMARK UNBOUND:                -0.974
REMARK SMILES OC[C@H]1O[C@](CO)(O[C@@H]2O[C@H](CO)[C@@H](O)[C@H](O)[C@H]2O)[C@@H](O)[C@@H]1O
REMARK SMILES IDX 8 1 9 2 11 3 14 4 10 5 16 6 18 7 12 8 13 9 15 11 17 13 19 15
REMARK SMILES IDX 5 17 20 18 4 19 22 20 3 21 6 22 7 23 21 25 23 27 2 29 1 30
REMARK H PARENT 13 10 15 12 17 14 19 16 7 24 21 26 23 28 1 31
REMARK Flexibility Score: inf
ROOT
ATOM      1  O   UNL     1      10.866 -16.925   7.688  1.00  0.00    -0.313 OA
ENDROOT
BRANCH   1   2
ATOM      2  C   UNL     1      11.494 -15.853   6.998  1.00  0.00     0.285 C 
ATOM      3  C   UNL     1      13.719 -16.745   7.112  1.00  0.00     0.178 C 
ATOM      4  C   UNL     1      14.189 -15.642   8.094  1.00  0.00     0.177 C 
ATOM      5  O   UNL     1      12.626 -16.343   6.290  1.00  0.00    -0.341 OA
ATOM      6  C   UNL     1      13.016 -15.018   8.862  1.00  0.00     0.179 C 
ATOM      7  C   UNL     1      11.869 -14.653   7.902  1.00  0.00     0.202 C 
BRANCH   3   8
ATOM      8  C   UNL     1      13.509 -18.120   7.782  1.00  0.00     0.191 C 
BRANCH   8   9
ATOM      9  O   UNL     1      13.360 -17.974   9.169  1.00  0.00    -0.394 OA
ATOM     10  H   UNL     1      12.982 -18.826   9.509  1.00  0.00     0.210 HD
ENDBRANCH   8   9
ENDBRANCH   3   8
BRANCH   4  11
ATOM     11  O   UNL     1      14.856 -14.631   7.382  1.00  0.00    -0.387 OA
ATOM     12  H   UNL     1      15.789 -14.602   7.721  1.00  0.00     0.211 HD
ENDBRANCH   4  11
BRANCH   6  13
ATOM     13  O   UNL     1      12.569 -15.907   9.853  1.00  0.00    -0.387 OA
ATOM     14  H   UNL     1      11.985 -16.572   9.404  1.00  0.00     0.211 HD
ENDBRANCH   6  13
BRANCH   7  15
ATOM     15  O   UNL     1      12.252 -13.578   7.082  1.00  0.00    -0.385 OA
ATOM     16  H   UNL     1      12.751 -12.938   7.656  1.00  0.00     0.211 HD
ENDBRANCH   7  15
ENDBRANCH   1   2
BRANCH   1  17
ATOM     17  C   UNL     1       9.440 -17.043   7.637  1.00  0.00     0.224 C 
ATOM     18  C   UNL     1       8.630 -15.751   7.344  1.00  0.00     0.208 C 
ATOM     19  O   UNL     1       8.959 -17.548   8.868  1.00  0.00    -0.337 OA
ATOM     20  C   UNL     1       7.279 -16.085   7.940  1.00  0.00     0.180 C 
ATOM     21  C   UNL     1       7.676 -16.995   9.110  1.00  0.00     0.179 C 
BRANCH  17  22
ATOM     22  C   UNL     1       9.164 -18.124   6.561  1.00  0.00     0.225 C 
BRANCH  22  23
ATOM     23  O   UNL     1      10.157 -18.096   5.568  1.00  0.00    -0.391 OA
ATOM     24  H   UNL     1      10.113 -17.200   5.144  1.00  0.00     0.210 HD
ENDBRANCH  22  23
ENDBRANCH  17  22
BRANCH  18  25
ATOM     25  O   UNL     1       8.592 -15.395   5.980  1.00  0.00    -0.385 OA
ATOM     26  H   UNL     1       7.808 -14.809   5.820  1.00  0.00     0.211 HD
ENDBRANCH  18  25
BRANCH  20  27
ATOM     27  O   UNL     1       6.619 -14.935   8.404  1.00  0.00    -0.387 OA
ATOM     28  H   UNL     1       5.679 -15.203   8.576  1.00  0.00     0.211 HD
ENDBRANCH  20  27
BRANCH  21  29
ATOM     29  C   UNL     1       6.666 -18.124   9.350  1.00  0.00     0.191 C 
BRANCH  29  30
ATOM     30  O   UNL     1       5.353 -17.657   9.191  1.00  0.00    -0.394 OA
ATOM     31  H   UNL     1       4.978 -18.120   8.397  1.00  0.00     0.210 HD
ENDBRANCH  29  30
ENDBRANCH  21  29
ENDBRANCH   1  17
TORSDOF 13
ENDMDL
MODEL 4
REMARK VINA RESULT:    -3.346      1.457      2.577
REMARK INTER + INTRA:          -6.081
REMARK INTER:                  -5.128
REMARK INTRA:                  -0.952
REMARK UNBOUND:                -0.974
REMARK SMILES OC[C@H]1O[C@](CO)(O[C@@H]2O[C@H](CO)[C@@H](O)[C@H](O)[C@H]2O)[C@@H](O)[C@@H]1O
REMARK SMILES IDX 8 1 9 2 11 3 14 4 10 5 16 6 18 7 12 8 13 9 15 11 17 13 19 15
REMARK SMILES IDX 5 17 20 18 4 19 22 20 3 21 6 22 7 23 21 25 23 27 2 29 1 30
REMARK H PARENT 13 10 15 12 17 14 19 16 7 24 21 26 23 28 1 31
REMARK Flexibility Score: inf
ROOT
ATOM      1  O   UNL     1      11.066 -15.597   7.339  1.00  0.00    -0.313 OA
ENDROOT
BRANCH   1   2
ATOM      2  C   UNL     1      11.724 -16.193   8.449  1.00  0.00     0.285 C 
ATOM      3  C   UNL     1      13.629 -14.734   8.429  1.00  0.00     0.178 C 
ATOM      4  C   UNL     1      14.584 -15.868   7.976  1.00  0.00     0.177 C 
ATOM      5  O   UNL     1      12.484 -15.206   9.136  1.00  0.00    -0.341 OA
ATOM      6  C   UNL     1      13.832 -17.006   7.273  1.00  0.00     0.179 C 
ATOM      7  C   UNL     1      12.591 -17.422   8.084  1.00  0.00     0.202 C 
BRANCH   3   8
ATOM      8  C   UNL     1      13.286 -13.729   7.308  1.00  0.00     0.191 C 
BRANCH   8   9
ATOM      9  O   UNL     1      14.423 -13.449   6.536  1.00  0.00    -0.394 OA
ATOM     10  H   UNL     1      15.109 -14.123   6.780  1.00  0.00     0.210 HD
ENDBRANCH   8   9
ENDBRANCH   3   8
BRANCH   4  11
ATOM     11  O   UNL     1      15.258 -16.390   9.093  1.00  0.00    -0.387 OA
ATOM     12  H   UNL     1      15.647 -17.261   8.818  1.00  0.00     0.211 HD
ENDBRANCH   4  11
BRANCH   6  13
ATOM     13  O   UNL     1      13.465 -16.605   5.978  1.00  0.00    -0.387 OA
ATOM     14  H   UNL     1      13.346 -17.432   5.441  1.00  0.00     0.211 HD
ENDBRANCH   6  13
BRANCH   7  15
ATOM     15  O   UNL     1      12.987 -18.060   9.272  1.00  0.00    -0.385 OA
ATOM     16  H   UNL     1      12.882 -19.037   9.127  1.00  0.00     0.211 HD
ENDBRANCH   7  15
ENDBRANCH   1   2
BRANCH   1  17
ATOM     17  C   UNL     1       9.713 -15.968   7.053  1.00  0.00     0.224 C 
ATOM     18  C   UNL     1       8.792 -16.287   8.262  1.00  0.00     0.208 C 
ATOM     19  O   UNL     1       9.697 -17.113   6.223  1.00  0.00    -0.337 OA
ATOM     20  C   UNL     1       7.737 -17.169   7.629  1.00  0.00     0.180 C 
ATOM     21  C   UNL     1       8.546 -17.879   6.536  1.00  0.00     0.179 C 
BRANCH  17  22
ATOM     22  C   UNL     1       9.143 -14.792   6.219  1.00  0.00     0.225 C 
BRANCH  22  23
ATOM     23  O   UNL     1      10.159 -13.879   5.894  1.00  0.00    -0.391 OA
ATOM     24  H   UNL     1       9.712 -13.029   5.642  1.00  0.00     0.210 HD
ENDBRANCH  22  23
ENDBRANCH  17  22
BRANCH  18  25
ATOM     25  O   UNL     1       8.282 -15.143   8.911  1.00  0.00    -0.385 OA
ATOM     26  H   UNL     1       8.924 -14.396   8.804  1.00  0.00     0.211 HD
ENDBRANCH  18  25
BRANCH  20  27
ATOM     27  O   UNL     1       7.218 -18.096   8.548  1.00  0.00    -0.387 OA
ATOM     28  H   UNL     1       7.367 -18.994   8.153  1.00  0.00     0.211 HD
ENDBRANCH  20  27
BRANCH  21  29
ATOM     29  C   UNL     1       7.729 -18.125   5.261  1.00  0.00     0.191 C 
BRANCH  29  30
ATOM     30  O   UNL     1       8.355 -17.539   4.151  1.00  0.00    -0.394 OA
ATOM     31  H   UNL     1       8.418 -18.242   3.453  1.00  0.00     0.210 HD
ENDBRANCH  29  30
ENDBRANCH  21  29
ENDBRANCH   1  17
TORSDOF 13
ENDMDL
MODEL 5
REMARK VINA RESULT:    -3.056      1.492      5.895
REMARK INTER + INTRA:          -5.637
REMARK INTER:                  -5.596
REMARK INTRA:                  -0.041
REMARK UNBOUND:                -0.974
REMARK SMILES OC[C@H]1O[C@](CO)(O[C@@H]2O[C@H](CO)[C@@H](O)[C@H](O)[C@H]2O)[C@@H](O)[C@@H]1O
REMARK SMILES IDX 8 1 9 2 11 3 14 4 10 5 16 6 18 7 12 8 13 9 15 11 17 13 19 15
REMARK SMILES IDX 5 17 20 18 4 19 22 20 3 21 6 22 7 23 21 25 23 27 2 29 1 30
REMARK H PARENT 13 10 15 12 17 14 19 16 7 24 21 26 23 28 1 31
REMARK Flexibility Score: inf
ROOT
ATOM      1  O   UNL     1      10.549 -15.696   7.428  1.00  0.00    -0.313 OA
ENDROOT
BRANCH   1   2
ATOM      2  C   UNL     1       9.639 -16.149   8.421  1.00  0.00     0.285 C 
ATOM      3  C   UNL     1       8.945 -18.125   7.251  1.00  0.00     0.178 C 
ATOM      4  C   UNL     1       7.520 -17.568   7.005  1.00  0.00     0.177 C 
ATOM      5  O   UNL     1       9.580 -17.569   8.400  1.00  0.00    -0.341 OA
ATOM      6  C   UNL     1       7.483 -16.035   7.068  1.00  0.00     0.179 C 
ATOM      7  C   UNL     1       8.226 -15.524   8.316  1.00  0.00     0.202 C 
BRANCH   3   8
ATOM      8  C   UNL     1       9.838 -18.116   5.992  1.00  0.00     0.191 C 
BRANCH   8   9
ATOM      9  O   UNL     1       9.051 -18.125   4.831  1.00  0.00    -0.394 OA
ATOM     10  H   UNL     1       9.487 -17.511   4.184  1.00  0.00     0.210 HD
ENDBRANCH   8   9
ENDBRANCH   3   8
BRANCH   4  11
ATOM     11  O   UNL     1       6.640 -18.084   7.972  1.00  0.00    -0.387 OA
ATOM     12  H   UNL     1       6.338 -17.320   8.529  1.00  0.00     0.211 HD
ENDBRANCH   4  11
BRANCH   6  13
ATOM     13  O   UNL     1       8.048 -15.497   5.900  1.00  0.00    -0.387 OA
ATOM     14  H   UNL     1       7.328 -14.999   5.433  1.00  0.00     0.211 HD
ENDBRANCH   6  13
BRANCH   7  15
ATOM     15  O   UNL     1       7.503 -15.854   9.475  1.00  0.00    -0.385 OA
ATOM     16  H   UNL     1       7.576 -15.081  10.094  1.00  0.00     0.211 HD
ENDBRANCH   7  15
ENDBRANCH   1   2
BRANCH   1  17
ATOM     17  C   UNL     1      11.946 -15.960   7.592  1.00  0.00     0.224 C 
ATOM     18  C   UNL     1      12.921 -14.767   7.404  1.00  0.00     0.208 C 
ATOM     19  O   UNL     1      12.353 -16.960   6.678  1.00  0.00    -0.337 OA
ATOM     20  C   UNL     1      14.215 -15.471   7.052  1.00  0.00     0.180 C 
ATOM     21  C   UNL     1      13.698 -16.708   6.306  1.00  0.00     0.179 C 
BRANCH  17  22
ATOM     22  C   UNL     1      12.076 -16.562   9.015  1.00  0.00     0.225 C 
BRANCH  22  23
ATOM     23  O   UNL     1      12.211 -17.958   8.950  1.00  0.00    -0.391 OA
ATOM     24  H   UNL     1      12.956 -18.203   9.558  1.00  0.00     0.210 HD
ENDBRANCH  22  23
ENDBRANCH  17  22
BRANCH  18  25
ATOM     25  O   UNL     1      13.009 -13.915   8.525  1.00  0.00    -0.385 OA
ATOM     26  H   UNL     1      12.827 -12.983   8.239  1.00  0.00     0.211 HD
ENDBRANCH  18  25
BRANCH  20  27
ATOM     27  O   UNL     1      15.022 -14.684   6.215  1.00  0.00    -0.387 OA
ATOM     28  H   UNL     1      15.766 -14.348   6.779  1.00  0.00     0.211 HD
ENDBRANCH  20  27
BRANCH  21  29
ATOM     29  C   UNL     1      14.548 -17.957   6.573  1.00  0.00     0.191 C 
BRANCH  29  30
ATOM     30  O   UNL     1      14.793 -18.106   7.945  1.00  0.00    -0.394 OA
ATOM     31  H   UNL     1      13.916 -18.278   8.377  1.00  0.00     0.210 HD
ENDBRANCH  29  30
ENDBRANCH  21  29
ENDBRANCH   1  17
TORSDOF 13
ENDMDL
MODEL 6
REMARK VINA RESULT:    -2.671      1.372      2.207
REMARK INTER + INTRA:          -5.051
REMARK INTER:                  -4.943
REMARK INTRA:                  -0.108
REMARK UNBOUND:                -0.974
REMARK SMILES OC[C@H]1O[C@](CO)(O[C@@H]2O[C@H](CO)[C@@H](O)[C@H](O)[C@H]2O)[C@@H](O)[C@@H]1O
REMARK SMILES IDX 8 1 9 2 11 3 14 4 10 5 16 6 18 7 12 8 13 9 15 11 17 13 19 15
REMARK SMILES IDX 5 17 20 18 4 19 22 20 3 21 6 22 7 23 21 25 23 27 2 29 1 30
REMARK H PARENT 13 10 15 12 17 14 19 16 7 24 21 26 23 28 1 31
REMARK Flexibility Score: inf
ROOT
ATOM      1  O   UNL     1      10.901 -15.849   7.819  1.00  0.00    -0.313 OA
ENDROOT
BRANCH   1   2
ATOM      2  C   UNL     1      11.910 -16.188   8.761  1.00  0.00     0.285 C 
ATOM      3  C   UNL     1      13.481 -14.512   8.068  1.00  0.00     0.178 C 
ATOM      4  C   UNL     1      14.460 -15.565   7.491  1.00  0.00     0.177 C 
ATOM      5  O   UNL     1      12.648 -15.022   9.107  1.00  0.00    -0.341 OA
ATOM      6  C   UNL     1      13.750 -16.880   7.143  1.00  0.00     0.179 C 
ATOM      7  C   UNL     1      12.844 -17.333   8.302  1.00  0.00     0.202 C 
BRANCH   3   8
ATOM      8  C   UNL     1      12.704 -13.732   6.986  1.00  0.00     0.191 C 
BRANCH   8   9
ATOM      9  O   UNL     1      11.501 -13.234   7.509  1.00  0.00    -0.394 OA
ATOM     10  H   UNL     1      11.037 -12.766   6.766  1.00  0.00     0.210 HD
ENDBRANCH   8   9
ENDBRANCH   3   8
BRANCH   4  11
ATOM     11  O   UNL     1      15.474 -15.830   8.428  1.00  0.00    -0.387 OA
ATOM     12  H   UNL     1      16.033 -15.012   8.490  1.00  0.00     0.211 HD
ENDBRANCH   4  11
BRANCH   6  13
ATOM     13  O   UNL     1      13.004 -16.721   5.963  1.00  0.00    -0.387 OA
ATOM     14  H   UNL     1      12.733 -15.767   5.919  1.00  0.00     0.211 HD
ENDBRANCH   6  13
BRANCH   7  15
ATOM     15  O   UNL     1      13.629 -17.737   9.395  1.00  0.00    -0.385 OA
ATOM     16  H   UNL     1      13.073 -17.625  10.210  1.00  0.00     0.211 HD
ENDBRANCH   7  15
ENDBRANCH   1   2
BRANCH   1  17
ATOM     17  C   UNL     1       9.913 -16.826   7.475  1.00  0.00     0.224 C 
ATOM     18  C   UNL     1       9.785 -17.209   5.976  1.00  0.00     0.208 C 
ATOM     19  O   UNL     1       8.636 -16.379   7.886  1.00  0.00    -0.337 OA
ATOM     20  C   UNL     1       8.365 -17.731   5.905  1.00  0.00     0.180 C 
ATOM     21  C   UNL     1       7.671 -16.875   6.973  1.00  0.00     0.179 C 
BRANCH  17  22
ATOM     22  C   UNL     1      10.261 -18.068   8.336  1.00  0.00     0.225 C 
BRANCH  22  23
ATOM     23  O   UNL     1       9.446 -18.121   9.478  1.00  0.00    -0.391 OA
ATOM     24  H   UNL     1       9.182 -17.187   9.686  1.00  0.00     0.210 HD
ENDBRANCH  22  23
ENDBRANCH  17  22
BRANCH  18  25
ATOM     25  O   UNL     1      10.763 -18.125   5.532  1.00  0.00    -0.385 OA
ATOM     26  H   UNL     1      10.650 -18.273   4.558  1.00  0.00     0.211 HD
ENDBRANCH  18  25
BRANCH  20  27
ATOM     27  O   UNL     1       7.796 -17.509   4.641  1.00  0.00    -0.387 OA
ATOM     28  H   UNL     1       8.552 -17.343   4.020  1.00  0.00     0.211 HD
ENDBRANCH  20  27
BRANCH  21  29
ATOM     29  C   UNL     1       6.589 -17.647   7.737  1.00  0.00     0.191 C 
BRANCH  29  30
ATOM     30  O   UNL     1       6.679 -17.395   9.114  1.00  0.00    -0.394 OA
ATOM     31  H   UNL     1       7.481 -17.879   9.443  1.00  0.00     0.210 HD
ENDBRANCH  29  30
ENDBRANCH  21  29
ENDBRANCH   1  17
TORSDOF 13
ENDMDL
