MODEL 1
REMARK VINA RESULT:    -4.421      0.000      0.000
REMARK INTER + INTRA:          -8.146
REMARK INTER:                  -7.005
REMARK INTRA:                  -1.140
REMARK UNBOUND:                -1.140
REMARK SMILES CCCCCCCCCCCC(=O)[O-]
REMARK SMILES IDX 7 1 8 2 9 3 10 4 11 5 12 6 13 7 14 8 6 9 5 10 4 11 3 12 2 13
REMARK SMILES IDX 1 14
REMARK H PARENT
REMARK Flexibility Score: inf
ROOT
ATOM      1  C   UNL     1      55.013  39.659  48.597  1.00  0.00     0.000 C 
ENDROOT
BRANCH   1   2
ATOM      2  C   UNL     1      55.087  38.509  49.618  1.00  0.00     0.000 C 
BRANCH   2   3
ATOM      3  C   UNL     1      53.990  38.513  50.698  1.00  0.00     0.000 C 
BRANCH   3   4
ATOM      4  C   UNL     1      53.925  39.833  51.485  1.00  0.00     0.006 C 
BRANCH   4   5
ATOM      5  C   UNL     1      52.487  40.345  51.639  1.00  0.00     0.053 C 
BRANCH   5   6
ATOM      6  C   UNL     1      52.410  41.513  52.574  1.00  0.00     0.041 C 
ATOM      7  O   UNL     1      51.732  42.529  52.265  1.00  0.00    -0.550 OA
ATOM      8  O   UNL     1      53.063  41.469  53.798  1.00  0.00    -0.550 OA
ENDBRANCH   5   6
ENDBRANCH   4   5
ENDBRANCH   3   4
ENDBRANCH   2   3
ENDBRANCH   1   2
BRANCH   1   9
ATOM      9  C   UNL     1      54.509  39.204  47.216  1.00  0.00     0.000 C 
BRANCH   9  10
ATOM     10  C   UNL     1      53.209  39.909  46.789  1.00  0.00    -0.000 C 
BRANCH  10  11
ATOM     11  C   UNL     1      52.416  40.574  47.928  1.00  0.00    -0.000 C 
BRANCH  11  12
ATOM     12  C   UNL     1      52.226  42.084  47.726  1.00  0.00    -0.000 C 
BRANCH  12  13
ATOM     13  C   UNL     1      52.742  42.870  48.938  1.00  0.00    -0.003 C 
ATOM     14  C   UNL     1      53.177  44.277  48.538  1.00  0.00     0.004 C 
ENDBRANCH  12  13
ENDBRANCH  11  12
ENDBRANCH  10  11
ENDBRANCH   9  10
ENDBRANCH   1   9
TORSDOF 10
ENDMDL
MODEL 2
REMARK VINA RESULT:    -4.389      2.289      4.398
REMARK INTER + INTRA:          -8.094
REMARK INTER:                  -6.853
REMARK INTRA:                  -1.241
REMARK UNBOUND:                -1.140
REMARK SMILES CCCCCCCCCCCC(=O)[O-]
REMARK SMILES IDX 7 1 8 2 9 3 10 4 11 5 12 6 13 7 14 8 6 9 5 10 4 11 3 12 2 13
REMARK SMILES IDX 1 14
REMARK H PARENT
REMARK Flexibility Score: inf
ROOT
ATOM      1  C   UNL     1      51.911  41.819  47.722  1.00  0.00     0.000 C 
ENDROOT
BRANCH   1   2
ATOM      2  C   UNL     1      52.366  40.348  47.748  1.00  0.00     0.000 C 
BRANCH   2   3
ATOM      3  C   UNL     1      53.629  40.034  46.925  1.00  0.00     0.000 C 
BRANCH   3   4
ATOM      4  C   UNL     1      54.614  39.111  47.663  1.00  0.00     0.006 C 
BRANCH   4   5
ATOM      5  C   UNL     1      54.952  39.629  49.066  1.00  0.00     0.053 C 
BRANCH   5   6
ATOM      6  C   UNL     1      55.446  38.533  49.961  1.00  0.00     0.041 C 
ATOM      7  O   UNL     1      54.629  37.795  50.571  1.00  0.00    -0.550 OA
ATOM      8  O   UNL     1      56.810  38.310  50.098  1.00  0.00    -0.550 OA
ENDBRANCH   5   6
ENDBRANCH   4   5
ENDBRANCH   3   4
ENDBRANCH   2   3
ENDBRANCH   1   2
BRANCH   1   9
ATOM      9  C   UNL     1      53.081  42.811  47.842  1.00  0.00     0.000 C 
BRANCH   9  10
ATOM     10  C   UNL     1      53.069  43.596  49.167  1.00  0.00    -0.000 C 
BRANCH  10  11
ATOM     11  C   UNL     1      53.401  42.770  50.423  1.00  0.00    -0.000 C 
BRANCH  11  12
ATOM     12  C   UNL     1      52.423  43.020  51.581  1.00  0.00    -0.000 C 
BRANCH  12  13
ATOM     13  C   UNL     1      52.169  41.731  52.373  1.00  0.00    -0.003 C 
ATOM     14  C   UNL     1      52.197  40.509  51.459  1.00  0.00     0.004 C 
ENDBRANCH  12  13
ENDBRANCH  11  12
ENDBRANCH  10  11
ENDBRANCH   9  10
ENDBRANCH   1   9
TORSDOF 10
ENDMDL
MODEL 3
REMARK VINA RESULT:    -4.379      1.061      3.641
REMARK INTER + INTRA:          -8.079
REMARK INTER:                  -6.877
REMARK INTRA:                  -1.202
REMARK UNBOUND:                -1.140
REMARK SMILES CCCCCCCCCCCC(=O)[O-]
REMARK SMILES IDX 7 1 8 2 9 3 10 4 11 5 12 6 13 7 14 8 6 9 5 10 4 11 3 12 2 13
REMARK SMILES IDX 1 14
REMARK H PARENT
REMARK Flexibility Score: inf
ROOT
ATOM      1  C   UNL     1      51.986  41.974  47.547  1.00  0.00     0.000 C 
ENDROOT
BRANCH   1   2
ATOM      2  C   UNL     1      53.156  42.922  47.869  1.00  0.00     0.000 C 
BRANCH   2   3
ATOM      3  C   UNL     1      52.988  43.771  49.142  1.00  0.00     0.000 C 
BRANCH   3   4
ATOM      4  C   UNL     1      53.401  43.023  50.422  1.00  0.00     0.006 C 
BRANCH   4   5
ATOM      5  C   UNL     1      52.242  42.894  51.417  1.00  0.00     0.053 C 
BRANCH   5   6
ATOM      6  C   UNL     1      52.251  41.568  52.115  1.00  0.00     0.041 C 
ATOM      7  O   UNL     1      51.752  40.555  51.559  1.00  0.00    -0.550 OA
ATOM      8  O   UNL     1      52.837  41.446  53.368  1.00  0.00    -0.550 OA
ENDBRANCH   5   6
ENDBRANCH   4   5
ENDBRANCH   3   4
ENDBRANCH   2   3
ENDBRANCH   1   2
BRANCH   1   9
ATOM      9  C   UNL     1      52.287  40.507  47.901  1.00  0.00     0.000 C 
BRANCH   9  10
ATOM     10  C   UNL     1      53.377  39.886  47.009  1.00  0.00    -0.000 C 
BRANCH  10  11
ATOM     11  C   UNL     1      54.495  39.139  47.759  1.00  0.00    -0.000 C 
BRANCH  11  12
ATOM     12  C   UNL     1      55.259  40.035  48.745  1.00  0.00    -0.000 C 
BRANCH  12  13
ATOM     13  C   UNL     1      54.988  39.613  50.194  1.00  0.00    -0.003 C 
ATOM     14  C   UNL     1      54.889  38.094  50.317  1.00  0.00     0.004 C 
ENDBRANCH  12  13
ENDBRANCH  11  12
ENDBRANCH  10  11
ENDBRANCH   9  10
ENDBRANCH   1   9
TORSDOF 10
ENDMDL
MODEL 4
REMARK VINA RESULT:    -4.375      0.846      1.602
REMARK INTER + INTRA:          -8.073
REMARK INTER:                  -6.749
REMARK INTRA:                  -1.323
REMARK UNBOUND:                -1.140
REMARK SMILES CCCCCCCCCCCC(=O)[O-]
REMARK SMILES IDX 7 1 8 2 9 3 10 4 11 5 12 6 13 7 14 8 6 9 5 10 4 11 3 12 2 13
REMARK SMILES IDX 1 14
REMARK H PARENT
REMARK Flexibility Score: inf
ROOT
ATOM      1  C   UNL     1      55.157  38.471  49.667  1.00  0.00     0.000 C 
ENDROOT
BRANCH   1   2
ATOM      2  C   UNL     1      54.076  38.758  50.725  1.00  0.00     0.000 C 
BRANCH   2   3
ATOM      3  C   UNL     1      53.770  40.247  50.969  1.00  0.00     0.000 C 
BRANCH   3   4
ATOM      4  C   UNL     1      52.325  40.495  51.436  1.00  0.00     0.006 C 
BRANCH   4   5
ATOM      5  C   UNL     1      52.137  41.902  52.016  1.00  0.00     0.053 C 
BRANCH   5   6
ATOM      6  C   UNL     1      53.195  42.235  53.024  1.00  0.00     0.041 C 
ATOM      7  O   UNL     1      53.976  43.203  52.829  1.00  0.00    -0.550 OA
ATOM      8  O   UNL     1      53.300  41.492  54.193  1.00  0.00    -0.550 OA
ENDBRANCH   5   6
ENDBRANCH   4   5
ENDBRANCH   3   4
ENDBRANCH   2   3
ENDBRANCH   1   2
BRANCH   1   9
ATOM      9  C   UNL     1      55.210  39.537  48.558  1.00  0.00     0.000 C 
BRANCH   9  10
ATOM     10  C   UNL     1      54.420  39.134  47.300  1.00  0.00    -0.000 C 
BRANCH  10  11
ATOM     11  C   UNL     1      53.481  40.216  46.738  1.00  0.00    -0.000 C 
BRANCH  11  12
ATOM     12  C   UNL     1      52.307  40.538  47.674  1.00  0.00    -0.000 C 
BRANCH  12  13
ATOM     13  C   UNL     1      51.982  42.036  47.652  1.00  0.00    -0.003 C 
ATOM     14  C   UNL     1      53.016  42.837  48.438  1.00  0.00     0.004 C 
ENDBRANCH  12  13
ENDBRANCH  11  12
ENDBRANCH  10  11
ENDBRANCH   9  10
ENDBRANCH   1   9
TORSDOF 10
ENDMDL
MODEL 5
REMARK VINA RESULT:    -4.347      1.850      3.768
REMARK INTER + INTRA:          -8.028
REMARK INTER:                  -6.909
REMARK INTRA:                  -1.119
REMARK UNBOUND:                -1.140
REMARK SMILES CCCCCCCCCCCC(=O)[O-]
REMARK SMILES IDX 7 1 8 2 9 3 10 4 11 5 12 6 13 7 14 8 6 9 5 10 4 11 3 12 2 13
REMARK SMILES IDX 1 14
REMARK H PARENT
REMARK Flexibility Score: inf
ROOT
ATOM      1  C   UNL     1      52.296  40.350  47.941  1.00  0.00     0.000 C 
ENDROOT
BRANCH   1   2
ATOM      2  C   UNL     1      53.372  39.751  47.016  1.00  0.00     0.000 C 
BRANCH   2   3
ATOM      3  C   UNL     1      54.606  39.169  47.730  1.00  0.00     0.000 C 
BRANCH   3   4
ATOM      4  C   UNL     1      54.396  38.990  49.243  1.00  0.00     0.006 C 
BRANCH   4   5
ATOM      5  C   UNL     1      55.655  38.463  49.944  1.00  0.00     0.053 C 
BRANCH   5   6
ATOM      6  C   UNL     1      55.892  39.150  51.254  1.00  0.00     0.041 C 
ATOM      7  O   UNL     1      56.406  38.521  52.216  1.00  0.00    -0.550 OA
ATOM      8  O   UNL     1      55.572  40.493  51.403  1.00  0.00    -0.550 OA
ENDBRANCH   5   6
ENDBRANCH   4   5
ENDBRANCH   3   4
ENDBRANCH   2   3
ENDBRANCH   1   2
BRANCH   1   9
ATOM      9  C   UNL     1      51.929  41.798  47.575  1.00  0.00     0.000 C 
BRANCH   9  10
ATOM     10  C   UNL     1      52.722  42.841  48.383  1.00  0.00    -0.000 C 
BRANCH  10  11
ATOM     11  C   UNL     1      53.195  42.377  49.772  1.00  0.00    -0.000 C 
BRANCH  11  12
ATOM     12  C   UNL     1      52.571  43.185  50.920  1.00  0.00    -0.000 C 
BRANCH  12  13
ATOM     13  C   UNL     1      52.123  42.263  52.060  1.00  0.00    -0.003 C 
ATOM     14  C   UNL     1      51.957  40.826  51.574  1.00  0.00     0.004 C 
ENDBRANCH  12  13
ENDBRANCH  11  12
ENDBRANCH  10  11
ENDBRANCH   9  10
ENDBRANCH   1   9
TORSDOF 10
ENDMDL
MODEL 6
REMARK VINA RESULT:    -4.338      2.350      4.349
REMARK INTER + INTRA:          -8.014
REMARK INTER:                  -6.707
REMARK INTRA:                  -1.307
REMARK UNBOUND:                -1.140
REMARK SMILES CCCCCCCCCCCC(=O)[O-]
REMARK SMILES IDX 7 1 8 2 9 3 10 4 11 5 12 6 13 7 14 8 6 9 5 10 4 11 3 12 2 13
REMARK SMILES IDX 1 14
REMARK H PARENT
REMARK Flexibility Score: inf
ROOT
ATOM      1  C   UNL     1      54.553  39.112  47.427  1.00  0.00     0.000 C 
ENDROOT
BRANCH   1   2
ATOM      2  C   UNL     1      53.441  39.988  46.822  1.00  0.00     0.000 C 
BRANCH   2   3
ATOM      3  C   UNL     1      52.300  40.364  47.785  1.00  0.00     0.000 C 
BRANCH   3   4
ATOM      4  C   UNL     1      51.868  41.836  47.660  1.00  0.00     0.006 C 
BRANCH   4   5
ATOM      5  C   UNL     1      52.816  42.782  48.407  1.00  0.00     0.053 C 
BRANCH   5   6
ATOM      6  C   UNL     1      52.931  44.110  47.722  1.00  0.00     0.041 C 
ATOM      7  O   UNL     1      53.854  44.907  48.034  1.00  0.00    -0.550 OA
ATOM      8  O   UNL     1      52.035  44.455  46.718  1.00  0.00    -0.550 OA
ENDBRANCH   5   6
ENDBRANCH   4   5
ENDBRANCH   3   4
ENDBRANCH   2   3
ENDBRANCH   1   2
BRANCH   1   9
ATOM      9  C   UNL     1      54.993  39.580  48.824  1.00  0.00     0.000 C 
BRANCH   9  10
ATOM     10  C   UNL     1      54.765  38.517  49.914  1.00  0.00    -0.000 C 
BRANCH  10  11
ATOM     11  C   UNL     1      53.677  38.858  50.949  1.00  0.00    -0.000 C 
BRANCH  11  12
ATOM     12  C   UNL     1      53.591  40.361  51.256  1.00  0.00    -0.000 C 
BRANCH  12  13
ATOM     13  C   UNL     1      52.141  40.785  51.520  1.00  0.00    -0.003 C 
ATOM     14  C   UNL     1      52.074  42.207  52.069  1.00  0.00     0.004 C 
ENDBRANCH  12  13
ENDBRANCH  11  12
ENDBRANCH  10  11
ENDBRANCH   9  10
ENDBRANCH   1   9
TORSDOF 10
ENDMDL
MODEL 7
REMARK VINA RESULT:    -4.302      2.101      3.889
REMARK INTER + INTRA:          -7.957
REMARK INTER:                  -6.711
REMARK INTRA:                  -1.246
REMARK UNBOUND:                -1.140
REMARK SMILES CCCCCCCCCCCC(=O)[O-]
REMARK SMILES IDX 7 1 8 2 9 3 10 4 11 5 12 6 13 7 14 8 6 9 5 10 4 11 3 12 2 13
REMARK SMILES IDX 1 14
REMARK H PARENT
REMARK Flexibility Score: inf
ROOT
ATOM      1  C   UNL     1      52.592  43.417  50.803  1.00  0.00     0.000 C 
ENDROOT
BRANCH   1   2
ATOM      2  C   UNL     1      52.317  42.472  51.988  1.00  0.00     0.000 C 
BRANCH   2   3
ATOM      3  C   UNL     1      51.988  41.016  51.609  1.00  0.00     0.000 C 
BRANCH   3   4
ATOM      4  C   UNL     1      53.104  40.028  51.991  1.00  0.00     0.006 C 
BRANCH   4   5
ATOM      5  C   UNL     1      53.467  39.090  50.834  1.00  0.00     0.053 C 
BRANCH   5   6
ATOM      6  C   UNL     1      54.886  39.278  50.388  1.00  0.00     0.041 C 
ATOM      7  O   UNL     1      55.558  40.256  50.808  1.00  0.00    -0.550 OA
ATOM      8  O   UNL     1      55.473  38.358  49.530  1.00  0.00    -0.550 OA
ENDBRANCH   5   6
ENDBRANCH   4   5
ENDBRANCH   3   4
ENDBRANCH   2   3
ENDBRANCH   1   2
BRANCH   1   9
ATOM      9  C   UNL     1      53.169  42.689  49.576  1.00  0.00     0.000 C 
BRANCH   9  10
ATOM     10  C   UNL     1      52.598  43.210  48.245  1.00  0.00    -0.000 C 
BRANCH  10  11
ATOM     11  C   UNL     1      52.115  42.124  47.266  1.00  0.00    -0.000 C 
BRANCH  11  12
ATOM     12  C   UNL     1      52.188  40.708  47.856  1.00  0.00    -0.000 C 
BRANCH  12  13
ATOM     13  C   UNL     1      53.029  39.785  46.965  1.00  0.00    -0.003 C 
ATOM     14  C   UNL     1      54.319  40.470  46.523  1.00  0.00     0.004 C 
ENDBRANCH  12  13
ENDBRANCH  11  12
ENDBRANCH  10  11
ENDBRANCH   9  10
ENDBRANCH   1   9
TORSDOF 10
ENDMDL
MODEL 8
REMARK VINA RESULT:    -4.230      1.178      2.272
REMARK INTER + INTRA:          -7.843
REMARK INTER:                  -6.464
REMARK INTRA:                  -1.379
REMARK UNBOUND:                -1.140
REMARK SMILES CCCCCCCCCCCC(=O)[O-]
REMARK SMILES IDX 7 1 8 2 9 3 10 4 11 5 12 6 13 7 14 8 6 9 5 10 4 11 3 12 2 13
REMARK SMILES IDX 1 14
REMARK H PARENT
REMARK Flexibility Score: inf
ROOT
ATOM      1  C   UNL     1      53.284  39.877  46.843  1.00  0.00     0.000 C 
ENDROOT
BRANCH   1   2
ATOM      2  C   UNL     1      54.542  39.284  47.505  1.00  0.00     0.000 C 
BRANCH   2   3
ATOM      3  C   UNL     1      54.800  39.735  48.954  1.00  0.00     0.000 C 
BRANCH   3   4
ATOM      4  C   UNL     1      54.857  38.563  49.948  1.00  0.00     0.006 C 
BRANCH   4   5
ATOM      5  C   UNL     1      53.586  38.466  50.802  1.00  0.00     0.053 C 
BRANCH   5   6
ATOM      6  C   UNL     1      53.342  39.722  51.581  1.00  0.00     0.041 C 
ATOM      7  O   UNL     1      52.262  40.356  51.441  1.00  0.00    -0.550 OA
ATOM      8  O   UNL     1      54.294  40.178  52.483  1.00  0.00    -0.550 OA
ENDBRANCH   5   6
ENDBRANCH   4   5
ENDBRANCH   3   4
ENDBRANCH   2   3
ENDBRANCH   1   2
BRANCH   1   9
ATOM      9  C   UNL     1      52.217  40.311  47.863  1.00  0.00     0.000 C 
BRANCH   9  10
ATOM     10  C   UNL     1      51.858  41.805  47.758  1.00  0.00    -0.000 C 
BRANCH  10  11
ATOM     11  C   UNL     1      52.939  42.698  47.124  1.00  0.00    -0.000 C 
BRANCH  11  12
ATOM     12  C   UNL     1      53.460  43.781  48.081  1.00  0.00    -0.000 C 
BRANCH  12  13
ATOM     13  C   UNL     1      52.956  43.540  49.509  1.00  0.00    -0.003 C 
ATOM     14  C   UNL     1      54.112  43.233  50.457  1.00  0.00     0.004 C 
ENDBRANCH  12  13
ENDBRANCH  11  12
ENDBRANCH  10  11
ENDBRANCH   9  10
ENDBRANCH   1   9
TORSDOF 10
ENDMDL
MODEL 9
REMARK VINA RESULT:    -4.141      1.232      3.429
REMARK INTER + INTRA:          -7.703
REMARK INTER:                  -6.428
REMARK INTRA:                  -1.274
REMARK UNBOUND:                -1.140
REMARK SMILES CCCCCCCCCCCC(=O)[O-]
REMARK SMILES IDX 7 1 8 2 9 3 10 4 11 5 12 6 13 7 14 8 6 9 5 10 4 11 3 12 2 13
REMARK SMILES IDX 1 14
REMARK H PARENT
REMARK Flexibility Score: inf
ROOT
ATOM      1  C   UNL     1      52.881  43.180  48.574  1.00  0.00     0.000 C 
ENDROOT
BRANCH   1   2
ATOM      2  C   UNL     1      53.276  42.638  49.961  1.00  0.00     0.000 C 
BRANCH   2   3
ATOM      3  C   UNL     1      52.454  43.185  51.142  1.00  0.00     0.000 C 
BRANCH   3   4
ATOM      4  C   UNL     1      51.973  42.082  52.101  1.00  0.00     0.006 C 
BRANCH   4   5
ATOM      5  C   UNL     1      52.768  40.782  51.934  1.00  0.00     0.053 C 
BRANCH   5   6
ATOM      6  C   UNL     1      53.865  40.665  52.948  1.00  0.00     0.041 C 
ATOM      7  O   UNL     1      53.736  41.192  54.085  1.00  0.00    -0.550 OA
ATOM      8  O   UNL     1      55.017  39.951  52.647  1.00  0.00    -0.550 OA
ENDBRANCH   5   6
ENDBRANCH   4   5
ENDBRANCH   3   4
ENDBRANCH   2   3
ENDBRANCH   1   2
BRANCH   1   9
ATOM      9  C   UNL     1      52.101  42.157  47.730  1.00  0.00     0.000 C 
BRANCH   9  10
ATOM     10  C   UNL     1      52.439  40.699  48.090  1.00  0.00    -0.000 C 
BRANCH  10  11
ATOM     11  C   UNL     1      53.087  39.876  46.962  1.00  0.00    -0.000 C 
BRANCH  11  12
ATOM     12  C   UNL     1      54.391  39.188  47.392  1.00  0.00    -0.000 C 
BRANCH  12  13
ATOM     13  C   UNL     1      54.652  39.394  48.889  1.00  0.00    -0.003 C 
ATOM     14  C   UNL     1      55.964  40.137  49.123  1.00  0.00     0.004 C 
ENDBRANCH  12  13
ENDBRANCH  11  12
ENDBRANCH  10  11
ENDBRANCH   9  10
ENDBRANCH   1   9
TORSDOF 10
ENDMDL
