MODEL 1
REMARK VINA RESULT:    -4.230      0.000      0.000
REMARK INTER + INTRA:          -9.855
REMARK INTER:                  -7.692
REMARK INTRA:                  -2.162
REMARK UNBOUND:                -2.162
REMARK SMILES CCCCCCCCCCCCCCCC(=O)[O-]
REMARK SMILES IDX 9 1 10 2 11 3 12 4 13 5 14 6 15 7 16 8 17 9 18 10 8 11 7 12
REMARK SMILES IDX 6 13 5 14 4 15 3 16 2 17 1 18
REMARK H PARENT
REMARK Flexibility Score: inf
ROOT
ATOM      1  C   UNL     1     -16.252 -33.056  20.570  1.00  0.00     0.000 C 
ENDROOT
BRANCH   1   2
ATOM      2  C   UNL     1     -17.458 -33.989  20.770  1.00  0.00     0.000 C 
BRANCH   2   3
ATOM      3  C   UNL     1     -18.828 -33.283  20.774  1.00  0.00     0.000 C 
BRANCH   3   4
ATOM      4  C   UNL     1     -18.758 -31.785  20.404  1.00  0.00     0.000 C 
BRANCH   4   5
ATOM      5  C   UNL     1     -20.125 -31.231  19.963  1.00  0.00     0.000 C 
BRANCH   5   6
ATOM      6  C   UNL     1     -19.999 -29.976  19.081  1.00  0.00     0.006 C 
BRANCH   6   7
ATOM      7  C   UNL     1     -18.567 -29.700  18.594  1.00  0.00     0.053 C 
BRANCH   7   8
ATOM      8  C   UNL     1     -17.994 -28.463  19.215  1.00  0.00     0.041 C 
ATOM      9  O   UNL     1     -16.965 -28.535  19.938  1.00  0.00    -0.550 OA
ATOM     10  O   UNL     1     -18.584 -27.228  18.981  1.00  0.00    -0.550 OA
ENDBRANCH   7   8
ENDBRANCH   6   7
ENDBRANCH   5   6
ENDBRANCH   4   5
ENDBRANCH   3   4
ENDBRANCH   2   3
ENDBRANCH   1   2
BRANCH   1  11
ATOM     11  C   UNL     1     -15.078 -33.743  19.857  1.00  0.00     0.000 C 
BRANCH  11  12
ATOM     12  C   UNL     1     -14.747 -33.029  18.538  1.00  0.00    -0.000 C 
BRANCH  12  13
ATOM     13  C   UNL     1     -15.816 -32.000  18.136  1.00  0.00    -0.000 C 
BRANCH  13  14
ATOM     14  C   UNL     1     -16.559 -32.391  16.850  1.00  0.00    -0.000 C 
BRANCH  14  15
ATOM     15  C   UNL     1     -17.724 -33.342  17.157  1.00  0.00    -0.000 C 
BRANCH  15  16
ATOM     16  C   UNL     1     -19.058 -32.749  16.680  1.00  0.00    -0.000 C 
BRANCH  16  17
ATOM     17  C   UNL     1     -19.730 -33.605  15.595  1.00  0.00    -0.003 C 
ATOM     18  C   UNL     1     -18.983 -33.564  14.262  1.00  0.00     0.004 C 
ENDBRANCH  16  17
ENDBRANCH  15  16
ENDBRANCH  14  15
ENDBRANCH  13  14
ENDBRANCH  12  13
ENDBRANCH  11  12
ENDBRANCH   1  11
TORSDOF 14
ENDMDL
MODEL 2
REMARK VINA RESULT:    -4.190      2.457      5.099
REMARK INTER + INTRA:          -9.782
REMARK INTER:                  -7.451
REMARK INTRA:                  -2.330
REMARK UNBOUND:                -2.162
REMARK SMILES CCCCCCCCCCCCCCCC(=O)[O-]
REMARK SMILES IDX 9 1 10 2 11 3 12 4 13 5 14 6 15 7 16 8 17 9 18 10 8 11 7 12
REMARK SMILES IDX 6 13 5 14 4 15 3 16 2 17 1 18
REMARK H PARENT
REMARK Flexibility Score: inf
ROOT
ATOM      1  C   UNL     1     -18.102 -32.282  21.580  1.00  0.00     0.000 C 
ENDROOT
BRANCH   1   2
ATOM      2  C   UNL     1     -16.574 -32.109  21.582  1.00  0.00     0.000 C 
BRANCH   2   3
ATOM      3  C   UNL     1     -15.783 -33.335  21.087  1.00  0.00     0.000 C 
BRANCH   3   4
ATOM      4  C   UNL     1     -14.762 -33.011  19.975  1.00  0.00     0.000 C 
BRANCH   4   5
ATOM      5  C   UNL     1     -15.326 -32.024  18.937  1.00  0.00     0.000 C 
BRANCH   5   6
ATOM      6  C   UNL     1     -16.130 -32.725  17.828  1.00  0.00     0.006 C 
BRANCH   6   7
ATOM      7  C   UNL     1     -16.158 -31.954  16.498  1.00  0.00     0.053 C 
BRANCH   7   8
ATOM      8  C   UNL     1     -17.075 -32.592  15.501  1.00  0.00     0.041 C 
ATOM      9  O   UNL     1     -18.311 -32.668  15.733  1.00  0.00    -0.550 OA
ATOM     10  O   UNL     1     -16.569 -33.087  14.306  1.00  0.00    -0.550 OA
ENDBRANCH   7   8
ENDBRANCH   6   7
ENDBRANCH   5   6
ENDBRANCH   4   5
ENDBRANCH   3   4
ENDBRANCH   2   3
ENDBRANCH   1   2
BRANCH   1  11
ATOM     11  C   UNL     1     -18.587 -33.283  20.520  1.00  0.00     0.000 C 
BRANCH  11  12
ATOM     12  C   UNL     1     -19.539 -32.605  19.525  1.00  0.00    -0.000 C 
BRANCH  12  13
ATOM     13  C   UNL     1     -20.117 -31.286  20.061  1.00  0.00    -0.000 C 
BRANCH  13  14
ATOM     14  C   UNL     1     -20.063 -30.152  19.025  1.00  0.00    -0.000 C 
BRANCH  14  15
ATOM     15  C   UNL     1     -18.717 -30.144  18.289  1.00  0.00    -0.000 C 
BRANCH  15  16
ATOM     16  C   UNL     1     -17.978 -28.817  18.511  1.00  0.00    -0.000 C 
BRANCH  16  17
ATOM     17  C   UNL     1     -17.026 -28.865  19.715  1.00  0.00    -0.003 C 
ATOM     18  C   UNL     1     -16.500 -27.486  20.109  1.00  0.00     0.004 C 
ENDBRANCH  16  17
ENDBRANCH  15  16
ENDBRANCH  14  15
ENDBRANCH  13  14
ENDBRANCH  12  13
ENDBRANCH  11  12
ENDBRANCH   1  11
TORSDOF 14
ENDMDL
MODEL 3
REMARK VINA RESULT:    -4.179      2.233      5.314
REMARK INTER + INTRA:          -9.762
REMARK INTER:                  -7.627
REMARK INTRA:                  -2.135
REMARK UNBOUND:                -2.162
REMARK SMILES CCCCCCCCCCCCCCCC(=O)[O-]
REMARK SMILES IDX 9 1 10 2 11 3 12 4 13 5 14 6 15 7 16 8 17 9 18 10 8 11 7 12
REMARK SMILES IDX 6 13 5 14 4 15 3 16 2 17 1 18
REMARK H PARENT
REMARK Flexibility Score: inf
ROOT
ATOM      1  C   UNL     1     -19.278 -32.900  15.993  1.00  0.00     0.000 C 
ENDROOT
BRANCH   1   2
ATOM      2  C   UNL     1     -19.245 -33.736  14.703  1.00  0.00     0.000 C 
BRANCH   2   3
ATOM      3  C   UNL     1     -18.224 -33.261  13.651  1.00  0.00     0.000 C 
BRANCH   3   4
ATOM      4  C   UNL     1     -16.841 -32.909  14.240  1.00  0.00     0.000 C 
BRANCH   4   5
ATOM      5  C   UNL     1     -16.245 -31.640  13.606  1.00  0.00     0.000 C 
BRANCH   5   6
ATOM      6  C   UNL     1     -15.817 -30.598  14.654  1.00  0.00     0.006 C 
BRANCH   6   7
ATOM      7  C   UNL     1     -16.194 -30.975  16.096  1.00  0.00     0.053 C 
BRANCH   7   8
ATOM      8  C   UNL     1     -14.997 -31.013  16.996  1.00  0.00     0.041 C 
ATOM      9  O   UNL     1     -14.084 -30.154  16.874  1.00  0.00    -0.550 OA
ATOM     10  O   UNL     1     -14.897 -31.986  17.981  1.00  0.00    -0.550 OA
ENDBRANCH   7   8
ENDBRANCH   6   7
ENDBRANCH   5   6
ENDBRANCH   4   5
ENDBRANCH   3   4
ENDBRANCH   2   3
ENDBRANCH   1   2
BRANCH   1  11
ATOM     11  C   UNL     1     -19.330 -33.763  17.262  1.00  0.00     0.000 C 
BRANCH  11  12
ATOM     12  C   UNL     1     -17.984 -33.730  18.001  1.00  0.00    -0.000 C 
BRANCH  12  13
ATOM     13  C   UNL     1     -18.136 -33.405  19.496  1.00  0.00    -0.000 C 
BRANCH  13  14
ATOM     14  C   UNL     1     -19.556 -32.950  19.861  1.00  0.00    -0.000 C 
BRANCH  14  15
ATOM     15  C   UNL     1     -19.560 -31.491  20.338  1.00  0.00    -0.000 C 
BRANCH  15  16
ATOM     16  C   UNL     1     -19.998 -30.545  19.211  1.00  0.00    -0.000 C 
BRANCH  16  17
ATOM     17  C   UNL     1     -18.809 -29.886  18.498  1.00  0.00    -0.003 C 
ATOM     18  C   UNL     1     -17.610 -29.673  19.421  1.00  0.00     0.004 C 
ENDBRANCH  16  17
ENDBRANCH  15  16
ENDBRANCH  14  15
ENDBRANCH  13  14
ENDBRANCH  12  13
ENDBRANCH  11  12
ENDBRANCH   1  11
TORSDOF 14
ENDMDL
MODEL 4
REMARK VINA RESULT:    -4.138      1.694      3.384
REMARK INTER + INTRA:          -9.688
REMARK INTER:                  -7.884
REMARK INTRA:                  -1.804
REMARK UNBOUND:                -2.162
REMARK SMILES CCCCCCCCCCCCCCCC(=O)[O-]
REMARK SMILES IDX 9 1 10 2 11 3 12 4 13 5 14 6 15 7 16 8 17 9 18 10 8 11 7 12
REMARK SMILES IDX 6 13 5 14 4 15 3 16 2 17 1 18
REMARK H PARENT
REMARK Flexibility Score: inf
ROOT
ATOM      1  C   UNL     1     -18.882 -33.764  17.692  1.00  0.00     0.000 C 
ENDROOT
BRANCH   1   2
ATOM      2  C   UNL     1     -19.588 -33.477  19.028  1.00  0.00     0.000 C 
BRANCH   2   3
ATOM      3  C   UNL     1     -18.660 -32.995  20.159  1.00  0.00     0.000 C 
BRANCH   3   4
ATOM      4  C   UNL     1     -18.942 -31.550  20.625  1.00  0.00     0.000 C 
BRANCH   4   5
ATOM      5  C   UNL     1     -20.108 -30.908  19.853  1.00  0.00     0.000 C 
BRANCH   5   6
ATOM      6  C   UNL     1     -19.633 -29.901  18.790  1.00  0.00     0.006 C 
BRANCH   6   7
ATOM      7  C   UNL     1     -18.180 -29.436  18.981  1.00  0.00     0.053 C 
BRANCH   7   8
ATOM      8  C   UNL     1     -17.980 -28.024  18.523  1.00  0.00     0.041 C 
ATOM      9  O   UNL     1     -17.511 -27.788  17.378  1.00  0.00    -0.550 OA
ATOM     10  O   UNL     1     -18.329 -26.967  19.354  1.00  0.00    -0.550 OA
ENDBRANCH   7   8
ENDBRANCH   6   7
ENDBRANCH   5   6
ENDBRANCH   4   5
ENDBRANCH   3   4
ENDBRANCH   2   3
ENDBRANCH   1   2
BRANCH   1  11
ATOM     11  C   UNL     1     -19.256 -32.760  16.591  1.00  0.00     0.000 C 
BRANCH  11  12
ATOM     12  C   UNL     1     -19.614 -33.488  15.288  1.00  0.00    -0.000 C 
BRANCH  12  13
ATOM     13  C   UNL     1     -18.376 -34.001  14.535  1.00  0.00    -0.000 C 
BRANCH  13  14
ATOM     14  C   UNL     1     -18.044 -33.156  13.296  1.00  0.00    -0.000 C 
BRANCH  14  15
ATOM     15  C   UNL     1     -16.797 -32.294  13.538  1.00  0.00    -0.000 C 
BRANCH  15  16
ATOM     16  C   UNL     1     -15.922 -32.894  14.648  1.00  0.00    -0.000 C 
BRANCH  16  17
ATOM     17  C   UNL     1     -15.266 -31.819  15.527  1.00  0.00    -0.003 C 
ATOM     18  C   UNL     1     -16.272 -30.809  16.078  1.00  0.00     0.004 C 
ENDBRANCH  16  17
ENDBRANCH  15  16
ENDBRANCH  14  15
ENDBRANCH  13  14
ENDBRANCH  12  13
ENDBRANCH  11  12
ENDBRANCH   1  11
TORSDOF 14
ENDMDL
MODEL 5
REMARK VINA RESULT:    -4.094      1.296      3.412
REMARK INTER + INTRA:          -9.607
REMARK INTER:                  -7.035
REMARK INTRA:                  -2.572
REMARK UNBOUND:                -2.162
REMARK SMILES CCCCCCCCCCCCCCCC(=O)[O-]
REMARK SMILES IDX 9 1 10 2 11 3 12 4 13 5 14 6 15 7 16 8 17 9 18 10 8 11 7 12
REMARK SMILES IDX 6 13 5 14 4 15 3 16 2 17 1 18
REMARK H PARENT
REMARK Flexibility Score: inf
ROOT
ATOM      1  C   UNL     1     -17.825 -33.968  18.273  1.00  0.00     0.000 C 
ENDROOT
BRANCH   1   2
ATOM      2  C   UNL     1     -18.155 -33.444  19.681  1.00  0.00     0.000 C 
BRANCH   2   3
ATOM      3  C   UNL     1     -19.626 -33.038  19.891  1.00  0.00     0.000 C 
BRANCH   3   4
ATOM      4  C   UNL     1     -19.842 -31.513  19.997  1.00  0.00     0.000 C 
BRANCH   4   5
ATOM      5  C   UNL     1     -18.519 -30.731  19.921  1.00  0.00     0.000 C 
BRANCH   5   6
ATOM      6  C   UNL     1     -18.418 -29.858  18.656  1.00  0.00     0.006 C 
BRANCH   6   7
ATOM      7  C   UNL     1     -17.205 -28.914  18.648  1.00  0.00     0.053 C 
BRANCH   7   8
ATOM      8  C   UNL     1     -17.500 -27.618  19.339  1.00  0.00     0.041 C 
ATOM      9  O   UNL     1     -18.576 -27.005  19.107  1.00  0.00    -0.550 OA
ATOM     10  O   UNL     1     -16.596 -27.096  20.255  1.00  0.00    -0.550 OA
ENDBRANCH   7   8
ENDBRANCH   6   7
ENDBRANCH   5   6
ENDBRANCH   4   5
ENDBRANCH   3   4
ENDBRANCH   2   3
ENDBRANCH   1   2
BRANCH   1  11
ATOM     11  C   UNL     1     -18.928 -33.662  17.249  1.00  0.00     0.000 C 
BRANCH  11  12
ATOM     12  C   UNL     1     -18.444 -32.634  16.216  1.00  0.00    -0.000 C 
BRANCH  12  13
ATOM     13  C   UNL     1     -16.913 -32.611  16.074  1.00  0.00    -0.000 C 
BRANCH  13  14
ATOM     14  C   UNL     1     -16.372 -31.218  15.722  1.00  0.00    -0.000 C 
BRANCH  14  15
ATOM     15  C   UNL     1     -15.041 -30.949  16.438  1.00  0.00    -0.000 C 
BRANCH  15  16
ATOM     16  C   UNL     1     -14.707 -32.082  17.419  1.00  0.00    -0.000 C 
BRANCH  16  17
ATOM     17  C   UNL     1     -14.535 -31.581  18.861  1.00  0.00    -0.003 C 
ATOM     18  C   UNL     1     -14.620 -32.706  19.892  1.00  0.00     0.004 C 
ENDBRANCH  16  17
ENDBRANCH  15  16
ENDBRANCH  14  15
ENDBRANCH  13  14
ENDBRANCH  12  13
ENDBRANCH  11  12
ENDBRANCH   1  11
TORSDOF 14
ENDMDL
MODEL 6
REMARK VINA RESULT:    -4.091      1.500      3.204
REMARK INTER + INTRA:          -9.601
REMARK INTER:                  -7.121
REMARK INTRA:                  -2.480
REMARK UNBOUND:                -2.162
REMARK SMILES CCCCCCCCCCCCCCCC(=O)[O-]
REMARK SMILES IDX 9 1 10 2 11 3 12 4 13 5 14 6 15 7 16 8 17 9 18 10 8 11 7 12
REMARK SMILES IDX 6 13 5 14 4 15 3 16 2 17 1 18
REMARK H PARENT
REMARK Flexibility Score: inf
ROOT
ATOM      1  C   UNL     1     -19.830 -32.542  19.644  1.00  0.00     0.000 C 
ENDROOT
BRANCH   1   2
ATOM      2  C   UNL     1     -20.311 -31.140  20.057  1.00  0.00     0.000 C 
BRANCH   2   3
ATOM      3  C   UNL     1     -20.073 -30.039  19.007  1.00  0.00     0.000 C 
BRANCH   3   4
ATOM      4  C   UNL     1     -18.924 -30.353  18.024  1.00  0.00     0.000 C 
BRANCH   4   5
ATOM      5  C   UNL     1     -18.017 -29.134  17.781  1.00  0.00     0.000 C 
BRANCH   5   6
ATOM      6  C   UNL     1     -17.891 -28.232  19.022  1.00  0.00     0.006 C 
BRANCH   6   7
ATOM      7  C   UNL     1     -16.560 -28.391  19.774  1.00  0.00     0.053 C 
BRANCH   7   8
ATOM      8  C   UNL     1     -15.391 -28.438  18.838  1.00  0.00     0.041 C 
ATOM      9  O   UNL     1     -14.943 -27.377  18.327  1.00  0.00    -0.550 OA
ATOM     10  O   UNL     1     -14.784 -29.652  18.543  1.00  0.00    -0.550 OA
ENDBRANCH   7   8
ENDBRANCH   6   7
ENDBRANCH   5   6
ENDBRANCH   4   5
ENDBRANCH   3   4
ENDBRANCH   2   3
ENDBRANCH   1   2
BRANCH   1  11
ATOM     11  C   UNL     1     -18.847 -33.156  20.651  1.00  0.00     0.000 C 
BRANCH  11  12
ATOM     12  C   UNL     1     -17.955 -32.072  21.274  1.00  0.00    -0.000 C 
BRANCH  12  13
ATOM     13  C   UNL     1     -16.636 -31.878  20.509  1.00  0.00    -0.000 C 
BRANCH  13  14
ATOM     14  C   UNL     1     -16.182 -33.151  19.779  1.00  0.00    -0.000 C 
BRANCH  14  15
ATOM     15  C   UNL     1     -16.157 -32.933  18.260  1.00  0.00    -0.000 C 
BRANCH  15  16
ATOM     16  C   UNL     1     -17.094 -33.919  17.547  1.00  0.00    -0.000 C 
BRANCH  16  17
ATOM     17  C   UNL     1     -17.680 -33.343  16.249  1.00  0.00    -0.003 C 
ATOM     18  C   UNL     1     -19.187 -33.565  16.131  1.00  0.00     0.004 C 
ENDBRANCH  16  17
ENDBRANCH  15  16
ENDBRANCH  14  15
ENDBRANCH  13  14
ENDBRANCH  12  13
ENDBRANCH  11  12
ENDBRANCH   1  11
TORSDOF 14
ENDMDL
MODEL 7
REMARK VINA RESULT:    -4.058      1.647      3.077
REMARK INTER + INTRA:          -9.542
REMARK INTER:                  -7.080
REMARK INTRA:                  -2.463
REMARK UNBOUND:                -2.162
REMARK SMILES CCCCCCCCCCCCCCCC(=O)[O-]
REMARK SMILES IDX 9 1 10 2 11 3 12 4 13 5 14 6 15 7 16 8 17 9 18 10 8 11 7 12
REMARK SMILES IDX 6 13 5 14 4 15 3 16 2 17 1 18
REMARK H PARENT
REMARK Flexibility Score: inf
ROOT
ATOM      1  C   UNL     1     -18.484 -33.695  20.694  1.00  0.00     0.000 C 
ENDROOT
BRANCH   1   2
ATOM      2  C   UNL     1     -19.515 -33.300  19.622  1.00  0.00     0.000 C 
BRANCH   2   3
ATOM      3  C   UNL     1     -18.935 -33.109  18.207  1.00  0.00     0.000 C 
BRANCH   3   4
ATOM      4  C   UNL     1     -18.883 -31.635  17.749  1.00  0.00     0.000 C 
BRANCH   4   5
ATOM      5  C   UNL     1     -19.575 -30.691  18.748  1.00  0.00     0.000 C 
BRANCH   5   6
ATOM      6  C   UNL     1     -18.665 -29.532  19.195  1.00  0.00     0.006 C 
BRANCH   6   7
ATOM      7  C   UNL     1     -17.896 -28.865  18.043  1.00  0.00     0.053 C 
BRANCH   7   8
ATOM      8  C   UNL     1     -16.989 -27.778  18.532  1.00  0.00     0.041 C 
ATOM      9  O   UNL     1     -15.857 -27.612  18.005  1.00  0.00    -0.550 OA
ATOM     10  O   UNL     1     -17.400 -26.936  19.557  1.00  0.00    -0.550 OA
ENDBRANCH   7   8
ENDBRANCH   6   7
ENDBRANCH   5   6
ENDBRANCH   4   5
ENDBRANCH   3   4
ENDBRANCH   2   3
ENDBRANCH   1   2
BRANCH   1  11
ATOM     11  C   UNL     1     -18.097 -32.524  21.609  1.00  0.00     0.000 C 
BRANCH  11  12
ATOM     12  C   UNL     1     -16.576 -32.465  21.806  1.00  0.00    -0.000 C 
BRANCH  12  13
ATOM     13  C   UNL     1     -15.816 -33.383  20.835  1.00  0.00    -0.000 C 
BRANCH  13  14
ATOM     14  C   UNL     1     -14.748 -32.633  20.025  1.00  0.00    -0.000 C 
BRANCH  14  15
ATOM     15  C   UNL     1     -15.391 -31.585  19.107  1.00  0.00    -0.000 C 
BRANCH  15  16
ATOM     16  C   UNL     1     -15.266 -31.995  17.633  1.00  0.00    -0.000 C 
BRANCH  16  17
ATOM     17  C   UNL     1     -14.945 -30.806  16.715  1.00  0.00    -0.003 C 
ATOM     18  C   UNL     1     -15.933 -30.669  15.557  1.00  0.00     0.004 C 
ENDBRANCH  16  17
ENDBRANCH  15  16
ENDBRANCH  14  15
ENDBRANCH  13  14
ENDBRANCH  12  13
ENDBRANCH  11  12
ENDBRANCH   1  11
TORSDOF 14
ENDMDL
MODEL 8
REMARK VINA RESULT:    -3.923      2.765      4.835
REMARK INTER + INTRA:          -9.297
REMARK INTER:                  -6.692
REMARK INTRA:                  -2.605
REMARK UNBOUND:                -2.162
REMARK SMILES CCCCCCCCCCCCCCCC(=O)[O-]
REMARK SMILES IDX 9 1 10 2 11 3 12 4 13 5 14 6 15 7 16 8 17 9 18 10 8 11 7 12
REMARK SMILES IDX 6 13 5 14 4 15 3 16 2 17 1 18
REMARK H PARENT
REMARK Flexibility Score: inf
ROOT
ATOM      1  C   UNL     1     -19.218 -33.061  20.323  1.00  0.00     0.000 C 
ENDROOT
BRANCH   1   2
ATOM      2  C   UNL     1     -17.826 -33.711  20.391  1.00  0.00     0.000 C 
BRANCH   2   3
ATOM      3  C   UNL     1     -16.722 -32.812  20.980  1.00  0.00     0.000 C 
BRANCH   3   4
ATOM      4  C   UNL     1     -15.343 -32.998  20.311  1.00  0.00     0.000 C 
BRANCH   4   5
ATOM      5  C   UNL     1     -15.353 -34.125  19.263  1.00  0.00     0.000 C 
BRANCH   5   6
ATOM      6  C   UNL     1     -14.435 -33.827  18.063  1.00  0.00     0.006 C 
BRANCH   6   7
ATOM      7  C   UNL     1     -13.645 -32.516  18.195  1.00  0.00     0.053 C 
BRANCH   7   8
ATOM      8  C   UNL     1     -12.168 -32.739  18.085  1.00  0.00     0.041 C 
ATOM      9  O   UNL     1     -11.667 -33.846  18.416  1.00  0.00    -0.550 OA
ATOM     10  O   UNL     1     -11.346 -31.731  17.599  1.00  0.00    -0.550 OA
ENDBRANCH   7   8
ENDBRANCH   6   7
ENDBRANCH   5   6
ENDBRANCH   4   5
ENDBRANCH   3   4
ENDBRANCH   2   3
ENDBRANCH   1   2
BRANCH   1  11
ATOM     11  C   UNL     1     -19.186 -31.550  20.593  1.00  0.00     0.000 C 
BRANCH  11  12
ATOM     12  C   UNL     1     -19.588 -30.762  19.338  1.00  0.00    -0.000 C 
BRANCH  12  13
ATOM     13  C   UNL     1     -18.654 -29.574  19.057  1.00  0.00    -0.000 C 
BRANCH  13  14
ATOM     14  C   UNL     1     -17.927 -29.699  17.710  1.00  0.00    -0.000 C 
BRANCH  14  15
ATOM     15  C   UNL     1     -16.933 -30.868  17.729  1.00  0.00    -0.000 C 
BRANCH  15  16
ATOM     16  C   UNL     1     -17.116 -31.764  16.496  1.00  0.00    -0.000 C 
BRANCH  16  17
ATOM     17  C   UNL     1     -18.050 -32.954  16.764  1.00  0.00    -0.003 C 
ATOM     18  C   UNL     1     -19.370 -32.853  16.002  1.00  0.00     0.004 C 
ENDBRANCH  16  17
ENDBRANCH  15  16
ENDBRANCH  14  15
ENDBRANCH  13  14
ENDBRANCH  12  13
ENDBRANCH  11  12
ENDBRANCH   1  11
TORSDOF 14
ENDMDL
MODEL 9
REMARK VINA RESULT:    -3.915      2.847      4.528
REMARK INTER + INTRA:          -9.281
REMARK INTER:                  -7.198
REMARK INTRA:                  -2.083
REMARK UNBOUND:                -2.162
REMARK SMILES CCCCCCCCCCCCCCCC(=O)[O-]
REMARK SMILES IDX 9 1 10 2 11 3 12 4 13 5 14 6 15 7 16 8 17 9 18 10 8 11 7 12
REMARK SMILES IDX 6 13 5 14 4 15 3 16 2 17 1 18
REMARK H PARENT
REMARK Flexibility Score: inf
ROOT
ATOM      1  C   UNL     1     -17.101 -31.950  21.187  1.00  0.00     0.000 C 
ENDROOT
BRANCH   1   2
ATOM      2  C   UNL     1     -18.479 -32.630  21.237  1.00  0.00     0.000 C 
BRANCH   2   3
ATOM      3  C   UNL     1     -19.283 -32.560  19.925  1.00  0.00     0.000 C 
BRANCH   3   4
ATOM      4  C   UNL     1     -19.339 -31.148  19.303  1.00  0.00     0.000 C 
BRANCH   4   5
ATOM      5  C   UNL     1     -19.246 -31.186  17.767  1.00  0.00     0.000 C 
BRANCH   5   6
ATOM      6  C   UNL     1     -18.889 -32.583  17.228  1.00  0.00     0.006 C 
BRANCH   6   7
ATOM      7  C   UNL     1     -19.616 -32.951  15.925  1.00  0.00     0.053 C 
BRANCH   7   8
ATOM      8  C   UNL     1     -18.656 -33.289  14.826  1.00  0.00     0.041 C 
ATOM      9  O   UNL     1     -19.083 -33.680  13.707  1.00  0.00    -0.550 OA
ATOM     10  O   UNL     1     -17.289 -33.156  15.030  1.00  0.00    -0.550 OA
ENDBRANCH   7   8
ENDBRANCH   6   7
ENDBRANCH   5   6
ENDBRANCH   4   5
ENDBRANCH   3   4
ENDBRANCH   2   3
ENDBRANCH   1   2
BRANCH   1  11
ATOM     11  C   UNL     1     -15.941 -32.955  21.122  1.00  0.00     0.000 C 
BRANCH  11  12
ATOM     12  C   UNL     1     -14.973 -32.599  19.984  1.00  0.00    -0.000 C 
BRANCH  12  13
ATOM     13  C   UNL     1     -15.674 -31.905  18.805  1.00  0.00    -0.000 C 
BRANCH  13  14
ATOM     14  C   UNL     1     -14.988 -30.592  18.398  1.00  0.00    -0.000 C 
BRANCH  14  15
ATOM     15  C   UNL     1     -15.906 -29.390  18.656  1.00  0.00    -0.000 C 
BRANCH  15  16
ATOM     16  C   UNL     1     -16.556 -28.906  17.352  1.00  0.00    -0.000 C 
BRANCH  16  17
ATOM     17  C   UNL     1     -17.447 -27.673  17.559  1.00  0.00    -0.003 C 
ATOM     18  C   UNL     1     -18.053 -27.609  18.961  1.00  0.00     0.004 C 
ENDBRANCH  16  17
ENDBRANCH  15  16
ENDBRANCH  14  15
ENDBRANCH  13  14
ENDBRANCH  12  13
ENDBRANCH  11  12
ENDBRANCH   1  11
TORSDOF 14
ENDMDL
