MODEL 1
REMARK VINA RESULT:    -4.276      0.000      0.000
REMARK INTER + INTRA:          -4.549
REMARK INTER:                  -4.526
REMARK INTRA:                  -0.023
REMARK UNBOUND:                -0.023
REMARK SMILES O=C([O-])c1cccnc1
REMARK SMILES IDX 4 1 5 2 9 3 6 4 8 5 7 6 2 7 1 8 3 9
REMARK H PARENT
REMARK Flexibility Score: inf
ROOT
ATOM      1  C   UNL     1      -5.453   4.224  -4.598  1.00  0.00     0.016 A 
ATOM      2  C   UNL     1      -5.527   5.568  -4.194  1.00  0.00     0.013 A 
ATOM      3  C   UNL     1      -5.230   3.946  -5.957  1.00  0.00     0.120 A 
ATOM      4  C   UNL     1      -5.380   6.591  -5.134  1.00  0.00     0.021 A 
ATOM      5  N   UNL     1      -5.090   4.962  -6.852  1.00  0.00    -0.264 NA
ATOM      6  C   UNL     1      -5.160   6.265  -6.472  1.00  0.00     0.111 A 
ENDROOT
BRANCH   1   7
ATOM      7  C   UNL     1      -5.606   3.126  -3.619  1.00  0.00     0.073 C 
ATOM      8  O   UNL     1      -5.205   1.963  -3.893  1.00  0.00    -0.545 OA
ATOM      9  O   UNL     1      -6.197   3.363  -2.383  1.00  0.00    -0.545 OA
ENDBRANCH   1   7
TORSDOF 1
ENDMDL
MODEL 2
REMARK VINA RESULT:    -4.249      1.953      2.960
REMARK INTER + INTRA:          -4.521
REMARK INTER:                  -4.500
REMARK INTRA:                  -0.021
REMARK UNBOUND:                -0.023
REMARK SMILES O=C([O-])c1cccnc1
REMARK SMILES IDX 4 1 5 2 9 3 6 4 8 5 7 6 2 7 1 8 3 9
REMARK H PARENT
REMARK Flexibility Score: inf
ROOT
ATOM      1  C   UNL     1      -5.185   5.293  -6.542  1.00  0.00     0.016 A 
ATOM      2  C   UNL     1      -4.823   4.855  -7.827  1.00  0.00     0.013 A 
ATOM      3  C   UNL     1      -5.205   6.675  -6.289  1.00  0.00     0.120 A 
ATOM      4  C   UNL     1      -4.496   5.783  -8.818  1.00  0.00     0.021 A 
ATOM      5  N   UNL     1      -4.882   7.558  -7.272  1.00  0.00    -0.264 NA
ATOM      6  C   UNL     1      -4.532   7.145  -8.518  1.00  0.00     0.111 A 
ENDROOT
BRANCH   1   7
ATOM      7  C   UNL     1      -5.534   4.327  -5.478  1.00  0.00     0.073 C 
ATOM      8  O   UNL     1      -6.418   4.605  -4.625  1.00  0.00    -0.545 OA
ATOM      9  O   UNL     1      -4.889   3.098  -5.405  1.00  0.00    -0.545 OA
ENDBRANCH   1   7
TORSDOF 1
ENDMDL
MODEL 3
REMARK VINA RESULT:    -4.195      1.164      1.707
REMARK INTER + INTRA:          -4.463
REMARK INTER:                  -4.439
REMARK INTRA:                  -0.024
REMARK UNBOUND:                -0.023
REMARK SMILES O=C([O-])c1cccnc1
REMARK SMILES IDX 4 1 5 2 9 3 6 4 8 5 7 6 2 7 1 8 3 9
REMARK H PARENT
REMARK Flexibility Score: inf
ROOT
ATOM      1  C   UNL     1      -5.588   4.317  -4.223  1.00  0.00     0.016 A 
ATOM      2  C   UNL     1      -5.239   4.349  -5.584  1.00  0.00     0.013 A 
ATOM      3  C   UNL     1      -5.880   5.532  -3.580  1.00  0.00     0.120 A 
ATOM      4  C   UNL     1      -5.188   5.567  -6.266  1.00  0.00     0.021 A 
ATOM      5  N   UNL     1      -5.824   6.704  -4.268  1.00  0.00    -0.264 NA
ATOM      6  C   UNL     1      -5.488   6.746  -5.584  1.00  0.00     0.111 A 
ENDROOT
BRANCH   1   7
ATOM      7  C   UNL     1      -5.646   3.039  -3.482  1.00  0.00     0.073 C 
ATOM      8  O   UNL     1      -5.182   1.983  -3.990  1.00  0.00    -0.545 OA
ATOM      9  O   UNL     1      -6.216   2.985  -2.215  1.00  0.00    -0.545 OA
ENDBRANCH   1   7
TORSDOF 1
ENDMDL
MODEL 4
REMARK VINA RESULT:    -4.141      1.736      2.218
REMARK INTER + INTRA:          -4.406
REMARK INTER:                  -4.383
REMARK INTRA:                  -0.023
REMARK UNBOUND:                -0.023
REMARK SMILES O=C([O-])c1cccnc1
REMARK SMILES IDX 4 1 5 2 9 3 6 4 8 5 7 6 2 7 1 8 3 9
REMARK H PARENT
REMARK Flexibility Score: inf
ROOT
ATOM      1  C   UNL     1      -5.084   5.256  -6.467  1.00  0.00     0.016 A 
ATOM      2  C   UNL     1      -5.147   6.653  -6.330  1.00  0.00     0.013 A 
ATOM      3  C   UNL     1      -4.785   4.721  -7.732  1.00  0.00     0.120 A 
ATOM      4  C   UNL     1      -4.915   7.477  -7.434  1.00  0.00     0.021 A 
ATOM      5  N   UNL     1      -4.562   5.546  -8.791  1.00  0.00    -0.264 NA
ATOM      6  C   UNL     1      -4.620   6.899  -8.669  1.00  0.00     0.111 A 
ENDROOT
BRANCH   1   7
ATOM      7  C   UNL     1      -5.328   4.366  -5.311  1.00  0.00     0.073 C 
ATOM      8  O   UNL     1      -5.072   3.134  -5.386  1.00  0.00    -0.545 OA
ATOM      9  O   UNL     1      -5.844   4.878  -4.127  1.00  0.00    -0.545 OA
ENDBRANCH   1   7
TORSDOF 1
ENDMDL
MODEL 5
REMARK VINA RESULT:    -4.077      3.001      3.867
REMARK INTER + INTRA:          -4.338
REMARK INTER:                  -4.314
REMARK INTRA:                  -0.024
REMARK UNBOUND:                -0.023
REMARK SMILES O=C([O-])c1cccnc1
REMARK SMILES IDX 4 1 5 2 9 3 6 4 8 5 7 6 2 7 1 8 3 9
REMARK H PARENT
REMARK Flexibility Score: inf
ROOT
ATOM      1  C   UNL     1      -5.421   5.839  -5.335  1.00  0.00     0.016 A 
ATOM      2  C   UNL     1      -5.898   5.683  -4.023  1.00  0.00     0.013 A 
ATOM      3  C   UNL     1      -5.015   4.693  -6.040  1.00  0.00     0.120 A 
ATOM      4  C   UNL     1      -5.962   4.412  -3.448  1.00  0.00     0.021 A 
ATOM      5  N   UNL     1      -5.089   3.467  -5.456  1.00  0.00    -0.264 NA
ATOM      6  C   UNL     1      -5.549   3.304  -4.188  1.00  0.00     0.111 A 
ENDROOT
BRANCH   1   7
ATOM      7  C   UNL     1      -5.345   7.176  -5.963  1.00  0.00     0.073 C 
ATOM      8  O   UNL     1      -5.872   8.176  -5.406  1.00  0.00    -0.545 OA
ATOM      9  O   UNL     1      -4.691   7.347  -7.177  1.00  0.00    -0.545 OA
ENDBRANCH   1   7
TORSDOF 1
ENDMDL
MODEL 6
REMARK VINA RESULT:    -3.938      3.221      3.828
REMARK INTER + INTRA:          -4.191
REMARK INTER:                  -4.174
REMARK INTRA:                  -0.017
REMARK UNBOUND:                -0.023
REMARK SMILES O=C([O-])c1cccnc1
REMARK SMILES IDX 4 1 5 2 9 3 6 4 8 5 7 6 2 7 1 8 3 9
REMARK H PARENT
REMARK Flexibility Score: inf
ROOT
ATOM      1  C   UNL     1      -5.221   5.038  -6.744  1.00  0.00     0.016 A 
ATOM      2  C   UNL     1      -5.437   6.165  -5.934  1.00  0.00     0.013 A 
ATOM      3  C   UNL     1      -5.091   3.784  -6.124  1.00  0.00     0.120 A 
ATOM      4  C   UNL     1      -5.517   6.026  -4.546  1.00  0.00     0.021 A 
ATOM      5  N   UNL     1      -5.174   3.676  -4.770  1.00  0.00    -0.264 NA
ATOM      6  C   UNL     1      -5.382   4.759  -3.977  1.00  0.00     0.111 A 
ENDROOT
BRANCH   1   7
ATOM      7  C   UNL     1      -5.133   5.164  -8.215  1.00  0.00     0.073 C 
ATOM      8  O   UNL     1      -4.042   4.955  -8.811  1.00  0.00    -0.545 OA
ATOM      9  O   UNL     1      -6.252   5.517  -8.959  1.00  0.00    -0.545 OA
ENDBRANCH   1   7
TORSDOF 1
ENDMDL
MODEL 7
REMARK VINA RESULT:    -3.855      3.293      4.081
REMARK INTER + INTRA:          -4.103
REMARK INTER:                  -4.086
REMARK INTRA:                  -0.017
REMARK UNBOUND:                -0.023
REMARK SMILES O=C([O-])c1cccnc1
REMARK SMILES IDX 4 1 5 2 9 3 6 4 8 5 7 6 2 7 1 8 3 9
REMARK H PARENT
REMARK Flexibility Score: inf
ROOT
ATOM      1  C   UNL     1      -5.177   5.413  -6.880  1.00  0.00     0.016 A 
ATOM      2  C   UNL     1      -4.988   4.310  -6.029  1.00  0.00     0.013 A 
ATOM      3  C   UNL     1      -5.436   6.667  -6.302  1.00  0.00     0.120 A 
ATOM      4  C   UNL     1      -5.060   4.474  -4.644  1.00  0.00     0.021 A 
ATOM      5  N   UNL     1      -5.500   6.799  -4.949  1.00  0.00    -0.264 NA
ATOM      6  C   UNL     1      -5.319   5.740  -4.117  1.00  0.00     0.111 A 
ENDROOT
BRANCH   1   7
ATOM      7  C   UNL     1      -5.105   5.260  -8.349  1.00  0.00     0.073 C 
ATOM      8  O   UNL     1      -4.024   4.934  -8.908  1.00  0.00    -0.545 OA
ATOM      9  O   UNL     1      -6.232   5.478  -9.134  1.00  0.00    -0.545 OA
ENDBRANCH   1   7
TORSDOF 1
ENDMDL
MODEL 8
REMARK VINA RESULT:    -3.829     19.208     19.938
REMARK INTER + INTRA:          -4.076
REMARK INTER:                  -4.059
REMARK INTRA:                  -0.016
REMARK UNBOUND:                -0.023
REMARK SMILES O=C([O-])c1cccnc1
REMARK SMILES IDX 4 1 5 2 9 3 6 4 8 5 7 6 2 7 1 8 3 9
REMARK H PARENT
REMARK Flexibility Score: inf
ROOT
ATOM      1  C   UNL     1       8.946  -5.935 -14.035  1.00  0.00     0.016 A 
ATOM      2  C   UNL     1       9.682  -5.195 -14.976  1.00  0.00     0.013 A 
ATOM      3  C   UNL     1       7.568  -5.683 -13.917  1.00  0.00     0.120 A 
ATOM      4  C   UNL     1       9.045  -4.237 -15.767  1.00  0.00     0.021 A 
ATOM      5  N   UNL     1       6.972  -4.744 -14.701  1.00  0.00    -0.264 NA
ATOM      6  C   UNL     1       7.675  -4.024 -15.614  1.00  0.00     0.111 A 
ENDROOT
BRANCH   1   7
ATOM      7  C   UNL     1       9.601  -6.953 -13.186  1.00  0.00     0.073 C 
ATOM      8  O   UNL     1       9.494  -8.179 -13.459  1.00  0.00    -0.545 OA
ATOM      9  O   UNL     1      10.343  -6.571 -12.075  1.00  0.00    -0.545 OA
ENDBRANCH   1   7
TORSDOF 1
ENDMDL
MODEL 9
REMARK VINA RESULT:    -3.807     18.856     19.715
REMARK INTER + INTRA:          -4.052
REMARK INTER:                  -4.031
REMARK INTRA:                  -0.021
REMARK UNBOUND:                -0.023
REMARK SMILES O=C([O-])c1cccnc1
REMARK SMILES IDX 4 1 5 2 9 3 6 4 8 5 7 6 2 7 1 8 3 9
REMARK H PARENT
REMARK Flexibility Score: inf
ROOT
ATOM      1  C   UNL     1      10.283  -6.702  -3.199  1.00  0.00     0.016 A 
ATOM      2  C   UNL     1      10.239  -7.995  -2.651  1.00  0.00     0.013 A 
ATOM      3  C   UNL     1      10.474  -6.569  -4.585  1.00  0.00     0.120 A 
ATOM      4  C   UNL     1      10.382  -9.112  -3.477  1.00  0.00     0.021 A 
ATOM      5  N   UNL     1      10.610  -7.674  -5.367  1.00  0.00    -0.264 NA
ATOM      6  C   UNL     1      10.569  -8.929  -4.848  1.00  0.00     0.111 A 
ENDROOT
BRANCH   1   7
ATOM      7  C   UNL     1      10.134  -5.506  -2.341  1.00  0.00     0.073 C 
ATOM      8  O   UNL     1       9.592  -4.460  -2.788  1.00  0.00    -0.545 OA
ATOM      9  O   UNL     1      10.593  -5.521  -1.029  1.00  0.00    -0.545 OA
ENDBRANCH   1   7
TORSDOF 1
ENDMDL
