MODEL 1
REMARK VINA RESULT:    -5.583      0.000      0.000
REMARK INTER + INTRA:         -11.451
REMARK INTER:                  -9.499
REMARK INTRA:                  -1.952
REMARK UNBOUND:                -1.952
REMARK SMILES CCCCCCCCCCCCCC(=O)[O-]
REMARK SMILES IDX 8 1 9 2 10 3 11 4 12 5 13 6 14 7 15 8 16 9 7 10 6 11 5 12
REMARK SMILES IDX 4 13 3 14 2 15 1 16
REMARK H PARENT
REMARK Flexibility Score: inf
ROOT
ATOM      1  C   UNL     1     -18.542 -10.688  -1.625  1.00  0.00     0.000 C 
ENDROOT
BRANCH   1   2
ATOM      2  C   UNL     1     -18.494 -11.575  -0.369  1.00  0.00     0.000 C 
BRANCH   2   3
ATOM      3  C   UNL     1     -17.059 -11.933   0.058  1.00  0.00     0.000 C 
BRANCH   3   4
ATOM      4  C   UNL     1     -16.791 -13.437   0.257  1.00  0.00     0.000 C 
BRANCH   4   5
ATOM      5  C   UNL     1     -15.874 -14.032  -0.825  1.00  0.00     0.006 C 
BRANCH   5   6
ATOM      6  C   UNL     1     -16.648 -14.900  -1.826  1.00  0.00     0.053 C 
BRANCH   6   7
ATOM      7  C   UNL     1     -17.209 -14.084  -2.952  1.00  0.00     0.041 C 
ATOM      8  O   UNL     1     -16.438 -13.505  -3.761  1.00  0.00    -0.550 OA
ATOM      9  O   UNL     1     -18.584 -13.942  -3.089  1.00  0.00    -0.550 OA
ENDBRANCH   6   7
ENDBRANCH   5   6
ENDBRANCH   4   5
ENDBRANCH   3   4
ENDBRANCH   2   3
ENDBRANCH   1   2
BRANCH   1  10
ATOM     10  C   UNL     1     -17.140 -10.356  -2.164  1.00  0.00     0.000 C 
BRANCH  10  11
ATOM     11  C   UNL     1     -17.029  -8.904  -2.664  1.00  0.00    -0.000 C 
BRANCH  11  12
ATOM     12  C   UNL     1     -16.241  -8.005  -1.698  1.00  0.00    -0.000 C 
BRANCH  12  13
ATOM     13  C   UNL     1     -15.378  -8.806  -0.711  1.00  0.00    -0.000 C 
BRANCH  13  14
ATOM     14  C   UNL     1     -15.766  -8.490   0.739  1.00  0.00    -0.000 C 
BRANCH  14  15
ATOM     15  C   UNL     1     -16.950  -7.518   0.793  1.00  0.00    -0.003 C 
ATOM     16  C   UNL     1     -18.220  -8.221   1.263  1.00  0.00     0.004 C 
ENDBRANCH  14  15
ENDBRANCH  13  14
ENDBRANCH  12  13
ENDBRANCH  11  12
ENDBRANCH  10  11
ENDBRANCH   1  10
TORSDOF 12
ENDMDL
MODEL 2
REMARK VINA RESULT:    -5.530      2.393      3.584
REMARK INTER + INTRA:         -11.361
REMARK INTER:                  -9.460
REMARK INTRA:                  -1.901
REMARK UNBOUND:                -1.952
REMARK SMILES CCCCCCCCCCCCCC(=O)[O-]
REMARK SMILES IDX 8 1 9 2 10 3 11 4 12 5 13 6 14 7 15 8 16 9 7 10 6 11 5 12
REMARK SMILES IDX 4 13 3 14 2 15 1 16
REMARK H PARENT
REMARK Flexibility Score: inf
ROOT
ATOM      1  C   UNL     1     -18.741  -9.137  -0.577  1.00  0.00     0.000 C 
ENDROOT
BRANCH   1   2
ATOM      2  C   UNL     1     -18.878 -10.648  -0.832  1.00  0.00     0.000 C 
BRANCH   2   3
ATOM      3  C   UNL     1     -18.000 -11.143  -1.995  1.00  0.00     0.000 C 
BRANCH   3   4
ATOM      4  C   UNL     1     -17.049 -12.304  -1.651  1.00  0.00     0.000 C 
BRANCH   4   5
ATOM      5  C   UNL     1     -17.202 -12.796  -0.202  1.00  0.00     0.006 C 
BRANCH   5   6
ATOM      6  C   UNL     1     -16.251 -13.956   0.119  1.00  0.00     0.053 C 
BRANCH   6   7
ATOM      7  C   UNL     1     -15.380 -13.650   1.300  1.00  0.00     0.041 C 
ATOM      8  O   UNL     1     -14.438 -12.821   1.196  1.00  0.00    -0.550 OA
ATOM      9  O   UNL     1     -15.594 -14.301   2.508  1.00  0.00    -0.550 OA
ENDBRANCH   6   7
ENDBRANCH   5   6
ENDBRANCH   4   5
ENDBRANCH   3   4
ENDBRANCH   2   3
ENDBRANCH   1   2
BRANCH   1  10
ATOM     10  C   UNL     1     -17.953  -8.826   0.706  1.00  0.00     0.000 C 
BRANCH  10  11
ATOM     11  C   UNL     1     -16.612  -8.127   0.420  1.00  0.00    -0.000 C 
BRANCH  11  12
ATOM     12  C   UNL     1     -15.423  -9.102   0.432  1.00  0.00    -0.000 C 
BRANCH  12  13
ATOM     13  C   UNL     1     -14.836  -9.340  -0.968  1.00  0.00    -0.000 C 
BRANCH  13  14
ATOM     14  C   UNL     1     -15.367  -8.304  -1.968  1.00  0.00    -0.000 C 
BRANCH  14  15
ATOM     15  C   UNL     1     -15.431  -8.889  -3.383  1.00  0.00    -0.003 C 
ATOM     16  C   UNL     1     -16.528  -8.222  -4.207  1.00  0.00     0.004 C 
ENDBRANCH  14  15
ENDBRANCH  13  14
ENDBRANCH  12  13
ENDBRANCH  11  12
ENDBRANCH  10  11
ENDBRANCH   1  10
TORSDOF 12
ENDMDL
MODEL 3
REMARK VINA RESULT:    -5.516      1.745      3.357
REMARK INTER + INTRA:         -11.338
REMARK INTER:                  -9.411
REMARK INTRA:                  -1.926
REMARK UNBOUND:                -1.952
REMARK SMILES CCCCCCCCCCCCCC(=O)[O-]
REMARK SMILES IDX 8 1 9 2 10 3 11 4 12 5 13 6 14 7 15 8 16 9 7 10 6 11 5 12
REMARK SMILES IDX 4 13 3 14 2 15 1 16
REMARK H PARENT
REMARK Flexibility Score: inf
ROOT
ATOM      1  C   UNL     1     -18.103  -9.449   0.604  1.00  0.00     0.000 C 
ENDROOT
BRANCH   1   2
ATOM      2  C   UNL     1     -19.049  -9.417  -0.608  1.00  0.00     0.000 C 
BRANCH   2   3
ATOM      3  C   UNL     1     -18.701 -10.476  -1.669  1.00  0.00     0.000 C 
BRANCH   3   4
ATOM      4  C   UNL     1     -17.683 -11.542  -1.221  1.00  0.00     0.000 C 
BRANCH   4   5
ATOM      5  C   UNL     1     -16.825 -12.076  -2.380  1.00  0.00     0.006 C 
BRANCH   5   6
ATOM      6  C   UNL     1     -15.419 -12.482  -1.920  1.00  0.00     0.053 C 
BRANCH   6   7
ATOM      7  C   UNL     1     -15.458 -13.636  -0.964  1.00  0.00     0.041 C 
ATOM      8  O   UNL     1     -14.969 -13.520   0.190  1.00  0.00    -0.550 OA
ATOM      9  O   UNL     1     -16.012 -14.847  -1.358  1.00  0.00    -0.550 OA
ENDBRANCH   6   7
ENDBRANCH   5   6
ENDBRANCH   4   5
ENDBRANCH   3   4
ENDBRANCH   2   3
ENDBRANCH   1   2
BRANCH   1  10
ATOM     10  C   UNL     1     -17.735  -8.041   1.101  1.00  0.00     0.000 C 
BRANCH  10  11
ATOM     11  C   UNL     1     -16.302  -7.635   0.715  1.00  0.00    -0.000 C 
BRANCH  11  12
ATOM     12  C   UNL     1     -15.530  -8.772   0.027  1.00  0.00    -0.000 C 
BRANCH  12  13
ATOM     13  C   UNL     1     -14.942  -8.355  -1.329  1.00  0.00    -0.000 C 
BRANCH  13  14
ATOM     14  C   UNL     1     -16.049  -7.918  -2.296  1.00  0.00    -0.000 C 
BRANCH  14  15
ATOM     15  C   UNL     1     -16.002  -8.736  -3.592  1.00  0.00    -0.003 C 
ATOM     16  C   UNL     1     -16.704  -8.004  -4.732  1.00  0.00     0.004 C 
ENDBRANCH  14  15
ENDBRANCH  13  14
ENDBRANCH  12  13
ENDBRANCH  11  12
ENDBRANCH  10  11
ENDBRANCH   1  10
TORSDOF 12
ENDMDL
MODEL 4
REMARK VINA RESULT:    -5.505      2.146      5.185
REMARK INTER + INTRA:         -11.319
REMARK INTER:                  -9.754
REMARK INTRA:                  -1.565
REMARK UNBOUND:                -1.952
REMARK SMILES CCCCCCCCCCCCCC(=O)[O-]
REMARK SMILES IDX 8 1 9 2 10 3 11 4 12 5 13 6 14 7 15 8 16 9 7 10 6 11 5 12
REMARK SMILES IDX 4 13 3 14 2 15 1 16
REMARK H PARENT
REMARK Flexibility Score: inf
ROOT
ATOM      1  C   UNL     1     -18.144  -9.426   0.802  1.00  0.00     0.000 C 
ENDROOT
BRANCH   1   2
ATOM      2  C   UNL     1     -17.764  -7.998   1.230  1.00  0.00     0.000 C 
BRANCH   2   3
ATOM      3  C   UNL     1     -16.338  -7.604   0.806  1.00  0.00     0.000 C 
BRANCH   3   4
ATOM      4  C   UNL     1     -15.758  -8.410  -0.371  1.00  0.00     0.000 C 
BRANCH   4   5
ATOM      5  C   UNL     1     -15.866  -7.672  -1.715  1.00  0.00     0.006 C 
BRANCH   5   6
ATOM      6  C   UNL     1     -16.775  -8.407  -2.709  1.00  0.00     0.053 C 
BRANCH   6   7
ATOM      7  C   UNL     1     -16.088  -8.645  -4.019  1.00  0.00     0.041 C 
ATOM      8  O   UNL     1     -16.539  -8.128  -5.075  1.00  0.00    -0.550 OA
ATOM      9  O   UNL     1     -14.966  -9.461  -4.077  1.00  0.00    -0.550 OA
ENDBRANCH   6   7
ENDBRANCH   5   6
ENDBRANCH   4   5
ENDBRANCH   3   4
ENDBRANCH   2   3
ENDBRANCH   1   2
BRANCH   1  10
ATOM     10  C   UNL     1     -19.216  -9.445  -0.301  1.00  0.00     0.000 C 
BRANCH  10  11
ATOM     11  C   UNL     1     -19.165 -10.727  -1.150  1.00  0.00    -0.000 C 
BRANCH  11  12
ATOM     12  C   UNL     1     -18.972 -11.993  -0.300  1.00  0.00    -0.000 C 
BRANCH  12  13
ATOM     13  C   UNL     1     -17.878 -12.918  -0.853  1.00  0.00    -0.000 C 
BRANCH  13  14
ATOM     14  C   UNL     1     -16.736 -12.106  -1.476  1.00  0.00    -0.000 C 
BRANCH  14  15
ATOM     15  C   UNL     1     -16.389 -12.628  -2.875  1.00  0.00    -0.003 C 
ATOM     16  C   UNL     1     -17.201 -13.874  -3.216  1.00  0.00     0.004 C 
ENDBRANCH  14  15
ENDBRANCH  13  14
ENDBRANCH  12  13
ENDBRANCH  11  12
ENDBRANCH  10  11
ENDBRANCH   1  10
TORSDOF 12
ENDMDL
MODEL 5
REMARK VINA RESULT:    -5.491      1.186      2.959
REMARK INTER + INTRA:         -11.296
REMARK INTER:                  -9.438
REMARK INTRA:                  -1.857
REMARK UNBOUND:                -1.952
REMARK SMILES CCCCCCCCCCCCCC(=O)[O-]
REMARK SMILES IDX 8 1 9 2 10 3 11 4 12 5 13 6 14 7 15 8 16 9 7 10 6 11 5 12
REMARK SMILES IDX 4 13 3 14 2 15 1 16
REMARK H PARENT
REMARK Flexibility Score: inf
ROOT
ATOM      1  C   UNL     1     -18.274  -9.430   0.744  1.00  0.00     0.000 C 
ENDROOT
BRANCH   1   2
ATOM      2  C   UNL     1     -19.004  -9.418  -0.610  1.00  0.00     0.000 C 
BRANCH   2   3
ATOM      3  C   UNL     1     -18.891 -10.756  -1.364  1.00  0.00     0.000 C 
BRANCH   3   4
ATOM      4  C   UNL     1     -18.748 -12.001  -0.470  1.00  0.00     0.000 C 
BRANCH   4   5
ATOM      5  C   UNL     1     -17.347 -12.633  -0.541  1.00  0.00     0.006 C 
BRANCH   5   6
ATOM      6  C   UNL     1     -16.517 -12.071  -1.702  1.00  0.00     0.053 C 
BRANCH   6   7
ATOM      7  C   UNL     1     -16.296 -13.095  -2.774  1.00  0.00     0.041 C 
ATOM      8  O   UNL     1     -15.426 -12.904  -3.664  1.00  0.00    -0.550 OA
ATOM      9  O   UNL     1     -17.070 -14.247  -2.805  1.00  0.00    -0.550 OA
ENDBRANCH   6   7
ENDBRANCH   5   6
ENDBRANCH   4   5
ENDBRANCH   3   4
ENDBRANCH   2   3
ENDBRANCH   1   2
BRANCH   1  10
ATOM     10  C   UNL     1     -17.909  -8.015   1.227  1.00  0.00     0.000 C 
BRANCH  10  11
ATOM     11  C   UNL     1     -16.480  -7.607   0.827  1.00  0.00    -0.000 C 
BRANCH  11  12
ATOM     12  C   UNL     1     -15.623  -8.805   0.389  1.00  0.00    -0.000 C 
BRANCH  12  13
ATOM     13  C   UNL     1     -15.123  -8.680  -1.058  1.00  0.00    -0.000 C 
BRANCH  13  14
ATOM     14  C   UNL     1     -16.032  -7.751  -1.874  1.00  0.00    -0.000 C 
BRANCH  14  15
ATOM     15  C   UNL     1     -16.460  -8.415  -3.188  1.00  0.00    -0.003 C 
ATOM     16  C   UNL     1     -15.315  -9.218  -3.799  1.00  0.00     0.004 C 
ENDBRANCH  14  15
ENDBRANCH  13  14
ENDBRANCH  12  13
ENDBRANCH  11  12
ENDBRANCH  10  11
ENDBRANCH   1  10
TORSDOF 12
ENDMDL
MODEL 6
REMARK VINA RESULT:    -5.476      2.590      5.799
REMARK INTER + INTRA:         -11.269
REMARK INTER:                  -9.314
REMARK INTRA:                  -1.956
REMARK UNBOUND:                -1.952
REMARK SMILES CCCCCCCCCCCCCC(=O)[O-]
REMARK SMILES IDX 8 1 9 2 10 3 11 4 12 5 13 6 14 7 15 8 16 9 7 10 6 11 5 12
REMARK SMILES IDX 4 13 3 14 2 15 1 16
REMARK H PARENT
REMARK Flexibility Score: inf
ROOT
ATOM      1  C   UNL     1     -18.238 -11.821  -0.138  1.00  0.00     0.000 C 
ENDROOT
BRANCH   1   2
ATOM      2  C   UNL     1     -18.598 -10.732  -1.163  1.00  0.00     0.000 C 
BRANCH   2   3
ATOM      3  C   UNL     1     -17.486 -10.496  -2.202  1.00  0.00     0.000 C 
BRANCH   3   4
ATOM      4  C   UNL     1     -17.202  -9.019  -2.534  1.00  0.00     0.000 C 
BRANCH   4   5
ATOM      5  C   UNL     1     -15.828  -8.544  -2.032  1.00  0.00     0.006 C 
BRANCH   5   6
ATOM      6  C   UNL     1     -15.946  -7.597  -0.830  1.00  0.00     0.053 C 
BRANCH   6   7
ATOM      7  C   UNL     1     -16.071  -8.349   0.460  1.00  0.00     0.041 C 
ATOM      8  O   UNL     1     -15.100  -9.020   0.900  1.00  0.00    -0.550 OA
ATOM      9  O   UNL     1     -17.268  -8.329   1.163  1.00  0.00    -0.550 OA
ENDBRANCH   6   7
ENDBRANCH   5   6
ENDBRANCH   4   5
ENDBRANCH   3   4
ENDBRANCH   2   3
ENDBRANCH   1   2
BRANCH   1  10
ATOM     10  C   UNL     1     -16.720 -12.037  -0.018  1.00  0.00     0.000 C 
BRANCH  10  11
ATOM     11  C   UNL     1     -16.359 -13.483   0.365  1.00  0.00    -0.000 C 
BRANCH  11  12
ATOM     12  C   UNL     1     -16.260 -14.412  -0.856  1.00  0.00    -0.000 C 
BRANCH  12  13
ATOM     13  C   UNL     1     -15.759 -13.687  -2.113  1.00  0.00    -0.000 C 
BRANCH  13  14
ATOM     14  C   UNL     1     -16.703 -13.927  -3.298  1.00  0.00    -0.000 C 
BRANCH  14  15
ATOM     15  C   UNL     1     -17.927 -14.744  -2.869  1.00  0.00    -0.003 C 
ATOM     16  C   UNL     1     -19.211 -13.934  -3.018  1.00  0.00     0.004 C 
ENDBRANCH  14  15
ENDBRANCH  13  14
ENDBRANCH  12  13
ENDBRANCH  11  12
ENDBRANCH  10  11
ENDBRANCH   1  10
TORSDOF 12
ENDMDL
MODEL 7
REMARK VINA RESULT:    -5.445      2.292      4.765
REMARK INTER + INTRA:         -11.218
REMARK INTER:                  -9.263
REMARK INTRA:                  -1.955
REMARK UNBOUND:                -1.952
REMARK SMILES CCCCCCCCCCCCCC(=O)[O-]
REMARK SMILES IDX 8 1 9 2 10 3 11 4 12 5 13 6 14 7 15 8 16 9 7 10 6 11 5 12
REMARK SMILES IDX 4 13 3 14 2 15 1 16
REMARK H PARENT
REMARK Flexibility Score: inf
ROOT
ATOM      1  C   UNL     1     -18.779 -12.893  -1.042  1.00  0.00     0.000 C 
ENDROOT
BRANCH   1   2
ATOM      2  C   UNL     1     -18.924 -11.435  -0.573  1.00  0.00     0.000 C 
BRANCH   2   3
ATOM      3  C   UNL     1     -17.667 -10.907   0.142  1.00  0.00     0.000 C 
BRANCH   3   4
ATOM      4  C   UNL     1     -17.063  -9.624  -0.457  1.00  0.00     0.000 C 
BRANCH   4   5
ATOM      5  C   UNL     1     -17.419  -9.428  -1.940  1.00  0.00     0.006 C 
BRANCH   5   6
ATOM      6  C   UNL     1     -16.634  -8.274  -2.577  1.00  0.00     0.053 C 
BRANCH   6   7
ATOM      7  C   UNL     1     -16.213  -8.595  -3.979  1.00  0.00     0.041 C 
ATOM      8  O   UNL     1     -15.274  -9.406  -4.190  1.00  0.00    -0.550 OA
ATOM      9  O   UNL     1     -16.841  -7.976  -5.052  1.00  0.00    -0.550 OA
ENDBRANCH   6   7
ENDBRANCH   5   6
ENDBRANCH   4   5
ENDBRANCH   3   4
ENDBRANCH   2   3
ENDBRANCH   1   2
BRANCH   1  10
ATOM     10  C   UNL     1     -18.346 -12.997  -2.514  1.00  0.00     0.000 C 
BRANCH  10  11
ATOM     11  C   UNL     1     -17.036 -13.786  -2.689  1.00  0.00    -0.000 C 
BRANCH  11  12
ATOM     12  C   UNL     1     -15.849 -12.885  -3.064  1.00  0.00    -0.000 C 
BRANCH  12  13
ATOM     13  C   UNL     1     -15.009 -12.472  -1.846  1.00  0.00    -0.000 C 
BRANCH  13  14
ATOM     14  C   UNL     1     -14.832 -13.648  -0.877  1.00  0.00    -0.000 C 
BRANCH  14  15
ATOM     15  C   UNL     1     -14.660 -13.154   0.564  1.00  0.00    -0.003 C 
ATOM     16  C   UNL     1     -15.618 -13.870   1.511  1.00  0.00     0.004 C 
ENDBRANCH  14  15
ENDBRANCH  13  14
ENDBRANCH  12  13
ENDBRANCH  11  12
ENDBRANCH  10  11
ENDBRANCH   1  10
TORSDOF 12
ENDMDL
MODEL 8
REMARK VINA RESULT:    -5.427      2.619      5.519
REMARK INTER + INTRA:         -11.186
REMARK INTER:                  -9.873
REMARK INTRA:                  -1.313
REMARK UNBOUND:                -1.952
REMARK SMILES CCCCCCCCCCCCCC(=O)[O-]
REMARK SMILES IDX 8 1 9 2 10 3 11 4 12 5 13 6 14 7 15 8 16 9 7 10 6 11 5 12
REMARK SMILES IDX 4 13 3 14 2 15 1 16
REMARK H PARENT
REMARK Flexibility Score: inf
ROOT
ATOM      1  C   UNL     1     -18.693 -12.982  -1.235  1.00  0.00     0.000 C 
ENDROOT
BRANCH   1   2
ATOM      2  C   UNL     1     -18.538 -11.479  -0.946  1.00  0.00     0.000 C 
BRANCH   2   3
ATOM      3  C   UNL     1     -17.850 -10.716  -2.093  1.00  0.00     0.000 C 
BRANCH   3   4
ATOM      4  C   UNL     1     -17.811  -9.185  -1.930  1.00  0.00     0.000 C 
BRANCH   4   5
ATOM      5  C   UNL     1     -16.399  -8.600  -2.097  1.00  0.00     0.006 C 
BRANCH   5   6
ATOM      6  C   UNL     1     -16.007  -7.691  -0.924  1.00  0.00     0.053 C 
BRANCH   6   7
ATOM      7  C   UNL     1     -15.758  -8.475   0.328  1.00  0.00     0.041 C 
ATOM      8  O   UNL     1     -15.966  -7.954   1.455  1.00  0.00    -0.550 OA
ATOM      9  O   UNL     1     -15.272  -9.774   0.250  1.00  0.00    -0.550 OA
ENDBRANCH   6   7
ENDBRANCH   5   6
ENDBRANCH   4   5
ENDBRANCH   3   4
ENDBRANCH   2   3
ENDBRANCH   1   2
BRANCH   1  10
ATOM     10  C   UNL     1     -18.241 -13.357  -2.657  1.00  0.00     0.000 C 
BRANCH  10  11
ATOM     11  C   UNL     1     -17.175 -14.468  -2.663  1.00  0.00    -0.000 C 
BRANCH  11  12
ATOM     12  C   UNL     1     -16.498 -14.644  -1.295  1.00  0.00    -0.000 C 
BRANCH  12  13
ATOM     13  C   UNL     1     -15.055 -14.118  -1.275  1.00  0.00    -0.000 C 
BRANCH  13  14
ATOM     14  C   UNL     1     -14.715 -13.501   0.088  1.00  0.00    -0.000 C 
BRANCH  14  15
ATOM     15  C   UNL     1     -15.910 -13.588   1.044  1.00  0.00    -0.003 C 
ATOM     16  C   UNL     1     -15.528 -14.298   2.340  1.00  0.00     0.004 C 
ENDBRANCH  14  15
ENDBRANCH  13  14
ENDBRANCH  12  13
ENDBRANCH  11  12
ENDBRANCH  10  11
ENDBRANCH   1  10
TORSDOF 12
ENDMDL
MODEL 9
REMARK VINA RESULT:    -5.338      2.374      5.249
REMARK INTER + INTRA:         -11.035
REMARK INTER:                  -9.499
REMARK INTRA:                  -1.536
REMARK UNBOUND:                -1.952
REMARK SMILES CCCCCCCCCCCCCC(=O)[O-]
REMARK SMILES IDX 8 1 9 2 10 3 11 4 12 5 13 6 14 7 15 8 16 9 7 10 6 11 5 12
REMARK SMILES IDX 4 13 3 14 2 15 1 16
REMARK H PARENT
REMARK Flexibility Score: inf
ROOT
ATOM      1  C   UNL     1     -18.960 -11.886  -0.518  1.00  0.00     0.000 C 
ENDROOT
BRANCH   1   2
ATOM      2  C   UNL     1     -18.559 -10.660  -1.357  1.00  0.00     0.000 C 
BRANCH   2   3
ATOM      3  C   UNL     1     -18.808  -9.327  -0.628  1.00  0.00     0.000 C 
BRANCH   3   4
ATOM      4  C   UNL     1     -18.144  -9.204   0.756  1.00  0.00     0.000 C 
BRANCH   4   5
ATOM      5  C   UNL     1     -17.023  -8.152   0.792  1.00  0.00     0.006 C 
BRANCH   5   6
ATOM      6  C   UNL     1     -15.650  -8.758   0.470  1.00  0.00     0.053 C 
BRANCH   6   7
ATOM      7  C   UNL     1     -15.262  -8.527  -0.959  1.00  0.00     0.041 C 
ATOM      8  O   UNL     1     -14.382  -9.245  -1.502  1.00  0.00    -0.550 OA
ATOM      9  O   UNL     1     -15.853  -7.499  -1.682  1.00  0.00    -0.550 OA
ENDBRANCH   6   7
ENDBRANCH   5   6
ENDBRANCH   4   5
ENDBRANCH   3   4
ENDBRANCH   2   3
ENDBRANCH   1   2
BRANCH   1  10
ATOM     10  C   UNL     1     -19.017 -13.177  -1.353  1.00  0.00     0.000 C 
BRANCH  10  11
ATOM     11  C   UNL     1     -17.990 -13.182  -2.500  1.00  0.00    -0.000 C 
BRANCH  11  12
ATOM     12  C   UNL     1     -17.178 -14.486  -2.559  1.00  0.00    -0.000 C 
BRANCH  12  13
ATOM     13  C   UNL     1     -16.202 -14.632  -1.382  1.00  0.00    -0.000 C 
BRANCH  13  14
ATOM     14  C   UNL     1     -15.242 -13.437  -1.314  1.00  0.00    -0.000 C 
BRANCH  14  15
ATOM     15  C   UNL     1     -15.338 -12.731   0.044  1.00  0.00    -0.003 C 
ATOM     16  C   UNL     1     -15.641 -13.725   1.162  1.00  0.00     0.004 C 
ENDBRANCH  14  15
ENDBRANCH  13  14
ENDBRANCH  12  13
ENDBRANCH  11  12
ENDBRANCH  10  11
ENDBRANCH   1  10
TORSDOF 12
ENDMDL
