MODEL 1
REMARK VINA RESULT:    -4.713      0.000      0.000
REMARK INTER + INTRA:          -6.066
REMARK INTER:                  -6.642
REMARK INTRA:                   0.576
REMARK UNBOUND:                 0.576
REMARK SMILES CC1=CCC(=C(C)C)C(=O)CC(C)=CCC1
REMARK SMILES IDX 12 1 14 2 13 3 15 4 16 5 2 6 1 7 3 8 11 10 9 11 10 12 5 13
REMARK SMILES IDX 6 14 7 15 8 16 4 17
REMARK H PARENT
REMARK Flexibility Score: 60.00
ROOT
ATOM      1  C   UNL     1       3.448  28.525  32.034  1.00  0.00    -0.070 C 
ATOM      2  C   UNL     1       3.151  29.244  33.139  1.00  0.00    -0.027 C 
ATOM      3  C   UNL     1       4.147  27.202  32.220  1.00  0.00     0.039 C 
ENDROOT
BRANCH   2   4
ATOM      4  C   UNL     1       2.371  30.541  33.165  1.00  0.00     0.032 C 
BRANCH   4   5
ATOM      5  C   UNL     1       0.952  30.432  33.762  1.00  0.00     0.034 C 
BRANCH   5   6
ATOM      6  C   UNL     1       0.274  29.109  33.451  1.00  0.00    -0.077 C 
ATOM      7  C   UNL     1       0.122  28.118  34.578  1.00  0.00     0.039 C 
ATOM      8  C   UNL     1      -0.263  28.790  32.249  1.00  0.00    -0.023 CG0
ATOM      9  G   UNL     1      -0.215  29.613  30.977  1.00  0.00     0.000 G0
ENDBRANCH   5   6
ENDBRANCH   4   5
ENDBRANCH   2   4
BRANCH   1  10
ATOM     10  C   UNL     1       3.033  28.937  30.637  1.00  0.00     0.111 C 
BRANCH  10  11
ATOM     11  C   UNL     1       1.788  28.218  30.191  1.00  0.00     0.163 C 
ATOM     12  O   UNL     1       1.809  26.957  30.158  1.00  0.00    -0.294 OA
BRANCH  11  13
ATOM     13  C   UNL     1       0.526  28.938  29.848  1.00  0.00    -0.002 C 
ATOM     14  C   UNL     1       0.024  28.904  28.576  1.00  0.00    -0.069 C 
ATOM     15  C   UNL     1       0.804  28.274  27.442  1.00  0.00     0.039 C 
ATOM     16  C   UNL     1      -1.328  29.488  28.233  1.00  0.00     0.039 C 
BRANCH  13  17
ATOM     17  C   UNL     1      -0.216  29.621  30.985  1.00  0.00     0.066 CG0
ATOM     18  G   UNL     1      -0.244  28.778  32.244  1.00  0.00     0.000 G0
ENDBRANCH  13  17
ENDBRANCH  11  13
ENDBRANCH  10  11
ENDBRANCH   1  10
TORSDOF 0
ENDMDL
MODEL 2
REMARK VINA RESULT:    -4.626      1.833      3.267
REMARK INTER + INTRA:          -5.944
REMARK INTER:                  -6.144
REMARK INTRA:                   0.200
REMARK UNBOUND:                 0.576
REMARK SMILES CC1=CCC(=C(C)C)C(=O)CC(C)=CCC1
REMARK SMILES IDX 12 1 14 2 13 3 15 4 16 5 2 6 1 7 3 8 11 10 9 11 10 12 5 13
REMARK SMILES IDX 6 14 7 15 8 16 4 17
REMARK H PARENT
REMARK Flexibility Score: 60.00
ROOT
ATOM      1  C   UNL     1      -0.408  28.627  32.194  1.00  0.00    -0.070 C 
ATOM      2  C   UNL     1       0.322  28.709  33.328  1.00  0.00    -0.027 C 
ATOM      3  C   UNL     1      -1.279  27.410  32.002  1.00  0.00     0.039 C 
ENDROOT
BRANCH   2   4
ATOM      4  C   UNL     1       1.176  29.887  33.745  1.00  0.00     0.032 C 
BRANCH   4   5
ATOM      5  C   UNL     1       2.382  30.170  32.827  1.00  0.00     0.034 C 
BRANCH   5   6
ATOM      6  C   UNL     1       3.123  28.912  32.407  1.00  0.00    -0.077 C 
ATOM      7  C   UNL     1       3.845  28.134  33.478  1.00  0.00     0.039 C 
ATOM      8  C   UNL     1       3.119  28.407  31.150  1.00  0.00    -0.023 CG0
ATOM      9  G   UNL     1       2.482  29.021  29.919  1.00  0.00     0.000 G0
ENDBRANCH   5   6
ENDBRANCH   4   5
ENDBRANCH   2   4
BRANCH   1  10
ATOM     10  C   UNL     1      -0.465  29.731  31.160  1.00  0.00     0.111 C 
BRANCH  10  11
ATOM     11  C   UNL     1      -0.073  29.235  29.793  1.00  0.00     0.163 C 
ATOM     12  O   UNL     1      -0.772  29.595  28.807  1.00  0.00    -0.294 OA
BRANCH  11  13
ATOM     13  C   UNL     1       1.138  28.393  29.564  1.00  0.00    -0.002 C 
ATOM     14  C   UNL     1       1.031  27.154  28.995  1.00  0.00    -0.069 C 
ATOM     15  C   UNL     1      -0.322  26.530  28.724  1.00  0.00     0.039 C 
ATOM     16  C   UNL     1       2.247  26.343  28.606  1.00  0.00     0.039 C 
BRANCH  13  17
ATOM     17  C   UNL     1       2.488  29.007  29.899  1.00  0.00     0.066 CG0
ATOM     18  G   UNL     1       3.092  28.418  31.158  1.00  0.00     0.000 G0
ENDBRANCH  13  17
ENDBRANCH  11  13
ENDBRANCH  10  11
ENDBRANCH   1  10
TORSDOF 0
ENDMDL
MODEL 3
REMARK VINA RESULT:    -4.324      1.999      3.241
REMARK INTER + INTRA:          -5.518
REMARK INTER:                  -6.595
REMARK INTRA:                   1.077
REMARK UNBOUND:                 0.576
REMARK SMILES CC1=CCC(=C(C)C)C(=O)CC(C)=CCC1
REMARK SMILES IDX 12 1 14 2 13 3 15 4 16 5 2 6 1 7 3 8 11 10 9 11 10 12 5 13
REMARK SMILES IDX 6 14 7 15 8 16 4 17
REMARK H PARENT
REMARK Flexibility Score: 60.00
ROOT
ATOM      1  C   UNL     1      -0.438  28.667  32.026  1.00  0.00    -0.070 C 
ATOM      2  C   UNL     1       0.175  28.694  33.230  1.00  0.00    -0.027 C 
ATOM      3  C   UNL     1      -1.113  27.386  31.606  1.00  0.00     0.039 C 
ENDROOT
BRANCH   2   4
ATOM      4  C   UNL     1       0.820  29.906  33.866  1.00  0.00     0.032 C 
BRANCH   4   5
ATOM      5  C   UNL     1       2.362  29.886  33.883  1.00  0.00     0.034 C 
BRANCH   5   6
ATOM      6  C   UNL     1       2.961  29.051  32.765  1.00  0.00    -0.077 C 
ATOM      7  C   UNL     1       3.541  27.707  33.127  1.00  0.00     0.039 C 
ATOM      8  C   UNL     1       2.947  29.404  31.457  1.00  0.00    -0.023 CG0
ATOM      9  G   UNL     1       2.440  30.704  30.865  1.00  0.00     0.000 G0
ENDBRANCH   5   6
ENDBRANCH   4   5
ENDBRANCH   2   4
BRANCH   1  10
ATOM     10  C   UNL     1      -0.559  29.880  31.127  1.00  0.00     0.111 C 
BRANCH  10  11
ATOM     11  C   UNL     1       0.268  29.732  29.877  1.00  0.00     0.163 C 
ATOM     12  O   UNL     1      -0.157  28.963  28.972  1.00  0.00    -0.294 OA
BRANCH  11  13
ATOM     13  C   UNL     1       1.527  30.502  29.653  1.00  0.00    -0.002 C 
ATOM     14  C   UNL     1       1.792  31.072  28.439  1.00  0.00    -0.069 C 
ATOM     15  C   UNL     1       0.904  30.812  27.240  1.00  0.00     0.039 C 
ATOM     16  C   UNL     1       2.976  31.988  28.225  1.00  0.00     0.039 C 
BRANCH  13  17
ATOM     17  C   UNL     1       2.442  30.703  30.851  1.00  0.00     0.066 CG0
ATOM     18  G   UNL     1       2.916  29.389  31.440  1.00  0.00     0.000 G0
ENDBRANCH  13  17
ENDBRANCH  11  13
ENDBRANCH  10  11
ENDBRANCH   1  10
TORSDOF 0
ENDMDL
MODEL 4
REMARK VINA RESULT:    -4.257      2.091      3.682
REMARK INTER + INTRA:          -5.423
REMARK INTER:                  -5.858
REMARK INTRA:                   0.435
REMARK UNBOUND:                 0.576
REMARK SMILES CC1=CCC(=C(C)C)C(=O)CC(C)=CCC1
REMARK SMILES IDX 12 1 14 2 13 3 15 4 16 5 2 6 1 7 3 8 11 10 9 11 10 12 5 13
REMARK SMILES IDX 6 14 7 15 8 16 4 17
REMARK H PARENT
REMARK Flexibility Score: 60.00
ROOT
ATOM      1  C   UNL     1       0.520  29.414  33.039  1.00  0.00    -0.070 C 
ATOM      2  C   UNL     1       1.670  30.095  32.842  1.00  0.00    -0.027 C 
ATOM      3  C   UNL     1       0.272  28.828  34.407  1.00  0.00     0.039 C 
ENDROOT
BRANCH   2   4
ATOM      4  C   UNL     1       2.054  30.833  31.578  1.00  0.00     0.032 C 
BRANCH   4   5
ATOM      5  C   UNL     1       2.733  29.963  30.500  1.00  0.00     0.034 C 
BRANCH   5   6
ATOM      6  C   UNL     1       1.954  29.908  29.198  1.00  0.00    -0.077 C 
ATOM      7  C   UNL     1       2.073  31.084  28.261  1.00  0.00     0.039 C 
ATOM      8  C   UNL     1       1.217  28.847  28.793  1.00  0.00    -0.023 CG0
ATOM      9  G   UNL     1       0.940  27.574  29.570  1.00  0.00     0.000 G0
ENDBRANCH   5   6
ENDBRANCH   4   5
ENDBRANCH   2   4
BRANCH   1  10
ATOM     10  C   UNL     1      -0.564  29.291  31.989  1.00  0.00     0.111 C 
BRANCH  10  11
ATOM     11  C   UNL     1      -0.725  27.870  31.518  1.00  0.00     0.163 C 
ATOM     12  O   UNL     1      -1.123  27.010  32.349  1.00  0.00    -0.294 OA
BRANCH  11  13
ATOM     13  C   UNL     1      -0.489  27.465  30.101  1.00  0.00    -0.002 C 
ATOM     14  C   UNL     1      -1.534  27.119  29.289  1.00  0.00    -0.069 C 
ATOM     15  C   UNL     1      -2.939  26.981  29.835  1.00  0.00     0.039 C 
ATOM     16  C   UNL     1      -1.347  26.858  27.811  1.00  0.00     0.039 C 
BRANCH  13  17
ATOM     17  C   UNL     1       0.937  27.547  29.581  1.00  0.00     0.066 CG0
ATOM     18  G   UNL     1       1.198  28.828  28.813  1.00  0.00     0.000 G0
ENDBRANCH  13  17
ENDBRANCH  11  13
ENDBRANCH  10  11
ENDBRANCH   1  10
TORSDOF 0
ENDMDL
MODEL 5
REMARK VINA RESULT:    -4.108      1.913      3.611
REMARK INTER + INTRA:          -5.213
REMARK INTER:                  -6.459
REMARK INTRA:                   1.246
REMARK UNBOUND:                 0.576
REMARK SMILES CC1=CCC(=C(C)C)C(=O)CC(C)=CCC1
REMARK SMILES IDX 12 1 14 2 13 3 15 4 16 5 2 6 1 7 3 8 11 10 9 11 10 12 5 13
REMARK SMILES IDX 6 14 7 15 8 16 4 17
REMARK H PARENT
REMARK Flexibility Score: 60.00
ROOT
ATOM      1  C   UNL     1       0.841  28.937  33.632  1.00  0.00    -0.070 C 
ATOM      2  C   UNL     1       2.082  28.439  33.821  1.00  0.00    -0.027 C 
ATOM      3  C   UNL     1      -0.230  28.561  34.625  1.00  0.00     0.039 C 
ENDROOT
BRANCH   2   4
ATOM      4  C   UNL     1       3.305  28.775  32.994  1.00  0.00     0.032 C 
BRANCH   4   5
ATOM      5  C   UNL     1       4.119  27.555  32.517  1.00  0.00     0.034 C 
BRANCH   5   6
ATOM      6  C   UNL     1       3.949  27.266  31.036  1.00  0.00    -0.077 C 
ATOM      7  C   UNL     1       4.267  25.873  30.553  1.00  0.00     0.039 C 
ATOM      8  C   UNL     1       3.465  28.155  30.135  1.00  0.00    -0.023 CG0
ATOM      9  G   UNL     1       3.100  29.605  30.384  1.00  0.00     0.000 G0
ENDBRANCH   5   6
ENDBRANCH   4   5
ENDBRANCH   2   4
BRANCH   1  10
ATOM     10  C   UNL     1       0.499  29.921  32.533  1.00  0.00     0.111 C 
BRANCH  10  11
ATOM     11  C   UNL     1       0.642  29.303  31.167  1.00  0.00     0.163 C 
ATOM     12  O   UNL     1      -0.110  28.335  30.871  1.00  0.00    -0.294 OA
BRANCH  11  13
ATOM     13  C   UNL     1       1.592  29.832  30.144  1.00  0.00    -0.002 C 
ATOM     14  C   UNL     1       1.141  30.574  29.088  1.00  0.00    -0.069 C 
ATOM     15  C   UNL     1      -0.341  30.752  28.831  1.00  0.00     0.039 C 
ATOM     16  C   UNL     1       2.087  31.256  28.125  1.00  0.00     0.039 C 
BRANCH  13  17
ATOM     17  C   UNL     1       3.074  29.593  30.381  1.00  0.00     0.066 CG0
ATOM     18  G   UNL     1       3.475  28.155  30.115  1.00  0.00     0.000 G0
ENDBRANCH  13  17
ENDBRANCH  11  13
ENDBRANCH  10  11
ENDBRANCH   1  10
TORSDOF 0
ENDMDL
MODEL 6
REMARK VINA RESULT:    -4.089      1.988      5.028
REMARK INTER + INTRA:          -5.186
REMARK INTER:                  -6.031
REMARK INTRA:                   0.845
REMARK UNBOUND:                 0.576
REMARK SMILES CC1=CCC(=C(C)C)C(=O)CC(C)=CCC1
REMARK SMILES IDX 12 1 14 2 13 3 15 4 16 5 2 6 1 7 3 8 11 10 9 11 10 12 5 13
REMARK SMILES IDX 6 14 7 15 8 16 4 17
REMARK H PARENT
REMARK Flexibility Score: 60.00
ROOT
ATOM      1  C   UNL     1      -0.168  28.746  31.689  1.00  0.00    -0.070 C 
ATOM      2  C   UNL     1      -0.506  27.767  30.821  1.00  0.00    -0.027 C 
ATOM      3  C   UNL     1      -0.215  28.430  33.162  1.00  0.00     0.039 C 
ENDROOT
BRANCH   2   4
ATOM      4  C   UNL     1      -0.429  27.859  29.312  1.00  0.00     0.032 C 
BRANCH   4   5
ATOM      5  C   UNL     1       0.742  27.083  28.674  1.00  0.00     0.034 C 
BRANCH   5   6
ATOM      6  C   UNL     1       1.907  27.975  28.284  1.00  0.00    -0.077 C 
ATOM      7  C   UNL     1       1.925  28.531  26.882  1.00  0.00     0.039 C 
ATOM      8  C   UNL     1       2.892  28.358  29.131  1.00  0.00    -0.023 CG0
ATOM      9  G   UNL     1       3.089  27.915  30.568  1.00  0.00     0.000 G0
ENDBRANCH   5   6
ENDBRANCH   4   5
ENDBRANCH   2   4
BRANCH   1  10
ATOM     10  C   UNL     1       0.341  30.104  31.253  1.00  0.00     0.111 C 
BRANCH  10  11
ATOM     11  C   UNL     1       1.839  30.112  31.092  1.00  0.00     0.163 C 
ATOM     12  O   UNL     1       2.373  31.125  30.563  1.00  0.00    -0.294 OA
BRANCH  11  13
ATOM     13  C   UNL     1       2.704  29.001  31.587  1.00  0.00    -0.002 C 
ATOM     14  C   UNL     1       3.054  28.922  32.906  1.00  0.00    -0.069 C 
ATOM     15  C   UNL     1       2.714  30.033  33.876  1.00  0.00     0.039 C 
ATOM     16  C   UNL     1       3.794  27.728  33.468  1.00  0.00     0.039 C 
BRANCH  13  17
ATOM     17  C   UNL     1       3.092  27.923  30.587  1.00  0.00     0.066 CG0
ATOM     18  G   UNL     1       2.889  28.368  29.152  1.00  0.00     0.000 G0
ENDBRANCH  13  17
ENDBRANCH  11  13
ENDBRANCH  10  11
ENDBRANCH   1  10
TORSDOF 0
ENDMDL
MODEL 7
REMARK VINA RESULT:    -4.022      1.953      3.978
REMARK INTER + INTRA:          -5.092
REMARK INTER:                  -5.655
REMARK INTRA:                   0.563
REMARK UNBOUND:                 0.576
REMARK SMILES CC1=CCC(=C(C)C)C(=O)CC(C)=CCC1
REMARK SMILES IDX 12 1 14 2 13 3 15 4 16 5 2 6 1 7 3 8 11 10 9 11 10 12 5 13
REMARK SMILES IDX 6 14 7 15 8 16 4 17
REMARK H PARENT
REMARK Flexibility Score: 60.00
ROOT
ATOM      1  C   UNL     1       0.280  29.608  29.949  1.00  0.00    -0.070 C 
ATOM      2  C   UNL     1      -0.273  29.626  31.181  1.00  0.00    -0.027 C 
ATOM      3  C   UNL     1       0.154  30.848  29.101  1.00  0.00     0.039 C 
ENDROOT
BRANCH   2   4
ATOM      4  C   UNL     1      -0.171  28.522  32.212  1.00  0.00     0.032 C 
BRANCH   4   5
ATOM      5  C   UNL     1       0.729  28.847  33.422  1.00  0.00     0.034 C 
BRANCH   5   6
ATOM      6  C   UNL     1       1.951  29.670  33.054  1.00  0.00    -0.077 C 
ATOM      7  C   UNL     1       1.966  31.122  33.462  1.00  0.00     0.039 C 
ATOM      8  C   UNL     1       3.053  29.171  32.445  1.00  0.00    -0.023 CG0
ATOM      9  G   UNL     1       3.255  27.759  31.931  1.00  0.00     0.000 G0
ENDBRANCH   5   6
ENDBRANCH   4   5
ENDBRANCH   2   4
BRANCH   1  10
ATOM     10  C   UNL     1       1.093  28.445  29.419  1.00  0.00     0.111 C 
BRANCH  10  11
ATOM     11  C   UNL     1       2.570  28.665  29.612  1.00  0.00     0.163 C 
ATOM     12  O   UNL     1       3.087  29.702  29.115  1.00  0.00    -0.294 OA
BRANCH  11  13
ATOM     13  C   UNL     1       3.420  27.735  30.414  1.00  0.00    -0.002 C 
ATOM     14  C   UNL     1       4.359  26.947  29.808  1.00  0.00    -0.069 C 
ATOM     15  C   UNL     1       4.463  26.870  28.300  1.00  0.00     0.039 C 
ATOM     16  C   UNL     1       5.340  26.115  30.604  1.00  0.00     0.039 C 
BRANCH  13  17
ATOM     17  C   UNL     1       3.262  27.777  31.925  1.00  0.00     0.066 CG0
ATOM     18  G   UNL     1       3.030  29.183  32.442  1.00  0.00     0.000 G0
ENDBRANCH  13  17
ENDBRANCH  11  13
ENDBRANCH  10  11
ENDBRANCH   1  10
TORSDOF 0
ENDMDL
MODEL 8
REMARK VINA RESULT:    -3.985      2.213      3.851
REMARK INTER + INTRA:          -5.040
REMARK INTER:                  -5.747
REMARK INTRA:                   0.707
REMARK UNBOUND:                 0.576
REMARK SMILES CC1=CCC(=C(C)C)C(=O)CC(C)=CCC1
REMARK SMILES IDX 12 1 14 2 13 3 15 4 16 5 2 6 1 7 3 8 11 10 9 11 10 12 5 13
REMARK SMILES IDX 6 14 7 15 8 16 4 17
REMARK H PARENT
REMARK Flexibility Score: 60.00
ROOT
ATOM      1  C   UNL     1       1.506  30.324  31.763  1.00  0.00    -0.070 C 
ATOM      2  C   UNL     1       2.604  30.347  30.976  1.00  0.00    -0.027 C 
ATOM      3  C   UNL     1       1.646  30.807  33.184  1.00  0.00     0.039 C 
ENDROOT
BRANCH   2   4
ATOM      4  C   UNL     1       2.644  29.996  29.504  1.00  0.00     0.032 C 
BRANCH   4   5
ATOM      5  C   UNL     1       3.723  28.965  29.112  1.00  0.00     0.034 C 
BRANCH   5   6
ATOM      6  C   UNL     1       3.395  27.555  29.570  1.00  0.00    -0.077 C 
ATOM      7  C   UNL     1       4.518  26.723  30.136  1.00  0.00     0.039 C 
ATOM      8  C   UNL     1       2.150  27.021  29.566  1.00  0.00    -0.023 CG0
ATOM      9  G   UNL     1       0.882  27.657  29.031  1.00  0.00     0.000 G0
ENDBRANCH   5   6
ENDBRANCH   4   5
ENDBRANCH   2   4
BRANCH   1  10
ATOM     10  C   UNL     1       0.133  29.927  31.263  1.00  0.00     0.111 C 
BRANCH  10  11
ATOM     11  C   UNL     1      -0.067  28.435  31.309  1.00  0.00     0.163 C 
ATOM     12  O   UNL     1      -0.123  27.878  32.439  1.00  0.00    -0.294 OA
BRANCH  11  13
ATOM     13  C   UNL     1      -0.260  27.614  30.078  1.00  0.00    -0.002 C 
ATOM     14  C   UNL     1      -1.430  26.941  29.861  1.00  0.00    -0.069 C 
ATOM     15  C   UNL     1      -2.505  26.874  30.926  1.00  0.00     0.039 C 
ATOM     16  C   UNL     1      -1.717  26.232  28.556  1.00  0.00     0.039 C 
BRANCH  13  17
ATOM     17  C   UNL     1       0.854  27.638  29.043  1.00  0.00     0.066 CG0
ATOM     18  G   UNL     1       2.136  27.016  29.561  1.00  0.00     0.000 G0
ENDBRANCH  13  17
ENDBRANCH  11  13
ENDBRANCH  10  11
ENDBRANCH   1  10
TORSDOF 0
ENDMDL
MODEL 9
REMARK VINA RESULT:    -3.847      2.106      4.067
REMARK INTER + INTRA:          -4.845
REMARK INTER:                  -5.122
REMARK INTRA:                   0.277
REMARK UNBOUND:                 0.576
REMARK SMILES CC1=CCC(=C(C)C)C(=O)CC(C)=CCC1
REMARK SMILES IDX 12 1 14 2 13 3 15 4 16 5 2 6 1 7 3 8 11 10 9 11 10 12 5 13
REMARK SMILES IDX 6 14 7 15 8 16 4 17
REMARK H PARENT
REMARK Flexibility Score: 60.00
ROOT
ATOM      1  C   UNL     1       0.410  28.959  32.961  1.00  0.00    -0.070 C 
ATOM      2  C   UNL     1      -0.586  28.141  32.559  1.00  0.00    -0.027 C 
ATOM      3  C   UNL     1       0.920  28.810  34.372  1.00  0.00     0.039 C 
ENDROOT
BRANCH   2   4
ATOM      4  C   UNL     1      -1.163  28.072  31.161  1.00  0.00     0.032 C 
BRANCH   4   5
ATOM      5  C   UNL     1      -0.716  26.847  30.336  1.00  0.00     0.034 C 
BRANCH   5   6
ATOM      6  C   UNL     1      -0.285  27.203  28.924  1.00  0.00    -0.077 C 
ATOM      7  C   UNL     1      -1.339  27.189  27.845  1.00  0.00     0.039 C 
ATOM      8  C   UNL     1       0.965  27.597  28.584  1.00  0.00    -0.023 CG0
ATOM      9  G   UNL     1       2.181  27.668  29.488  1.00  0.00     0.000 G0
ENDBRANCH   5   6
ENDBRANCH   4   5
ENDBRANCH   2   4
BRANCH   1  10
ATOM     10  C   UNL     1       1.097  29.948  32.042  1.00  0.00     0.111 C 
BRANCH  10  11
ATOM     11  C   UNL     1       2.345  29.366  31.430  1.00  0.00     0.163 C 
ATOM     12  O   UNL     1       3.293  29.053  32.200  1.00  0.00    -0.294 OA
BRANCH  11  13
ATOM     13  C   UNL     1       2.468  29.096  29.967  1.00  0.00    -0.002 C 
ATOM     14  C   UNL     1       2.902  30.069  29.110  1.00  0.00    -0.069 C 
ATOM     15  C   UNL     1       3.120  31.490  29.584  1.00  0.00     0.039 C 
ATOM     16  C   UNL     1       3.189  29.783  27.653  1.00  0.00     0.039 C 
BRANCH  13  17
ATOM     17  C   UNL     1       2.186  27.678  29.495  1.00  0.00     0.066 CG0
ATOM     18  G   UNL     1       0.975  27.605  28.586  1.00  0.00     0.000 G0
ENDBRANCH  13  17
ENDBRANCH  11  13
ENDBRANCH  10  11
ENDBRANCH   1  10
TORSDOF 0
ENDMDL
