MODEL 1
REMARK VINA RESULT:    -7.081      0.000      0.000
REMARK INTER + INTRA:          -8.976
REMARK INTER:                  -8.529
REMARK INTRA:                  -0.447
REMARK UNBOUND:                -0.447
REMARK SMILES Oc1cc(O)c2c(c1)O[C@@H](c1ccc(O)c(O)c1)[C@H](O)C2
REMARK SMILES IDX 21 1 19 2 10 3 9 4 7 5 8 6 2 7 3 8 4 9 6 10 20 11 11 13
REMARK SMILES IDX 18 14 12 15 16 16 13 17 14 18 17 19 15 21 5 23 1 25
REMARK H PARENT 20 12 17 20 15 22 5 24 1 26
REMARK Flexibility Score: inf
ROOT
ATOM      1  C   UNL     1     113.963 -47.826  31.855  1.00  0.00     0.079 C 
ATOM      2  C   UNL     1     112.841 -46.778  31.724  1.00  0.00     0.164 C 
ATOM      3  C   UNL     1     111.602 -47.383  31.036  1.00  0.00     0.232 C 
ATOM      4  O   UNL     1     111.965 -48.000  29.798  1.00  0.00    -0.482 OA
ATOM      5  C   UNL     1     113.210 -48.604  29.575  1.00  0.00     0.131 A 
ATOM      6  C   UNL     1     113.435 -49.261  28.362  1.00  0.00     0.093 A 
ATOM      7  C   UNL     1     114.651 -49.898  28.118  1.00  0.00     0.122 A 
ATOM      8  C   UNL     1     115.648 -49.892  29.101  1.00  0.00     0.092 A 
ATOM      9  C   UNL     1     115.440 -49.244  30.324  1.00  0.00     0.126 A 
ATOM     10  C   UNL     1     114.225 -48.555  30.556  1.00  0.00     0.039 A 
ENDROOT
BRANCH   2  11
ATOM     11  O   UNL     1     113.296 -45.689  30.963  1.00  0.00    -0.389 OA
ATOM     12  H   UNL     1     112.499 -45.142  30.735  1.00  0.00     0.211 HD
ENDBRANCH   2  11
BRANCH   3  13
ATOM     13  C   UNL     1     110.862 -48.345  31.949  1.00  0.00    -0.001 A 
ATOM     14  C   UNL     1     110.272 -47.853  33.127  1.00  0.00     0.057 A 
ATOM     15  C   UNL     1     110.795 -49.726  31.683  1.00  0.00     0.012 A 
ATOM     16  C   UNL     1     109.613 -48.711  34.012  1.00  0.00     0.157 A 
ATOM     17  C   UNL     1     110.138 -50.586  32.567  1.00  0.00     0.050 A 
ATOM     18  C   UNL     1     109.543 -50.085  33.732  1.00  0.00     0.157 A 
BRANCH  16  19
ATOM     19  O   UNL     1     109.033 -48.182  35.166  1.00  0.00    -0.504 OA
ATOM     20  H   UNL     1     109.276 -47.263  35.516  1.00  0.00     0.293 HD
ENDBRANCH  16  19
BRANCH  18  21
ATOM     21  O   UNL     1     108.889 -50.948  34.610  1.00  0.00    -0.504 OA
ATOM     22  H   UNL     1     109.388 -51.670  35.117  1.00  0.00     0.293 HD
ENDBRANCH  18  21
ENDBRANCH   3  13
BRANCH   9  23
ATOM     23  O   UNL     1     116.451 -49.317  31.285  1.00  0.00    -0.507 OA
ATOM     24  H   UNL     1     116.726 -50.177  31.741  1.00  0.00     0.293 HD
ENDBRANCH   9  23
BRANCH   7  25
ATOM     25  O   UNL     1     114.858 -50.544  26.901  1.00  0.00    -0.508 OA
ATOM     26  H   UNL     1     115.519 -50.191  26.219  1.00  0.00     0.293 HD
ENDBRANCH   7  25
TORSDOF 6
ENDMDL
MODEL 2
REMARK VINA RESULT:    -6.821      3.768      7.254
REMARK INTER + INTRA:          -8.664
REMARK INTER:                  -8.235
REMARK INTRA:                  -0.428
REMARK UNBOUND:                -0.447
REMARK SMILES Oc1cc(O)c2c(c1)O[C@@H](c1ccc(O)c(O)c1)[C@H](O)C2
REMARK SMILES IDX 21 1 19 2 10 3 9 4 7 5 8 6 2 7 3 8 4 9 6 10 20 11 11 13
REMARK SMILES IDX 18 14 12 15 16 16 13 17 14 18 17 19 15 21 5 23 1 25
REMARK H PARENT 20 12 17 20 15 22 5 24 1 26
REMARK Flexibility Score: inf
ROOT
ATOM      1  C   UNL     1     115.845 -49.558  32.448  1.00  0.00     0.079 C 
ATOM      2  C   UNL     1     115.119 -50.111  31.207  1.00  0.00     0.164 C 
ATOM      3  C   UNL     1     115.103 -49.072  30.070  1.00  0.00     0.232 C 
ATOM      4  O   UNL     1     114.581 -47.824  30.537  1.00  0.00    -0.482 OA
ATOM      5  C   UNL     1     114.739 -47.368  31.852  1.00  0.00     0.131 A 
ATOM      6  C   UNL     1     114.271 -46.094  32.185  1.00  0.00     0.093 A 
ATOM      7  C   UNL     1     114.438 -45.596  33.478  1.00  0.00     0.122 A 
ATOM      8  C   UNL     1     115.090 -46.372  34.443  1.00  0.00     0.092 A 
ATOM      9  C   UNL     1     115.571 -47.648  34.126  1.00  0.00     0.126 A 
ATOM     10  C   UNL     1     115.359 -48.176  32.829  1.00  0.00     0.039 A 
ENDROOT
BRANCH   2  11
ATOM     11  O   UNL     1     113.795 -50.441  31.539  1.00  0.00    -0.389 OA
ATOM     12  H   UNL     1     113.783 -50.644  32.511  1.00  0.00     0.211 HD
ENDBRANCH   2  11
BRANCH   3  13
ATOM     13  C   UNL     1     116.474 -48.907  29.435  1.00  0.00    -0.001 A 
ATOM     14  C   UNL     1     117.104 -47.651  29.486  1.00  0.00     0.057 A 
ATOM     15  C   UNL     1     117.109 -49.958  28.748  1.00  0.00     0.012 A 
ATOM     16  C   UNL     1     118.350 -47.449  28.883  1.00  0.00     0.157 A 
ATOM     17  C   UNL     1     118.353 -49.758  28.143  1.00  0.00     0.050 A 
ATOM     18  C   UNL     1     118.979 -48.506  28.209  1.00  0.00     0.157 A 
BRANCH  16  19
ATOM     19  O   UNL     1     118.945 -46.190  28.964  1.00  0.00    -0.504 OA
ATOM     20  H   UNL     1     118.669 -45.507  29.659  1.00  0.00     0.293 HD
ENDBRANCH  16  19
BRANCH  18  21
ATOM     21  O   UNL     1     120.221 -48.312  27.604  1.00  0.00    -0.504 OA
ATOM     22  H   UNL     1     120.704 -47.423  27.657  1.00  0.00     0.293 HD
ENDBRANCH  18  21
ENDBRANCH   3  13
BRANCH   9  23
ATOM     23  O   UNL     1     116.259 -48.353  35.116  1.00  0.00    -0.507 OA
ATOM     24  H   UNL     1     116.370 -48.018  36.064  1.00  0.00     0.293 HD
ENDBRANCH   9  23
BRANCH   7  25
ATOM     25  O   UNL     1     113.961 -44.325  33.792  1.00  0.00    -0.508 OA
ATOM     26  H   UNL     1     113.068 -43.994  33.447  1.00  0.00     0.293 HD
ENDBRANCH   7  25
TORSDOF 6
ENDMDL
MODEL 3
REMARK VINA RESULT:    -6.807      3.179      4.851
REMARK INTER + INTRA:          -8.647
REMARK INTER:                  -8.319
REMARK INTRA:                  -0.328
REMARK UNBOUND:                -0.447
REMARK SMILES Oc1cc(O)c2c(c1)O[C@@H](c1ccc(O)c(O)c1)[C@H](O)C2
REMARK SMILES IDX 21 1 19 2 10 3 9 4 7 5 8 6 2 7 3 8 4 9 6 10 20 11 11 13
REMARK SMILES IDX 18 14 12 15 16 16 13 17 14 18 17 19 15 21 5 23 1 25
REMARK H PARENT 20 12 17 20 15 22 5 24 1 26
REMARK Flexibility Score: inf
ROOT
ATOM      1  C   UNL     1     114.748 -50.104  30.041  1.00  0.00     0.079 C 
ATOM      2  C   UNL     1     114.705 -50.064  31.581  1.00  0.00     0.164 C 
ATOM      3  C   UNL     1     115.308 -48.751  32.115  1.00  0.00     0.232 C 
ATOM      4  O   UNL     1     116.613 -48.538  31.567  1.00  0.00    -0.482 OA
ATOM      5  C   UNL     1     116.991 -48.973  30.289  1.00  0.00     0.131 A 
ATOM      6  C   UNL     1     118.260 -48.635  29.810  1.00  0.00     0.093 A 
ATOM      7  C   UNL     1     118.658 -49.025  28.531  1.00  0.00     0.122 A 
ATOM      8  C   UNL     1     117.777 -49.748  27.719  1.00  0.00     0.092 A 
ATOM      9  C   UNL     1     116.500 -50.091  28.180  1.00  0.00     0.126 A 
ATOM     10  C   UNL     1     116.111 -49.738  29.495  1.00  0.00     0.039 A 
ENDROOT
BRANCH   2  11
ATOM     11  O   UNL     1     115.434 -51.145  32.103  1.00  0.00    -0.389 OA
ATOM     12  H   UNL     1     116.174 -51.330  31.467  1.00  0.00     0.211 HD
ENDBRANCH   2  11
BRANCH   3  13
ATOM     13  C   UNL     1     114.392 -47.566  31.865  1.00  0.00    -0.001 A 
ATOM     14  C   UNL     1     114.883 -46.265  32.080  1.00  0.00     0.057 A 
ATOM     15  C   UNL     1     113.048 -47.728  31.480  1.00  0.00     0.012 A 
ATOM     16  C   UNL     1     114.061 -45.149  31.896  1.00  0.00     0.157 A 
ATOM     17  C   UNL     1     112.225 -46.614  31.297  1.00  0.00     0.050 A 
ATOM     18  C   UNL     1     112.725 -45.322  31.502  1.00  0.00     0.157 A 
BRANCH  16  19
ATOM     19  O   UNL     1     114.589 -43.875  32.111  1.00  0.00    -0.504 OA
ATOM     20  H   UNL     1     115.338 -43.708  32.772  1.00  0.00     0.293 HD
ENDBRANCH  16  19
BRANCH  18  21
ATOM     21  O   UNL     1     111.899 -44.214  31.318  1.00  0.00    -0.504 OA
ATOM     22  H   UNL     1     111.023 -44.115  31.819  1.00  0.00     0.293 HD
ENDBRANCH  18  21
ENDBRANCH   3  13
BRANCH   9  23
ATOM     23  O   UNL     1     115.648 -50.766  27.304  1.00  0.00    -0.507 OA
ATOM     24  H   UNL     1     114.668 -50.929  27.495  1.00  0.00     0.293 HD
ENDBRANCH   9  23
BRANCH   7  25
ATOM     25  O   UNL     1     119.929 -48.683  28.073  1.00  0.00    -0.508 OA
ATOM     26  H   UNL     1     120.263 -48.982  27.164  1.00  0.00     0.293 HD
ENDBRANCH   7  25
TORSDOF 6
ENDMDL
MODEL 4
REMARK VINA RESULT:    -6.657      2.506      6.540
REMARK INTER + INTRA:          -8.465
REMARK INTER:                  -8.019
REMARK INTRA:                  -0.447
REMARK UNBOUND:                -0.447
REMARK SMILES Oc1cc(O)c2c(c1)O[C@@H](c1ccc(O)c(O)c1)[C@H](O)C2
REMARK SMILES IDX 21 1 19 2 10 3 9 4 7 5 8 6 2 7 3 8 4 9 6 10 20 11 11 13
REMARK SMILES IDX 18 14 12 15 16 16 13 17 14 18 17 19 15 21 5 23 1 25
REMARK H PARENT 20 12 17 20 15 22 5 24 1 26
REMARK Flexibility Score: inf
ROOT
ATOM      1  C   UNL     1     113.282 -47.504  30.399  1.00  0.00     0.079 C 
ATOM      2  C   UNL     1     114.241 -46.664  31.262  1.00  0.00     0.164 C 
ATOM      3  C   UNL     1     115.310 -47.555  31.923  1.00  0.00     0.232 C 
ATOM      4  O   UNL     1     114.696 -48.639  32.627  1.00  0.00    -0.482 OA
ATOM      5  C   UNL     1     113.491 -49.231  32.228  1.00  0.00     0.131 A 
ATOM      6  C   UNL     1     113.020 -50.344  32.931  1.00  0.00     0.093 A 
ATOM      7  C   UNL     1     111.839 -50.977  32.542  1.00  0.00     0.122 A 
ATOM      8  C   UNL     1     111.129 -50.503  31.433  1.00  0.00     0.092 A 
ATOM      9  C   UNL     1     111.588 -49.393  30.713  1.00  0.00     0.126 A 
ATOM     10  C   UNL     1     112.759 -48.719  31.135  1.00  0.00     0.039 A 
ENDROOT
BRANCH   2  11
ATOM     11  O   UNL     1     113.518 -46.002  32.268  1.00  0.00    -0.389 OA
ATOM     12  H   UNL     1     112.946 -46.683  32.710  1.00  0.00     0.211 HD
ENDBRANCH   2  11
BRANCH   3  13
ATOM     13  C   UNL     1     116.336 -48.047  30.917  1.00  0.00    -0.001 A 
ATOM     14  C   UNL     1     117.164 -47.111  30.271  1.00  0.00     0.057 A 
ATOM     15  C   UNL     1     116.448 -49.406  30.568  1.00  0.00     0.012 A 
ATOM     16  C   UNL     1     118.097 -47.519  29.313  1.00  0.00     0.157 A 
ATOM     17  C   UNL     1     117.379 -49.816  29.610  1.00  0.00     0.050 A 
ATOM     18  C   UNL     1     118.207 -48.878  28.979  1.00  0.00     0.157 A 
BRANCH  16  19
ATOM     19  O   UNL     1     118.904 -46.560  28.701  1.00  0.00    -0.504 OA
ATOM     20  H   UNL     1     119.875 -46.431  28.958  1.00  0.00     0.293 HD
ENDBRANCH  16  19
BRANCH  18  21
ATOM     21  O   UNL     1     119.133 -49.293  28.024  1.00  0.00    -0.504 OA
ATOM     22  H   UNL     1     120.130 -49.275  28.207  1.00  0.00     0.293 HD
ENDBRANCH  18  21
ENDBRANCH   3  13
BRANCH   9  23
ATOM     23  O   UNL     1     110.865 -49.000  29.586  1.00  0.00    -0.507 OA
ATOM     24  H   UNL     1     110.768 -48.036  29.293  1.00  0.00     0.293 HD
ENDBRANCH   9  23
BRANCH   7  25
ATOM     25  O   UNL     1     111.384 -52.083  33.258  1.00  0.00    -0.508 OA
ATOM     26  H   UNL     1     112.026 -52.721  33.712  1.00  0.00     0.293 HD
ENDBRANCH   7  25
TORSDOF 6
ENDMDL
MODEL 5
REMARK VINA RESULT:    -6.640      2.813      6.983
REMARK INTER + INTRA:          -8.445
REMARK INTER:                  -8.286
REMARK INTRA:                  -0.159
REMARK UNBOUND:                -0.447
REMARK SMILES Oc1cc(O)c2c(c1)O[C@@H](c1ccc(O)c(O)c1)[C@H](O)C2
REMARK SMILES IDX 21 1 19 2 10 3 9 4 7 5 8 6 2 7 3 8 4 9 6 10 20 11 11 13
REMARK SMILES IDX 18 14 12 15 16 16 13 17 14 18 17 19 15 21 5 23 1 25
REMARK H PARENT 20 12 17 20 15 22 5 24 1 26
REMARK Flexibility Score: inf
ROOT
ATOM      1  C   UNL     1     115.434 -46.835  31.697  1.00  0.00     0.079 C 
ATOM      2  C   UNL     1     116.451 -47.723  32.440  1.00  0.00     0.164 C 
ATOM      3  C   UNL     1     116.679 -49.047  31.687  1.00  0.00     0.232 C 
ATOM      4  O   UNL     1     115.432 -49.695  31.420  1.00  0.00    -0.482 OA
ATOM      5  C   UNL     1     114.236 -49.000  31.195  1.00  0.00     0.131 A 
ATOM      6  C   UNL     1     113.090 -49.722  30.851  1.00  0.00     0.093 A 
ATOM      7  C   UNL     1     111.890 -49.060  30.591  1.00  0.00     0.122 A 
ATOM      8  C   UNL     1     111.837 -47.663  30.660  1.00  0.00     0.092 A 
ATOM      9  C   UNL     1     112.977 -46.922  30.997  1.00  0.00     0.126 A 
ATOM     10  C   UNL     1     114.183 -47.594  31.310  1.00  0.00     0.039 A 
ENDROOT
BRANCH   2  11
ATOM     11  O   UNL     1     115.975 -48.010  33.730  1.00  0.00    -0.389 OA
ATOM     12  H   UNL     1     115.896 -48.998  33.796  1.00  0.00     0.211 HD
ENDBRANCH   2  11
BRANCH   3  13
ATOM     13  C   UNL     1     117.491 -48.844  30.419  1.00  0.00    -0.001 A 
ATOM     14  C   UNL     1     118.031 -47.573  30.149  1.00  0.00     0.057 A 
ATOM     15  C   UNL     1     117.673 -49.873  29.476  1.00  0.00     0.012 A 
ATOM     16  C   UNL     1     118.753 -47.336  28.976  1.00  0.00     0.157 A 
ATOM     17  C   UNL     1     118.395 -49.637  28.303  1.00  0.00     0.050 A 
ATOM     18  C   UNL     1     118.939 -48.372  28.048  1.00  0.00     0.157 A 
BRANCH  16  19
ATOM     19  O   UNL     1     119.279 -46.063  28.750  1.00  0.00    -0.504 OA
ATOM     20  H   UNL     1     120.261 -45.915  28.549  1.00  0.00     0.293 HD
ENDBRANCH  16  19
BRANCH  18  21
ATOM     21  O   UNL     1     119.657 -48.142  26.875  1.00  0.00    -0.504 OA
ATOM     22  H   UNL     1     119.715 -48.840  26.142  1.00  0.00     0.293 HD
ENDBRANCH  18  21
ENDBRANCH   3  13
BRANCH   9  23
ATOM     23  O   UNL     1     112.875 -45.530  30.999  1.00  0.00    -0.507 OA
ATOM     24  H   UNL     1     112.813 -44.976  31.843  1.00  0.00     0.293 HD
ENDBRANCH   9  23
BRANCH   7  25
ATOM     25  O   UNL     1     110.756 -49.797  30.254  1.00  0.00    -0.508 OA
ATOM     26  H   UNL     1     110.806 -50.793  30.075  1.00  0.00     0.293 HD
ENDBRANCH   7  25
TORSDOF 6
ENDMDL
MODEL 6
REMARK VINA RESULT:    -6.611      2.268      6.010
REMARK INTER + INTRA:          -8.411
REMARK INTER:                  -7.916
REMARK INTRA:                  -0.495
REMARK UNBOUND:                -0.447
REMARK SMILES Oc1cc(O)c2c(c1)O[C@@H](c1ccc(O)c(O)c1)[C@H](O)C2
REMARK SMILES IDX 21 1 19 2 10 3 9 4 7 5 8 6 2 7 3 8 4 9 6 10 20 11 11 13
REMARK SMILES IDX 18 14 12 15 16 16 13 17 14 18 17 19 15 21 5 23 1 25
REMARK H PARENT 20 12 17 20 15 22 5 24 1 26
REMARK Flexibility Score: inf
ROOT
ATOM      1  C   UNL     1     113.999 -46.598  31.941  1.00  0.00     0.079 C 
ATOM      2  C   UNL     1     114.454 -47.879  32.666  1.00  0.00     0.164 C 
ATOM      3  C   UNL     1     113.817 -49.128  32.027  1.00  0.00     0.232 C 
ATOM      4  O   UNL     1     112.396 -48.982  31.947  1.00  0.00    -0.482 OA
ATOM      5  C   UNL     1     111.758 -47.747  31.772  1.00  0.00     0.131 A 
ATOM      6  C   UNL     1     110.369 -47.721  31.613  1.00  0.00     0.093 A 
ATOM      7  C   UNL     1     109.705 -46.512  31.406  1.00  0.00     0.122 A 
ATOM      8  C   UNL     1     110.434 -45.320  31.344  1.00  0.00     0.092 A 
ATOM      9  C   UNL     1     111.826 -45.326  31.494  1.00  0.00     0.126 A 
ATOM     10  C   UNL     1     112.499 -46.546  31.753  1.00  0.00     0.039 A 
ENDROOT
BRANCH   2  11
ATOM     11  O   UNL     1     114.078 -47.818  34.018  1.00  0.00    -0.389 OA
ATOM     12  H   UNL     1     113.317 -47.183  34.078  1.00  0.00     0.211 HD
ENDBRANCH   2  11
BRANCH   3  13
ATOM     13  C   UNL     1     114.428 -49.445  30.674  1.00  0.00    -0.001 A 
ATOM     14  C   UNL     1     113.579 -49.648  29.571  1.00  0.00     0.057 A 
ATOM     15  C   UNL     1     115.816 -49.598  30.498  1.00  0.00     0.012 A 
ATOM     16  C   UNL     1     114.100 -49.977  28.315  1.00  0.00     0.157 A 
ATOM     17  C   UNL     1     116.339 -49.927  29.245  1.00  0.00     0.050 A 
ATOM     18  C   UNL     1     115.487 -50.117  28.149  1.00  0.00     0.157 A 
BRANCH  16  19
ATOM     19  O   UNL     1     113.224 -50.163  27.245  1.00  0.00    -0.504 OA
ATOM     20  H   UNL     1     112.532 -50.902  27.239  1.00  0.00     0.293 HD
ENDBRANCH  16  19
BRANCH  18  21
ATOM     21  O   UNL     1     116.014 -50.446  26.901  1.00  0.00    -0.504 OA
ATOM     22  H   UNL     1     115.415 -50.651  26.109  1.00  0.00     0.293 HD
ENDBRANCH  18  21
ENDBRANCH   3  13
BRANCH   9  23
ATOM     23  O   UNL     1     112.505 -44.113  31.370  1.00  0.00    -0.507 OA
ATOM     24  H   UNL     1     112.125 -43.227  31.679  1.00  0.00     0.293 HD
ENDBRANCH   9  23
BRANCH   7  25
ATOM     25  O   UNL     1     108.320 -46.506  31.255  1.00  0.00    -0.508 OA
ATOM     26  H   UNL     1     107.840 -45.743  30.793  1.00  0.00     0.293 HD
ENDBRANCH   7  25
TORSDOF 6
ENDMDL
MODEL 7
REMARK VINA RESULT:    -6.588      1.903      6.366
REMARK INTER + INTRA:          -8.383
REMARK INTER:                  -7.873
REMARK INTRA:                  -0.510
REMARK UNBOUND:                -0.447
REMARK SMILES Oc1cc(O)c2c(c1)O[C@@H](c1ccc(O)c(O)c1)[C@H](O)C2
REMARK SMILES IDX 21 1 19 2 10 3 9 4 7 5 8 6 2 7 3 8 4 9 6 10 20 11 11 13
REMARK SMILES IDX 18 14 12 15 16 16 13 17 14 18 17 19 15 21 5 23 1 25
REMARK H PARENT 20 12 17 20 15 22 5 24 1 26
REMARK Flexibility Score: inf
ROOT
ATOM      1  C   UNL     1     112.994 -49.889  30.684  1.00  0.00     0.079 C 
ATOM      2  C   UNL     1     113.116 -48.826  29.576  1.00  0.00     0.164 C 
ATOM      3  C   UNL     1     113.377 -47.432  30.178  1.00  0.00     0.232 C 
ATOM      4  O   UNL     1     112.396 -47.122  31.172  1.00  0.00    -0.482 OA
ATOM      5  C   UNL     1     111.785 -48.091  31.980  1.00  0.00     0.131 A 
ATOM      6  C   UNL     1     110.907 -47.676  32.985  1.00  0.00     0.093 A 
ATOM      7  C   UNL     1     110.305 -48.612  33.827  1.00  0.00     0.122 A 
ATOM      8  C   UNL     1     110.594 -49.973  33.673  1.00  0.00     0.092 A 
ATOM      9  C   UNL     1     111.475 -50.407  32.675  1.00  0.00     0.126 A 
ATOM     10  C   UNL     1     112.050 -49.464  31.788  1.00  0.00     0.039 A 
ENDROOT
BRANCH   2  11
ATOM     11  O   UNL     1     111.928 -48.782  28.828  1.00  0.00    -0.389 OA
ATOM     12  H   UNL     1     111.535 -47.880  28.961  1.00  0.00     0.211 HD
ENDBRANCH   2  11
BRANCH   3  13
ATOM     13  C   UNL     1     114.789 -47.306  30.723  1.00  0.00    -0.001 A 
ATOM     14  C   UNL     1     115.861 -47.815  29.967  1.00  0.00     0.057 A 
ATOM     15  C   UNL     1     115.055 -46.747  31.986  1.00  0.00     0.012 A 
ATOM     16  C   UNL     1     117.172 -47.752  30.449  1.00  0.00     0.157 A 
ATOM     17  C   UNL     1     116.365 -46.683  32.470  1.00  0.00     0.050 A 
ATOM     18  C   UNL     1     117.428 -47.182  31.706  1.00  0.00     0.157 A 
BRANCH  16  19
ATOM     19  O   UNL     1     118.208 -48.261  29.665  1.00  0.00    -0.504 OA
ATOM     20  H   UNL     1     118.533 -47.787  28.831  1.00  0.00     0.293 HD
ENDBRANCH  16  19
BRANCH  18  21
ATOM     21  O   UNL     1     118.732 -47.117  32.194  1.00  0.00    -0.504 OA
ATOM     22  H   UNL     1     119.449 -47.763  31.883  1.00  0.00     0.293 HD
ENDBRANCH  18  21
ENDBRANCH   3  13
BRANCH   9  23
ATOM     23  O   UNL     1     111.764 -51.771  32.604  1.00  0.00    -0.507 OA
ATOM     24  H   UNL     1     112.131 -52.221  31.776  1.00  0.00     0.293 HD
ENDBRANCH   9  23
BRANCH   7  25
ATOM     25  O   UNL     1     109.428 -48.180  34.820  1.00  0.00    -0.508 OA
ATOM     26  H   UNL     1     109.032 -48.825  35.493  1.00  0.00     0.293 HD
ENDBRANCH   7  25
TORSDOF 6
ENDMDL
MODEL 8
REMARK VINA RESULT:    -6.579      2.856      3.813
REMARK INTER + INTRA:          -8.372
REMARK INTER:                  -7.938
REMARK INTRA:                  -0.434
REMARK UNBOUND:                -0.447
REMARK SMILES Oc1cc(O)c2c(c1)O[C@@H](c1ccc(O)c(O)c1)[C@H](O)C2
REMARK SMILES IDX 21 1 19 2 10 3 9 4 7 5 8 6 2 7 3 8 4 9 6 10 20 11 11 13
REMARK SMILES IDX 18 14 12 15 16 16 13 17 14 18 17 19 15 21 5 23 1 25
REMARK H PARENT 20 12 17 20 15 22 5 24 1 26
REMARK Flexibility Score: inf
ROOT
ATOM      1  C   UNL     1     115.566 -47.379  30.873  1.00  0.00     0.079 C 
ATOM      2  C   UNL     1     114.048 -47.579  30.706  1.00  0.00     0.164 C 
ATOM      3  C   UNL     1     113.675 -49.070  30.808  1.00  0.00     0.232 C 
ATOM      4  O   UNL     1     114.463 -49.848  29.902  1.00  0.00    -0.482 OA
ATOM      5  C   UNL     1     115.776 -49.515  29.542  1.00  0.00     0.131 A 
ATOM      6  C   UNL     1     116.494 -50.389  28.722  1.00  0.00     0.093 A 
ATOM      7  C   UNL     1     117.813 -50.103  28.369  1.00  0.00     0.122 A 
ATOM      8  C   UNL     1     118.425 -48.940  28.850  1.00  0.00     0.092 A 
ATOM      9  C   UNL     1     117.723 -48.054  29.677  1.00  0.00     0.126 A 
ATOM     10  C   UNL     1     116.369 -48.317  29.997  1.00  0.00     0.039 A 
ENDROOT
BRANCH   2  11
ATOM     11  O   UNL     1     113.640 -47.093  29.453  1.00  0.00    -0.389 OA
ATOM     12  H   UNL     1     114.265 -46.361  29.209  1.00  0.00     0.211 HD
ENDBRANCH   2  11
BRANCH   3  13
ATOM     13  C   UNL     1     113.782 -49.584  32.233  1.00  0.00    -0.001 A 
ATOM     14  C   UNL     1     114.676 -50.632  32.516  1.00  0.00     0.057 A 
ATOM     15  C   UNL     1     112.974 -49.082  33.270  1.00  0.00     0.012 A 
ATOM     16  C   UNL     1     114.778 -51.158  33.808  1.00  0.00     0.157 A 
ATOM     17  C   UNL     1     113.074 -49.606  34.562  1.00  0.00     0.050 A 
ATOM     18  C   UNL     1     113.975 -50.643  34.838  1.00  0.00     0.157 A 
BRANCH  16  19
ATOM     19  O   UNL     1     115.683 -52.192  34.050  1.00  0.00    -0.504 OA
ATOM     20  H   UNL     1     115.401 -53.065  34.479  1.00  0.00     0.293 HD
ENDBRANCH  16  19
BRANCH  18  21
ATOM     21  O   UNL     1     114.071 -51.163  36.128  1.00  0.00    -0.504 OA
ATOM     22  H   UNL     1     113.315 -51.694  36.544  1.00  0.00     0.293 HD
ENDBRANCH  18  21
ENDBRANCH   3  13
BRANCH   9  23
ATOM     23  O   UNL     1     118.403 -46.938  30.167  1.00  0.00    -0.507 OA
ATOM     24  H   UNL     1     119.411 -46.885  30.237  1.00  0.00     0.293 HD
ENDBRANCH   9  23
BRANCH   7  25
ATOM     25  O   UNL     1     118.511 -50.985  27.547  1.00  0.00    -0.508 OA
ATOM     26  H   UNL     1     118.254 -51.121  26.576  1.00  0.00     0.293 HD
ENDBRANCH   7  25
TORSDOF 6
ENDMDL
MODEL 9
REMARK VINA RESULT:    -6.551      2.391      4.431
REMARK INTER + INTRA:          -8.338
REMARK INTER:                  -7.861
REMARK INTRA:                  -0.477
REMARK UNBOUND:                -0.447
REMARK SMILES Oc1cc(O)c2c(c1)O[C@@H](c1ccc(O)c(O)c1)[C@H](O)C2
REMARK SMILES IDX 21 1 19 2 10 3 9 4 7 5 8 6 2 7 3 8 4 9 6 10 20 11 11 13
REMARK SMILES IDX 18 14 12 15 16 16 13 17 14 18 17 19 15 21 5 23 1 25
REMARK H PARENT 20 12 17 20 15 22 5 24 1 26
REMARK Flexibility Score: inf
ROOT
ATOM      1  C   UNL     1     112.407 -49.371  29.924  1.00  0.00     0.079 C 
ATOM      2  C   UNL     1     112.100 -49.415  31.433  1.00  0.00     0.164 C 
ATOM      3  C   UNL     1     113.052 -48.491  32.216  1.00  0.00     0.232 C 
ATOM      4  O   UNL     1     114.415 -48.785  31.894  1.00  0.00    -0.482 OA
ATOM      5  C   UNL     1     114.826 -49.253  30.639  1.00  0.00     0.131 A 
ATOM      6  C   UNL     1     116.191 -49.423  30.396  1.00  0.00     0.093 A 
ATOM      7  C   UNL     1     116.637 -49.859  29.147  1.00  0.00     0.122 A 
ATOM      8  C   UNL     1     115.712 -50.114  28.129  1.00  0.00     0.092 A 
ATOM      9  C   UNL     1     114.341 -49.945  28.352  1.00  0.00     0.126 A 
ATOM     10  C   UNL     1     113.881 -49.550  29.632  1.00  0.00     0.039 A 
ENDROOT
BRANCH   2  11
ATOM     11  O   UNL     1     112.248 -50.729  31.909  1.00  0.00    -0.389 OA
ATOM     12  H   UNL     1     112.965 -50.709  32.595  1.00  0.00     0.211 HD
ENDBRANCH   2  11
BRANCH   3  13
ATOM     13  C   UNL     1     112.725 -47.025  31.995  1.00  0.00    -0.001 A 
ATOM     14  C   UNL     1     113.741 -46.066  32.154  1.00  0.00     0.057 A 
ATOM     15  C   UNL     1     111.422 -46.588  31.690  1.00  0.00     0.012 A 
ATOM     16  C   UNL     1     113.473 -44.703  31.994  1.00  0.00     0.157 A 
ATOM     17  C   UNL     1     111.151 -45.226  31.531  1.00  0.00     0.050 A 
ATOM     18  C   UNL     1     112.172 -44.279  31.681  1.00  0.00     0.157 A 
BRANCH  16  19
ATOM     19  O   UNL     1     114.511 -43.784  32.153  1.00  0.00    -0.504 OA
ATOM     20  H   UNL     1     115.276 -43.943  32.797  1.00  0.00     0.293 HD
ENDBRANCH  16  19
BRANCH  18  21
ATOM     21  O   UNL     1     111.896 -42.921  31.521  1.00  0.00    -0.504 OA
ATOM     22  H   UNL     1     111.172 -42.597  30.891  1.00  0.00     0.293 HD
ENDBRANCH  18  21
ENDBRANCH   3  13
BRANCH   9  23
ATOM     23  O   UNL     1     113.471 -50.164  27.282  1.00  0.00    -0.507 OA
ATOM     24  H   UNL     1     112.888 -49.442  26.880  1.00  0.00     0.293 HD
ENDBRANCH   9  23
BRANCH   7  25
ATOM     25  O   UNL     1     118.003 -50.026  28.925  1.00  0.00    -0.508 OA
ATOM     26  H   UNL     1     118.460 -49.629  28.113  1.00  0.00     0.293 HD
ENDBRANCH   7  25
TORSDOF 6
ENDMDL
