MODEL 1
REMARK VINA RESULT:    -3.826      0.000      0.000
REMARK INTER + INTRA:          -8.192
REMARK INTER:                  -6.511
REMARK INTRA:                  -1.681
REMARK UNBOUND:                -1.681
REMARK SMILES CCCCCCCCCCCCCC(=O)[O-]
REMARK SMILES IDX 8 1 9 2 10 3 11 4 12 5 13 6 14 7 15 8 16 9 7 10 6 11 5 12
REMARK SMILES IDX 4 13 3 14 2 15 1 16
REMARK H PARENT
REMARK Flexibility Score: inf
ROOT
ATOM      1  C   UNL     1       7.445  77.347  66.799  1.00  0.00     0.000 C 
ENDROOT
BRANCH   1   2
ATOM      2  C   UNL     1       7.092  78.002  65.453  1.00  0.00     0.000 C 
BRANCH   2   3
ATOM      3  C   UNL     1       5.993  77.241  64.689  1.00  0.00     0.000 C 
BRANCH   3   4
ATOM      4  C   UNL     1       5.368  78.003  63.502  1.00  0.00     0.000 C 
BRANCH   4   5
ATOM      5  C   UNL     1       6.111  79.284  63.085  1.00  0.00     0.006 C 
BRANCH   5   6
ATOM      6  C   UNL     1       6.780  79.162  61.710  1.00  0.00     0.053 C 
BRANCH   6   7
ATOM      7  C   UNL     1       8.251  78.935  61.863  1.00  0.00     0.041 C 
ATOM      8  O   UNL     1       8.888  79.503  62.790  1.00  0.00    -0.550 OA
ATOM      9  O   UNL     1       8.912  78.058  61.012  1.00  0.00    -0.550 OA
ENDBRANCH   6   7
ENDBRANCH   5   6
ENDBRANCH   4   5
ENDBRANCH   3   4
ENDBRANCH   2   3
ENDBRANCH   1   2
BRANCH   1  10
ATOM     10  C   UNL     1       6.263  77.353  67.781  1.00  0.00     0.000 C 
BRANCH  10  11
ATOM     11  C   UNL     1       5.998  78.746  68.380  1.00  0.00    -0.000 C 
BRANCH  11  12
ATOM     12  C   UNL     1       4.493  79.017  68.594  1.00  0.00    -0.000 C 
BRANCH  12  13
ATOM     13  C   UNL     1       3.644  78.833  67.323  1.00  0.00    -0.000 C 
BRANCH  13  14
ATOM     14  C   UNL     1       3.803  79.944  66.267  1.00  0.00    -0.000 C 
BRANCH  14  15
ATOM     15  C   UNL     1       2.697  79.980  65.197  1.00  0.00    -0.003 C 
ATOM     16  C   UNL     1       2.968  81.003  64.095  1.00  0.00     0.004 C 
ENDBRANCH  14  15
ENDBRANCH  13  14
ENDBRANCH  12  13
ENDBRANCH  11  12
ENDBRANCH  10  11
ENDBRANCH   1  10
TORSDOF 12
ENDMDL
MODEL 2
REMARK VINA RESULT:    -3.775      3.190      5.889
REMARK INTER + INTRA:          -8.105
REMARK INTER:                  -6.584
REMARK INTRA:                  -1.520
REMARK UNBOUND:                -1.681
REMARK SMILES CCCCCCCCCCCCCC(=O)[O-]
REMARK SMILES IDX 8 1 9 2 10 3 11 4 12 5 13 6 14 7 15 8 16 9 7 10 6 11 5 12
REMARK SMILES IDX 4 13 3 14 2 15 1 16
REMARK H PARENT
REMARK Flexibility Score: inf
ROOT
ATOM      1  C   UNL     1       2.637  75.972  68.753  1.00  0.00     0.000 C 
ENDROOT
BRANCH   1   2
ATOM      2  C   UNL     1       1.385  76.684  68.214  1.00  0.00     0.000 C 
BRANCH   2   3
ATOM      3  C   UNL     1       0.925  77.845  69.114  1.00  0.00     0.000 C 
BRANCH   3   4
ATOM      4  C   UNL     1       2.025  78.469  69.997  1.00  0.00     0.000 C 
BRANCH   4   5
ATOM      5  C   UNL     1       2.406  79.916  69.640  1.00  0.00     0.006 C 
BRANCH   5   6
ATOM      6  C   UNL     1       3.683  80.004  68.794  1.00  0.00     0.053 C 
BRANCH   6   7
ATOM      7  C   UNL     1       3.341  80.103  67.341  1.00  0.00     0.041 C 
ATOM      8  O   UNL     1       3.911  79.355  66.502  1.00  0.00    -0.550 OA
ATOM      9  O   UNL     1       2.357  80.988  66.916  1.00  0.00    -0.550 OA
ENDBRANCH   6   7
ENDBRANCH   5   6
ENDBRANCH   4   5
ENDBRANCH   3   4
ENDBRANCH   2   3
ENDBRANCH   1   2
BRANCH   1  10
ATOM     10  C   UNL     1       3.837  76.097  67.800  1.00  0.00     0.000 C 
BRANCH  10  11
ATOM     11  C   UNL     1       5.086  76.670  68.494  1.00  0.00    -0.000 C 
BRANCH  11  12
ATOM     12  C   UNL     1       6.368  76.468  67.656  1.00  0.00    -0.000 C 
BRANCH  12  13
ATOM     13  C   UNL     1       7.021  77.785  67.196  1.00  0.00    -0.000 C 
BRANCH  13  14
ATOM     14  C   UNL     1       7.094  77.977  65.669  1.00  0.00    -0.000 C 
BRANCH  14  15
ATOM     15  C   UNL     1       6.087  77.136  64.865  1.00  0.00    -0.003 C 
ATOM     16  C   UNL     1       5.473  77.902  63.693  1.00  0.00     0.004 C 
ENDBRANCH  14  15
ENDBRANCH  13  14
ENDBRANCH  12  13
ENDBRANCH  11  12
ENDBRANCH  10  11
ENDBRANCH   1  10
TORSDOF 12
ENDMDL
MODEL 3
REMARK VINA RESULT:    -3.735      4.182      6.453
REMARK INTER + INTRA:          -8.036
REMARK INTER:                  -6.693
REMARK INTRA:                  -1.343
REMARK UNBOUND:                -1.681
REMARK SMILES CCCCCCCCCCCCCC(=O)[O-]
REMARK SMILES IDX 8 1 9 2 10 3 11 4 12 5 13 6 14 7 15 8 16 9 7 10 6 11 5 12
REMARK SMILES IDX 4 13 3 14 2 15 1 16
REMARK H PARENT
REMARK Flexibility Score: inf
ROOT
ATOM      1  C   UNL     1       3.780  79.710  67.004  1.00  0.00     0.000 C 
ENDROOT
BRANCH   1   2
ATOM      2  C   UNL     1       2.371  80.305  67.174  1.00  0.00     0.000 C 
BRANCH   2   3
ATOM      3  C   UNL     1       1.490  79.486  68.135  1.00  0.00     0.000 C 
BRANCH   3   4
ATOM      4  C   UNL     1       1.248  78.021  67.719  1.00  0.00     0.000 C 
BRANCH   4   5
ATOM      5  C   UNL     1       1.473  76.980  68.830  1.00  0.00     0.006 C 
BRANCH   5   6
ATOM      6  C   UNL     1       2.715  76.112  68.589  1.00  0.00     0.053 C 
BRANCH   6   7
ATOM      7  C   UNL     1       2.325  74.675  68.440  1.00  0.00     0.041 C 
ATOM      8  O   UNL     1       3.168  73.827  68.040  1.00  0.00    -0.550 OA
ATOM      9  O   UNL     1       1.047  74.260  68.791  1.00  0.00    -0.550 OA
ENDBRANCH   6   7
ENDBRANCH   5   6
ENDBRANCH   4   5
ENDBRANCH   3   4
ENDBRANCH   2   3
ENDBRANCH   1   2
BRANCH   1  10
ATOM     10  C   UNL     1       4.564  79.678  68.326  1.00  0.00     0.000 C 
BRANCH  10  11
ATOM     11  C   UNL     1       5.360  78.374  68.510  1.00  0.00    -0.000 C 
BRANCH  11  12
ATOM     12  C   UNL     1       6.762  78.445  67.866  1.00  0.00    -0.000 C 
BRANCH  12  13
ATOM     13  C   UNL     1       7.052  77.295  66.883  1.00  0.00    -0.000 C 
BRANCH  13  14
ATOM     14  C   UNL     1       5.837  76.815  66.066  1.00  0.00    -0.000 C 
BRANCH  14  15
ATOM     15  C   UNL     1       5.922  77.102  64.556  1.00  0.00    -0.003 C 
ATOM     16  C   UNL     1       6.928  78.200  64.214  1.00  0.00     0.004 C 
ENDBRANCH  14  15
ENDBRANCH  13  14
ENDBRANCH  12  13
ENDBRANCH  11  12
ENDBRANCH  10  11
ENDBRANCH   1  10
TORSDOF 12
ENDMDL
MODEL 4
REMARK VINA RESULT:    -3.725      3.517      5.878
REMARK INTER + INTRA:          -8.019
REMARK INTER:                  -6.873
REMARK INTRA:                  -1.146
REMARK UNBOUND:                -1.681
REMARK SMILES CCCCCCCCCCCCCC(=O)[O-]
REMARK SMILES IDX 8 1 9 2 10 3 11 4 12 5 13 6 14 7 15 8 16 9 7 10 6 11 5 12
REMARK SMILES IDX 4 13 3 14 2 15 1 16
REMARK H PARENT
REMARK Flexibility Score: inf
ROOT
ATOM      1  C   UNL     1       5.225  78.921  67.454  1.00  0.00     0.000 C 
ENDROOT
BRANCH   1   2
ATOM      2  C   UNL     1       4.481  79.390  68.715  1.00  0.00     0.000 C 
BRANCH   2   3
ATOM      3  C   UNL     1       3.053  79.884  68.417  1.00  0.00     0.000 C 
BRANCH   3   4
ATOM      4  C   UNL     1       1.986  78.777  68.299  1.00  0.00     0.000 C 
BRANCH   4   5
ATOM      5  C   UNL     1       2.226  77.541  69.183  1.00  0.00     0.006 C 
BRANCH   5   6
ATOM      6  C   UNL     1       1.944  76.222  68.452  1.00  0.00     0.053 C 
BRANCH   6   7
ATOM      7  C   UNL     1       3.210  75.448  68.264  1.00  0.00     0.041 C 
ATOM      8  O   UNL     1       4.290  75.869  68.759  1.00  0.00    -0.550 OA
ATOM      9  O   UNL     1       3.191  74.237  67.584  1.00  0.00    -0.550 OA
ENDBRANCH   6   7
ENDBRANCH   5   6
ENDBRANCH   4   5
ENDBRANCH   3   4
ENDBRANCH   2   3
ENDBRANCH   1   2
BRANCH   1  10
ATOM     10  C   UNL     1       6.641  78.412  67.765  1.00  0.00     0.000 C 
BRANCH  10  11
ATOM     11  C   UNL     1       7.139  77.379  66.738  1.00  0.00    -0.000 C 
BRANCH  11  12
ATOM     12  C   UNL     1       5.988  76.789  65.894  1.00  0.00    -0.000 C 
BRANCH  12  13
ATOM     13  C   UNL     1       6.034  77.200  64.411  1.00  0.00    -0.000 C 
BRANCH  13  14
ATOM     14  C   UNL     1       7.091  78.265  64.062  1.00  0.00    -0.000 C 
BRANCH  14  15
ATOM     15  C   UNL     1       6.781  79.094  62.802  1.00  0.00    -0.003 C 
ATOM     16  C   UNL     1       5.402  79.752  62.847  1.00  0.00     0.004 C 
ENDBRANCH  14  15
ENDBRANCH  13  14
ENDBRANCH  12  13
ENDBRANCH  11  12
ENDBRANCH  10  11
ENDBRANCH   1  10
TORSDOF 12
ENDMDL
MODEL 5
REMARK VINA RESULT:    -3.692      7.387      9.344
REMARK INTER + INTRA:          -7.963
REMARK INTER:                  -6.140
REMARK INTRA:                  -1.823
REMARK UNBOUND:                -1.681
REMARK SMILES CCCCCCCCCCCCCC(=O)[O-]
REMARK SMILES IDX 8 1 9 2 10 3 11 4 12 5 13 6 14 7 15 8 16 9 7 10 6 11 5 12
REMARK SMILES IDX 4 13 3 14 2 15 1 16
REMARK H PARENT
REMARK Flexibility Score: inf
ROOT
ATOM      1  C   UNL     1       4.508  84.707  64.191  1.00  0.00     0.000 C 
ENDROOT
BRANCH   1   2
ATOM      2  C   UNL     1       4.793  85.261  62.785  1.00  0.00     0.000 C 
BRANCH   2   3
ATOM      3  C   UNL     1       4.072  86.593  62.511  1.00  0.00     0.000 C 
BRANCH   3   4
ATOM      4  C   UNL     1       4.307  87.192  61.109  1.00  0.00     0.000 C 
BRANCH   4   5
ATOM      5  C   UNL     1       3.812  88.638  60.926  1.00  0.00     0.006 C 
BRANCH   5   6
ATOM      6  C   UNL     1       3.016  89.152  62.132  1.00  0.00     0.053 C 
BRANCH   6   7
ATOM      7  C   UNL     1       1.571  89.302  61.778  1.00  0.00     0.041 C 
ATOM      8  O   UNL     1       0.679  88.862  62.552  1.00  0.00    -0.550 OA
ATOM      9  O   UNL     1       1.204  89.972  60.618  1.00  0.00    -0.550 OA
ENDBRANCH   6   7
ENDBRANCH   5   6
ENDBRANCH   4   5
ENDBRANCH   3   4
ENDBRANCH   2   3
ENDBRANCH   1   2
BRANCH   1  10
ATOM     10  C   UNL     1       3.417  83.624  64.183  1.00  0.00     0.000 C 
BRANCH  10  11
ATOM     11  C   UNL     1       2.160  84.044  64.966  1.00  0.00    -0.000 C 
BRANCH  11  12
ATOM     12  C   UNL     1       0.889  84.024  64.090  1.00  0.00    -0.000 C 
BRANCH  12  13
ATOM     13  C   UNL     1       0.582  85.373  63.413  1.00  0.00    -0.000 C 
BRANCH  13  14
ATOM     14  C   UNL     1       0.834  85.412  61.893  1.00  0.00    -0.000 C 
BRANCH  14  15
ATOM     15  C   UNL     1       0.964  84.031  61.226  1.00  0.00    -0.003 C 
ATOM     16  C   UNL     1       2.306  83.834  60.522  1.00  0.00     0.004 C 
ENDBRANCH  14  15
ENDBRANCH  13  14
ENDBRANCH  12  13
ENDBRANCH  11  12
ENDBRANCH  10  11
ENDBRANCH   1  10
TORSDOF 12
ENDMDL
MODEL 6
REMARK VINA RESULT:    -3.677      3.615      5.396
REMARK INTER + INTRA:          -7.938
REMARK INTER:                  -6.529
REMARK INTRA:                  -1.409
REMARK UNBOUND:                -1.681
REMARK SMILES CCCCCCCCCCCCCC(=O)[O-]
REMARK SMILES IDX 8 1 9 2 10 3 11 4 12 5 13 6 14 7 15 8 16 9 7 10 6 11 5 12
REMARK SMILES IDX 4 13 3 14 2 15 1 16
REMARK H PARENT
REMARK Flexibility Score: inf
ROOT
ATOM      1  C   UNL     1       3.342  74.542  68.418  1.00  0.00     0.000 C 
ENDROOT
BRANCH   1   2
ATOM      2  C   UNL     1       4.299  75.469  67.649  1.00  0.00     0.000 C 
BRANCH   2   3
ATOM      3  C   UNL     1       5.387  76.081  68.548  1.00  0.00     0.000 C 
BRANCH   3   4
ATOM      4  C   UNL     1       6.642  76.590  67.809  1.00  0.00     0.000 C 
BRANCH   4   5
ATOM      5  C   UNL     1       6.745  78.119  67.672  1.00  0.00     0.006 C 
BRANCH   5   6
ATOM      6  C   UNL     1       5.483  78.846  68.156  1.00  0.00     0.053 C 
BRANCH   6   7
ATOM      7  C   UNL     1       4.649  79.276  66.990  1.00  0.00     0.041 C 
ATOM      8  O   UNL     1       3.757  80.152  67.139  1.00  0.00    -0.550 OA
ATOM      9  O   UNL     1       4.889  78.745  65.730  1.00  0.00    -0.550 OA
ENDBRANCH   6   7
ENDBRANCH   5   6
ENDBRANCH   4   5
ENDBRANCH   3   4
ENDBRANCH   2   3
ENDBRANCH   1   2
BRANCH   1  10
ATOM     10  C   UNL     1       1.909  74.591  67.864  1.00  0.00     0.000 C 
BRANCH  10  11
ATOM     11  C   UNL     1       0.917  75.246  68.843  1.00  0.00    -0.000 C 
BRANCH  11  12
ATOM     12  C   UNL     1       0.346  76.573  68.299  1.00  0.00    -0.000 C 
BRANCH  12  13
ATOM     13  C   UNL     1       1.376  77.718  68.252  1.00  0.00    -0.000 C 
BRANCH  13  14
ATOM     14  C   UNL     1       2.170  77.934  69.554  1.00  0.00    -0.000 C 
BRANCH  14  15
ATOM     15  C   UNL     1       1.382  78.624  70.682  1.00  0.00    -0.003 C 
ATOM     16  C   UNL     1       1.116  80.103  70.405  1.00  0.00     0.004 C 
ENDBRANCH  14  15
ENDBRANCH  13  14
ENDBRANCH  12  13
ENDBRANCH  11  12
ENDBRANCH  10  11
ENDBRANCH   1  10
TORSDOF 12
ENDMDL
MODEL 7
REMARK VINA RESULT:    -3.665      2.748      3.985
REMARK INTER + INTRA:          -7.917
REMARK INTER:                  -6.593
REMARK INTRA:                  -1.324
REMARK UNBOUND:                -1.681
REMARK SMILES CCCCCCCCCCCCCC(=O)[O-]
REMARK SMILES IDX 8 1 9 2 10 3 11 4 12 5 13 6 14 7 15 8 16 9 7 10 6 11 5 12
REMARK SMILES IDX 4 13 3 14 2 15 1 16
REMARK H PARENT
REMARK Flexibility Score: inf
ROOT
ATOM      1  C   UNL     1       7.246  78.158  65.157  1.00  0.00     0.000 C 
ENDROOT
BRANCH   1   2
ATOM      2  C   UNL     1       5.949  77.676  64.485  1.00  0.00     0.000 C 
BRANCH   2   3
ATOM      3  C   UNL     1       5.459  78.629  63.380  1.00  0.00     0.000 C 
BRANCH   3   4
ATOM      4  C   UNL     1       4.164  79.402  63.705  1.00  0.00     0.000 C 
BRANCH   4   5
ATOM      5  C   UNL     1       4.133  80.860  63.214  1.00  0.00     0.006 C 
BRANCH   5   6
ATOM      6  C   UNL     1       3.671  81.843  64.297  1.00  0.00     0.053 C 
BRANCH   6   7
ATOM      7  C   UNL     1       3.922  83.253  63.863  1.00  0.00     0.041 C 
ATOM      8  O   UNL     1       3.847  84.196  64.696  1.00  0.00    -0.550 OA
ATOM      9  O   UNL     1       4.286  83.523  62.550  1.00  0.00    -0.550 OA
ENDBRANCH   6   7
ENDBRANCH   5   6
ENDBRANCH   4   5
ENDBRANCH   3   4
ENDBRANCH   2   3
ENDBRANCH   1   2
BRANCH   1  10
ATOM     10  C   UNL     1       7.406  77.605  66.582  1.00  0.00     0.000 C 
BRANCH  10  11
ATOM     11  C   UNL     1       6.472  76.414  66.864  1.00  0.00    -0.000 C 
BRANCH  11  12
ATOM     12  C   UNL     1       5.795  76.514  68.248  1.00  0.00    -0.000 C 
BRANCH  12  13
ATOM     13  C   UNL     1       4.270  76.295  68.208  1.00  0.00    -0.000 C 
BRANCH  13  14
ATOM     14  C   UNL     1       3.425  77.578  68.324  1.00  0.00    -0.000 C 
BRANCH  14  15
ATOM     15  C   UNL     1       4.235  78.866  68.554  1.00  0.00    -0.003 C 
ATOM     16  C   UNL     1       4.275  79.772  67.324  1.00  0.00     0.004 C 
ENDBRANCH  14  15
ENDBRANCH  13  14
ENDBRANCH  12  13
ENDBRANCH  11  12
ENDBRANCH  10  11
ENDBRANCH   1  10
TORSDOF 12
ENDMDL
MODEL 8
REMARK VINA RESULT:    -3.649      2.822      5.744
REMARK INTER + INTRA:          -7.890
REMARK INTER:                  -6.433
REMARK INTRA:                  -1.457
REMARK UNBOUND:                -1.681
REMARK SMILES CCCCCCCCCCCCCC(=O)[O-]
REMARK SMILES IDX 8 1 9 2 10 3 11 4 12 5 13 6 14 7 15 8 16 9 7 10 6 11 5 12
REMARK SMILES IDX 4 13 3 14 2 15 1 16
REMARK H PARENT
REMARK Flexibility Score: inf
ROOT
ATOM      1  C   UNL     1       6.774  78.579  64.270  1.00  0.00     0.000 C 
ENDROOT
BRANCH   1   2
ATOM      2  C   UNL     1       6.076  77.235  64.542  1.00  0.00     0.000 C 
BRANCH   2   3
ATOM      3  C   UNL     1       6.174  76.799  66.015  1.00  0.00     0.000 C 
BRANCH   3   4
ATOM      4  C   UNL     1       7.200  77.578  66.865  1.00  0.00     0.000 C 
BRANCH   4   5
ATOM      5  C   UNL     1       6.602  78.388  68.030  1.00  0.00     0.006 C 
BRANCH   5   6
ATOM      6  C   UNL     1       5.088  78.193  68.174  1.00  0.00     0.053 C 
BRANCH   6   7
ATOM      7  C   UNL     1       4.365  79.466  67.865  1.00  0.00     0.041 C 
ATOM      8  O   UNL     1       4.149  79.797  66.669  1.00  0.00    -0.550 OA
ATOM      9  O   UNL     1       3.888  80.263  68.897  1.00  0.00    -0.550 OA
ENDBRANCH   6   7
ENDBRANCH   5   6
ENDBRANCH   4   5
ENDBRANCH   3   4
ENDBRANCH   2   3
ENDBRANCH   1   2
BRANCH   1  10
ATOM     10  C   UNL     1       7.960  78.437  63.303  1.00  0.00     0.000 C 
BRANCH  10  11
ATOM     11  C   UNL     1       7.934  79.485  62.176  1.00  0.00    -0.000 C 
BRANCH  11  12
ATOM     12  C   UNL     1       7.764  78.844  60.782  1.00  0.00    -0.000 C 
BRANCH  12  13
ATOM     13  C   UNL     1       6.369  79.061  60.166  1.00  0.00    -0.000 C 
BRANCH  13  14
ATOM     14  C   UNL     1       5.377  79.834  61.056  1.00  0.00    -0.000 C 
BRANCH  14  15
ATOM     15  C   UNL     1       4.136  79.031  61.486  1.00  0.00    -0.003 C 
ATOM     16  C   UNL     1       3.543  79.514  62.809  1.00  0.00     0.004 C 
ENDBRANCH  14  15
ENDBRANCH  13  14
ENDBRANCH  12  13
ENDBRANCH  11  12
ENDBRANCH  10  11
ENDBRANCH   1  10
TORSDOF 12
ENDMDL
MODEL 9
REMARK VINA RESULT:    -3.643      2.246      3.714
REMARK INTER + INTRA:          -7.879
REMARK INTER:                  -6.761
REMARK INTRA:                  -1.118
REMARK UNBOUND:                -1.681
REMARK SMILES CCCCCCCCCCCCCC(=O)[O-]
REMARK SMILES IDX 8 1 9 2 10 3 11 4 12 5 13 6 14 7 15 8 16 9 7 10 6 11 5 12
REMARK SMILES IDX 4 13 3 14 2 15 1 16
REMARK H PARENT
REMARK Flexibility Score: inf
ROOT
ATOM      1  C   UNL     1       5.473  78.825  68.104  1.00  0.00     0.000 C 
ENDROOT
BRANCH   1   2
ATOM      2  C   UNL     1       5.722  77.340  68.418  1.00  0.00     0.000 C 
BRANCH   2   3
ATOM      3  C   UNL     1       6.396  76.589  67.256  1.00  0.00     0.000 C 
BRANCH   3   4
ATOM      4  C   UNL     1       6.951  77.484  66.129  1.00  0.00     0.000 C 
BRANCH   4   5
ATOM      5  C   UNL     1       6.371  77.209  64.730  1.00  0.00     0.006 C 
BRANCH   5   6
ATOM      6  C   UNL     1       5.973  78.491  63.988  1.00  0.00     0.053 C 
BRANCH   6   7
ATOM      7  C   UNL     1       7.036  78.877  63.008  1.00  0.00     0.041 C 
ATOM      8  O   UNL     1       8.186  78.370  63.087  1.00  0.00    -0.550 OA
ATOM      9  O   UNL     1       6.743  79.761  61.977  1.00  0.00    -0.550 OA
ENDBRANCH   6   7
ENDBRANCH   5   6
ENDBRANCH   4   5
ENDBRANCH   3   4
ENDBRANCH   2   3
ENDBRANCH   1   2
BRANCH   1  10
ATOM     10  C   UNL     1       4.176  79.348  68.743  1.00  0.00     0.000 C 
BRANCH  10  11
ATOM     11  C   UNL     1       3.116  78.246  68.920  1.00  0.00    -0.000 C 
BRANCH  11  12
ATOM     12  C   UNL     1       2.004  78.324  67.851  1.00  0.00    -0.000 C 
BRANCH  12  13
ATOM     13  C   UNL     1       0.951  77.207  67.970  1.00  0.00    -0.000 C 
BRANCH  13  14
ATOM     14  C   UNL     1       1.381  75.994  68.818  1.00  0.00    -0.000 C 
BRANCH  14  15
ATOM     15  C   UNL     1       1.845  74.772  68.006  1.00  0.00    -0.003 C 
ATOM     16  C   UNL     1       3.340  74.490  68.154  1.00  0.00     0.004 C 
ENDBRANCH  14  15
ENDBRANCH  13  14
ENDBRANCH  12  13
ENDBRANCH  11  12
ENDBRANCH  10  11
ENDBRANCH   1  10
TORSDOF 12
ENDMDL
