MODEL 1
REMARK VINA RESULT:    -4.258      0.000      0.000
REMARK INTER + INTRA:          -5.171
REMARK INTER:                  -5.129
REMARK INTRA:                  -0.042
REMARK UNBOUND:                -0.042
REMARK SMILES CC[C@H](C)[C@H]([NH3+])C(=O)[O-]
REMARK SMILES IDX 3 1 4 2 5 3 6 4 7 8 8 9 9 10 2 11 1 12
REMARK H PARENT 6 5 6 6 6 7
REMARK Flexibility Score: inf
ROOT
ATOM      1  C   UNL     1      -5.982  -0.303   0.432  1.00  0.00     0.050 C 
ATOM      2  C   UNL     1      -7.205  -1.071   0.972  1.00  0.00     0.014 C 
ENDROOT
BRANCH   1   3
ATOM      3  C   UNL     1      -6.404   1.046  -0.232  1.00  0.00     0.230 C 
BRANCH   3   4
ATOM      4  N   UNL     1      -5.244   1.905  -0.512  1.00  0.00    -0.350 N 
ATOM      5  H   UNL     1      -4.451   1.343  -0.902  1.00  0.00     0.345 HD
ATOM      6  H   UNL     1      -4.926   2.377   0.365  1.00  0.00     0.345 HD
ATOM      7  H   UNL     1      -5.502   2.658  -1.189  1.00  0.00     0.345 HD
ENDBRANCH   3   4
BRANCH   3   8
ATOM      8  C   UNL     1      -7.371   1.793   0.655  1.00  0.00     0.099 C 
ATOM      9  O   UNL     1      -8.557   1.985   0.277  1.00  0.00    -0.544 OA
ATOM     10  O   UNL     1      -6.962   2.263   1.897  1.00  0.00    -0.544 OA
ENDBRANCH   3   8
ENDBRANCH   1   3
BRANCH   1  11
ATOM     11  C   UNL     1      -5.126  -1.215  -0.487  1.00  0.00     0.006 C 
ATOM     12  C   UNL     1      -4.437  -2.378   0.233  1.00  0.00     0.004 C 
ENDBRANCH   1  11
TORSDOF 4
ENDMDL
MODEL 2
REMARK VINA RESULT:    -4.241      2.151      3.082
REMARK INTER + INTRA:          -5.151
REMARK INTER:                  -5.153
REMARK INTRA:                   0.002
REMARK UNBOUND:                -0.042
REMARK SMILES CC[C@H](C)[C@H]([NH3+])C(=O)[O-]
REMARK SMILES IDX 3 1 4 2 5 3 6 4 7 8 8 9 9 10 2 11 1 12
REMARK H PARENT 6 5 6 6 6 7
REMARK Flexibility Score: inf
ROOT
ATOM      1  C   UNL     1      -5.820   2.318  -0.079  1.00  0.00     0.050 C 
ATOM      2  C   UNL     1      -5.853   2.744   1.402  1.00  0.00     0.014 C 
ENDROOT
BRANCH   1   3
ATOM      3  C   UNL     1      -6.226   3.497  -1.020  1.00  0.00     0.230 C 
BRANCH   3   4
ATOM      4  N   UNL     1      -5.845   4.802  -0.459  1.00  0.00    -0.350 N 
ATOM      5  H   UNL     1      -6.476   5.064   0.333  1.00  0.00     0.345 HD
ATOM      6  H   UNL     1      -5.901   5.541  -1.197  1.00  0.00     0.345 HD
ATOM      7  H   UNL     1      -4.856   4.779  -0.123  1.00  0.00     0.345 HD
ENDBRANCH   3   4
BRANCH   3   8
ATOM      8  C   UNL     1      -7.714   3.482  -1.274  1.00  0.00     0.099 C 
ATOM      9  O   UNL     1      -8.505   3.983  -0.432  1.00  0.00    -0.544 OA
ATOM     10  O   UNL     1      -8.219   2.925  -2.443  1.00  0.00    -0.544 OA
ENDBRANCH   3   8
ENDBRANCH   1   3
BRANCH   1  11
ATOM     11  C   UNL     1      -6.651   1.026  -0.295  1.00  0.00     0.006 C 
ATOM     12  C   UNL     1      -5.817  -0.248  -0.462  1.00  0.00     0.004 C 
ENDBRANCH   1  11
TORSDOF 4
ENDMDL
MODEL 3
REMARK VINA RESULT:    -4.039      1.857      2.600
REMARK INTER + INTRA:          -4.907
REMARK INTER:                  -4.811
REMARK INTRA:                  -0.096
REMARK UNBOUND:                -0.042
REMARK SMILES CC[C@H](C)[C@H]([NH3+])C(=O)[O-]
REMARK SMILES IDX 3 1 4 2 5 3 6 4 7 8 8 9 9 10 2 11 1 12
REMARK H PARENT 6 5 6 6 6 7
REMARK Flexibility Score: inf
ROOT
ATOM      1  C   UNL     1      -6.330   0.647  -0.365  1.00  0.00     0.050 C 
ATOM      2  C   UNL     1      -5.266  -0.392  -0.773  1.00  0.00     0.014 C 
ENDROOT
BRANCH   1   3
ATOM      3  C   UNL     1      -5.740   2.093  -0.352  1.00  0.00     0.230 C 
BRANCH   3   4
ATOM      4  N   UNL     1      -5.629   2.627   1.013  1.00  0.00    -0.350 N 
ATOM      5  H   UNL     1      -4.625   2.722   1.294  1.00  0.00     0.345 HD
ATOM      6  H   UNL     1      -6.112   1.991   1.688  1.00  0.00     0.345 HD
ATOM      7  H   UNL     1      -6.099   3.558   1.079  1.00  0.00     0.345 HD
ENDBRANCH   3   4
BRANCH   3   8
ATOM      8  C   UNL     1      -6.595   3.020  -1.181  1.00  0.00     0.099 C 
ATOM      9  O   UNL     1      -6.112   4.092  -1.633  1.00  0.00    -0.544 OA
ATOM     10  O   UNL     1      -7.917   2.694  -1.458  1.00  0.00    -0.544 OA
ENDBRANCH   3   8
ENDBRANCH   1   3
BRANCH   1  11
ATOM     11  C   UNL     1      -7.012   0.235   0.967  1.00  0.00     0.006 C 
ATOM     12  C   UNL     1      -6.499  -1.078   1.567  1.00  0.00     0.004 C 
ENDBRANCH   1  11
TORSDOF 4
ENDMDL
MODEL 4
REMARK VINA RESULT:    -4.033      2.696      3.649
REMARK INTER + INTRA:          -4.901
REMARK INTER:                  -4.826
REMARK INTRA:                  -0.075
REMARK UNBOUND:                -0.042
REMARK SMILES CC[C@H](C)[C@H]([NH3+])C(=O)[O-]
REMARK SMILES IDX 3 1 4 2 5 3 6 4 7 8 8 9 9 10 2 11 1 12
REMARK H PARENT 6 5 6 6 6 7
REMARK Flexibility Score: inf
ROOT
ATOM      1  C   UNL     1      -6.447   2.515   0.431  1.00  0.00     0.050 C 
ATOM      2  C   UNL     1      -5.723   1.386  -0.329  1.00  0.00     0.014 C 
ENDROOT
BRANCH   1   3
ATOM      3  C   UNL     1      -6.728   3.739  -0.497  1.00  0.00     0.230 C 
BRANCH   3   4
ATOM      4  N   UNL     1      -5.865   4.884  -0.169  1.00  0.00    -0.350 N 
ATOM      5  H   UNL     1      -6.309   5.783  -0.471  1.00  0.00     0.345 HD
ATOM      6  H   UNL     1      -4.939   4.785  -0.647  1.00  0.00     0.345 HD
ATOM      7  H   UNL     1      -5.677   4.916   0.859  1.00  0.00     0.345 HD
ENDBRANCH   3   4
BRANCH   3   8
ATOM      8  C   UNL     1      -8.173   4.162  -0.394  1.00  0.00     0.099 C 
ATOM      9  O   UNL     1      -8.546   4.920   0.540  1.00  0.00    -0.544 OA
ATOM     10  O   UNL     1      -9.099   3.726  -1.334  1.00  0.00    -0.544 OA
ENDBRANCH   3   8
ENDBRANCH   1   3
BRANCH   1  11
ATOM     11  C   UNL     1      -5.682   2.875   1.733  1.00  0.00     0.006 C 
ATOM     12  C   UNL     1      -6.090   2.053   2.960  1.00  0.00     0.004 C 
ENDBRANCH   1  11
TORSDOF 4
ENDMDL
MODEL 5
REMARK VINA RESULT:    -4.010      3.020      3.860
REMARK INTER + INTRA:          -4.873
REMARK INTER:                  -4.725
REMARK INTRA:                  -0.148
REMARK UNBOUND:                -0.042
REMARK SMILES CC[C@H](C)[C@H]([NH3+])C(=O)[O-]
REMARK SMILES IDX 3 1 4 2 5 3 6 4 7 8 8 9 9 10 2 11 1 12
REMARK H PARENT 6 5 6 6 6 7
REMARK Flexibility Score: inf
ROOT
ATOM      1  C   UNL     1      -6.982  -0.223   0.629  1.00  0.00     0.050 C 
ATOM      2  C   UNL     1      -8.295  -0.312   1.433  1.00  0.00     0.014 C 
ENDROOT
BRANCH   1   3
ATOM      3  C   UNL     1      -6.111  -1.506   0.817  1.00  0.00     0.230 C 
BRANCH   3   4
ATOM      4  N   UNL     1      -5.293  -1.437   2.038  1.00  0.00    -0.350 N 
ATOM      5  H   UNL     1      -4.300  -1.699   1.834  1.00  0.00     0.345 HD
ATOM      6  H   UNL     1      -5.674  -2.088   2.763  1.00  0.00     0.345 HD
ATOM      7  H   UNL     1      -5.323  -0.475   2.443  1.00  0.00     0.345 HD
ENDBRANCH   3   4
BRANCH   3   8
ATOM      8  C   UNL     1      -5.208  -1.712  -0.374  1.00  0.00     0.099 C 
ATOM      9  O   UNL     1      -5.597  -1.387  -1.527  1.00  0.00    -0.544 OA
ATOM     10  O   UNL     1      -3.938  -2.251  -0.206  1.00  0.00    -0.544 OA
ENDBRANCH   3   8
ENDBRANCH   1   3
BRANCH   1  11
ATOM     11  C   UNL     1      -6.234   1.098   0.950  1.00  0.00     0.006 C 
ATOM     12  C   UNL     1      -5.966   1.990  -0.266  1.00  0.00     0.004 C 
ENDBRANCH   1  11
TORSDOF 4
ENDMDL
MODEL 6
REMARK VINA RESULT:    -3.960      2.838      3.793
REMARK INTER + INTRA:          -4.812
REMARK INTER:                  -4.733
REMARK INTRA:                  -0.079
REMARK UNBOUND:                -0.042
REMARK SMILES CC[C@H](C)[C@H]([NH3+])C(=O)[O-]
REMARK SMILES IDX 3 1 4 2 5 3 6 4 7 8 8 9 9 10 2 11 1 12
REMARK H PARENT 6 5 6 6 6 7
REMARK Flexibility Score: inf
ROOT
ATOM      1  C   UNL     1      -6.872  -0.942   1.127  1.00  0.00     0.050 C 
ATOM      2  C   UNL     1      -6.348  -1.228   2.549  1.00  0.00     0.014 C 
ENDROOT
BRANCH   1   3
ATOM      3  C   UNL     1      -5.795  -0.220   0.257  1.00  0.00     0.230 C 
BRANCH   3   4
ATOM      4  N   UNL     1      -6.387   0.822  -0.594  1.00  0.00    -0.350 N 
ATOM      5  H   UNL     1      -6.750   1.614  -0.013  1.00  0.00     0.345 HD
ATOM      6  H   UNL     1      -7.176   0.423  -1.155  1.00  0.00     0.345 HD
ATOM      7  H   UNL     1      -5.680   1.184  -1.273  1.00  0.00     0.345 HD
ENDBRANCH   3   4
BRANCH   3   8
ATOM      8  C   UNL     1      -5.064  -1.214  -0.612  1.00  0.00     0.099 C 
ATOM      9  O   UNL     1      -4.112  -0.835  -1.344  1.00  0.00    -0.544 OA
ATOM     10  O   UNL     1      -5.429  -2.555  -0.603  1.00  0.00    -0.544 OA
ENDBRANCH   3   8
ENDBRANCH   1   3
BRANCH   1  11
ATOM     11  C   UNL     1      -8.234  -0.199   1.187  1.00  0.00     0.006 C 
ATOM     12  C   UNL     1      -9.434  -1.093   1.515  1.00  0.00     0.004 C 
ENDBRANCH   1  11
TORSDOF 4
ENDMDL
MODEL 7
REMARK VINA RESULT:    -3.799      3.049      3.732
REMARK INTER + INTRA:          -4.618
REMARK INTER:                  -4.521
REMARK INTRA:                  -0.097
REMARK UNBOUND:                -0.042
REMARK SMILES CC[C@H](C)[C@H]([NH3+])C(=O)[O-]
REMARK SMILES IDX 3 1 4 2 5 3 6 4 7 8 8 9 9 10 2 11 1 12
REMARK H PARENT 6 5 6 6 6 7
REMARK Flexibility Score: inf
ROOT
ATOM      1  C   UNL     1      -7.074   2.605   1.038  1.00  0.00     0.050 C 
ATOM      2  C   UNL     1      -8.409   1.943   1.438  1.00  0.00     0.014 C 
ENDROOT
BRANCH   1   3
ATOM      3  C   UNL     1      -6.627   2.166  -0.393  1.00  0.00     0.230 C 
BRANCH   3   4
ATOM      4  N   UNL     1      -5.178   1.920  -0.461  1.00  0.00    -0.350 N 
ATOM      5  H   UNL     1      -4.887   1.215   0.256  1.00  0.00     0.345 HD
ATOM      6  H   UNL     1      -4.654   2.810  -0.295  1.00  0.00     0.345 HD
ATOM      7  H   UNL     1      -4.911   1.580  -1.413  1.00  0.00     0.345 HD
ENDBRANCH   3   4
BRANCH   3   8
ATOM      8  C   UNL     1      -7.000   3.217  -1.409  1.00  0.00     0.099 C 
ATOM      9  O   UNL     1      -6.173   4.110  -1.730  1.00  0.00    -0.544 OA
ATOM     10  O   UNL     1      -8.256   3.200  -2.005  1.00  0.00    -0.544 OA
ENDBRANCH   3   8
ENDBRANCH   1   3
BRANCH   1  11
ATOM     11  C   UNL     1      -5.999   2.370   2.133  1.00  0.00     0.006 C 
ATOM     12  C   UNL     1      -5.548   3.637   2.865  1.00  0.00     0.004 C 
ENDBRANCH   1  11
TORSDOF 4
ENDMDL
MODEL 8
REMARK VINA RESULT:    -3.734      1.722      2.213
REMARK INTER + INTRA:          -4.541
REMARK INTER:                  -4.424
REMARK INTRA:                  -0.117
REMARK UNBOUND:                -0.042
REMARK SMILES CC[C@H](C)[C@H]([NH3+])C(=O)[O-]
REMARK SMILES IDX 3 1 4 2 5 3 6 4 7 8 8 9 9 10 2 11 1 12
REMARK H PARENT 6 5 6 6 6 7
REMARK Flexibility Score: inf
ROOT
ATOM      1  C   UNL     1      -7.096   1.382   0.997  1.00  0.00     0.050 C 
ATOM      2  C   UNL     1      -8.622   1.206   1.125  1.00  0.00     0.014 C 
ENDROOT
BRANCH   1   3
ATOM      3  C   UNL     1      -6.687   1.781  -0.457  1.00  0.00     0.230 C 
BRANCH   3   4
ATOM      4  N   UNL     1      -5.240   2.017  -0.573  1.00  0.00    -0.350 N 
ATOM      5  H   UNL     1      -4.713   1.442   0.125  1.00  0.00     0.345 HD
ATOM      6  H   UNL     1      -5.027   3.028  -0.411  1.00  0.00     0.345 HD
ATOM      7  H   UNL     1      -4.910   1.785  -1.537  1.00  0.00     0.345 HD
ENDBRANCH   3   4
BRANCH   3   8
ATOM      8  C   UNL     1      -7.429   3.021  -0.893  1.00  0.00     0.099 C 
ATOM      9  O   UNL     1      -8.193   2.982  -1.893  1.00  0.00    -0.544 OA
ATOM     10  O   UNL     1      -7.282   4.210  -0.189  1.00  0.00    -0.544 OA
ENDBRANCH   3   8
ENDBRANCH   1   3
BRANCH   1  11
ATOM     11  C   UNL     1      -6.355   0.129   1.537  1.00  0.00     0.006 C 
ATOM     12  C   UNL     1      -6.584  -1.147   0.722  1.00  0.00     0.004 C 
ENDBRANCH   1  11
TORSDOF 4
ENDMDL
MODEL 9
REMARK VINA RESULT:    -3.591      2.697      3.766
REMARK INTER + INTRA:          -4.368
REMARK INTER:                  -4.303
REMARK INTRA:                  -0.066
REMARK UNBOUND:                -0.042
REMARK SMILES CC[C@H](C)[C@H]([NH3+])C(=O)[O-]
REMARK SMILES IDX 3 1 4 2 5 3 6 4 7 8 8 9 9 10 2 11 1 12
REMARK H PARENT 6 5 6 6 6 7
REMARK Flexibility Score: inf
ROOT
ATOM      1  C   UNL     1      -7.563   3.253   0.033  1.00  0.00     0.050 C 
ATOM      2  C   UNL     1      -7.484   3.351  -1.504  1.00  0.00     0.014 C 
ENDROOT
BRANCH   1   3
ATOM      3  C   UNL     1      -6.927   4.504   0.718  1.00  0.00     0.230 C 
BRANCH   3   4
ATOM      4  N   UNL     1      -5.725   4.965   0.007  1.00  0.00    -0.350 N 
ATOM      5  H   UNL     1      -5.220   5.692   0.565  1.00  0.00     0.345 HD
ATOM      6  H   UNL     1      -5.990   5.372  -0.920  1.00  0.00     0.345 HD
ATOM      7  H   UNL     1      -5.084   4.163  -0.182  1.00  0.00     0.345 HD
ENDBRANCH   3   4
BRANCH   3   8
ATOM      8  C   UNL     1      -6.569   4.197   2.151  1.00  0.00     0.099 C 
ATOM      9  O   UNL     1      -5.366   4.016   2.478  1.00  0.00    -0.544 OA
ATOM     10  O   UNL     1      -7.561   4.122   3.121  1.00  0.00    -0.544 OA
ENDBRANCH   3   8
ENDBRANCH   1   3
BRANCH   1  11
ATOM     11  C   UNL     1      -6.978   1.901   0.524  1.00  0.00     0.006 C 
ATOM     12  C   UNL     1      -5.800   1.379  -0.303  1.00  0.00     0.004 C 
ENDBRANCH   1  11
TORSDOF 4
ENDMDL
