MODEL 1
REMARK VINA RESULT:    -4.287      0.000      0.000
REMARK INTER + INTRA:         -11.042
REMARK INTER:                  -9.299
REMARK INTRA:                  -1.743
REMARK UNBOUND:                -1.743
REMARK SMILES CCCCCCCCCCCCCCCCCCCCCC(=O)[O-]
REMARK SMILES IDX 12 1 11 2 10 3 9 4 8 5 7 6 6 7 5 8 4 9 3 10 2 11 1 12 13 13
REMARK SMILES IDX 14 14 15 15 16 16 17 17 18 18 19 19 20 20 21 21 22 22 23 23
REMARK SMILES IDX 24 24
REMARK H PARENT
REMARK Flexibility Score: inf
ROOT
ATOM      1  C   UNL     1     -11.518 -12.837  -4.292  1.00  0.00     0.000 C 
ENDROOT
BRANCH   1   2
ATOM      2  C   UNL     1     -12.876 -12.280  -3.833  1.00  0.00     0.000 C 
BRANCH   2   3
ATOM      3  C   UNL     1     -13.747 -13.346  -3.146  1.00  0.00     0.000 C 
BRANCH   3   4
ATOM      4  C   UNL     1     -14.230 -12.909  -1.752  1.00  0.00    -0.000 C 
BRANCH   4   5
ATOM      5  C   UNL     1     -13.659 -11.564  -1.260  1.00  0.00    -0.000 C 
BRANCH   5   6
ATOM      6  C   UNL     1     -12.999 -11.599   0.133  1.00  0.00    -0.000 C 
BRANCH   6   7
ATOM      7  C   UNL     1     -13.692 -12.508   1.164  1.00  0.00    -0.000 C 
BRANCH   7   8
ATOM      8  C   UNL     1     -13.392 -12.101   2.616  1.00  0.00    -0.000 C 
BRANCH   8   9
ATOM      9  C   UNL     1     -14.356 -11.024   3.146  1.00  0.00    -0.000 C 
BRANCH   9  10
ATOM     10  C   UNL     1     -13.872 -10.265   4.397  1.00  0.00    -0.000 C 
BRANCH  10  11
ATOM     11  C   UNL     1     -12.358  -9.999   4.451  1.00  0.00    -0.003 C 
ATOM     12  C   UNL     1     -11.814  -9.939   5.878  1.00  0.00     0.004 C 
ENDBRANCH  10  11
ENDBRANCH   9  10
ENDBRANCH   8   9
ENDBRANCH   7   8
ENDBRANCH   6   7
ENDBRANCH   5   6
ENDBRANCH   4   5
ENDBRANCH   3   4
ENDBRANCH   2   3
ENDBRANCH   1   2
BRANCH   1  13
ATOM     13  C   UNL     1     -10.983 -13.929  -3.348  1.00  0.00     0.000 C 
BRANCH  13  14
ATOM     14  C   UNL     1     -10.350 -13.356  -2.071  1.00  0.00     0.000 C 
BRANCH  14  15
ATOM     15  C   UNL     1      -9.001 -12.663  -2.333  1.00  0.00     0.000 C 
BRANCH  15  16
ATOM     16  C   UNL     1      -8.145 -13.417  -3.364  1.00  0.00     0.000 C 
BRANCH  16  17
ATOM     17  C   UNL     1      -6.826 -12.691  -3.684  1.00  0.00     0.000 C 
BRANCH  17  18
ATOM     18  C   UNL     1      -5.785 -13.635  -4.322  1.00  0.00     0.000 C 
BRANCH  18  19
ATOM     19  C   UNL     1      -5.035 -13.015  -5.513  1.00  0.00     0.000 C 
BRANCH  19  20
ATOM     20  C   UNL     1      -5.886 -12.001  -6.295  1.00  0.00     0.006 C 
BRANCH  20  21
ATOM     21  C   UNL     1      -6.589 -12.640  -7.500  1.00  0.00     0.053 C 
BRANCH  21  22
ATOM     22  C   UNL     1      -8.014 -12.192  -7.615  1.00  0.00     0.041 C 
ATOM     23  O   UNL     1      -8.381 -11.495  -8.599  1.00  0.00    -0.550 OA
ATOM     24  O   UNL     1      -8.947 -12.582  -6.663  1.00  0.00    -0.550 OA
ENDBRANCH  21  22
ENDBRANCH  20  21
ENDBRANCH  19  20
ENDBRANCH  18  19
ENDBRANCH  17  18
ENDBRANCH  16  17
ENDBRANCH  15  16
ENDBRANCH  14  15
ENDBRANCH  13  14
ENDBRANCH   1  13
TORSDOF 20
ENDMDL
MODEL 2
REMARK VINA RESULT:    -4.092      3.843      9.800
REMARK INTER + INTRA:         -10.620
REMARK INTER:                  -9.105
REMARK INTRA:                  -1.515
REMARK UNBOUND:                -1.743
REMARK SMILES CCCCCCCCCCCCCCCCCCCCCC(=O)[O-]
REMARK SMILES IDX 12 1 11 2 10 3 9 4 8 5 7 6 6 7 5 8 4 9 3 10 2 11 1 12 13 13
REMARK SMILES IDX 14 14 15 15 16 16 17 17 18 18 19 19 20 20 21 21 22 22 23 23
REMARK SMILES IDX 24 24
REMARK H PARENT
REMARK Flexibility Score: inf
ROOT
ATOM      1  C   UNL     1     -14.298 -11.028  -2.800  1.00  0.00     0.000 C 
ENDROOT
BRANCH   1   2
ATOM      2  C   UNL     1     -14.331 -11.689  -4.188  1.00  0.00     0.000 C 
BRANCH   2   3
ATOM      3  C   UNL     1     -12.950 -11.705  -4.866  1.00  0.00     0.000 C 
BRANCH   3   4
ATOM      4  C   UNL     1     -12.206 -13.038  -4.669  1.00  0.00    -0.000 C 
BRANCH   4   5
ATOM      5  C   UNL     1     -11.033 -12.983  -3.669  1.00  0.00    -0.000 C 
BRANCH   5   6
ATOM      6  C   UNL     1      -9.822 -13.869  -4.027  1.00  0.00    -0.000 C 
BRANCH   6   7
ATOM      7  C   UNL     1      -8.497 -13.471  -3.353  1.00  0.00    -0.000 C 
BRANCH   7   8
ATOM      8  C   UNL     1      -7.262 -13.916  -4.156  1.00  0.00    -0.000 C 
BRANCH   8   9
ATOM      9  C   UNL     1      -6.119 -12.886  -4.114  1.00  0.00    -0.000 C 
BRANCH   9  10
ATOM     10  C   UNL     1      -6.049 -11.930  -5.321  1.00  0.00    -0.000 C 
BRANCH  10  11
ATOM     11  C   UNL     1      -5.459 -12.544  -6.603  1.00  0.00    -0.003 C 
ATOM     12  C   UNL     1      -4.211 -13.384  -6.342  1.00  0.00     0.004 C 
ENDBRANCH  10  11
ENDBRANCH   9  10
ENDBRANCH   8   9
ENDBRANCH   7   8
ENDBRANCH   6   7
ENDBRANCH   5   6
ENDBRANCH   4   5
ENDBRANCH   3   4
ENDBRANCH   2   3
ENDBRANCH   1   2
BRANCH   1  13
ATOM     13  C   UNL     1     -14.179 -12.058  -1.663  1.00  0.00     0.000 C 
BRANCH  13  14
ATOM     14  C   UNL     1     -13.265 -11.584  -0.522  1.00  0.00     0.000 C 
BRANCH  14  15
ATOM     15  C   UNL     1     -12.508 -12.739   0.156  1.00  0.00     0.000 C 
BRANCH  15  16
ATOM     16  C   UNL     1     -12.881 -12.894   1.639  1.00  0.00     0.000 C 
BRANCH  16  17
ATOM     17  C   UNL     1     -14.372 -12.617   1.907  1.00  0.00     0.000 C 
BRANCH  17  18
ATOM     18  C   UNL     1     -14.592 -11.873   3.242  1.00  0.00     0.000 C 
BRANCH  18  19
ATOM     19  C   UNL     1     -14.031 -10.441   3.251  1.00  0.00     0.000 C 
BRANCH  19  20
ATOM     20  C   UNL     1     -13.506 -10.011   4.629  1.00  0.00     0.006 C 
BRANCH  20  21
ATOM     21  C   UNL     1     -11.978 -10.103   4.724  1.00  0.00     0.053 C 
BRANCH  21  22
ATOM     22  C   UNL     1     -11.536 -11.367   5.398  1.00  0.00     0.041 C 
ATOM     23  O   UNL     1     -11.318 -12.404   4.717  1.00  0.00    -0.550 OA
ATOM     24  O   UNL     1     -11.321 -11.386   6.770  1.00  0.00    -0.550 OA
ENDBRANCH  21  22
ENDBRANCH  20  21
ENDBRANCH  19  20
ENDBRANCH  18  19
ENDBRANCH  17  18
ENDBRANCH  16  17
ENDBRANCH  15  16
ENDBRANCH  14  15
ENDBRANCH  13  14
ENDBRANCH   1  13
TORSDOF 20
ENDMDL
MODEL 3
REMARK VINA RESULT:    -4.067      3.937     10.576
REMARK INTER + INTRA:         -10.564
REMARK INTER:                  -8.926
REMARK INTRA:                  -1.638
REMARK UNBOUND:                -1.743
REMARK SMILES CCCCCCCCCCCCCCCCCCCCCC(=O)[O-]
REMARK SMILES IDX 12 1 11 2 10 3 9 4 8 5 7 6 6 7 5 8 4 9 3 10 2 11 1 12 13 13
REMARK SMILES IDX 14 14 15 15 16 16 17 17 18 18 19 19 20 20 21 21 22 22 23 23
REMARK SMILES IDX 24 24
REMARK H PARENT
REMARK Flexibility Score: inf
ROOT
ATOM      1  C   UNL     1     -10.407 -13.085  -2.401  1.00  0.00     0.000 C 
ENDROOT
BRANCH   1   2
ATOM      2  C   UNL     1      -8.905 -13.039  -2.726  1.00  0.00     0.000 C 
BRANCH   2   3
ATOM      3  C   UNL     1      -8.558 -13.806  -4.013  1.00  0.00     0.000 C 
BRANCH   3   4
ATOM      4  C   UNL     1      -7.042 -13.989  -4.206  1.00  0.00    -0.000 C 
BRANCH   4   5
ATOM      5  C   UNL     1      -6.215 -12.691  -4.107  1.00  0.00    -0.000 C 
BRANCH   5   6
ATOM      6  C   UNL     1      -5.695 -12.140  -5.451  1.00  0.00    -0.000 C 
BRANCH   6   7
ATOM      7  C   UNL     1      -4.682 -13.040  -6.180  1.00  0.00    -0.000 C 
BRANCH   7   8
ATOM      8  C   UNL     1      -5.236 -13.621  -7.493  1.00  0.00    -0.000 C 
BRANCH   8   9
ATOM      9  C   UNL     1      -6.173 -12.647  -8.228  1.00  0.00    -0.000 C 
BRANCH   9  10
ATOM     10  C   UNL     1      -7.647 -13.087  -8.311  1.00  0.00    -0.000 C 
BRANCH  10  11
ATOM     11  C   UNL     1      -8.671 -12.006  -7.921  1.00  0.00    -0.003 C 
ATOM     12  C   UNL     1      -9.902 -12.577  -7.218  1.00  0.00     0.004 C 
ENDBRANCH  10  11
ENDBRANCH   9  10
ENDBRANCH   8   9
ENDBRANCH   7   8
ENDBRANCH   6   7
ENDBRANCH   5   6
ENDBRANCH   4   5
ENDBRANCH   3   4
ENDBRANCH   2   3
ENDBRANCH   1   2
BRANCH   1  13
ATOM     13  C   UNL     1     -10.692 -13.735  -1.035  1.00  0.00     0.000 C 
BRANCH  13  14
ATOM     14  C   UNL     1     -12.190 -13.774  -0.694  1.00  0.00     0.000 C 
BRANCH  14  15
ATOM     15  C   UNL     1     -12.957 -12.555  -1.237  1.00  0.00     0.000 C 
BRANCH  15  16
ATOM     16  C   UNL     1     -13.262 -11.520  -0.142  1.00  0.00     0.000 C 
BRANCH  16  17
ATOM     17  C   UNL     1     -13.113 -12.096   1.278  1.00  0.00     0.000 C 
BRANCH  17  18
ATOM     18  C   UNL     1     -14.445 -12.072   2.056  1.00  0.00     0.000 C 
BRANCH  18  19
ATOM     19  C   UNL     1     -14.437 -11.124   3.267  1.00  0.00     0.000 C 
BRANCH  19  20
ATOM     20  C   UNL     1     -13.033 -10.602   3.611  1.00  0.00     0.006 C 
BRANCH  20  21
ATOM     21  C   UNL     1     -12.940 -10.091   5.055  1.00  0.00     0.053 C 
BRANCH  21  22
ATOM     22  C   UNL     1     -11.653 -10.495   5.707  1.00  0.00     0.041 C 
ATOM     23  O   UNL     1     -10.559 -10.330   5.104  1.00  0.00    -0.550 OA
ATOM     24  O   UNL     1     -11.657 -11.010   6.997  1.00  0.00    -0.550 OA
ENDBRANCH  21  22
ENDBRANCH  20  21
ENDBRANCH  19  20
ENDBRANCH  18  19
ENDBRANCH  17  18
ENDBRANCH  16  17
ENDBRANCH  15  16
ENDBRANCH  14  15
ENDBRANCH  13  14
ENDBRANCH   1  13
TORSDOF 20
ENDMDL
MODEL 4
REMARK VINA RESULT:    -4.064      1.241      2.247
REMARK INTER + INTRA:         -10.559
REMARK INTER:                  -8.855
REMARK INTRA:                  -1.705
REMARK UNBOUND:                -1.743
REMARK SMILES CCCCCCCCCCCCCCCCCCCCCC(=O)[O-]
REMARK SMILES IDX 12 1 11 2 10 3 9 4 8 5 7 6 6 7 5 8 4 9 3 10 2 11 1 12 13 13
REMARK SMILES IDX 14 14 15 15 16 16 17 17 18 18 19 19 20 20 21 21 22 22 23 23
REMARK SMILES IDX 24 24
REMARK H PARENT
REMARK Flexibility Score: inf
ROOT
ATOM      1  C   UNL     1      -9.766 -13.564  -3.409  1.00  0.00     0.000 C 
ENDROOT
BRANCH   1   2
ATOM      2  C   UNL     1     -10.054 -13.020  -2.000  1.00  0.00     0.000 C 
BRANCH   2   3
ATOM      3  C   UNL     1     -10.820 -14.027  -1.125  1.00  0.00     0.000 C 
BRANCH   3   4
ATOM      4  C   UNL     1     -12.345 -13.938  -1.313  1.00  0.00    -0.000 C 
BRANCH   4   5
ATOM      5  C   UNL     1     -12.889 -12.510  -1.522  1.00  0.00    -0.000 C 
BRANCH   5   6
ATOM      6  C   UNL     1     -13.646 -11.911  -0.319  1.00  0.00    -0.000 C 
BRANCH   6   7
ATOM      7  C   UNL     1     -12.833 -11.819   0.986  1.00  0.00    -0.000 C 
BRANCH   7   8
ATOM      8  C   UNL     1     -13.672 -11.327   2.178  1.00  0.00    -0.000 C 
BRANCH   8   9
ATOM      9  C   UNL     1     -12.900 -11.365   3.508  1.00  0.00    -0.000 C 
BRANCH   9  10
ATOM     10  C   UNL     1     -12.667  -9.995   4.174  1.00  0.00    -0.000 C 
BRANCH  10  11
ATOM     11  C   UNL     1     -13.214  -9.868   5.607  1.00  0.00    -0.003 C 
ATOM     12  C   UNL     1     -12.116  -9.661   6.648  1.00  0.00     0.004 C 
ENDBRANCH  10  11
ENDBRANCH   9  10
ENDBRANCH   8   9
ENDBRANCH   7   8
ENDBRANCH   6   7
ENDBRANCH   5   6
ENDBRANCH   4   5
ENDBRANCH   3   4
ENDBRANCH   2   3
ENDBRANCH   1   2
BRANCH   1  13
ATOM     13  C   UNL     1      -8.273 -13.874  -3.623  1.00  0.00     0.000 C 
BRANCH  13  14
ATOM     14  C   UNL     1      -7.369 -12.659  -3.362  1.00  0.00     0.000 C 
BRANCH  14  15
ATOM     15  C   UNL     1      -6.121 -12.640  -4.261  1.00  0.00     0.000 C 
BRANCH  15  16
ATOM     16  C   UNL     1      -5.411 -14.003  -4.308  1.00  0.00     0.000 C 
BRANCH  16  17
ATOM     17  C   UNL     1      -4.368 -14.090  -5.437  1.00  0.00     0.000 C 
BRANCH  17  18
ATOM     18  C   UNL     1      -4.628 -13.049  -6.547  1.00  0.00     0.000 C 
BRANCH  18  19
ATOM     19  C   UNL     1      -4.853 -13.669  -7.936  1.00  0.00     0.000 C 
BRANCH  19  20
ATOM     20  C   UNL     1      -6.265 -13.413  -8.486  1.00  0.00     0.006 C 
BRANCH  20  21
ATOM     21  C   UNL     1      -7.359 -13.889  -7.521  1.00  0.00     0.053 C 
BRANCH  21  22
ATOM     22  C   UNL     1      -8.361 -12.811  -7.239  1.00  0.00     0.041 C 
ATOM     23  O   UNL     1      -8.015 -11.599  -7.282  1.00  0.00    -0.550 OA
ATOM     24  O   UNL     1      -9.684 -13.140  -6.975  1.00  0.00    -0.550 OA
ENDBRANCH  21  22
ENDBRANCH  20  21
ENDBRANCH  19  20
ENDBRANCH  18  19
ENDBRANCH  17  18
ENDBRANCH  16  17
ENDBRANCH  15  16
ENDBRANCH  14  15
ENDBRANCH  13  14
ENDBRANCH   1  13
TORSDOF 20
ENDMDL
MODEL 5
REMARK VINA RESULT:    -4.057      1.255      2.608
REMARK INTER + INTRA:         -10.543
REMARK INTER:                  -9.101
REMARK INTRA:                  -1.442
REMARK UNBOUND:                -1.743
REMARK SMILES CCCCCCCCCCCCCCCCCCCCCC(=O)[O-]
REMARK SMILES IDX 12 1 11 2 10 3 9 4 8 5 7 6 6 7 5 8 4 9 3 10 2 11 1 12 13 13
REMARK SMILES IDX 14 14 15 15 16 16 17 17 18 18 19 19 20 20 21 21 22 22 23 23
REMARK SMILES IDX 24 24
REMARK H PARENT
REMARK Flexibility Score: inf
ROOT
ATOM      1  C   UNL     1     -11.827 -13.806  -0.648  1.00  0.00     0.000 C 
ENDROOT
BRANCH   1   2
ATOM      2  C   UNL     1     -12.090 -12.327  -0.322  1.00  0.00     0.000 C 
BRANCH   2   3
ATOM      3  C   UNL     1     -13.496 -12.092   0.256  1.00  0.00     0.000 C 
BRANCH   3   4
ATOM      4  C   UNL     1     -13.468 -11.671   1.737  1.00  0.00    -0.000 C 
BRANCH   4   5
ATOM      5  C   UNL     1     -12.896 -12.731   2.700  1.00  0.00    -0.000 C 
BRANCH   5   6
ATOM      6  C   UNL     1     -12.945 -12.355   4.195  1.00  0.00    -0.000 C 
BRANCH   6   7
ATOM      7  C   UNL     1     -11.685 -11.655   4.736  1.00  0.00    -0.000 C 
BRANCH   7   8
ATOM      8  C   UNL     1     -11.799 -10.121   4.717  1.00  0.00    -0.000 C 
BRANCH   8   9
ATOM      9  C   UNL     1     -13.178  -9.619   5.180  1.00  0.00    -0.000 C 
BRANCH   9  10
ATOM     10  C   UNL     1     -13.495  -9.842   6.671  1.00  0.00    -0.000 C 
BRANCH  10  11
ATOM     11  C   UNL     1     -12.525  -9.162   7.652  1.00  0.00    -0.003 C 
ATOM     12  C   UNL     1     -11.725 -10.159   8.489  1.00  0.00     0.004 C 
ENDBRANCH  10  11
ENDBRANCH   9  10
ENDBRANCH   8   9
ENDBRANCH   7   8
ENDBRANCH   6   7
ENDBRANCH   5   6
ENDBRANCH   4   5
ENDBRANCH   3   4
ENDBRANCH   2   3
ENDBRANCH   1   2
BRANCH   1  13
ATOM     13  C   UNL     1     -12.012 -14.118  -2.144  1.00  0.00     0.000 C 
BRANCH  13  14
ATOM     14  C   UNL     1     -11.395 -13.046  -3.057  1.00  0.00     0.000 C 
BRANCH  14  15
ATOM     15  C   UNL     1     -10.187 -13.567  -3.856  1.00  0.00     0.000 C 
BRANCH  15  16
ATOM     16  C   UNL     1      -8.861 -13.387  -3.097  1.00  0.00     0.000 C 
BRANCH  16  17
ATOM     17  C   UNL     1      -7.637 -13.796  -3.937  1.00  0.00     0.000 C 
BRANCH  17  18
ATOM     18  C   UNL     1      -6.523 -12.729  -3.896  1.00  0.00     0.000 C 
BRANCH  18  19
ATOM     19  C   UNL     1      -5.512 -12.846  -5.049  1.00  0.00     0.000 C 
BRANCH  19  20
ATOM     20  C   UNL     1      -5.828 -11.905  -6.222  1.00  0.00     0.006 C 
BRANCH  20  21
ATOM     21  C   UNL     1      -6.436 -12.650  -7.417  1.00  0.00     0.053 C 
BRANCH  21  22
ATOM     22  C   UNL     1      -7.758 -12.073  -7.821  1.00  0.00     0.041 C 
ATOM     23  O   UNL     1      -7.885 -11.502  -8.937  1.00  0.00    -0.550 OA
ATOM     24  O   UNL     1      -8.861 -12.206  -6.986  1.00  0.00    -0.550 OA
ENDBRANCH  21  22
ENDBRANCH  20  21
ENDBRANCH  19  20
ENDBRANCH  18  19
ENDBRANCH  17  18
ENDBRANCH  16  17
ENDBRANCH  15  16
ENDBRANCH  14  15
ENDBRANCH  13  14
ENDBRANCH   1  13
TORSDOF 20
ENDMDL
MODEL 6
REMARK VINA RESULT:    -4.033      1.824      4.164
REMARK INTER + INTRA:         -10.491
REMARK INTER:                  -9.054
REMARK INTRA:                  -1.438
REMARK UNBOUND:                -1.743
REMARK SMILES CCCCCCCCCCCCCCCCCCCCCC(=O)[O-]
REMARK SMILES IDX 12 1 11 2 10 3 9 4 8 5 7 6 6 7 5 8 4 9 3 10 2 11 1 12 13 13
REMARK SMILES IDX 14 14 15 15 16 16 17 17 18 18 19 19 20 20 21 21 22 22 23 23
REMARK SMILES IDX 24 24
REMARK H PARENT
REMARK Flexibility Score: inf
ROOT
ATOM      1  C   UNL     1     -13.345 -11.501  -0.726  1.00  0.00     0.000 C 
ENDROOT
BRANCH   1   2
ATOM      2  C   UNL     1     -12.861 -12.181   0.565  1.00  0.00     0.000 C 
BRANCH   2   3
ATOM      3  C   UNL     1     -14.010 -12.467   1.547  1.00  0.00     0.000 C 
BRANCH   3   4
ATOM      4  C   UNL     1     -13.575 -12.360   3.019  1.00  0.00    -0.000 C 
BRANCH   4   5
ATOM      5  C   UNL     1     -12.828 -11.060   3.380  1.00  0.00    -0.000 C 
BRANCH   5   6
ATOM      6  C   UNL     1     -13.695  -9.964   4.034  1.00  0.00    -0.000 C 
BRANCH   6   7
ATOM      7  C   UNL     1     -13.444  -9.739   5.536  1.00  0.00    -0.000 C 
BRANCH   7   8
ATOM      8  C   UNL     1     -11.959  -9.863   5.918  1.00  0.00    -0.000 C 
BRANCH   8   9
ATOM      9  C   UNL     1     -11.699  -9.570   7.406  1.00  0.00    -0.000 C 
BRANCH   9  10
ATOM     10  C   UNL     1     -12.833  -9.976   8.367  1.00  0.00    -0.000 C 
BRANCH  10  11
ATOM     11  C   UNL     1     -13.135  -8.961   9.483  1.00  0.00    -0.003 C 
ATOM     12  C   UNL     1     -13.155  -7.516   8.985  1.00  0.00     0.004 C 
ENDBRANCH  10  11
ENDBRANCH   9  10
ENDBRANCH   8   9
ENDBRANCH   7   8
ENDBRANCH   6   7
ENDBRANCH   5   6
ENDBRANCH   4   5
ENDBRANCH   3   4
ENDBRANCH   2   3
ENDBRANCH   1   2
BRANCH   1  13
ATOM     13  C   UNL     1     -13.884 -12.512  -1.754  1.00  0.00     0.000 C 
BRANCH  13  14
ATOM     14  C   UNL     1     -13.328 -12.279  -3.168  1.00  0.00     0.000 C 
BRANCH  14  15
ATOM     15  C   UNL     1     -11.883 -12.781  -3.331  1.00  0.00     0.000 C 
BRANCH  15  16
ATOM     16  C   UNL     1     -11.608 -14.052  -2.510  1.00  0.00     0.000 C 
BRANCH  16  17
ATOM     17  C   UNL     1     -10.264 -13.993  -1.760  1.00  0.00     0.000 C 
BRANCH  17  18
ATOM     18  C   UNL     1      -9.334 -12.898  -2.323  1.00  0.00     0.000 C 
BRANCH  18  19
ATOM     19  C   UNL     1      -8.254 -13.435  -3.278  1.00  0.00     0.000 C 
BRANCH  19  20
ATOM     20  C   UNL     1      -6.987 -12.566  -3.300  1.00  0.00     0.006 C 
BRANCH  20  21
ATOM     21  C   UNL     1      -5.909 -13.134  -4.233  1.00  0.00     0.053 C 
BRANCH  21  22
ATOM     22  C   UNL     1      -5.732 -12.292  -5.459  1.00  0.00     0.041 C 
ATOM     23  O   UNL     1      -6.173 -11.111  -5.484  1.00  0.00    -0.550 OA
ATOM     24  O   UNL     1      -5.041 -12.792  -6.555  1.00  0.00    -0.550 OA
ENDBRANCH  21  22
ENDBRANCH  20  21
ENDBRANCH  19  20
ENDBRANCH  18  19
ENDBRANCH  17  18
ENDBRANCH  16  17
ENDBRANCH  15  16
ENDBRANCH  14  15
ENDBRANCH  13  14
ENDBRANCH   1  13
TORSDOF 20
ENDMDL
MODEL 7
REMARK VINA RESULT:    -3.943      3.832      9.622
REMARK INTER + INTRA:         -10.297
REMARK INTER:                  -8.076
REMARK INTRA:                  -2.221
REMARK UNBOUND:                -1.743
REMARK SMILES CCCCCCCCCCCCCCCCCCCCCC(=O)[O-]
REMARK SMILES IDX 12 1 11 2 10 3 9 4 8 5 7 6 6 7 5 8 4 9 3 10 2 11 1 12 13 13
REMARK SMILES IDX 14 14 15 15 16 16 17 17 18 18 19 19 20 20 21 21 22 22 23 23
REMARK SMILES IDX 24 24
REMARK H PARENT
REMARK Flexibility Score: inf
ROOT
ATOM      1  C   UNL     1      -8.326 -12.614  -2.476  1.00  0.00     0.000 C 
ENDROOT
BRANCH   1   2
ATOM      2  C   UNL     1      -7.138 -12.251  -3.382  1.00  0.00     0.000 C 
BRANCH   2   3
ATOM      3  C   UNL     1      -6.359 -13.490  -3.856  1.00  0.00     0.000 C 
BRANCH   3   4
ATOM      4  C   UNL     1      -5.401 -13.180  -5.020  1.00  0.00    -0.000 C 
BRANCH   4   5
ATOM      5  C   UNL     1      -5.817 -11.985  -5.901  1.00  0.00    -0.000 C 
BRANCH   5   6
ATOM      6  C   UNL     1      -6.443 -12.356  -7.260  1.00  0.00    -0.000 C 
BRANCH   6   7
ATOM      7  C   UNL     1      -7.605 -13.365  -7.193  1.00  0.00    -0.000 C 
BRANCH   7   8
ATOM      8  C   UNL     1      -8.946 -12.708  -6.828  1.00  0.00    -0.000 C 
BRANCH   8   9
ATOM      9  C   UNL     1     -10.104 -13.718  -6.748  1.00  0.00    -0.000 C 
BRANCH   9  10
ATOM     10  C   UNL     1     -11.517 -13.103  -6.759  1.00  0.00    -0.000 C 
BRANCH  10  11
ATOM     11  C   UNL     1     -11.829 -12.169  -5.576  1.00  0.00    -0.003 C 
ATOM     12  C   UNL     1     -12.908 -12.724  -4.647  1.00  0.00     0.004 C 
ENDBRANCH  10  11
ENDBRANCH   9  10
ENDBRANCH   8   9
ENDBRANCH   7   8
ENDBRANCH   6   7
ENDBRANCH   5   6
ENDBRANCH   4   5
ENDBRANCH   3   4
ENDBRANCH   2   3
ENDBRANCH   1   2
BRANCH   1  13
ATOM     13  C   UNL     1      -9.344 -13.528  -3.182  1.00  0.00     0.000 C 
BRANCH  13  14
ATOM     14  C   UNL     1     -10.399 -14.098  -2.222  1.00  0.00     0.000 C 
BRANCH  14  15
ATOM     15  C   UNL     1     -10.953 -13.042  -1.248  1.00  0.00     0.000 C 
BRANCH  15  16
ATOM     16  C   UNL     1     -12.409 -13.325  -0.844  1.00  0.00     0.000 C 
BRANCH  16  17
ATOM     17  C   UNL     1     -13.241 -12.039  -0.689  1.00  0.00     0.000 C 
BRANCH  17  18
ATOM     18  C   UNL     1     -13.213 -11.501   0.757  1.00  0.00     0.000 C 
BRANCH  18  19
ATOM     19  C   UNL     1     -13.188 -12.606   1.827  1.00  0.00     0.000 C 
BRANCH  19  20
ATOM     20  C   UNL     1     -13.522 -12.087   3.234  1.00  0.00     0.006 C 
BRANCH  20  21
ATOM     21  C   UNL     1     -13.072 -10.635   3.440  1.00  0.00     0.053 C 
BRANCH  21  22
ATOM     22  C   UNL     1     -12.314 -10.463   4.721  1.00  0.00     0.041 C 
ATOM     23  O   UNL     1     -12.805 -10.875   5.807  1.00  0.00    -0.550 OA
ATOM     24  O   UNL     1     -11.048  -9.892   4.711  1.00  0.00    -0.550 OA
ENDBRANCH  21  22
ENDBRANCH  20  21
ENDBRANCH  19  20
ENDBRANCH  18  19
ENDBRANCH  17  18
ENDBRANCH  16  17
ENDBRANCH  15  16
ENDBRANCH  14  15
ENDBRANCH  13  14
ENDBRANCH   1  13
TORSDOF 20
ENDMDL
MODEL 8
REMARK VINA RESULT:    -3.937      4.035     10.241
REMARK INTER + INTRA:         -10.284
REMARK INTER:                  -8.504
REMARK INTRA:                  -1.780
REMARK UNBOUND:                -1.743
REMARK SMILES CCCCCCCCCCCCCCCCCCCCCC(=O)[O-]
REMARK SMILES IDX 12 1 11 2 10 3 9 4 8 5 7 6 6 7 5 8 4 9 3 10 2 11 1 12 13 13
REMARK SMILES IDX 14 14 15 15 16 16 17 17 18 18 19 19 20 20 21 21 22 22 23 23
REMARK SMILES IDX 24 24
REMARK H PARENT
REMARK Flexibility Score: inf
ROOT
ATOM      1  C   UNL     1     -10.434 -13.570  -3.653  1.00  0.00     0.000 C 
ENDROOT
BRANCH   1   2
ATOM      2  C   UNL     1      -9.734 -13.042  -2.389  1.00  0.00     0.000 C 
BRANCH   2   3
ATOM      3  C   UNL     1      -8.290 -12.586  -2.663  1.00  0.00     0.000 C 
BRANCH   3   4
ATOM      4  C   UNL     1      -7.643 -13.337  -3.841  1.00  0.00    -0.000 C 
BRANCH   4   5
ATOM      5  C   UNL     1      -6.140 -13.059  -4.038  1.00  0.00    -0.000 C 
BRANCH   5   6
ATOM      6  C   UNL     1      -5.777 -12.285  -5.322  1.00  0.00    -0.000 C 
BRANCH   6   7
ATOM      7  C   UNL     1      -4.654 -12.911  -6.170  1.00  0.00    -0.000 C 
BRANCH   7   8
ATOM      8  C   UNL     1      -4.974 -12.918  -7.674  1.00  0.00    -0.000 C 
BRANCH   8   9
ATOM      9  C   UNL     1      -6.434 -13.303  -7.972  1.00  0.00    -0.000 C 
BRANCH   9  10
ATOM     10  C   UNL     1      -7.268 -12.221  -8.685  1.00  0.00    -0.000 C 
BRANCH  10  11
ATOM     11  C   UNL     1      -8.542 -11.787  -7.940  1.00  0.00    -0.003 C 
ATOM     12  C   UNL     1      -9.197 -12.928  -7.162  1.00  0.00     0.004 C 
ENDBRANCH  10  11
ENDBRANCH   9  10
ENDBRANCH   8   9
ENDBRANCH   7   8
ENDBRANCH   6   7
ENDBRANCH   5   6
ENDBRANCH   4   5
ENDBRANCH   3   4
ENDBRANCH   2   3
ENDBRANCH   1   2
BRANCH   1  13
ATOM     13  C   UNL     1     -11.684 -12.748  -4.017  1.00  0.00     0.000 C 
BRANCH  13  14
ATOM     14  C   UNL     1     -12.978 -13.347  -3.443  1.00  0.00     0.000 C 
BRANCH  14  15
ATOM     15  C   UNL     1     -14.033 -12.278  -3.108  1.00  0.00     0.000 C 
BRANCH  15  16
ATOM     16  C   UNL     1     -14.360 -12.227  -1.606  1.00  0.00     0.000 C 
BRANCH  16  17
ATOM     17  C   UNL     1     -13.264 -11.524  -0.785  1.00  0.00     0.000 C 
BRANCH  17  18
ATOM     18  C   UNL     1     -12.929 -12.292   0.511  1.00  0.00     0.000 C 
BRANCH  18  19
ATOM     19  C   UNL     1     -13.846 -11.939   1.694  1.00  0.00     0.000 C 
BRANCH  19  20
ATOM     20  C   UNL     1     -13.120 -11.165   2.806  1.00  0.00     0.006 C 
BRANCH  20  21
ATOM     21  C   UNL     1     -12.354 -12.094   3.756  1.00  0.00     0.053 C 
BRANCH  21  22
ATOM     22  C   UNL     1     -12.082 -11.441   5.076  1.00  0.00     0.041 C 
ATOM     23  O   UNL     1     -10.996 -11.658   5.678  1.00  0.00    -0.550 OA
ATOM     24  O   UNL     1     -13.005 -10.555   5.619  1.00  0.00    -0.550 OA
ENDBRANCH  21  22
ENDBRANCH  20  21
ENDBRANCH  19  20
ENDBRANCH  18  19
ENDBRANCH  17  18
ENDBRANCH  16  17
ENDBRANCH  15  16
ENDBRANCH  14  15
ENDBRANCH  13  14
ENDBRANCH   1  13
TORSDOF 20
ENDMDL
MODEL 9
REMARK VINA RESULT:    -3.842      7.001     12.012
REMARK INTER + INTRA:         -10.078
REMARK INTER:                  -6.779
REMARK INTRA:                  -3.299
REMARK UNBOUND:                -1.743
REMARK SMILES CCCCCCCCCCCCCCCCCCCCCC(=O)[O-]
REMARK SMILES IDX 12 1 11 2 10 3 9 4 8 5 7 6 6 7 5 8 4 9 3 10 2 11 1 12 13 13
REMARK SMILES IDX 14 14 15 15 16 16 17 17 18 18 19 19 20 20 21 21 22 22 23 23
REMARK SMILES IDX 24 24
REMARK H PARENT
REMARK Flexibility Score: inf
ROOT
ATOM      1  C   UNL     1     -11.496  -9.993   5.174  1.00  0.00     0.000 C 
ENDROOT
BRANCH   1   2
ATOM      2  C   UNL     1     -12.512 -10.092   4.025  1.00  0.00     0.000 C 
BRANCH   2   3
ATOM      3  C   UNL     1     -13.921  -9.636   4.444  1.00  0.00     0.000 C 
BRANCH   3   4
ATOM      4  C   UNL     1     -14.998 -10.698   4.159  1.00  0.00    -0.000 C 
BRANCH   4   5
ATOM      5  C   UNL     1     -14.943 -11.938   5.073  1.00  0.00    -0.000 C 
BRANCH   5   6
ATOM      6  C   UNL     1     -14.510 -13.246   4.381  1.00  0.00    -0.000 C 
BRANCH   6   7
ATOM      7  C   UNL     1     -12.995 -13.523   4.390  1.00  0.00    -0.000 C 
BRANCH   7   8
ATOM      8  C   UNL     1     -12.394 -13.600   2.976  1.00  0.00    -0.000 C 
BRANCH   8   9
ATOM      9  C   UNL     1     -13.422 -13.298   1.872  1.00  0.00    -0.000 C 
BRANCH   9  10
ATOM     10  C   UNL     1     -13.164 -12.011   1.064  1.00  0.00    -0.000 C 
BRANCH  10  11
ATOM     11  C   UNL     1     -12.742 -12.234  -0.398  1.00  0.00    -0.003 C 
ATOM     12  C   UNL     1     -13.624 -11.482  -1.394  1.00  0.00     0.004 C 
ENDBRANCH  10  11
ENDBRANCH   9  10
ENDBRANCH   8   9
ENDBRANCH   7   8
ENDBRANCH   6   7
ENDBRANCH   5   6
ENDBRANCH   4   5
ENDBRANCH   3   4
ENDBRANCH   2   3
ENDBRANCH   1   2
BRANCH   1  13
ATOM     13  C   UNL     1     -12.143 -10.226   6.551  1.00  0.00     0.000 C 
BRANCH  13  14
ATOM     14  C   UNL     1     -11.777  -9.138   7.574  1.00  0.00     0.000 C 
BRANCH  14  15
ATOM     15  C   UNL     1     -12.999  -8.601   8.338  1.00  0.00     0.000 C 
BRANCH  15  16
ATOM     16  C   UNL     1     -14.318  -9.214   7.838  1.00  0.00     0.000 C 
BRANCH  16  17
ATOM     17  C   UNL     1     -15.102  -9.926   8.955  1.00  0.00     0.000 C 
BRANCH  17  18
ATOM     18  C   UNL     1     -14.765 -11.430   9.030  1.00  0.00     0.000 C 
BRANCH  18  19
ATOM     19  C   UNL     1     -14.255 -11.881  10.409  1.00  0.00     0.000 C 
BRANCH  19  20
ATOM     20  C   UNL     1     -12.774 -11.541  10.643  1.00  0.00     0.006 C 
BRANCH  20  21
ATOM     21  C   UNL     1     -11.853 -12.231   9.628  1.00  0.00     0.053 C 
BRANCH  21  22
ATOM     22  C   UNL     1     -10.406 -11.984   9.932  1.00  0.00     0.041 C 
ATOM     23  O   UNL     1      -9.599 -12.950   9.992  1.00  0.00    -0.550 OA
ATOM     24  O   UNL     1      -9.941 -10.686  10.100  1.00  0.00    -0.550 OA
ENDBRANCH  21  22
ENDBRANCH  20  21
ENDBRANCH  19  20
ENDBRANCH  18  19
ENDBRANCH  17  18
ENDBRANCH  16  17
ENDBRANCH  15  16
ENDBRANCH  14  15
ENDBRANCH  13  14
ENDBRANCH   1  13
TORSDOF 20
ENDMDL
