MODEL 1
REMARK VINA RESULT:    12.502      0.000      0.000
REMARK INTER + INTRA:          13.849
REMARK INTER:                  13.598
REMARK INTRA:                   0.251
REMARK UNBOUND:                 0.251
REMARK SMILES CC1(C)CC[C@@]2(C(=O)[O-])CC[C@@]3(C)C(=CC[C@@H]4[C@@]5(C)CC[C@@H](O)C(C)(C)[C@@H]5CC[C@]43C)[C@H]2C1
REMARK SMILES IDX 6 1 5 2 10 3 32 4 4 5 11 6 14 7 33 8 2 9 12 10 15 11 1 12
REMARK SMILES IDX 3 13 13 14 30 15 16 16 17 17 29 18 31 19 18 20 28 21 27 22
REMARK SMILES IDX 20 23 19 24 24 25 21 26 22 27 25 28 26 29 7 30 8 31 9 32
REMARK SMILES IDX 23 33
REMARK H PARENT 23 34
REMARK Flexibility Score: inf
ROOT
ATOM      1  C   UNL     1      21.179  34.895  27.286  1.00  0.00     0.017 C 
ATOM      2  C   UNL     1      21.981  35.477  26.058  1.00  0.00     0.014 C 
ATOM      3  C   UNL     1      20.818  36.071  28.233  1.00  0.00     0.014 C 
ATOM      4  C   UNL     1      19.877  34.173  26.793  1.00  0.00     0.028 C 
ATOM      5  C   UNL     1      21.699  34.717  24.758  1.00  0.00     0.007 C 
ATOM      6  C   UNL     1      19.836  35.701  29.372  1.00  0.00     0.013 C 
ATOM      7  C   UNL     1      18.887  33.895  27.936  1.00  0.00    -0.064 C 
ATOM      8  C   UNL     1      19.244  34.872  25.567  1.00  0.00     0.015 C 
ATOM      9  C   UNL     1      20.198  34.836  24.327  1.00  0.00    -0.035 C 
ATOM     10  C   UNL     1      18.484  35.035  28.916  1.00  0.00    -0.006 C 
ATOM     11  C   UNL     1      18.656  32.582  28.217  1.00  0.00    -0.027 C 
ATOM     12  C   UNL     1      19.999  36.125  23.496  1.00  0.00     0.011 C 
ATOM     13  C   UNL     1      19.835  33.629  23.424  1.00  0.00     0.011 C 
ATOM     14  C   UNL     1      17.660  36.125  28.160  1.00  0.00     0.017 C 
ATOM     15  C   UNL     1      17.615  34.479  30.177  1.00  0.00    -0.020 C 
ATOM     16  C   UNL     1      18.058  32.064  29.493  1.00  0.00     0.032 C 
ATOM     17  C   UNL     1      18.233  33.095  30.642  1.00  0.00     0.006 C 
ATOM     18  C   UNL     1      17.615  35.504  31.363  1.00  0.00     0.008 C 
ATOM     19  C   UNL     1      16.123  34.268  29.747  1.00  0.00     0.012 C 
ATOM     20  C   UNL     1      17.868  32.539  32.105  1.00  0.00    -0.025 C 
ATOM     21  C   UNL     1      17.095  34.933  32.683  1.00  0.00     0.005 C 
ATOM     22  C   UNL     1      17.982  33.740  33.117  1.00  0.00     0.003 C 
ATOM     23  C   UNL     1      18.929  31.422  32.488  1.00  0.00     0.010 C 
ATOM     24  C   UNL     1      16.447  31.878  32.181  1.00  0.00     0.012 C 
ATOM     25  C   UNL     1      17.950  33.389  34.668  1.00  0.00    -0.006 C 
ATOM     26  C   UNL     1      19.728  31.693  33.770  1.00  0.00     0.033 C 
ATOM     27  C   UNL     1      18.812  32.085  34.954  1.00  0.00     0.120 C 
ATOM     28  C   UNL     1      16.504  33.174  35.199  1.00  0.00     0.014 C 
ATOM     29  C   UNL     1      18.521  34.605  35.469  1.00  0.00     0.014 C 
ENDROOT
BRANCH   1  30
ATOM     30  C   UNL     1      22.077  33.923  28.057  1.00  0.00     0.048 C 
ATOM     31  O   UNL     1      22.924  33.206  27.456  1.00  0.00    -0.550 OA
ATOM     32  O   UNL     1      21.897  33.729  29.428  1.00  0.00    -0.550 OA
ENDBRANCH   1  30
BRANCH  27  33
ATOM     33  O   UNL     1      19.591  32.189  36.125  1.00  0.00    -0.393 OA
ATOM     34  H   UNL     1      20.477  31.762  35.936  1.00  0.00     0.210 HD
ENDBRANCH  27  33
TORSDOF 2
ENDMDL
