MODEL 1
REMARK VINA RESULT:    -6.650      0.000      0.000
REMARK INTER + INTRA:          -7.891
REMARK INTER:                  -8.205
REMARK INTRA:                   0.313
REMARK UNBOUND:                 0.313
REMARK SMILES COc1cc(-c2oc3cc(O)cc(O)c3c(=O)c2O)ccc1O
REMARK SMILES IDX 6 1 18 2 16 3 17 4 15 5 13 6 12 7 10 8 9 9 8 10 7 11 5 12
REMARK SMILES IDX 3 13 22 14 4 15 21 16 20 17 2 18 1 19 23 20 19 22 14 24
REMARK SMILES IDX 11 26
REMARK H PARENT 23 21 19 23 14 25 11 27
REMARK Flexibility Score: inf
ROOT
ATOM      1  C   UNL     1     -14.064 -13.241 -12.529  1.00  0.00     0.180 A 
ATOM      2  C   UNL     1     -13.872 -12.194 -13.448  1.00  0.00     0.208 A 
ATOM      3  C   UNL     1     -13.821 -12.492 -14.819  1.00  0.00     0.238 A 
ATOM      4  O   UNL     1     -13.705 -11.545 -15.639  1.00  0.00    -0.285 OA
ATOM      5  C   UNL     1     -13.945 -13.834 -15.254  1.00  0.00     0.111 A 
ATOM      6  C   UNL     1     -13.868 -14.255 -16.616  1.00  0.00     0.134 A 
ATOM      7  C   UNL     1     -14.135 -15.590 -16.941  1.00  0.00     0.093 A 
ATOM      8  C   UNL     1     -14.411 -16.533 -15.948  1.00  0.00     0.123 A 
ATOM      9  C   UNL     1     -14.430 -16.144 -14.611  1.00  0.00     0.094 A 
ATOM     10  C   UNL     1     -14.204 -14.811 -14.257  1.00  0.00     0.146 A 
ATOM     11  O   UNL     1     -14.242 -14.481 -12.972  1.00  0.00    -0.452 OA
ENDROOT
BRANCH   1  12
ATOM     12  C   UNL     1     -14.105 -13.010 -11.068  1.00  0.00     0.025 A 
ATOM     13  C   UNL     1     -14.637 -13.827  -8.826  1.00  0.00     0.161 A 
ATOM     14  C   UNL     1     -14.144 -12.634  -8.280  1.00  0.00     0.157 A 
ATOM     15  C   UNL     1     -14.608 -14.012 -10.222  1.00  0.00     0.062 A 
ATOM     16  C   UNL     1     -13.623 -11.640  -9.118  1.00  0.00     0.051 A 
ATOM     17  C   UNL     1     -13.597 -11.828 -10.502  1.00  0.00     0.016 A 
BRANCH  13  18
ATOM     18  O   UNL     1     -15.145 -14.802  -7.951  1.00  0.00    -0.493 OA
ATOM     19  C   UNL     1     -16.125 -15.771  -8.307  1.00  0.00     0.278 C 
ENDBRANCH  13  18
BRANCH  14  20
ATOM     20  O   UNL     1     -14.172 -12.443  -6.899  1.00  0.00    -0.504 OA
ATOM     21  H   UNL     1     -14.084 -13.220  -6.255  1.00  0.00     0.293 HD
ENDBRANCH  14  20
ENDBRANCH   1  12
BRANCH   2  22
ATOM     22  O   UNL     1     -13.774 -10.875 -12.999  1.00  0.00    -0.502 OA
ATOM     23  H   UNL     1     -13.936 -10.615 -12.033  1.00  0.00     0.293 HD
ENDBRANCH   2  22
BRANCH   6  24
ATOM     24  O   UNL     1     -13.509 -13.414 -17.673  1.00  0.00    -0.507 OA
ATOM     25  H   UNL     1     -12.648 -12.891 -17.724  1.00  0.00     0.293 HD
ENDBRANCH   6  24
BRANCH   8  26
ATOM     26  O   UNL     1     -14.660 -17.863 -16.280  1.00  0.00    -0.508 OA
ATOM     27  H   UNL     1     -15.100 -18.117 -17.157  1.00  0.00     0.293 HD
ENDBRANCH   8  26
TORSDOF 6
ENDMDL
MODEL 2
REMARK VINA RESULT:    -6.176      1.544      6.727
REMARK INTER + INTRA:          -7.307
REMARK INTER:                  -7.158
REMARK INTRA:                  -0.149
REMARK UNBOUND:                 0.313
REMARK SMILES COc1cc(-c2oc3cc(O)cc(O)c3c(=O)c2O)ccc1O
REMARK SMILES IDX 6 1 18 2 16 3 17 4 15 5 13 6 12 7 10 8 9 9 8 10 7 11 5 12
REMARK SMILES IDX 3 13 22 14 4 15 21 16 20 17 2 18 1 19 23 20 19 22 14 24
REMARK SMILES IDX 11 26
REMARK H PARENT 23 21 19 23 14 25 11 27
REMARK Flexibility Score: inf
ROOT
ATOM      1  C   UNL     1     -13.979 -13.880 -12.892  1.00  0.00     0.180 A 
ATOM      2  C   UNL     1     -13.872 -12.514 -12.581  1.00  0.00     0.208 A 
ATOM      3  C   UNL     1     -14.111 -12.095 -11.263  1.00  0.00     0.238 A 
ATOM      4  O   UNL     1     -13.961 -10.878 -10.978  1.00  0.00    -0.285 OA
ATOM      5  C   UNL     1     -14.472 -13.044 -10.275  1.00  0.00     0.111 A 
ATOM      6  C   UNL     1     -14.777 -12.726  -8.918  1.00  0.00     0.134 A 
ATOM      7  C   UNL     1     -14.993 -13.759  -7.999  1.00  0.00     0.093 A 
ATOM      8  C   UNL     1     -14.980 -15.097  -8.402  1.00  0.00     0.123 A 
ATOM      9  C   UNL     1     -14.742 -15.415  -9.736  1.00  0.00     0.094 A 
ATOM     10  C   UNL     1     -14.487 -14.407 -10.671  1.00  0.00     0.146 A 
ATOM     11  O   UNL     1     -14.254 -14.754 -11.931  1.00  0.00    -0.452 OA
ENDROOT
BRANCH   1  12
ATOM     12  C   UNL     1     -13.764 -14.396 -14.263  1.00  0.00     0.025 A 
ATOM     13  C   UNL     1     -12.662 -15.982 -15.762  1.00  0.00     0.161 A 
ATOM     14  C   UNL     1     -13.373 -15.445 -16.844  1.00  0.00     0.157 A 
ATOM     15  C   UNL     1     -12.867 -15.457 -14.471  1.00  0.00     0.062 A 
ATOM     16  C   UNL     1     -14.282 -14.400 -16.637  1.00  0.00     0.051 A 
ATOM     17  C   UNL     1     -14.483 -13.883 -15.356  1.00  0.00     0.016 A 
BRANCH  13  18
ATOM     18  O   UNL     1     -11.764 -17.034 -16.009  1.00  0.00    -0.493 OA
ATOM     19  C   UNL     1     -11.660 -18.208 -15.211  1.00  0.00     0.278 C 
ENDBRANCH  13  18
BRANCH  14  20
ATOM     20  O   UNL     1     -13.173 -15.958 -18.125  1.00  0.00    -0.504 OA
ATOM     21  H   UNL     1     -13.871 -15.856 -18.852  1.00  0.00     0.293 HD
ENDBRANCH  14  20
ENDBRANCH   1  12
BRANCH   2  22
ATOM     22  O   UNL     1     -13.493 -11.597 -13.565  1.00  0.00    -0.502 OA
ATOM     23  H   UNL     1     -12.753 -11.787 -14.230  1.00  0.00     0.293 HD
ENDBRANCH   2  22
BRANCH   6  24
ATOM     24  O   UNL     1     -14.906 -11.421  -8.433  1.00  0.00    -0.507 OA
ATOM     25  H   UNL     1     -15.309 -10.653  -8.948  1.00  0.00     0.293 HD
ENDBRANCH   6  24
BRANCH   8  26
ATOM     26  O   UNL     1     -15.212 -16.118  -7.483  1.00  0.00    -0.508 OA
ATOM     27  H   UNL     1     -15.107 -17.093  -7.737  1.00  0.00     0.293 HD
ENDBRANCH   8  26
TORSDOF 6
ENDMDL
MODEL 3
REMARK VINA RESULT:    -5.621      9.793     12.262
REMARK INTER + INTRA:          -6.622
REMARK INTER:                  -6.609
REMARK INTRA:                  -0.014
REMARK UNBOUND:                 0.313
REMARK SMILES COc1cc(-c2oc3cc(O)cc(O)c3c(=O)c2O)ccc1O
REMARK SMILES IDX 6 1 18 2 16 3 17 4 15 5 13 6 12 7 10 8 9 9 8 10 7 11 5 12
REMARK SMILES IDX 3 13 22 14 4 15 21 16 20 17 2 18 1 19 23 20 19 22 14 24
REMARK SMILES IDX 11 26
REMARK H PARENT 23 21 19 23 14 25 11 27
REMARK Flexibility Score: inf
ROOT
ATOM      1  C   UNL     1      -6.558 -12.257  -4.594  1.00  0.00     0.180 A 
ATOM      2  C   UNL     1      -6.487 -12.186  -5.997  1.00  0.00     0.208 A 
ATOM      3  C   UNL     1      -5.265 -11.849  -6.600  1.00  0.00     0.238 A 
ATOM      4  O   UNL     1      -5.194 -11.841  -7.856  1.00  0.00    -0.285 OA
ATOM      5  C   UNL     1      -4.134 -11.570  -5.795  1.00  0.00     0.111 A 
ATOM      6  C   UNL     1      -2.857 -11.179  -6.298  1.00  0.00     0.134 A 
ATOM      7  C   UNL     1      -1.777 -11.055  -5.417  1.00  0.00     0.093 A 
ATOM      8  C   UNL     1      -1.941 -11.245  -4.043  1.00  0.00     0.123 A 
ATOM      9  C   UNL     1      -3.197 -11.568  -3.535  1.00  0.00     0.094 A 
ATOM     10  C   UNL     1      -4.287 -11.734  -4.393  1.00  0.00     0.146 A 
ATOM     11  O   UNL     1      -5.465 -12.054  -3.869  1.00  0.00    -0.452 OA
ENDROOT
BRANCH   1  12
ATOM     12  C   UNL     1      -7.816 -12.583  -3.885  1.00  0.00     0.025 A 
ATOM     13  C   UNL     1      -9.549 -14.213  -3.323  1.00  0.00     0.161 A 
ATOM     14  C   UNL     1     -10.171 -13.261  -2.504  1.00  0.00     0.157 A 
ATOM     15  C   UNL     1      -8.366 -13.869  -4.006  1.00  0.00     0.062 A 
ATOM     16  C   UNL     1      -9.615 -11.983  -2.364  1.00  0.00     0.051 A 
ATOM     17  C   UNL     1      -8.442 -11.647  -3.043  1.00  0.00     0.016 A 
BRANCH  13  18
ATOM     18  O   UNL     1     -10.134 -15.485  -3.432  1.00  0.00    -0.493 OA
ATOM     19  C   UNL     1     -11.380 -15.748  -4.069  1.00  0.00     0.278 C 
ENDBRANCH  13  18
BRANCH  14  20
ATOM     20  O   UNL     1     -11.344 -13.594  -1.826  1.00  0.00    -0.504 OA
ATOM     21  H   UNL     1     -11.996 -12.884  -1.516  1.00  0.00     0.293 HD
ENDBRANCH  14  20
ENDBRANCH   1  12
BRANCH   2  22
ATOM     22  O   UNL     1      -7.609 -12.487  -6.773  1.00  0.00    -0.502 OA
ATOM     23  H   UNL     1      -8.370 -11.831  -6.907  1.00  0.00     0.293 HD
ENDBRANCH   2  22
BRANCH   6  24
ATOM     24  O   UNL     1      -2.607 -10.875  -7.640  1.00  0.00    -0.507 OA
ATOM     25  H   UNL     1      -1.713 -10.584  -8.006  1.00  0.00     0.293 HD
ENDBRANCH   6  24
BRANCH   8  26
ATOM     26  O   UNL     1      -0.863 -11.105  -3.171  1.00  0.00    -0.508 OA
ATOM     27  H   UNL     1      -0.218 -10.328  -3.247  1.00  0.00     0.293 HD
ENDBRANCH   8  26
TORSDOF 6
ENDMDL
MODEL 4
REMARK VINA RESULT:    -5.408      3.329      5.703
REMARK INTER + INTRA:          -6.359
REMARK INTER:                  -5.983
REMARK INTRA:                  -0.377
REMARK UNBOUND:                 0.313
REMARK SMILES COc1cc(-c2oc3cc(O)cc(O)c3c(=O)c2O)ccc1O
REMARK SMILES IDX 6 1 18 2 16 3 17 4 15 5 13 6 12 7 10 8 9 9 8 10 7 11 5 12
REMARK SMILES IDX 3 13 22 14 4 15 21 16 20 17 2 18 1 19 23 20 19 22 14 24
REMARK SMILES IDX 11 26
REMARK H PARENT 23 21 19 23 14 25 11 27
REMARK Flexibility Score: inf
ROOT
ATOM      1  C   UNL     1     -12.886 -16.623 -14.069  1.00  0.00     0.180 A 
ATOM      2  C   UNL     1     -12.439 -16.597 -15.402  1.00  0.00     0.208 A 
ATOM      3  C   UNL     1     -12.619 -15.428 -16.158  1.00  0.00     0.238 A 
ATOM      4  O   UNL     1     -12.167 -15.392 -17.332  1.00  0.00    -0.285 OA
ATOM      5  C   UNL     1     -13.258 -14.305 -15.579  1.00  0.00     0.111 A 
ATOM      6  C   UNL     1     -13.529 -13.083 -16.265  1.00  0.00     0.134 A 
ATOM      7  C   UNL     1     -14.050 -11.994 -15.556  1.00  0.00     0.093 A 
ATOM      8  C   UNL     1     -14.369 -12.103 -14.200  1.00  0.00     0.123 A 
ATOM      9  C   UNL     1     -14.164 -13.310 -13.536  1.00  0.00     0.094 A 
ATOM     10  C   UNL     1     -13.612 -14.404 -14.208  1.00  0.00     0.146 A 
ATOM     11  O   UNL     1     -13.423 -15.533 -13.535  1.00  0.00    -0.452 OA
ENDROOT
BRANCH   1  12
ATOM     12  C   UNL     1     -12.753 -17.826 -13.217  1.00  0.00     0.025 A 
ATOM     13  C   UNL     1     -13.594 -20.016 -12.528  1.00  0.00     0.161 A 
ATOM     14  C   UNL     1     -12.504 -20.154 -11.658  1.00  0.00     0.157 A 
ATOM     15  C   UNL     1     -13.709 -18.851 -13.311  1.00  0.00     0.062 A 
ATOM     16  C   UNL     1     -11.538 -19.144 -11.576  1.00  0.00     0.051 A 
ATOM     17  C   UNL     1     -11.656 -17.990 -12.354  1.00  0.00     0.016 A 
BRANCH  13  18
ATOM     18  O   UNL     1     -14.538 -21.054 -12.587  1.00  0.00    -0.493 OA
ATOM     19  C   UNL     1     -15.768 -20.985 -13.300  1.00  0.00     0.278 C 
ENDBRANCH  13  18
BRANCH  14  20
ATOM     20  O   UNL     1     -12.385 -21.304 -10.879  1.00  0.00    -0.504 OA
ATOM     21  H   UNL     1     -11.529 -21.521 -10.382  1.00  0.00     0.293 HD
ENDBRANCH  14  20
ENDBRANCH   1  12
BRANCH   2  22
ATOM     22  O   UNL     1     -11.790 -17.708 -15.947  1.00  0.00    -0.502 OA
ATOM     23  H   UNL     1     -11.262 -18.362 -15.382  1.00  0.00     0.293 HD
ENDBRANCH   2  22
BRANCH   6  24
ATOM     24  O   UNL     1     -13.334 -12.899 -17.637  1.00  0.00    -0.507 OA
ATOM     25  H   UNL     1     -13.587 -13.568 -18.349  1.00  0.00     0.293 HD
ENDBRANCH   6  24
BRANCH   8  26
ATOM     26  O   UNL     1     -14.901 -11.019 -13.505  1.00  0.00    -0.508 OA
ATOM     27  H   UNL     1     -14.947 -10.095 -13.919  1.00  0.00     0.293 HD
ENDBRANCH   8  26
TORSDOF 6
ENDMDL
MODEL 5
REMARK VINA RESULT:    -5.213      1.463      2.949
REMARK INTER + INTRA:          -6.118
REMARK INTER:                  -6.440
REMARK INTRA:                   0.322
REMARK UNBOUND:                 0.313
REMARK SMILES COc1cc(-c2oc3cc(O)cc(O)c3c(=O)c2O)ccc1O
REMARK SMILES IDX 6 1 18 2 16 3 17 4 15 5 13 6 12 7 10 8 9 9 8 10 7 11 5 12
REMARK SMILES IDX 3 13 22 14 4 15 21 16 20 17 2 18 1 19 23 20 19 22 14 24
REMARK SMILES IDX 11 26
REMARK H PARENT 23 21 19 23 14 25 11 27
REMARK Flexibility Score: inf
ROOT
ATOM      1  C   UNL     1     -13.799 -14.040 -12.894  1.00  0.00     0.180 A 
ATOM      2  C   UNL     1     -13.513 -15.358 -13.290  1.00  0.00     0.208 A 
ATOM      3  C   UNL     1     -13.247 -15.620 -14.644  1.00  0.00     0.238 A 
ATOM      4  O   UNL     1     -12.938 -16.791 -14.984  1.00  0.00    -0.285 OA
ATOM      5  C   UNL     1     -13.288 -14.564 -15.587  1.00  0.00     0.111 A 
ATOM      6  C   UNL     1     -13.076 -14.722 -16.990  1.00  0.00     0.134 A 
ATOM      7  C   UNL     1     -13.012 -13.589 -17.809  1.00  0.00     0.093 A 
ATOM      8  C   UNL     1     -13.217 -12.310 -17.288  1.00  0.00     0.123 A 
ATOM      9  C   UNL     1     -13.484 -12.150 -15.931  1.00  0.00     0.094 A 
ATOM     10  C   UNL     1     -13.519 -13.259 -15.080  1.00  0.00     0.146 A 
ATOM     11  O   UNL     1     -13.766 -13.062 -13.791  1.00  0.00    -0.452 OA
ENDROOT
BRANCH   1  12
ATOM     12  C   UNL     1     -14.112 -13.690 -11.490  1.00  0.00     0.025 A 
ATOM     13  C   UNL     1     -14.871 -14.382  -9.271  1.00  0.00     0.161 A 
ATOM     14  C   UNL     1     -14.660 -13.079  -8.799  1.00  0.00     0.157 A 
ATOM     15  C   UNL     1     -14.587 -14.683 -10.618  1.00  0.00     0.062 A 
ATOM     16  C   UNL     1     -14.168 -12.091  -9.661  1.00  0.00     0.051 A 
ATOM     17  C   UNL     1     -13.889 -12.394 -10.995  1.00  0.00     0.016 A 
BRANCH  13  18
ATOM     18  O   UNL     1     -15.359 -15.346  -8.375  1.00  0.00    -0.493 OA
ATOM     19  C   UNL     1     -14.665 -16.536  -8.015  1.00  0.00     0.278 C 
ENDBRANCH  13  18
BRANCH  14  20
ATOM     20  O   UNL     1     -14.941 -12.773  -7.468  1.00  0.00    -0.504 OA
ATOM     21  H   UNL     1     -15.892 -12.671  -7.137  1.00  0.00     0.293 HD
ENDBRANCH  14  20
ENDBRANCH   1  12
BRANCH   2  22
ATOM     22  O   UNL     1     -13.456 -16.381 -12.340  1.00  0.00    -0.502 OA
ATOM     23  H   UNL     1     -13.992 -17.236 -12.427  1.00  0.00     0.293 HD
ENDBRANCH   2  22
BRANCH   6  24
ATOM     24  O   UNL     1     -12.952 -15.961 -17.625  1.00  0.00    -0.507 OA
ATOM     25  H   UNL     1     -12.291 -16.167 -18.360  1.00  0.00     0.293 HD
ENDBRANCH   6  24
BRANCH   8  26
ATOM     26  O   UNL     1     -13.166 -11.189 -18.115  1.00  0.00    -0.508 OA
ATOM     27  H   UNL     1     -13.558 -11.201 -19.048  1.00  0.00     0.293 HD
ENDBRANCH   8  26
TORSDOF 6
ENDMDL
MODEL 6
REMARK VINA RESULT:    -4.981     12.040     14.773
REMARK INTER + INTRA:          -5.832
REMARK INTER:                  -6.001
REMARK INTRA:                   0.169
REMARK UNBOUND:                 0.313
REMARK SMILES COc1cc(-c2oc3cc(O)cc(O)c3c(=O)c2O)ccc1O
REMARK SMILES IDX 6 1 18 2 16 3 17 4 15 5 13 6 12 7 10 8 9 9 8 10 7 11 5 12
REMARK SMILES IDX 3 13 22 14 4 15 21 16 20 17 2 18 1 19 23 20 19 22 14 24
REMARK SMILES IDX 11 26
REMARK H PARENT 23 21 19 23 14 25 11 27
REMARK Flexibility Score: inf
ROOT
ATOM      1  C   UNL     1      -3.122 -11.632  -4.924  1.00  0.00     0.180 A 
ATOM      2  C   UNL     1      -2.699 -11.634  -3.584  1.00  0.00     0.208 A 
ATOM      3  C   UNL     1      -1.324 -11.663  -3.304  1.00  0.00     0.238 A 
ATOM      4  O   UNL     1      -0.950 -11.609  -2.103  1.00  0.00    -0.285 OA
ATOM      5  C   UNL     1      -0.388 -11.706  -4.366  1.00  0.00     0.111 A 
ATOM      6  C   UNL     1       1.027 -11.778  -4.197  1.00  0.00     0.134 A 
ATOM      7  C   UNL     1       1.861 -11.685  -5.317  1.00  0.00     0.093 A 
ATOM      8  C   UNL     1       1.330 -11.587  -6.606  1.00  0.00     0.123 A 
ATOM      9  C   UNL     1      -0.051 -11.576  -6.785  1.00  0.00     0.094 A 
ATOM     10  C   UNL     1      -0.909 -11.631  -5.684  1.00  0.00     0.146 A 
ATOM     11  O   UNL     1      -2.219 -11.607  -5.899  1.00  0.00    -0.452 OA
ENDROOT
BRANCH   1  12
ATOM     12  C   UNL     1      -4.554 -11.626  -5.299  1.00  0.00     0.025 A 
ATOM     13  C   UNL     1      -6.854 -12.298  -4.816  1.00  0.00     0.161 A 
ATOM     14  C   UNL     1      -7.292 -11.589  -5.943  1.00  0.00     0.157 A 
ATOM     15  C   UNL     1      -5.483 -12.306  -4.495  1.00  0.00     0.062 A 
ATOM     16  C   UNL     1      -6.371 -10.893  -6.737  1.00  0.00     0.051 A 
ATOM     17  C   UNL     1      -5.013 -10.905  -6.415  1.00  0.00     0.016 A 
BRANCH  13  18
ATOM     18  O   UNL     1      -7.809 -12.977  -4.041  1.00  0.00    -0.493 OA
ATOM     19  C   UNL     1      -8.055 -14.377  -4.112  1.00  0.00     0.278 C 
ENDBRANCH  13  18
BRANCH  14  20
ATOM     20  O   UNL     1      -8.648 -11.578  -6.268  1.00  0.00    -0.504 OA
ATOM     21  H   UNL     1      -9.323 -12.120  -5.742  1.00  0.00     0.293 HD
ENDBRANCH  14  20
ENDBRANCH   1  12
BRANCH   2  22
ATOM     22  O   UNL     1      -3.638 -11.569  -2.551  1.00  0.00    -0.502 OA
ATOM     23  H   UNL     1      -4.399 -10.901  -2.549  1.00  0.00     0.293 HD
ENDBRANCH   2  22
BRANCH   6  24
ATOM     24  O   UNL     1       1.657 -11.969  -2.964  1.00  0.00    -0.507 OA
ATOM     25  H   UNL     1       1.538 -11.372  -2.159  1.00  0.00     0.293 HD
ENDBRANCH   6  24
BRANCH   8  26
ATOM     26  O   UNL     1       2.168 -11.509  -7.717  1.00  0.00    -0.508 OA
ATOM     27  H   UNL     1       3.172 -11.612  -7.631  1.00  0.00     0.293 HD
ENDBRANCH   8  26
TORSDOF 6
ENDMDL
MODEL 7
REMARK VINA RESULT:    -4.911      9.199     11.143
REMARK INTER + INTRA:          -5.746
REMARK INTER:                  -5.658
REMARK INTRA:                  -0.087
REMARK UNBOUND:                 0.313
REMARK SMILES COc1cc(-c2oc3cc(O)cc(O)c3c(=O)c2O)ccc1O
REMARK SMILES IDX 6 1 18 2 16 3 17 4 15 5 13 6 12 7 10 8 9 9 8 10 7 11 5 12
REMARK SMILES IDX 3 13 22 14 4 15 21 16 20 17 2 18 1 19 23 20 19 22 14 24
REMARK SMILES IDX 11 26
REMARK H PARENT 23 21 19 23 14 25 11 27
REMARK Flexibility Score: inf
ROOT
ATOM      1  C   UNL     1      -6.826 -12.064  -4.755  1.00  0.00     0.180 A 
ATOM      2  C   UNL     1      -5.550 -11.754  -4.256  1.00  0.00     0.208 A 
ATOM      3  C   UNL     1      -4.536 -11.391  -5.157  1.00  0.00     0.238 A 
ATOM      4  O   UNL     1      -3.410 -11.062  -4.700  1.00  0.00    -0.285 OA
ATOM      5  C   UNL     1      -4.806 -11.360  -6.547  1.00  0.00     0.111 A 
ATOM      6  C   UNL     1      -3.843 -11.047  -7.553  1.00  0.00     0.134 A 
ATOM      7  C   UNL     1      -4.253 -10.920  -8.885  1.00  0.00     0.093 A 
ATOM      8  C   UNL     1      -5.579 -11.158  -9.257  1.00  0.00     0.123 A 
ATOM      9  C   UNL     1      -6.513 -11.523  -8.291  1.00  0.00     0.094 A 
ATOM     10  C   UNL     1      -6.142 -11.623  -6.948  1.00  0.00     0.146 A 
ATOM     11  O   UNL     1      -7.066 -11.963  -6.057  1.00  0.00    -0.452 OA
ENDROOT
BRANCH   1  12
ATOM     12  C   UNL     1      -7.939 -12.477  -3.871  1.00  0.00     0.025 A 
ATOM     13  C   UNL     1      -9.546 -14.183  -3.173  1.00  0.00     0.161 A 
ATOM     14  C   UNL     1     -10.015 -13.323  -2.170  1.00  0.00     0.157 A 
ATOM     15  C   UNL     1      -8.501 -13.756  -4.016  1.00  0.00     0.062 A 
ATOM     16  C   UNL     1      -9.444 -12.054  -2.010  1.00  0.00     0.051 A 
ATOM     17  C   UNL     1      -8.409 -11.635  -2.848  1.00  0.00     0.016 A 
BRANCH  13  18
ATOM     18  O   UNL     1     -10.139 -15.450  -3.298  1.00  0.00    -0.493 OA
ATOM     19  C   UNL     1     -11.375 -15.699  -3.959  1.00  0.00     0.278 C 
ENDBRANCH  13  18
BRANCH  14  20
ATOM     20  O   UNL     1     -11.050 -13.738  -1.333  1.00  0.00    -0.504 OA
ATOM     21  H   UNL     1     -10.958 -13.712  -0.325  1.00  0.00     0.293 HD
ENDBRANCH  14  20
ENDBRANCH   1  12
BRANCH   2  22
ATOM     22  O   UNL     1      -5.310 -11.769  -2.880  1.00  0.00    -0.502 OA
ATOM     23  H   UNL     1      -4.377 -11.826  -2.490  1.00  0.00     0.293 HD
ENDBRANCH   2  22
BRANCH   6  24
ATOM     24  O   UNL     1      -2.478 -10.881  -7.302  1.00  0.00    -0.507 OA
ATOM     25  H   UNL     1      -1.995 -11.236  -6.490  1.00  0.00     0.293 HD
ENDBRANCH   6  24
BRANCH   8  26
ATOM     26  O   UNL     1      -5.975 -11.044 -10.588  1.00  0.00    -0.508 OA
ATOM     27  H   UNL     1      -5.828 -10.191 -11.114  1.00  0.00     0.293 HD
ENDBRANCH   8  26
TORSDOF 6
ENDMDL
MODEL 8
REMARK VINA RESULT:    -4.865      0.826      2.001
REMARK INTER + INTRA:          -5.689
REMARK INTER:                  -5.851
REMARK INTRA:                   0.162
REMARK UNBOUND:                 0.313
REMARK SMILES COc1cc(-c2oc3cc(O)cc(O)c3c(=O)c2O)ccc1O
REMARK SMILES IDX 6 1 18 2 16 3 17 4 15 5 13 6 12 7 10 8 9 9 8 10 7 11 5 12
REMARK SMILES IDX 3 13 22 14 4 15 21 16 20 17 2 18 1 19 23 20 19 22 14 24
REMARK SMILES IDX 11 26
REMARK H PARENT 23 21 19 23 14 25 11 27
REMARK Flexibility Score: inf
ROOT
ATOM      1  C   UNL     1     -14.237 -13.631 -12.333  1.00  0.00     0.180 A 
ATOM      2  C   UNL     1     -14.201 -12.533 -13.210  1.00  0.00     0.208 A 
ATOM      3  C   UNL     1     -14.168 -12.767 -14.594  1.00  0.00     0.238 A 
ATOM      4  O   UNL     1     -14.191 -11.780 -15.374  1.00  0.00    -0.285 OA
ATOM      5  C   UNL     1     -14.156 -14.095 -15.085  1.00  0.00     0.111 A 
ATOM      6  C   UNL     1     -14.082 -14.449 -16.465  1.00  0.00     0.134 A 
ATOM      7  C   UNL     1     -14.208 -15.792 -16.841  1.00  0.00     0.093 A 
ATOM      8  C   UNL     1     -14.338 -16.799 -15.883  1.00  0.00     0.123 A 
ATOM      9  C   UNL     1     -14.351 -16.470 -14.530  1.00  0.00     0.094 A 
ATOM     10  C   UNL     1     -14.264 -15.135 -14.124  1.00  0.00     0.146 A 
ATOM     11  O   UNL     1     -14.290 -14.864 -12.825  1.00  0.00    -0.452 OA
ENDROOT
BRANCH   1  12
ATOM     12  C   UNL     1     -14.249 -13.466 -10.863  1.00  0.00     0.025 A 
ATOM     13  C   UNL     1     -13.536 -12.221  -8.883  1.00  0.00     0.161 A 
ATOM     14  C   UNL     1     -14.294 -13.080  -8.076  1.00  0.00     0.157 A 
ATOM     15  C   UNL     1     -13.523 -12.415 -10.278  1.00  0.00     0.062 A 
ATOM     16  C   UNL     1     -15.035 -14.117  -8.657  1.00  0.00     0.051 A 
ATOM     17  C   UNL     1     -15.019 -14.305 -10.040  1.00  0.00     0.016 A 
BRANCH  13  18
ATOM     18  O   UNL     1     -12.811 -11.189  -8.264  1.00  0.00    -0.493 OA
ATOM     19  C   UNL     1     -11.452 -10.875  -8.548  1.00  0.00     0.278 C 
ENDBRANCH  13  18
BRANCH  14  20
ATOM     20  O   UNL     1     -14.310 -12.894  -6.694  1.00  0.00    -0.504 OA
ATOM     21  H   UNL     1     -14.277 -13.678  -6.054  1.00  0.00     0.293 HD
ENDBRANCH  14  20
ENDBRANCH   1  12
BRANCH   2  22
ATOM     22  O   UNL     1     -14.236 -11.231 -12.706  1.00  0.00    -0.502 OA
ATOM     23  H   UNL     1     -13.957 -10.426 -13.256  1.00  0.00     0.293 HD
ENDBRANCH   2  22
BRANCH   6  24
ATOM     24  O   UNL     1     -13.861 -13.530 -17.495  1.00  0.00    -0.507 OA
ATOM     25  H   UNL     1     -14.544 -12.867 -17.831  1.00  0.00     0.293 HD
ENDBRANCH   6  24
BRANCH   8  26
ATOM     26  O   UNL     1     -14.447 -18.135 -16.265  1.00  0.00    -0.508 OA
ATOM     27  H   UNL     1     -15.154 -18.744 -15.870  1.00  0.00     0.293 HD
ENDBRANCH   8  26
TORSDOF 6
ENDMDL
