MODEL 1
REMARK VINA RESULT:    -6.937      0.000      0.000
REMARK INTER + INTRA:          -7.545
REMARK INTER:                  -7.545
REMARK INTRA:                   0.000
REMARK UNBOUND:                 0.000
REMARK SMILES Cc1cc(O)c2c(c1)C(=O)c1cc(O)cc(O)c1C2=O
REMARK SMILES IDX 1 1 2 2 8 3 7 4 6 5 4 6 3 7 19 8 20 9 18 10 11 11 9 12 10 13
REMARK SMILES IDX 12 14 13 15 15 16 16 17 5 18 17 20 14 22
REMARK H PARENT 5 19 17 21 14 23
REMARK Flexibility Score: inf
ROOT
ATOM      1  C   UNL     1      41.163  -1.193   1.680  1.00  0.00     0.044 C 
ATOM      2  C   UNL     1      42.295  -1.911   1.006  1.00  0.00    -0.047 A 
ATOM      3  C   UNL     1      43.618  -1.624   1.356  1.00  0.00     0.016 A 
ATOM      4  C   UNL     1      44.684  -2.310   0.750  1.00  0.00     0.038 A 
ATOM      5  C   UNL     1      44.421  -3.302  -0.222  1.00  0.00     0.076 A 
ATOM      6  C   UNL     1      43.074  -3.647  -0.510  1.00  0.00     0.127 A 
ATOM      7  C   UNL     1      42.032  -2.935   0.090  1.00  0.00     0.050 A 
ATOM      8  C   UNL     1      45.572  -3.900  -0.946  1.00  0.00     0.201 C 
ATOM      9  O   UNL     1      45.425  -4.307  -2.129  1.00  0.00    -0.288 OA
ATOM     10  C   UNL     1      46.930  -3.844  -0.346  1.00  0.00     0.076 A 
ATOM     11  C   UNL     1      47.189  -2.854   0.629  1.00  0.00     0.041 A 
ATOM     12  C   UNL     1      46.084  -2.006   1.131  1.00  0.00     0.194 C 
ATOM     13  O   UNL     1      46.331  -1.039   1.905  1.00  0.00    -0.289 OA
ATOM     14  C   UNL     1      48.495  -2.681   1.119  1.00  0.00     0.059 A 
ATOM     15  C   UNL     1      49.538  -3.491   0.661  1.00  0.00     0.120 A 
ATOM     16  C   UNL     1      49.277  -4.496  -0.270  1.00  0.00     0.093 A 
ATOM     17  C   UNL     1      47.983  -4.703  -0.758  1.00  0.00     0.131 A 
ENDROOT
BRANCH   6  18
ATOM     18  O   UNL     1      42.731  -4.707  -1.353  1.00  0.00    -0.507 OA
ATOM     19  H   UNL     1      42.243  -5.533  -1.039  1.00  0.00     0.293 HD
ENDBRANCH   6  18
BRANCH  17  20
ATOM     20  O   UNL     1      47.783  -5.785  -1.617  1.00  0.00    -0.507 OA
ATOM     21  H   UNL     1      47.978  -6.744  -1.362  1.00  0.00     0.293 HD
ENDBRANCH  17  20
BRANCH  15  22
ATOM     22  O   UNL     1      50.836  -3.315   1.135  1.00  0.00    -0.508 OA
ATOM     23  H   UNL     1      51.502  -4.078   1.154  1.00  0.00     0.293 HD
ENDBRANCH  15  22
TORSDOF 3
ENDMDL
MODEL 2
REMARK VINA RESULT:    -6.650     17.142     18.064
REMARK INTER + INTRA:          -7.233
REMARK INTER:                  -7.233
REMARK INTRA:                   0.000
REMARK UNBOUND:                 0.000
REMARK SMILES Cc1cc(O)c2c(c1)C(=O)c1cc(O)cc(O)c1C2=O
REMARK SMILES IDX 1 1 2 2 8 3 7 4 6 5 4 6 3 7 19 8 20 9 18 10 11 11 9 12 10 13
REMARK SMILES IDX 12 14 13 15 15 16 16 17 5 18 17 20 14 22
REMARK H PARENT 5 19 17 21 14 23
REMARK Flexibility Score: inf
ROOT
ATOM      1  C   UNL     1      36.875  13.419  -9.571  1.00  0.00     0.044 C 
ATOM      2  C   UNL     1      37.980  12.630 -10.209  1.00  0.00    -0.047 A 
ATOM      3  C   UNL     1      38.886  11.920  -9.416  1.00  0.00     0.016 A 
ATOM      4  C   UNL     1      39.908  11.155 -10.004  1.00  0.00     0.038 A 
ATOM      5  C   UNL     1      40.024  11.102 -11.412  1.00  0.00     0.076 A 
ATOM      6  C   UNL     1      39.052  11.757 -12.212  1.00  0.00     0.127 A 
ATOM      7  C   UNL     1      38.057  12.527 -11.602  1.00  0.00     0.050 A 
ATOM      8  C   UNL     1      41.202  10.407 -11.994  1.00  0.00     0.201 C 
ATOM      9  O   UNL     1      41.669  10.786 -13.102  1.00  0.00    -0.288 OA
ATOM     10  C   UNL     1      41.937   9.399 -11.187  1.00  0.00     0.076 A 
ATOM     11  C   UNL     1      41.816   9.453  -9.780  1.00  0.00     0.041 A 
ATOM     12  C   UNL     1      40.860  10.398  -9.157  1.00  0.00     0.194 C 
ATOM     13  O   UNL     1      40.839  10.540  -7.903  1.00  0.00    -0.289 OA
ATOM     14  C   UNL     1      42.600   8.607  -8.978  1.00  0.00     0.059 A 
ATOM     15  C   UNL     1      43.490   7.701  -9.562  1.00  0.00     0.120 A 
ATOM     16  C   UNL     1      43.581   7.616 -10.951  1.00  0.00     0.093 A 
ATOM     17  C   UNL     1      42.797   8.433 -11.772  1.00  0.00     0.131 A 
ENDROOT
BRANCH   6  18
ATOM     18  O   UNL     1      39.015  11.639 -13.603  1.00  0.00    -0.507 OA
ATOM     19  H   UNL     1      38.519  12.281 -14.204  1.00  0.00     0.293 HD
ENDBRANCH   6  18
BRANCH  17  20
ATOM     20  O   UNL     1      42.877   8.228 -13.150  1.00  0.00    -0.507 OA
ATOM     21  H   UNL     1      42.086   7.964 -13.723  1.00  0.00     0.293 HD
ENDBRANCH  17  20
BRANCH  15  22
ATOM     22  O   UNL     1      44.278   6.869  -8.770  1.00  0.00    -0.508 OA
ATOM     23  H   UNL     1      45.254   7.076  -8.591  1.00  0.00     0.293 HD
ENDBRANCH  15  22
TORSDOF 3
ENDMDL
MODEL 3
REMARK VINA RESULT:    -6.555      2.123      5.642
REMARK INTER + INTRA:          -7.130
REMARK INTER:                  -7.130
REMARK INTRA:                   0.000
REMARK UNBOUND:                 0.000
REMARK SMILES Cc1cc(O)c2c(c1)C(=O)c1cc(O)cc(O)c1C2=O
REMARK SMILES IDX 1 1 2 2 8 3 7 4 6 5 4 6 3 7 19 8 20 9 18 10 11 11 9 12 10 13
REMARK SMILES IDX 12 14 13 15 15 16 16 17 5 18 17 20 14 22
REMARK H PARENT 5 19 17 21 14 23
REMARK Flexibility Score: inf
ROOT
ATOM      1  C   UNL     1      48.246  -5.046  -0.508  1.00  0.00     0.044 C 
ATOM      2  C   UNL     1      46.896  -4.400  -0.399  1.00  0.00    -0.047 A 
ATOM      3  C   UNL     1      46.761  -3.155   0.225  1.00  0.00     0.016 A 
ATOM      4  C   UNL     1      45.506  -2.528   0.308  1.00  0.00     0.038 A 
ATOM      5  C   UNL     1      44.368  -3.158  -0.243  1.00  0.00     0.076 A 
ATOM      6  C   UNL     1      44.526  -4.379  -0.948  1.00  0.00     0.127 A 
ATOM      7  C   UNL     1      45.781  -4.993  -0.999  1.00  0.00     0.050 A 
ATOM      8  C   UNL     1      43.038  -2.537  -0.007  1.00  0.00     0.201 C 
ATOM      9  O   UNL     1      42.010  -3.263   0.056  1.00  0.00    -0.288 OA
ATOM     10  C   UNL     1      42.948  -1.095   0.340  1.00  0.00     0.076 A 
ATOM     11  C   UNL     1      44.090  -0.468   0.888  1.00  0.00     0.041 A 
ATOM     12  C   UNL     1      45.372  -1.205   0.964  1.00  0.00     0.194 C 
ATOM     13  O   UNL     1      46.359  -0.697   1.566  1.00  0.00    -0.289 OA
ATOM     14  C   UNL     1      44.004   0.855   1.355  1.00  0.00     0.059 A 
ATOM     15  C   UNL     1      42.800   1.561   1.268  1.00  0.00     0.120 A 
ATOM     16  C   UNL     1      41.683   0.958   0.690  1.00  0.00     0.093 A 
ATOM     17  C   UNL     1      41.748  -0.350   0.199  1.00  0.00     0.131 A 
ENDROOT
BRANCH   6  18
ATOM     18  O   UNL     1      43.479  -4.993  -1.638  1.00  0.00    -0.507 OA
ATOM     19  H   UNL     1      42.556  -4.592  -1.724  1.00  0.00     0.293 HD
ENDBRANCH   6  18
BRANCH  17  20
ATOM     20  O   UNL     1      40.617  -0.852  -0.447  1.00  0.00    -0.507 OA
ATOM     21  H   UNL     1      39.768  -0.321  -0.580  1.00  0.00     0.293 HD
ENDBRANCH  17  20
BRANCH  15  22
ATOM     22  O   UNL     1      42.708   2.868   1.741  1.00  0.00    -0.508 OA
ATOM     23  H   UNL     1      42.065   3.536   1.331  1.00  0.00     0.293 HD
ENDBRANCH  15  22
TORSDOF 3
ENDMDL
MODEL 4
REMARK VINA RESULT:    -6.506     17.823     19.199
REMARK INTER + INTRA:          -7.076
REMARK INTER:                  -7.076
REMARK INTRA:                   0.000
REMARK UNBOUND:                 0.000
REMARK SMILES Cc1cc(O)c2c(c1)C(=O)c1cc(O)cc(O)c1C2=O
REMARK SMILES IDX 1 1 2 2 8 3 7 4 6 5 4 6 3 7 19 8 20 9 18 10 11 11 9 12 10 13
REMARK SMILES IDX 12 14 13 15 15 16 16 17 5 18 17 20 14 22
REMARK H PARENT 5 19 17 21 14 23
REMARK Flexibility Score: inf
ROOT
ATOM      1  C   UNL     1      43.997   6.699  -8.837  1.00  0.00     0.044 C 
ATOM      2  C   UNL     1      43.439   7.707  -9.799  1.00  0.00    -0.047 A 
ATOM      3  C   UNL     1      42.303   8.448  -9.459  1.00  0.00     0.016 A 
ATOM      4  C   UNL     1      41.788   9.414 -10.341  1.00  0.00     0.038 A 
ATOM      5  C   UNL     1      42.421   9.640 -11.584  1.00  0.00     0.076 A 
ATOM      6  C   UNL     1      43.621   8.945 -11.885  1.00  0.00     0.127 A 
ATOM      7  C   UNL     1      44.102   7.975 -11.001  1.00  0.00     0.050 A 
ATOM      8  C   UNL     1      41.766  10.560 -12.550  1.00  0.00     0.201 C 
ATOM      9  O   UNL     1      41.916  10.379 -13.788  1.00  0.00    -0.288 OA
ATOM     10  C   UNL     1      40.788  11.567 -12.062  1.00  0.00     0.076 A 
ATOM     11  C   UNL     1      40.159  11.339 -10.817  1.00  0.00     0.041 A 
ATOM     12  C   UNL     1      40.588  10.202  -9.971  1.00  0.00     0.194 C 
ATOM     13  O   UNL     1      39.947   9.919  -8.921  1.00  0.00    -0.289 OA
ATOM     14  C   UNL     1      39.131  12.195 -10.387  1.00  0.00     0.059 A 
ATOM     15  C   UNL     1      38.736  13.281 -11.174  1.00  0.00     0.120 A 
ATOM     16  C   UNL     1      39.383  13.532 -12.383  1.00  0.00     0.093 A 
ATOM     17  C   UNL     1      40.423  12.707 -12.825  1.00  0.00     0.131 A 
ENDROOT
BRANCH   6  18
ATOM     18  O   UNL     1      44.381   9.211 -13.026  1.00  0.00    -0.507 OA
ATOM     19  H   UNL     1      45.287   8.800 -13.202  1.00  0.00     0.293 HD
ENDBRANCH   6  18
BRANCH  17  20
ATOM     20  O   UNL     1      41.083  13.075 -13.999  1.00  0.00    -0.507 OA
ATOM     21  H   UNL     1      42.022  12.779 -14.228  1.00  0.00     0.293 HD
ENDBRANCH  17  20
BRANCH  15  22
ATOM     22  O   UNL     1      37.710  14.125 -10.756  1.00  0.00    -0.508 OA
ATOM     23  H   UNL     1      37.839  14.780  -9.994  1.00  0.00     0.293 HD
ENDBRANCH  15  22
TORSDOF 3
ENDMDL
MODEL 5
REMARK VINA RESULT:    -6.353     18.102     19.009
REMARK INTER + INTRA:          -6.910
REMARK INTER:                  -6.910
REMARK INTRA:                   0.000
REMARK UNBOUND:                 0.000
REMARK SMILES Cc1cc(O)c2c(c1)C(=O)c1cc(O)cc(O)c1C2=O
REMARK SMILES IDX 1 1 2 2 8 3 7 4 6 5 4 6 3 7 19 8 20 9 18 10 11 11 9 12 10 13
REMARK SMILES IDX 12 14 13 15 15 16 16 17 5 18 17 20 14 22
REMARK H PARENT 5 19 17 21 14 23
REMARK Flexibility Score: inf
ROOT
ATOM      1  C   UNL     1      36.875  13.172  -8.946  1.00  0.00     0.044 C 
ATOM      2  C   UNL     1      37.941  12.734  -9.906  1.00  0.00    -0.047 A 
ATOM      3  C   UNL     1      38.977  11.899  -9.474  1.00  0.00     0.016 A 
ATOM      4  C   UNL     1      39.965  11.460 -10.372  1.00  0.00     0.038 A 
ATOM      5  C   UNL     1      39.915  11.864 -11.725  1.00  0.00     0.076 A 
ATOM      6  C   UNL     1      38.816  12.642 -12.175  1.00  0.00     0.127 A 
ATOM      7  C   UNL     1      37.857  13.082 -11.259  1.00  0.00     0.050 A 
ATOM      8  C   UNL     1      41.054  11.503 -12.609  1.00  0.00     0.201 C 
ATOM      9  O   UNL     1      41.362  12.255 -13.573  1.00  0.00    -0.288 OA
ATOM     10  C   UNL     1      41.940  10.368 -12.244  1.00  0.00     0.076 A 
ATOM     11  C   UNL     1      41.985   9.964 -10.890  1.00  0.00     0.041 A 
ATOM     12  C   UNL     1      41.055  10.569  -9.908  1.00  0.00     0.194 C 
ATOM     13  O   UNL     1      41.176  10.306  -8.679  1.00  0.00    -0.289 OA
ATOM     14  C   UNL     1      42.909   8.987 -10.483  1.00  0.00     0.059 A 
ATOM     15  C   UNL     1      43.776   8.400 -11.410  1.00  0.00     0.120 A 
ATOM     16  C   UNL     1      43.705   8.766 -12.753  1.00  0.00     0.093 A 
ATOM     17  C   UNL     1      42.780   9.721 -13.188  1.00  0.00     0.131 A 
ENDROOT
BRANCH   6  18
ATOM     18  O   UNL     1      38.621  12.965 -13.519  1.00  0.00    -0.507 OA
ATOM     19  H   UNL     1      38.642  13.910 -13.875  1.00  0.00     0.293 HD
ENDBRANCH   6  18
BRANCH  17  20
ATOM     20  O   UNL     1      42.707   9.969 -14.560  1.00  0.00    -0.507 OA
ATOM     21  H   UNL     1      43.245  10.686 -15.027  1.00  0.00     0.293 HD
ENDBRANCH  17  20
BRANCH  15  22
ATOM     22  O   UNL     1      44.702   7.440 -11.007  1.00  0.00    -0.508 OA
ATOM     23  H   UNL     1      44.851   7.225 -10.028  1.00  0.00     0.293 HD
ENDBRANCH  15  22
TORSDOF 3
ENDMDL
MODEL 6
REMARK VINA RESULT:    -6.268     16.464     17.376
REMARK INTER + INTRA:          -6.818
REMARK INTER:                  -6.818
REMARK INTRA:                   0.000
REMARK UNBOUND:                 0.000
REMARK SMILES Cc1cc(O)c2c(c1)C(=O)c1cc(O)cc(O)c1C2=O
REMARK SMILES IDX 1 1 2 2 8 3 7 4 6 5 4 6 3 7 19 8 20 9 18 10 11 11 9 12 10 13
REMARK SMILES IDX 12 14 13 15 15 16 16 17 5 18 17 20 14 22
REMARK H PARENT 5 19 17 21 14 23
REMARK Flexibility Score: inf
ROOT
ATOM      1  C   UNL     1      41.028  13.798 -13.250  1.00  0.00     0.044 C 
ATOM      2  C   UNL     1      41.185  12.740 -12.198  1.00  0.00    -0.047 A 
ATOM      3  C   UNL     1      41.811  11.528 -12.508  1.00  0.00     0.016 A 
ATOM      4  C   UNL     1      41.988  10.541 -11.524  1.00  0.00     0.038 A 
ATOM      5  C   UNL     1      41.531  10.771 -10.206  1.00  0.00     0.076 A 
ATOM      6  C   UNL     1      40.973  12.035  -9.879  1.00  0.00     0.127 A 
ATOM      7  C   UNL     1      40.789  12.993 -10.881  1.00  0.00     0.050 A 
ATOM      8  C   UNL     1      41.601   9.652  -9.232  1.00  0.00     0.201 C 
ATOM      9  O   UNL     1      40.752   9.575  -8.304  1.00  0.00    -0.288 OA
ATOM     10  C   UNL     1      42.548   8.531  -9.463  1.00  0.00     0.076 A 
ATOM     11  C   UNL     1      43.006   8.305 -10.781  1.00  0.00     0.041 A 
ATOM     12  C   UNL     1      42.659   9.262 -11.857  1.00  0.00     0.194 C 
ATOM     13  O   UNL     1      42.957   9.000 -13.056  1.00  0.00    -0.289 OA
ATOM     14  C   UNL     1      43.792   7.175 -11.064  1.00  0.00     0.059 A 
ATOM     15  C   UNL     1      44.138   6.279 -10.048  1.00  0.00     0.120 A 
ATOM     16  C   UNL     1      43.722   6.522  -8.739  1.00  0.00     0.093 A 
ATOM     17  C   UNL     1      42.956   7.650  -8.427  1.00  0.00     0.131 A 
ENDROOT
BRANCH   6  18
ATOM     18  O   UNL     1      40.625  12.391  -8.574  1.00  0.00    -0.507 OA
ATOM     19  H   UNL     1      41.101  13.108  -8.046  1.00  0.00     0.293 HD
ENDBRANCH   6  18
BRANCH  17  20
ATOM     20  O   UNL     1      42.655   7.873  -7.083  1.00  0.00    -0.507 OA
ATOM     21  H   UNL     1      41.758   7.661  -6.668  1.00  0.00     0.293 HD
ENDBRANCH  17  20
BRANCH  15  22
ATOM     22  O   UNL     1      44.907   5.151 -10.326  1.00  0.00    -0.508 OA
ATOM     23  H   UNL     1      44.861   4.688 -11.226  1.00  0.00     0.293 HD
ENDBRANCH  15  22
TORSDOF 3
ENDMDL
MODEL 7
REMARK VINA RESULT:    -6.231     16.721     18.032
REMARK INTER + INTRA:          -6.777
REMARK INTER:                  -6.777
REMARK INTRA:                   0.000
REMARK UNBOUND:                 0.000
REMARK SMILES Cc1cc(O)c2c(c1)C(=O)c1cc(O)cc(O)c1C2=O
REMARK SMILES IDX 1 1 2 2 8 3 7 4 6 5 4 6 3 7 19 8 20 9 18 10 11 11 9 12 10 13
REMARK SMILES IDX 12 14 13 15 15 16 16 17 5 18 17 20 14 22
REMARK H PARENT 5 19 17 21 14 23
REMARK Flexibility Score: inf
ROOT
ATOM      1  C   UNL     1      44.601   5.125  -9.690  1.00  0.00     0.044 C 
ATOM      2  C   UNL     1      43.902   6.448  -9.584  1.00  0.00    -0.047 A 
ATOM      3  C   UNL     1      43.806   7.284 -10.702  1.00  0.00     0.016 A 
ATOM      4  C   UNL     1      43.129   8.514 -10.621  1.00  0.00     0.038 A 
ATOM      5  C   UNL     1      42.539   8.912  -9.400  1.00  0.00     0.076 A 
ATOM      6  C   UNL     1      42.567   8.022  -8.295  1.00  0.00     0.127 A 
ATOM      7  C   UNL     1      43.263   6.814  -8.394  1.00  0.00     0.050 A 
ATOM      8  C   UNL     1      41.962  10.278  -9.312  1.00  0.00     0.201 C 
ATOM      9  O   UNL     1      41.957  10.886  -8.208  1.00  0.00    -0.288 OA
ATOM     10  C   UNL     1      41.569  10.996 -10.553  1.00  0.00     0.076 A 
ATOM     11  C   UNL     1      42.160  10.592 -11.772  1.00  0.00     0.041 A 
ATOM     12  C   UNL     1      43.025   9.390 -11.811  1.00  0.00     0.194 C 
ATOM     13  O   UNL     1      43.655   9.100 -12.866  1.00  0.00    -0.289 OA
ATOM     14  C   UNL     1      41.919  11.331 -12.943  1.00  0.00     0.059 A 
ATOM     15  C   UNL     1      41.088  12.455 -12.914  1.00  0.00     0.120 A 
ATOM     16  C   UNL     1      40.472  12.831 -11.721  1.00  0.00     0.093 A 
ATOM     17  C   UNL     1      40.678  12.100 -10.546  1.00  0.00     0.131 A 
ENDROOT
BRANCH   6  18
ATOM     18  O   UNL     1      41.890   8.280  -7.101  1.00  0.00    -0.507 OA
ATOM     19  H   UNL     1      41.028   7.823  -6.838  1.00  0.00     0.293 HD
ENDBRANCH   6  18
BRANCH  17  20
ATOM     20  O   UNL     1      39.956  12.483  -9.414  1.00  0.00    -0.507 OA
ATOM     21  H   UNL     1      40.388  12.784  -8.552  1.00  0.00     0.293 HD
ENDBRANCH  17  20
BRANCH  15  22
ATOM     22  O   UNL     1      40.857  13.197 -14.070  1.00  0.00    -0.508 OA
ATOM     23  H   UNL     1      40.107  12.963 -14.709  1.00  0.00     0.293 HD
ENDBRANCH  15  22
TORSDOF 3
ENDMDL
MODEL 8
REMARK VINA RESULT:    -6.144      4.389      8.736
REMARK INTER + INTRA:          -6.682
REMARK INTER:                  -6.682
REMARK INTRA:                   0.000
REMARK UNBOUND:                 0.000
REMARK SMILES Cc1cc(O)c2c(c1)C(=O)c1cc(O)cc(O)c1C2=O
REMARK SMILES IDX 1 1 2 2 8 3 7 4 6 5 4 6 3 7 19 8 20 9 18 10 11 11 9 12 10 13
REMARK SMILES IDX 12 14 13 15 15 16 16 17 5 18 17 20 14 22
REMARK H PARENT 5 19 17 21 14 23
REMARK Flexibility Score: inf
ROOT
ATOM      1  C   UNL     1      56.390   0.254  -1.838  1.00  0.00     0.044 C 
ATOM      2  C   UNL     1      55.484  -0.647  -1.051  1.00  0.00    -0.047 A 
ATOM      3  C   UNL     1      54.161  -0.268  -0.800  1.00  0.00     0.016 A 
ATOM      4  C   UNL     1      53.296  -1.116  -0.087  1.00  0.00     0.038 A 
ATOM      5  C   UNL     1      53.764  -2.365   0.380  1.00  0.00     0.076 A 
ATOM      6  C   UNL     1      55.081  -2.779   0.048  1.00  0.00     0.127 A 
ATOM      7  C   UNL     1      55.928  -1.909  -0.643  1.00  0.00     0.050 A 
ATOM      8  C   UNL     1      52.870  -3.169   1.253  1.00  0.00     0.201 C 
ATOM      9  O   UNL     1      53.366  -3.932   2.125  1.00  0.00    -0.288 OA
ATOM     10  C   UNL     1      51.404  -2.930   1.227  1.00  0.00     0.076 A 
ATOM     11  C   UNL     1      50.939  -1.681   0.756  1.00  0.00     0.041 A 
ATOM     12  C   UNL     1      51.894  -0.712   0.169  1.00  0.00     0.194 C 
ATOM     13  O   UNL     1      51.507   0.451  -0.136  1.00  0.00    -0.289 OA
ATOM     14  C   UNL     1      49.573  -1.365   0.843  1.00  0.00     0.059 A 
ATOM     15  C   UNL     1      48.665  -2.284   1.379  1.00  0.00     0.120 A 
ATOM     16  C   UNL     1      49.115  -3.533   1.806  1.00  0.00     0.093 A 
ATOM     17  C   UNL     1      50.466  -3.879   1.712  1.00  0.00     0.131 A 
ENDROOT
BRANCH   6  18
ATOM     18  O   UNL     1      55.571  -4.051   0.352  1.00  0.00    -0.507 OA
ATOM     19  H   UNL     1      54.983  -4.867   0.450  1.00  0.00     0.293 HD
ENDBRANCH   6  18
BRANCH  17  20
ATOM     20  O   UNL     1      50.826  -5.178   2.075  1.00  0.00    -0.507 OA
ATOM     21  H   UNL     1      50.348  -5.711   2.788  1.00  0.00     0.293 HD
ENDBRANCH  17  20
BRANCH  15  22
ATOM     22  O   UNL     1      47.312  -1.970   1.478  1.00  0.00    -0.508 OA
ATOM     23  H   UNL     1      46.734  -2.345   2.221  1.00  0.00     0.293 HD
ENDBRANCH  15  22
TORSDOF 3
ENDMDL
MODEL 9
REMARK VINA RESULT:    -5.967      4.026      7.127
REMARK INTER + INTRA:          -6.490
REMARK INTER:                  -6.490
REMARK INTRA:                   0.000
REMARK UNBOUND:                 0.000
REMARK SMILES Cc1cc(O)c2c(c1)C(=O)c1cc(O)cc(O)c1C2=O
REMARK SMILES IDX 1 1 2 2 8 3 7 4 6 5 4 6 3 7 19 8 20 9 18 10 11 11 9 12 10 13
REMARK SMILES IDX 12 14 13 15 15 16 16 17 5 18 17 20 14 22
REMARK H PARENT 5 19 17 21 14 23
REMARK Flexibility Score: inf
ROOT
ATOM      1  C   UNL     1      37.696   4.758   1.310  1.00  0.00     0.044 C 
ATOM      2  C   UNL     1      38.987   3.993   1.327  1.00  0.00    -0.047 A 
ATOM      3  C   UNL     1      38.985   2.606   1.142  1.00  0.00     0.016 A 
ATOM      4  C   UNL     1      40.190   1.883   1.129  1.00  0.00     0.038 A 
ATOM      5  C   UNL     1      41.418   2.561   1.305  1.00  0.00     0.076 A 
ATOM      6  C   UNL     1      41.418   3.977   1.407  1.00  0.00     0.127 A 
ATOM      7  C   UNL     1      40.205   4.670   1.438  1.00  0.00     0.050 A 
ATOM      8  C   UNL     1      42.656   1.750   1.433  1.00  0.00     0.201 C 
ATOM      9  O   UNL     1      43.617   2.179   2.125  1.00  0.00    -0.288 OA
ATOM     10  C   UNL     1      42.686   0.360   0.907  1.00  0.00     0.076 A 
ATOM     11  C   UNL     1      41.455  -0.313   0.729  1.00  0.00     0.041 A 
ATOM     12  C   UNL     1      40.181   0.416   0.925  1.00  0.00     0.194 C 
ATOM     13  O   UNL     1      39.084  -0.210   0.893  1.00  0.00    -0.289 OA
ATOM     14  C   UNL     1      41.448  -1.670   0.365  1.00  0.00     0.059 A 
ATOM     15  C   UNL     1      42.649  -2.356   0.161  1.00  0.00     0.120 A 
ATOM     16  C   UNL     1      43.863  -1.684   0.295  1.00  0.00     0.093 A 
ATOM     17  C   UNL     1      43.898  -0.328   0.637  1.00  0.00     0.131 A 
ENDROOT
BRANCH   6  18
ATOM     18  O   UNL     1      42.593   4.730   1.443  1.00  0.00    -0.507 OA
ATOM     19  H   UNL     1      42.699   5.574   1.988  1.00  0.00     0.293 HD
ENDBRANCH   6  18
BRANCH  17  20
ATOM     20  O   UNL     1      45.145   0.299   0.663  1.00  0.00    -0.507 OA
ATOM     21  H   UNL     1      45.398   1.011   1.333  1.00  0.00     0.293 HD
ENDBRANCH  17  20
BRANCH  15  22
ATOM     22  O   UNL     1      42.646  -3.705  -0.188  1.00  0.00    -0.508 OA
ATOM     23  H   UNL     1      41.789  -4.185  -0.440  1.00  0.00     0.293 HD
ENDBRANCH  15  22
TORSDOF 3
ENDMDL
