MODEL 1
REMARK VINA RESULT:    -4.938      0.000      0.000
REMARK INTER + INTRA:          -5.559
REMARK INTER:                  -5.516
REMARK INTRA:                  -0.044
REMARK UNBOUND:                -0.044
REMARK SMILES O=C([O-])c1ccc(O)c(O)c1
REMARK SMILES IDX 4 1 11 2 5 3 9 4 6 5 7 6 2 7 1 8 3 9 10 10 8 12
REMARK H PARENT 10 11 8 13
REMARK Flexibility Score: inf
ROOT
ATOM      1  C   UNL     1     -13.393 -42.447 -10.085  1.00  0.00     0.001 A 
ATOM      2  C   UNL     1     -13.143 -41.094  -9.792  1.00  0.00     0.060 A 
ATOM      3  C   UNL     1     -14.721 -42.871 -10.263  1.00  0.00     0.014 A 
ATOM      4  C   UNL     1     -14.202 -40.181  -9.679  1.00  0.00     0.158 A 
ATOM      5  C   UNL     1     -15.775 -41.961 -10.152  1.00  0.00     0.051 A 
ATOM      6  C   UNL     1     -15.520 -40.616  -9.859  1.00  0.00     0.157 A 
ENDROOT
BRANCH   1   7
ATOM      7  C   UNL     1     -12.278 -43.412 -10.204  1.00  0.00     0.072 C 
ATOM      8  O   UNL     1     -12.501 -44.653 -10.194  1.00  0.00    -0.545 OA
ATOM      9  O   UNL     1     -10.968 -42.964 -10.330  1.00  0.00    -0.545 OA
ENDBRANCH   1   7
BRANCH   4  10
ATOM     10  O   UNL     1     -13.950 -38.841  -9.389  1.00  0.00    -0.504 OA
ATOM     11  H   UNL     1     -14.341 -38.094  -9.950  1.00  0.00     0.293 HD
ENDBRANCH   4  10
BRANCH   6  12
ATOM     12  O   UNL     1     -16.569 -39.706  -9.747  1.00  0.00    -0.504 OA
ATOM     13  H   UNL     1     -16.916 -39.195 -10.551  1.00  0.00     0.293 HD
ENDBRANCH   6  12
TORSDOF 3
ENDMDL
MODEL 2
REMARK VINA RESULT:    -4.793     13.450     13.839
REMARK INTER + INTRA:          -5.397
REMARK INTER:                  -5.361
REMARK INTRA:                  -0.036
REMARK UNBOUND:                -0.044
REMARK SMILES O=C([O-])c1ccc(O)c(O)c1
REMARK SMILES IDX 4 1 11 2 5 3 9 4 6 5 7 6 2 7 1 8 3 9 10 10 8 12
REMARK H PARENT 10 11 8 13
REMARK Flexibility Score: inf
ROOT
ATOM      1  C   UNL     1     -14.256 -44.153   3.517  1.00  0.00     0.001 A 
ATOM      2  C   UNL     1     -13.817 -43.787   2.231  1.00  0.00     0.060 A 
ATOM      3  C   UNL     1     -13.441 -43.861   4.625  1.00  0.00     0.014 A 
ATOM      4  C   UNL     1     -12.585 -43.141   2.056  1.00  0.00     0.158 A 
ATOM      5  C   UNL     1     -12.214 -43.217   4.449  1.00  0.00     0.051 A 
ATOM      6  C   UNL     1     -11.782 -42.855   3.167  1.00  0.00     0.157 A 
ENDROOT
BRANCH   1   7
ATOM      7  C   UNL     1     -15.555 -44.835   3.706  1.00  0.00     0.072 C 
ATOM      8  O   UNL     1     -16.537 -44.218   4.198  1.00  0.00    -0.545 OA
ATOM      9  O   UNL     1     -15.711 -46.168   3.341  1.00  0.00    -0.545 OA
ENDBRANCH   1   7
BRANCH   4  10
ATOM     10  O   UNL     1     -12.153 -42.780   0.781  1.00  0.00    -0.504 OA
ATOM     11  H   UNL     1     -11.400 -42.116   0.643  1.00  0.00     0.293 HD
ENDBRANCH   4  10
BRANCH   6  12
ATOM     12  O   UNL     1     -10.559 -42.213   2.988  1.00  0.00    -0.504 OA
ATOM     13  H   UNL     1      -9.891 -42.529   2.294  1.00  0.00     0.293 HD
ENDBRANCH   6  12
TORSDOF 3
ENDMDL
MODEL 3
REMARK VINA RESULT:    -4.785      8.090      9.367
REMARK INTER + INTRA:          -5.388
REMARK INTER:                  -5.352
REMARK INTRA:                  -0.036
REMARK UNBOUND:                -0.044
REMARK SMILES O=C([O-])c1ccc(O)c(O)c1
REMARK SMILES IDX 4 1 11 2 5 3 9 4 6 5 7 6 2 7 1 8 3 9 10 10 8 12
REMARK H PARENT 10 11 8 13
REMARK Flexibility Score: inf
ROOT
ATOM      1  C   UNL     1     -13.783 -48.676  -3.221  1.00  0.00     0.001 A 
ATOM      2  C   UNL     1     -12.878 -47.604  -3.335  1.00  0.00     0.060 A 
ATOM      3  C   UNL     1     -14.360 -49.209  -4.387  1.00  0.00     0.014 A 
ATOM      4  C   UNL     1     -12.556 -47.075  -4.593  1.00  0.00     0.158 A 
ATOM      5  C   UNL     1     -14.038 -48.681  -5.640  1.00  0.00     0.051 A 
ATOM      6  C   UNL     1     -13.137 -47.614  -5.747  1.00  0.00     0.157 A 
ENDROOT
BRANCH   1   7
ATOM      7  C   UNL     1     -14.125 -49.237  -1.896  1.00  0.00     0.072 C 
ATOM      8  O   UNL     1     -13.602 -50.313  -1.501  1.00  0.00    -0.545 OA
ATOM      9  O   UNL     1     -15.030 -48.584  -1.066  1.00  0.00    -0.545 OA
ENDBRANCH   1   7
BRANCH   4  10
ATOM     10  O   UNL     1     -11.659 -46.013  -4.703  1.00  0.00    -0.504 OA
ATOM     11  H   UNL     1     -11.811 -45.138  -4.216  1.00  0.00     0.293 HD
ENDBRANCH   4  10
BRANCH   6  12
ATOM     12  O   UNL     1     -12.814 -47.085  -6.995  1.00  0.00    -0.504 OA
ATOM     13  H   UNL     1     -12.282 -46.227  -7.085  1.00  0.00     0.293 HD
ENDBRANCH   6  12
TORSDOF 3
ENDMDL
MODEL 4
REMARK VINA RESULT:    -4.739      9.220     10.144
REMARK INTER + INTRA:          -5.337
REMARK INTER:                  -5.301
REMARK INTRA:                  -0.036
REMARK UNBOUND:                -0.044
REMARK SMILES O=C([O-])c1ccc(O)c(O)c1
REMARK SMILES IDX 4 1 11 2 5 3 9 4 6 5 7 6 2 7 1 8 3 9 10 10 8 12
REMARK H PARENT 10 11 8 13
REMARK Flexibility Score: inf
ROOT
ATOM      1  C   UNL     1     -14.151 -48.288  -3.381  1.00  0.00     0.001 A 
ATOM      2  C   UNL     1     -13.397 -48.681  -2.261  1.00  0.00     0.060 A 
ATOM      3  C   UNL     1     -15.172 -47.334  -3.216  1.00  0.00     0.014 A 
ATOM      4  C   UNL     1     -13.658 -48.130  -0.997  1.00  0.00     0.158 A 
ATOM      5  C   UNL     1     -15.430 -46.786  -1.957  1.00  0.00     0.051 A 
ATOM      6  C   UNL     1     -14.676 -47.182  -0.846  1.00  0.00     0.157 A 
ENDROOT
BRANCH   1   7
ATOM      7  C   UNL     1     -13.880 -48.866  -4.716  1.00  0.00     0.072 C 
ATOM      8  O   UNL     1     -14.570 -49.826  -5.151  1.00  0.00    -0.545 OA
ATOM      9  O   UNL     1     -12.857 -48.358  -5.509  1.00  0.00    -0.545 OA
ENDBRANCH   1   7
BRANCH   4  10
ATOM     10  O   UNL     1     -12.908 -48.522   0.111  1.00  0.00    -0.504 OA
ATOM     11  H   UNL     1     -11.977 -48.909   0.012  1.00  0.00     0.293 HD
ENDBRANCH   4  10
BRANCH   6  12
ATOM     12  O   UNL     1     -14.931 -46.637   0.411  1.00  0.00    -0.504 OA
ATOM     13  H   UNL     1     -14.181 -46.302   1.006  1.00  0.00     0.293 HD
ENDBRANCH   6  12
TORSDOF 3
ENDMDL
MODEL 5
REMARK VINA RESULT:    -4.715      8.031      9.411
REMARK INTER + INTRA:          -5.311
REMARK INTER:                  -5.275
REMARK INTRA:                  -0.036
REMARK UNBOUND:                -0.044
REMARK SMILES O=C([O-])c1ccc(O)c(O)c1
REMARK SMILES IDX 4 1 11 2 5 3 9 4 6 5 7 6 2 7 1 8 3 9 10 10 8 12
REMARK H PARENT 10 11 8 13
REMARK Flexibility Score: inf
ROOT
ATOM      1  C   UNL     1     -13.691 -48.337  -3.029  1.00  0.00     0.001 A 
ATOM      2  C   UNL     1     -14.486 -48.559  -4.169  1.00  0.00     0.060 A 
ATOM      3  C   UNL     1     -12.611 -47.441  -3.115  1.00  0.00     0.014 A 
ATOM      4  C   UNL     1     -14.206 -47.897  -5.373  1.00  0.00     0.158 A 
ATOM      5  C   UNL     1     -12.334 -46.781  -4.315  1.00  0.00     0.051 A 
ATOM      6  C   UNL     1     -13.129 -47.006  -5.446  1.00  0.00     0.157 A 
ENDROOT
BRANCH   1   7
ATOM      7  C   UNL     1     -13.983 -49.034  -1.757  1.00  0.00     0.072 C 
ATOM      8  O   UNL     1     -13.546 -50.197  -1.549  1.00  0.00    -0.545 OA
ATOM      9  O   UNL     1     -14.743 -48.413  -0.772  1.00  0.00    -0.545 OA
ENDBRANCH   1   7
BRANCH   4  10
ATOM     10  O   UNL     1     -14.997 -48.119  -6.500  1.00  0.00    -0.504 OA
ATOM     11  H   UNL     1     -14.627 -48.013  -7.436  1.00  0.00     0.293 HD
ENDBRANCH   4  10
BRANCH   6  12
ATOM     12  O   UNL     1     -12.854 -46.350  -6.644  1.00  0.00    -0.504 OA
ATOM     13  H   UNL     1     -13.394 -45.546  -6.943  1.00  0.00     0.293 HD
ENDBRANCH   6  12
TORSDOF 3
ENDMDL
MODEL 6
REMARK VINA RESULT:    -4.680      8.066      8.925
REMARK INTER + INTRA:          -5.271
REMARK INTER:                  -5.235
REMARK INTRA:                  -0.036
REMARK UNBOUND:                -0.044
REMARK SMILES O=C([O-])c1ccc(O)c(O)c1
REMARK SMILES IDX 4 1 11 2 5 3 9 4 6 5 7 6 2 7 1 8 3 9 10 10 8 12
REMARK H PARENT 10 11 8 13
REMARK Flexibility Score: inf
ROOT
ATOM      1  C   UNL     1      -9.912 -44.694  -3.554  1.00  0.00     0.001 A 
ATOM      2  C   UNL     1      -9.725 -44.012  -2.338  1.00  0.00     0.060 A 
ATOM      3  C   UNL     1     -10.961 -45.625  -3.660  1.00  0.00     0.014 A 
ATOM      4  C   UNL     1     -10.571 -44.257  -1.246  1.00  0.00     0.158 A 
ATOM      5  C   UNL     1     -11.804 -45.867  -2.572  1.00  0.00     0.051 A 
ATOM      6  C   UNL     1     -11.612 -45.185  -1.364  1.00  0.00     0.157 A 
ENDROOT
BRANCH   1   7
ATOM      7  C   UNL     1      -9.022 -44.440  -4.708  1.00  0.00     0.072 C 
ATOM      8  O   UNL     1      -8.029 -45.183  -4.927  1.00  0.00    -0.545 OA
ATOM      9  O   UNL     1      -9.269 -43.375  -5.567  1.00  0.00    -0.545 OA
ENDBRANCH   1   7
BRANCH   4  10
ATOM     10  O   UNL     1     -10.382 -43.579  -0.043  1.00  0.00    -0.504 OA
ATOM     11  H   UNL     1     -11.101 -42.981   0.348  1.00  0.00     0.293 HD
ENDBRANCH   4  10
BRANCH   6  12
ATOM     12  O   UNL     1     -12.451 -45.424  -0.277  1.00  0.00    -0.504 OA
ATOM     13  H   UNL     1     -13.429 -45.160  -0.295  1.00  0.00     0.293 HD
ENDBRANCH   6  12
TORSDOF 3
ENDMDL
MODEL 7
REMARK VINA RESULT:    -4.639      9.494     10.339
REMARK INTER + INTRA:          -5.226
REMARK INTER:                  -5.190
REMARK INTRA:                  -0.036
REMARK UNBOUND:                -0.044
REMARK SMILES O=C([O-])c1ccc(O)c(O)c1
REMARK SMILES IDX 4 1 11 2 5 3 9 4 6 5 7 6 2 7 1 8 3 9 10 10 8 12
REMARK H PARENT 10 11 8 13
REMARK Flexibility Score: inf
ROOT
ATOM      1  C   UNL     1     -14.238 -48.620  -3.199  1.00  0.00     0.001 A 
ATOM      2  C   UNL     1     -15.074 -47.549  -2.833  1.00  0.00     0.060 A 
ATOM      3  C   UNL     1     -13.614 -49.374  -2.189  1.00  0.00     0.014 A 
ATOM      4  C   UNL     1     -15.282 -47.237  -1.482  1.00  0.00     0.158 A 
ATOM      5  C   UNL     1     -13.823 -49.063  -0.844  1.00  0.00     0.051 A 
ATOM      6  C   UNL     1     -14.656 -47.995  -0.486  1.00  0.00     0.157 A 
ENDROOT
BRANCH   1   7
ATOM      7  C   UNL     1     -14.016 -48.953  -4.624  1.00  0.00     0.072 C 
ATOM      8  O   UNL     1     -14.826 -49.693  -5.243  1.00  0.00    -0.545 OA
ATOM      9  O   UNL     1     -12.909 -48.452  -5.300  1.00  0.00    -0.545 OA
ENDBRANCH   1   7
BRANCH   4  10
ATOM     10  O   UNL     1     -16.111 -46.175  -1.123  1.00  0.00    -0.504 OA
ATOM     11  H   UNL     1     -16.014 -45.704  -0.232  1.00  0.00     0.293 HD
ENDBRANCH   4  10
BRANCH   6  12
ATOM     12  O   UNL     1     -14.866 -47.682   0.855  1.00  0.00    -0.504 OA
ATOM     13  H   UNL     1     -14.607 -48.324   1.596  1.00  0.00     0.293 HD
ENDBRANCH   6  12
TORSDOF 3
ENDMDL
MODEL 8
REMARK VINA RESULT:    -4.596      8.783      9.937
REMARK INTER + INTRA:          -5.178
REMARK INTER:                  -5.140
REMARK INTRA:                  -0.038
REMARK UNBOUND:                -0.044
REMARK SMILES O=C([O-])c1ccc(O)c(O)c1
REMARK SMILES IDX 4 1 11 2 5 3 9 4 6 5 7 6 2 7 1 8 3 9 10 10 8 12
REMARK H PARENT 10 11 8 13
REMARK Flexibility Score: inf
ROOT
ATOM      1  C   UNL     1     -13.433 -48.104  -3.831  1.00  0.00     0.001 A 
ATOM      2  C   UNL     1     -13.112 -47.019  -2.995  1.00  0.00     0.060 A 
ATOM      3  C   UNL     1     -13.710 -49.354  -3.250  1.00  0.00     0.014 A 
ATOM      4  C   UNL     1     -13.068 -47.181  -1.603  1.00  0.00     0.158 A 
ATOM      5  C   UNL     1     -13.667 -49.514  -1.863  1.00  0.00     0.051 A 
ATOM      6  C   UNL     1     -13.346 -48.430  -1.036  1.00  0.00     0.157 A 
ENDROOT
BRANCH   1   7
ATOM      7  C   UNL     1     -13.481 -47.937  -5.301  1.00  0.00     0.072 C 
ATOM      8  O   UNL     1     -12.474 -47.516  -5.931  1.00  0.00    -0.545 OA
ATOM      9  O   UNL     1     -14.638 -48.244  -6.008  1.00  0.00    -0.545 OA
ENDBRANCH   1   7
BRANCH   4  10
ATOM     10  O   UNL     1     -12.750 -46.103  -0.778  1.00  0.00    -0.504 OA
ATOM     11  H   UNL     1     -13.029 -45.157  -1.009  1.00  0.00     0.293 HD
ENDBRANCH   4  10
BRANCH   6  12
ATOM     12  O   UNL     1     -13.302 -48.586   0.348  1.00  0.00    -0.504 OA
ATOM     13  H   UNL     1     -13.073 -49.477   0.773  1.00  0.00     0.293 HD
ENDBRANCH   6  12
TORSDOF 3
ENDMDL
MODEL 9
REMARK VINA RESULT:    -4.520      8.249      9.191
REMARK INTER + INTRA:          -5.092
REMARK INTER:                  -5.048
REMARK INTRA:                  -0.044
REMARK UNBOUND:                -0.044
REMARK SMILES O=C([O-])c1ccc(O)c(O)c1
REMARK SMILES IDX 4 1 11 2 5 3 9 4 6 5 7 6 2 7 1 8 3 9 10 10 8 12
REMARK H PARENT 10 11 8 13
REMARK Flexibility Score: inf
ROOT
ATOM      1  C   UNL     1     -14.809 -47.929  -2.715  1.00  0.00     0.001 A 
ATOM      2  C   UNL     1     -14.378 -48.283  -4.006  1.00  0.00     0.060 A 
ATOM      3  C   UNL     1     -15.465 -46.699  -2.528  1.00  0.00     0.014 A 
ATOM      4  C   UNL     1     -14.598 -47.423  -5.092  1.00  0.00     0.158 A 
ATOM      5  C   UNL     1     -15.685 -45.844  -3.611  1.00  0.00     0.051 A 
ATOM      6  C   UNL     1     -15.253 -46.202  -4.894  1.00  0.00     0.157 A 
ENDROOT
BRANCH   1   7
ATOM      7  C   UNL     1     -14.578 -48.833  -1.567  1.00  0.00     0.072 C 
ATOM      8  O   UNL     1     -15.153 -48.628  -0.464  1.00  0.00    -0.545 OA
ATOM      9  O   UNL     1     -13.722 -49.922  -1.688  1.00  0.00    -0.545 OA
ENDBRANCH   1   7
BRANCH   4  10
ATOM     10  O   UNL     1     -14.170 -47.778  -6.370  1.00  0.00    -0.504 OA
ATOM     11  H   UNL     1     -13.231 -48.118  -6.540  1.00  0.00     0.293 HD
ENDBRANCH   4  10
BRANCH   6  12
ATOM     12  O   UNL     1     -15.471 -45.351  -5.976  1.00  0.00    -0.504 OA
ATOM     13  H   UNL     1     -15.112 -44.403  -5.984  1.00  0.00     0.293 HD
ENDBRANCH   6  12
TORSDOF 3
ENDMDL
