MODEL 1
REMARK VINA RESULT:    -4.009      0.000      0.000
REMARK INTER + INTRA:          -9.574
REMARK INTER:                  -7.291
REMARK INTRA:                  -2.283
REMARK UNBOUND:                -2.283
REMARK SMILES CCCCCCCCCCCCCCCC(=O)[O-]
REMARK SMILES IDX 9 1 10 2 11 3 12 4 13 5 14 6 15 7 16 8 17 9 18 10 8 11 7 12
REMARK SMILES IDX 6 13 5 14 4 15 3 16 2 17 1 18
REMARK H PARENT
REMARK Flexibility Score: inf
ROOT
ATOM      1  C   UNL     1     126.885 145.211 107.338  1.00  0.00     0.000 C 
ENDROOT
BRANCH   1   2
ATOM      2  C   UNL     1     127.091 146.045 108.617  1.00  0.00     0.000 C 
BRANCH   2   3
ATOM      3  C   UNL     1     128.570 146.164 109.023  1.00  0.00     0.000 C 
BRANCH   3   4
ATOM      4  C   UNL     1     129.457 145.118 108.329  1.00  0.00     0.000 C 
BRANCH   4   5
ATOM      5  C   UNL     1     130.828 145.680 107.918  1.00  0.00     0.000 C 
BRANCH   5   6
ATOM      6  C   UNL     1     130.920 145.842 106.396  1.00  0.00     0.006 C 
BRANCH   6   7
ATOM      7  C   UNL     1     132.046 146.807 106.013  1.00  0.00     0.053 C 
BRANCH   7   8
ATOM      8  C   UNL     1     133.366 146.103 106.025  1.00  0.00     0.041 C 
ATOM      9  O   UNL     1     134.276 146.474 106.811  1.00  0.00    -0.550 OA
ATOM     10  O   UNL     1     133.574 145.004 105.201  1.00  0.00    -0.550 OA
ENDBRANCH   7   8
ENDBRANCH   6   7
ENDBRANCH   5   6
ENDBRANCH   4   5
ENDBRANCH   3   4
ENDBRANCH   2   3
ENDBRANCH   1   2
BRANCH   1  11
ATOM     11  C   UNL     1     126.876 146.016 106.026  1.00  0.00     0.000 C 
BRANCH  11  12
ATOM     12  C   UNL     1     127.522 145.258 104.853  1.00  0.00    -0.000 C 
BRANCH  12  13
ATOM     13  C   UNL     1     127.518 143.734 105.064  1.00  0.00    -0.000 C 
BRANCH  13  14
ATOM     14  C   UNL     1     128.936 143.145 105.119  1.00  0.00    -0.000 C 
BRANCH  14  15
ATOM     15  C   UNL     1     129.085 142.034 106.176  1.00  0.00    -0.000 C 
BRANCH  15  16
ATOM     16  C   UNL     1     127.769 141.582 106.835  1.00  0.00    -0.000 C 
BRANCH  16  17
ATOM     17  C   UNL     1     127.715 141.895 108.338  1.00  0.00    -0.003 C 
ATOM     18  C   UNL     1     128.954 141.364 109.054  1.00  0.00     0.004 C 
ENDBRANCH  16  17
ENDBRANCH  15  16
ENDBRANCH  14  15
ENDBRANCH  13  14
ENDBRANCH  12  13
ENDBRANCH  11  12
ENDBRANCH   1  11
TORSDOF 14
ENDMDL
MODEL 2
REMARK VINA RESULT:    -3.868      2.828      5.805
REMARK INTER + INTRA:          -9.318
REMARK INTER:                  -7.413
REMARK INTRA:                  -1.905
REMARK UNBOUND:                -2.283
REMARK SMILES CCCCCCCCCCCCCCCC(=O)[O-]
REMARK SMILES IDX 9 1 10 2 11 3 12 4 13 5 14 6 15 7 16 8 17 9 18 10 8 11 7 12
REMARK SMILES IDX 6 13 5 14 4 15 3 16 2 17 1 18
REMARK H PARENT
REMARK Flexibility Score: inf
ROOT
ATOM      1  C   UNL     1     126.917 145.556 107.759  1.00  0.00     0.000 C 
ENDROOT
BRANCH   1   2
ATOM      2  C   UNL     1     126.875 146.247 106.383  1.00  0.00     0.000 C 
BRANCH   2   3
ATOM      3  C   UNL     1     127.474 145.383 105.259  1.00  0.00     0.000 C 
BRANCH   3   4
ATOM      4  C   UNL     1     127.419 143.880 105.579  1.00  0.00     0.000 C 
BRANCH   4   5
ATOM      5  C   UNL     1     128.710 143.143 105.189  1.00  0.00     0.000 C 
BRANCH   5   6
ATOM      6  C   UNL     1     128.843 141.825 105.961  1.00  0.00     0.006 C 
BRANCH   6   7
ATOM      7  C   UNL     1     127.515 141.434 106.616  1.00  0.00     0.053 C 
BRANCH   7   8
ATOM      8  C   UNL     1     127.742 140.439 107.708  1.00  0.00     0.041 C 
ATOM      9  O   UNL     1     127.324 139.258 107.587  1.00  0.00    -0.550 OA
ATOM     10  O   UNL     1     128.460 140.802 108.841  1.00  0.00    -0.550 OA
ENDBRANCH   7   8
ENDBRANCH   6   7
ENDBRANCH   5   6
ENDBRANCH   4   5
ENDBRANCH   3   4
ENDBRANCH   2   3
ENDBRANCH   1   2
BRANCH   1  11
ATOM     11  C   UNL     1     127.923 146.152 108.761  1.00  0.00     0.000 C 
BRANCH  11  12
ATOM     12  C   UNL     1     128.944 145.121 109.272  1.00  0.00    -0.000 C 
BRANCH  12  13
ATOM     13  C   UNL     1     129.967 144.724 108.195  1.00  0.00    -0.000 C 
BRANCH  13  14
ATOM     14  C   UNL     1     130.791 145.922 107.697  1.00  0.00    -0.000 C 
BRANCH  14  15
ATOM     15  C   UNL     1     131.057 145.879 106.180  1.00  0.00    -0.000 C 
BRANCH  15  16
ATOM     16  C   UNL     1     132.290 146.672 105.712  1.00  0.00    -0.000 C 
BRANCH  16  17
ATOM     17  C   UNL     1     133.601 145.889 105.872  1.00  0.00    -0.003 C 
ATOM     18  C   UNL     1     134.439 145.953 104.597  1.00  0.00     0.004 C 
ENDBRANCH  16  17
ENDBRANCH  15  16
ENDBRANCH  14  15
ENDBRANCH  13  14
ENDBRANCH  12  13
ENDBRANCH  11  12
ENDBRANCH   1  11
TORSDOF 14
ENDMDL
MODEL 3
REMARK VINA RESULT:    -3.835      1.474      3.731
REMARK INTER + INTRA:          -9.256
REMARK INTER:                  -7.208
REMARK INTRA:                  -2.048
REMARK UNBOUND:                -2.283
REMARK SMILES CCCCCCCCCCCCCCCC(=O)[O-]
REMARK SMILES IDX 9 1 10 2 11 3 12 4 13 5 14 6 15 7 16 8 17 9 18 10 8 11 7 12
REMARK SMILES IDX 6 13 5 14 4 15 3 16 2 17 1 18
REMARK H PARENT
REMARK Flexibility Score: inf
ROOT
ATOM      1  C   UNL     1     130.949 145.213 107.989  1.00  0.00     0.000 C 
ENDROOT
BRANCH   1   2
ATOM      2  C   UNL     1     130.820 146.015 106.681  1.00  0.00     0.000 C 
BRANCH   2   3
ATOM      3  C   UNL     1     132.116 146.021 105.852  1.00  0.00     0.000 C 
BRANCH   3   4
ATOM      4  C   UNL     1     132.718 144.615 105.690  1.00  0.00     0.000 C 
BRANCH   4   5
ATOM      5  C   UNL     1     134.143 144.643 105.114  1.00  0.00     0.000 C 
BRANCH   5   6
ATOM      6  C   UNL     1     134.755 146.044 105.232  1.00  0.00     0.006 C 
BRANCH   6   7
ATOM      7  C   UNL     1     136.110 145.994 105.944  1.00  0.00     0.053 C 
BRANCH   7   8
ATOM      8  C   UNL     1     135.956 146.344 107.390  1.00  0.00     0.041 C 
ATOM      9  O   UNL     1     134.855 146.771 107.826  1.00  0.00    -0.550 OA
ATOM     10  O   UNL     1     137.014 146.148 108.268  1.00  0.00    -0.550 OA
ENDBRANCH   7   8
ENDBRANCH   6   7
ENDBRANCH   5   6
ENDBRANCH   4   5
ENDBRANCH   3   4
ENDBRANCH   2   3
ENDBRANCH   1   2
BRANCH   1  11
ATOM     11  C   UNL     1     129.638 145.030 108.777  1.00  0.00     0.000 C 
BRANCH  11  12
ATOM     12  C   UNL     1     128.520 145.978 108.310  1.00  0.00    -0.000 C 
BRANCH  12  13
ATOM     13  C   UNL     1     127.370 145.233 107.611  1.00  0.00    -0.000 C 
BRANCH  13  14
ATOM     14  C   UNL     1     127.024 145.839 106.242  1.00  0.00    -0.000 C 
BRANCH  14  15
ATOM     15  C   UNL     1     127.546 144.995 105.063  1.00  0.00    -0.000 C 
BRANCH  15  16
ATOM     16  C   UNL     1     127.735 143.497 105.367  1.00  0.00    -0.000 C 
BRANCH  16  17
ATOM     17  C   UNL     1     129.200 143.048 105.271  1.00  0.00    -0.003 C 
ATOM     18  C   UNL     1     129.545 142.058 106.380  1.00  0.00     0.004 C 
ENDBRANCH  16  17
ENDBRANCH  15  16
ENDBRANCH  14  15
ENDBRANCH  13  14
ENDBRANCH  12  13
ENDBRANCH  11  12
ENDBRANCH   1  11
TORSDOF 14
ENDMDL
MODEL 4
REMARK VINA RESULT:    -3.780      2.297      5.408
REMARK INTER + INTRA:          -9.156
REMARK INTER:                  -7.164
REMARK INTRA:                  -1.992
REMARK UNBOUND:                -2.283
REMARK SMILES CCCCCCCCCCCCCCCC(=O)[O-]
REMARK SMILES IDX 9 1 10 2 11 3 12 4 13 5 14 6 15 7 16 8 17 9 18 10 8 11 7 12
REMARK SMILES IDX 6 13 5 14 4 15 3 16 2 17 1 18
REMARK H PARENT
REMARK Flexibility Score: inf
ROOT
ATOM      1  C   UNL     1     129.334 142.631 105.473  1.00  0.00     0.000 C 
ENDROOT
BRANCH   1   2
ATOM      2  C   UNL     1     127.879 143.094 105.680  1.00  0.00     0.000 C 
BRANCH   2   3
ATOM      3  C   UNL     1     127.534 144.361 104.879  1.00  0.00     0.000 C 
BRANCH   3   4
ATOM      4  C   UNL     1     127.571 145.633 105.743  1.00  0.00     0.000 C 
BRANCH   4   5
ATOM      5  C   UNL     1     126.911 145.436 107.117  1.00  0.00     0.000 C 
BRANCH   5   6
ATOM      6  C   UNL     1     127.769 146.050 108.230  1.00  0.00     0.006 C 
BRANCH   6   7
ATOM      7  C   UNL     1     128.396 144.961 109.105  1.00  0.00     0.053 C 
BRANCH   7   8
ATOM      8  C   UNL     1     129.675 145.445 109.710  1.00  0.00     0.041 C 
ATOM      9  O   UNL     1     129.865 146.676 109.889  1.00  0.00    -0.550 OA
ATOM     10  O   UNL     1     130.636 144.533 110.125  1.00  0.00    -0.550 OA
ENDBRANCH   7   8
ENDBRANCH   6   7
ENDBRANCH   5   6
ENDBRANCH   4   5
ENDBRANCH   3   4
ENDBRANCH   2   3
ENDBRANCH   1   2
BRANCH   1  11
ATOM     11  C   UNL     1     130.354 143.211 106.471  1.00  0.00     0.000 C 
BRANCH  11  12
ATOM     12  C   UNL     1     131.305 144.236 105.828  1.00  0.00    -0.000 C 
BRANCH  12  13
ATOM     13  C   UNL     1     131.242 145.609 106.518  1.00  0.00    -0.000 C 
BRANCH  13  14
ATOM     14  C   UNL     1     132.192 146.633 105.876  1.00  0.00    -0.000 C 
BRANCH  14  15
ATOM     15  C   UNL     1     133.670 146.203 105.940  1.00  0.00    -0.000 C 
BRANCH  15  16
ATOM     16  C   UNL     1     134.372 146.077 104.575  1.00  0.00    -0.000 C 
BRANCH  16  17
ATOM     17  C   UNL     1     134.696 144.622 104.202  1.00  0.00    -0.003 C 
ATOM     18  C   UNL     1     134.964 143.782 105.449  1.00  0.00     0.004 C 
ENDBRANCH  16  17
ENDBRANCH  15  16
ENDBRANCH  14  15
ENDBRANCH  13  14
ENDBRANCH  12  13
ENDBRANCH  11  12
ENDBRANCH   1  11
TORSDOF 14
ENDMDL
MODEL 5
REMARK VINA RESULT:    -3.732      1.667      3.684
REMARK INTER + INTRA:          -9.070
REMARK INTER:                  -6.883
REMARK INTRA:                  -2.186
REMARK UNBOUND:                -2.283
REMARK SMILES CCCCCCCCCCCCCCCC(=O)[O-]
REMARK SMILES IDX 9 1 10 2 11 3 12 4 13 5 14 6 15 7 16 8 17 9 18 10 8 11 7 12
REMARK SMILES IDX 6 13 5 14 4 15 3 16 2 17 1 18
REMARK H PARENT
REMARK Flexibility Score: inf
ROOT
ATOM      1  C   UNL     1     130.936 142.983 106.449  1.00  0.00     0.000 C 
ENDROOT
BRANCH   1   2
ATOM      2  C   UNL     1     131.377 144.341 107.027  1.00  0.00     0.000 C 
BRANCH   2   3
ATOM      3  C   UNL     1     130.985 145.529 106.131  1.00  0.00     0.000 C 
BRANCH   3   4
ATOM      4  C   UNL     1     131.968 146.705 106.250  1.00  0.00     0.000 C 
BRANCH   4   5
ATOM      5  C   UNL     1     133.433 146.248 106.336  1.00  0.00     0.000 C 
BRANCH   5   6
ATOM      6  C   UNL     1     134.010 145.994 104.938  1.00  0.00     0.006 C 
BRANCH   6   7
ATOM      7  C   UNL     1     135.238 145.082 105.008  1.00  0.00     0.053 C 
BRANCH   7   8
ATOM      8  C   UNL     1     134.893 143.702 104.545  1.00  0.00     0.041 C 
ATOM      9  O   UNL     1     133.704 143.411 104.252  1.00  0.00    -0.550 OA
ATOM     10  O   UNL     1     135.893 142.752 104.389  1.00  0.00    -0.550 OA
ENDBRANCH   7   8
ENDBRANCH   6   7
ENDBRANCH   5   6
ENDBRANCH   4   5
ENDBRANCH   3   4
ENDBRANCH   2   3
ENDBRANCH   1   2
BRANCH   1  11
ATOM     11  C   UNL     1     129.809 143.052 105.402  1.00  0.00     0.000 C 
BRANCH  11  12
ATOM     12  C   UNL     1     128.504 142.391 105.880  1.00  0.00    -0.000 C 
BRANCH  12  13
ATOM     13  C   UNL     1     127.280 143.302 105.687  1.00  0.00    -0.000 C 
BRANCH  13  14
ATOM     14  C   UNL     1     127.635 144.625 104.989  1.00  0.00    -0.000 C 
BRANCH  14  15
ATOM     15  C   UNL     1     127.166 145.863 105.775  1.00  0.00    -0.000 C 
BRANCH  15  16
ATOM     16  C   UNL     1     126.875 145.617 107.267  1.00  0.00    -0.000 C 
BRANCH  16  17
ATOM     17  C   UNL     1     128.057 145.987 108.175  1.00  0.00    -0.003 C 
ATOM     18  C   UNL     1     128.424 144.827 109.098  1.00  0.00     0.004 C 
ENDBRANCH  16  17
ENDBRANCH  15  16
ENDBRANCH  14  15
ENDBRANCH  13  14
ENDBRANCH  12  13
ENDBRANCH  11  12
ENDBRANCH   1  11
TORSDOF 14
ENDMDL
MODEL 6
REMARK VINA RESULT:    -3.704      2.052      4.427
REMARK INTER + INTRA:          -9.018
REMARK INTER:                  -6.563
REMARK INTRA:                  -2.456
REMARK UNBOUND:                -2.283
REMARK SMILES CCCCCCCCCCCCCCCC(=O)[O-]
REMARK SMILES IDX 9 1 10 2 11 3 12 4 13 5 14 6 15 7 16 8 17 9 18 10 8 11 7 12
REMARK SMILES IDX 6 13 5 14 4 15 3 16 2 17 1 18
REMARK H PARENT
REMARK Flexibility Score: inf
ROOT
ATOM      1  C   UNL     1     127.330 145.128 105.000  1.00  0.00     0.000 C 
ENDROOT
BRANCH   1   2
ATOM      2  C   UNL     1     127.453 143.641 105.383  1.00  0.00     0.000 C 
BRANCH   2   3
ATOM      3  C   UNL     1     128.841 143.055 105.074  1.00  0.00     0.000 C 
BRANCH   3   4
ATOM      4  C   UNL     1     129.317 142.067 106.152  1.00  0.00     0.000 C 
BRANCH   4   5
ATOM      5  C   UNL     1     130.843 142.078 106.335  1.00  0.00     0.000 C 
BRANCH   5   6
ATOM      6  C   UNL     1     131.539 142.666 105.102  1.00  0.00     0.006 C 
BRANCH   6   7
ATOM      7  C   UNL     1     133.012 142.966 105.392  1.00  0.00     0.053 C 
BRANCH   7   8
ATOM      8  C   UNL     1     133.820 141.708 105.355  1.00  0.00     0.041 C 
ATOM      9  O   UNL     1     134.182 141.218 104.253  1.00  0.00    -0.550 OA
ATOM     10  O   UNL     1     134.218 141.102 106.540  1.00  0.00    -0.550 OA
ENDBRANCH   7   8
ENDBRANCH   6   7
ENDBRANCH   5   6
ENDBRANCH   4   5
ENDBRANCH   3   4
ENDBRANCH   2   3
ENDBRANCH   1   2
BRANCH   1  11
ATOM     11  C   UNL     1     126.875 146.062 106.137  1.00  0.00     0.000 C 
BRANCH  11  12
ATOM     12  C   UNL     1     126.956 145.401 107.524  1.00  0.00    -0.000 C 
BRANCH  12  13
ATOM     13  C   UNL     1     128.143 145.921 108.354  1.00  0.00    -0.000 C 
BRANCH  13  14
ATOM     14  C   UNL     1     129.342 144.959 108.330  1.00  0.00    -0.000 C 
BRANCH  14  15
ATOM     15  C   UNL     1     130.635 145.626 107.823  1.00  0.00    -0.000 C 
BRANCH  15  16
ATOM     16  C   UNL     1     130.634 146.000 106.330  1.00  0.00    -0.000 C 
BRANCH  16  17
ATOM     17  C   UNL     1     131.976 146.578 105.857  1.00  0.00    -0.003 C 
ATOM     18  C   UNL     1     133.061 146.381 106.913  1.00  0.00     0.004 C 
ENDBRANCH  16  17
ENDBRANCH  15  16
ENDBRANCH  14  15
ENDBRANCH  13  14
ENDBRANCH  12  13
ENDBRANCH  11  12
ENDBRANCH   1  11
TORSDOF 14
ENDMDL
MODEL 7
REMARK VINA RESULT:    -3.688      1.504      3.182
REMARK INTER + INTRA:          -8.990
REMARK INTER:                  -6.729
REMARK INTRA:                  -2.260
REMARK UNBOUND:                -2.283
REMARK SMILES CCCCCCCCCCCCCCCC(=O)[O-]
REMARK SMILES IDX 9 1 10 2 11 3 12 4 13 5 14 6 15 7 16 8 17 9 18 10 8 11 7 12
REMARK SMILES IDX 6 13 5 14 4 15 3 16 2 17 1 18
REMARK H PARENT
REMARK Flexibility Score: inf
ROOT
ATOM      1  C   UNL     1     130.211 142.446 105.604  1.00  0.00     0.000 C 
ENDROOT
BRANCH   1   2
ATOM      2  C   UNL     1     131.170 143.088 106.625  1.00  0.00     0.000 C 
BRANCH   2   3
ATOM      3  C   UNL     1     130.445 143.974 107.653  1.00  0.00     0.000 C 
BRANCH   3   4
ATOM      4  C   UNL     1     130.910 145.439 107.600  1.00  0.00     0.000 C 
BRANCH   4   5
ATOM      5  C   UNL     1     130.889 146.017 106.176  1.00  0.00     0.000 C 
BRANCH   5   6
ATOM      6  C   UNL     1     132.206 146.734 105.856  1.00  0.00     0.006 C 
BRANCH   6   7
ATOM      7  C   UNL     1     133.366 145.739 105.767  1.00  0.00     0.053 C 
BRANCH   7   8
ATOM      8  C   UNL     1     134.524 146.209 106.589  1.00  0.00     0.041 C 
ATOM      9  O   UNL     1     134.348 146.584 107.777  1.00  0.00    -0.550 OA
ATOM     10  O   UNL     1     135.808 146.183 106.059  1.00  0.00    -0.550 OA
ENDBRANCH   7   8
ENDBRANCH   6   7
ENDBRANCH   5   6
ENDBRANCH   4   5
ENDBRANCH   3   4
ENDBRANCH   2   3
ENDBRANCH   1   2
BRANCH   1  11
ATOM     11  C   UNL     1     128.715 142.714 105.853  1.00  0.00     0.000 C 
BRANCH  11  12
ATOM     12  C   UNL     1     128.056 143.526 104.724  1.00  0.00    -0.000 C 
BRANCH  12  13
ATOM     13  C   UNL     1     127.544 144.894 105.206  1.00  0.00    -0.000 C 
BRANCH  13  14
ATOM     14  C   UNL     1     126.965 144.836 106.629  1.00  0.00    -0.000 C 
BRANCH  14  15
ATOM     15  C   UNL     1     127.205 146.132 107.427  1.00  0.00    -0.000 C 
BRANCH  15  16
ATOM     16  C   UNL     1     126.936 146.025 108.939  1.00  0.00    -0.000 C 
BRANCH  16  17
ATOM     17  C   UNL     1     127.435 144.704 109.544  1.00  0.00    -0.003 C 
ATOM     18  C   UNL     1     128.509 144.954 110.599  1.00  0.00     0.004 C 
ENDBRANCH  16  17
ENDBRANCH  15  16
ENDBRANCH  14  15
ENDBRANCH  13  14
ENDBRANCH  12  13
ENDBRANCH  11  12
ENDBRANCH   1  11
TORSDOF 14
ENDMDL
MODEL 8
REMARK VINA RESULT:    -3.661      3.436      5.635
REMARK INTER + INTRA:          -8.940
REMARK INTER:                  -6.706
REMARK INTRA:                  -2.234
REMARK UNBOUND:                -2.283
REMARK SMILES CCCCCCCCCCCCCCCC(=O)[O-]
REMARK SMILES IDX 9 1 10 2 11 3 12 4 13 5 14 6 15 7 16 8 17 9 18 10 8 11 7 12
REMARK SMILES IDX 6 13 5 14 4 15 3 16 2 17 1 18
REMARK H PARENT
REMARK Flexibility Score: inf
ROOT
ATOM      1  C   UNL     1     129.902 145.393 108.405  1.00  0.00     0.000 C 
ENDROOT
BRANCH   1   2
ATOM      2  C   UNL     1     130.276 145.759 106.956  1.00  0.00     0.000 C 
BRANCH   2   3
ATOM      3  C   UNL     1     129.692 144.781 105.922  1.00  0.00     0.000 C 
BRANCH   3   4
ATOM      4  C   UNL     1     128.312 145.223 105.407  1.00  0.00     0.000 C 
BRANCH   4   5
ATOM      5  C   UNL     1     127.295 144.071 105.372  1.00  0.00     0.000 C 
BRANCH   5   6
ATOM      6  C   UNL     1     127.951 142.748 105.785  1.00  0.00     0.006 C 
BRANCH   6   7
ATOM      7  C   UNL     1     126.919 141.780 106.370  1.00  0.00     0.053 C 
BRANCH   7   8
ATOM      8  C   UNL     1     127.573 140.499 106.778  1.00  0.00     0.041 C 
ATOM      9  O   UNL     1     128.311 140.459 107.796  1.00  0.00    -0.550 OA
ATOM     10  O   UNL     1     127.325 139.334 106.062  1.00  0.00    -0.550 OA
ENDBRANCH   7   8
ENDBRANCH   6   7
ENDBRANCH   5   6
ENDBRANCH   4   5
ENDBRANCH   3   4
ENDBRANCH   2   3
ENDBRANCH   1   2
BRANCH   1  11
ATOM     11  C   UNL     1     128.636 146.081 108.947  1.00  0.00     0.000 C 
BRANCH  11  12
ATOM     12  C   UNL     1     127.475 145.099 109.185  1.00  0.00    -0.000 C 
BRANCH  12  13
ATOM     13  C   UNL     1     127.959 143.653 109.383  1.00  0.00    -0.000 C 
BRANCH  13  14
ATOM     14  C   UNL     1     127.653 143.119 110.792  1.00  0.00    -0.000 C 
BRANCH  14  15
ATOM     15  C   UNL     1     127.263 144.232 111.783  1.00  0.00    -0.000 C 
BRANCH  15  16
ATOM     16  C   UNL     1     128.258 144.456 112.937  1.00  0.00    -0.000 C 
BRANCH  16  17
ATOM     17  C   UNL     1     129.707 144.128 112.548  1.00  0.00    -0.003 C 
ATOM     18  C   UNL     1     130.481 145.395 112.193  1.00  0.00     0.004 C 
ENDBRANCH  16  17
ENDBRANCH  15  16
ENDBRANCH  14  15
ENDBRANCH  13  14
ENDBRANCH  12  13
ENDBRANCH  11  12
ENDBRANCH   1  11
TORSDOF 14
ENDMDL
MODEL 9
REMARK VINA RESULT:    -3.636      1.391      3.503
REMARK INTER + INTRA:          -8.895
REMARK INTER:                  -6.712
REMARK INTRA:                  -2.183
REMARK UNBOUND:                -2.283
REMARK SMILES CCCCCCCCCCCCCCCC(=O)[O-]
REMARK SMILES IDX 9 1 10 2 11 3 12 4 13 5 14 6 15 7 16 8 17 9 18 10 8 11 7 12
REMARK SMILES IDX 6 13 5 14 4 15 3 16 2 17 1 18
REMARK H PARENT
REMARK Flexibility Score: inf
ROOT
ATOM      1  C   UNL     1     127.975 142.741 105.928  1.00  0.00     0.000 C 
ENDROOT
BRANCH   1   2
ATOM      2  C   UNL     1     129.433 142.414 106.302  1.00  0.00     0.000 C 
BRANCH   2   3
ATOM      3  C   UNL     1     130.441 143.413 105.711  1.00  0.00     0.000 C 
BRANCH   3   4
ATOM      4  C   UNL     1     130.964 144.411 106.757  1.00  0.00     0.000 C 
BRANCH   4   5
ATOM      5  C   UNL     1     130.897 145.868 106.273  1.00  0.00     0.000 C 
BRANCH   5   6
ATOM      6  C   UNL     1     132.271 146.541 106.367  1.00  0.00     0.006 C 
BRANCH   6   7
ATOM      7  C   UNL     1     133.274 145.644 107.097  1.00  0.00     0.053 C 
BRANCH   7   8
ATOM      8  C   UNL     1     134.672 145.964 106.671  1.00  0.00     0.041 C 
ATOM      9  O   UNL     1     135.066 145.664 105.514  1.00  0.00    -0.550 OA
ATOM     10  O   UNL     1     135.523 146.642 107.534  1.00  0.00    -0.550 OA
ENDBRANCH   7   8
ENDBRANCH   6   7
ENDBRANCH   5   6
ENDBRANCH   4   5
ENDBRANCH   3   4
ENDBRANCH   2   3
ENDBRANCH   1   2
BRANCH   1  11
ATOM     11  C   UNL     1     127.802 143.848 104.873  1.00  0.00     0.000 C 
BRANCH  11  12
ATOM     12  C   UNL     1     127.245 145.157 105.461  1.00  0.00    -0.000 C 
BRANCH  12  13
ATOM     13  C   UNL     1     126.875 145.022 106.947  1.00  0.00    -0.000 C 
BRANCH  13  14
ATOM     14  C   UNL     1     127.611 146.042 107.831  1.00  0.00    -0.000 C 
BRANCH  14  15
ATOM     15  C   UNL     1     128.194 145.416 109.112  1.00  0.00    -0.000 C 
BRANCH  15  16
ATOM     16  C   UNL     1     129.477 146.084 109.639  1.00  0.00    -0.000 C 
BRANCH  16  17
ATOM     17  C   UNL     1     130.455 145.084 110.274  1.00  0.00    -0.003 C 
ATOM     18  C   UNL     1     131.635 145.805 110.921  1.00  0.00     0.004 C 
ENDBRANCH  16  17
ENDBRANCH  15  16
ENDBRANCH  14  15
ENDBRANCH  13  14
ENDBRANCH  12  13
ENDBRANCH  11  12
ENDBRANCH   1  11
TORSDOF 14
ENDMDL
