MODEL 1
REMARK VINA RESULT:    42.235      0.000      0.000
REMARK INTER + INTRA:          61.974
REMARK INTER:                  63.222
REMARK INTRA:                  -1.249
REMARK UNBOUND:                -1.249
REMARK SMILES COC(=O)C1=CO[C@@H](O[C@H]2O[C@H](CO)[C@@H](O)[C@@H](O)[C@@H]2O)[C@@H]2C(CO)=CC[C@H]12
REMARK SMILES IDX 9 1 8 2 5 3 6 4 27 5 7 6 21 7 26 8 22 9 25 10 3 11 4 12 2 13
REMARK SMILES IDX 1 14 23 15 24 16 10 18 19 19 11 20 17 21 12 22 15 23 20 24
REMARK SMILES IDX 18 26 13 28 14 29 16 31
REMARK H PARENT 24 17 20 25 18 27 14 30 16 32
REMARK Flexibility Score: inf
ROOT
ATOM      1  O   UNL     1     -15.616   8.274  -9.006  1.00  0.00    -0.310 OA
ENDROOT
BRANCH   1   2
ATOM      2  C   UNL     1     -16.381   9.462  -9.134  1.00  0.00     0.316 C 
ATOM      3  C   UNL     1     -17.028  12.175  -9.801  1.00  0.00     0.076 C 
ATOM      4  C   UNL     1     -16.791  11.266 -10.761  1.00  0.00     0.202 C 
ATOM      5  C   UNL     1     -16.699  11.873  -8.346  1.00  0.00     0.047 C 
ATOM      6  O   UNL     1     -16.312   9.993 -10.456  1.00  0.00    -0.471 OA
ATOM      7  C   UNL     1     -15.985  10.527  -8.086  1.00  0.00     0.094 C 
ATOM      8  C   UNL     1     -17.940  11.842  -7.442  1.00  0.00     0.037 C 
ATOM      9  C   UNL     1     -16.506  10.139  -6.736  1.00  0.00    -0.039 C 
ATOM     10  C   UNL     1     -17.579  10.845  -6.397  1.00  0.00    -0.024 C 
BRANCH   3  11
ATOM     11  C   UNL     1     -17.549  13.515 -10.163  1.00  0.00     0.337 C 
ATOM     12  O   UNL     1     -18.266  13.652 -11.192  1.00  0.00    -0.246 OA
BRANCH  11  13
ATOM     13  O   UNL     1     -17.247  14.627  -9.368  1.00  0.00    -0.466 OA
ATOM     14  C   UNL     1     -16.077  15.412  -9.560  1.00  0.00     0.282 C 
ENDBRANCH  11  13
ENDBRANCH   3  11
BRANCH   9  15
ATOM     15  C   UNL     1     -15.914   9.059  -5.875  1.00  0.00     0.187 C 
BRANCH  15  16
ATOM     16  O   UNL     1     -14.519   9.038  -6.012  1.00  0.00    -0.392 OA
ATOM     17  H   UNL     1     -14.260   9.902  -6.426  1.00  0.00     0.211 HD
ENDBRANCH  15  16
ENDBRANCH   9  15
ENDBRANCH   1   2
BRANCH   1  18
ATOM     18  C   UNL     1     -16.197   7.152  -9.663  1.00  0.00     0.286 C 
ATOM     19  C   UNL     1     -16.266   5.943  -8.704  1.00  0.00     0.202 C 
ATOM     20  O   UNL     1     -15.462   6.831 -10.835  1.00  0.00    -0.341 OA
ATOM     21  C   UNL     1     -14.853   5.432  -8.365  1.00  0.00     0.179 C 
ATOM     22  C   UNL     1     -14.110   6.505 -10.547  1.00  0.00     0.178 C 
ATOM     23  C   UNL     1     -14.040   5.234  -9.658  1.00  0.00     0.177 C 
BRANCH  19  24
ATOM     24  O   UNL     1     -17.001   4.903  -9.298  1.00  0.00    -0.385 OA
ATOM     25  H   UNL     1     -17.609   4.544  -8.599  1.00  0.00     0.211 HD
ENDBRANCH  19  24
BRANCH  21  26
ATOM     26  O   UNL     1     -14.201   6.344  -7.517  1.00  0.00    -0.387 OA
ATOM     27  H   UNL     1     -13.512   5.831  -7.017  1.00  0.00     0.211 HD
ENDBRANCH  21  26
BRANCH  22  28
ATOM     28  C   UNL     1     -13.386   6.295 -11.886  1.00  0.00     0.191 C 
BRANCH  28  29
ATOM     29  O   UNL     1     -12.207   7.051 -11.940  1.00  0.00    -0.394 OA
ATOM     30  H   UNL     1     -12.403   7.932 -11.528  1.00  0.00     0.210 HD
ENDBRANCH  28  29
ENDBRANCH  22  28
BRANCH  23  31
ATOM     31  O   UNL     1     -12.715   4.870  -9.354  1.00  0.00    -0.387 OA
ATOM     32  H   UNL     1     -12.210   5.699  -9.143  1.00  0.00     0.211 HD
ENDBRANCH  23  31
ENDBRANCH   1  18
TORSDOF 11
ENDMDL
