MODEL 1
REMARK VINA RESULT:    -4.510      0.000      0.000
REMARK INTER + INTRA:         -10.145
REMARK INTER:                  -8.200
REMARK INTRA:                  -1.945
REMARK UNBOUND:                -1.945
REMARK SMILES CCCCCCCCCCCCCC[C@@H](C)C(=O)[O-]
REMARK SMILES IDX 9 1 10 2 11 3 12 4 13 5 14 6 15 7 16 8 17 9 18 10 19 11 8 12
REMARK SMILES IDX 7 13 6 14 5 15 4 16 3 17 2 18 1 19
REMARK H PARENT
REMARK Flexibility Score: inf
ROOT
ATOM      1  C   UNL     1       1.311  51.489  22.180  1.00  0.00     0.000 C 
ENDROOT
BRANCH   1   2
ATOM      2  C   UNL     1       1.746  50.383  21.202  1.00  0.00     0.000 C 
BRANCH   2   3
ATOM      3  C   UNL     1       2.097  49.067  21.913  1.00  0.00     0.000 C 
BRANCH   3   4
ATOM      4  C   UNL     1       0.950  48.043  21.859  1.00  0.00     0.000 C 
BRANCH   4   5
ATOM      5  C   UNL     1      -0.072  48.241  22.990  1.00  0.00     0.001 C 
BRANCH   5   6
ATOM      6  C   UNL     1      -0.508  46.912  23.635  1.00  0.00     0.009 C 
BRANCH   6   7
ATOM      7  C   UNL     1      -1.490  47.130  24.805  1.00  0.00     0.032 C 
ATOM      8  C   UNL     1      -2.129  48.521  24.721  1.00  0.00     0.014 C 
BRANCH   7   9
ATOM      9  C   UNL     1      -2.566  46.079  24.822  1.00  0.00     0.044 C 
ATOM     10  O   UNL     1      -2.478  45.072  24.069  1.00  0.00    -0.550 OA
ATOM     11  O   UNL     1      -3.660  46.206  25.669  1.00  0.00    -0.550 OA
ENDBRANCH   7   9
ENDBRANCH   6   7
ENDBRANCH   5   6
ENDBRANCH   4   5
ENDBRANCH   3   4
ENDBRANCH   2   3
ENDBRANCH   1   2
BRANCH   1  12
ATOM     12  C   UNL     1       2.505  52.201  22.837  1.00  0.00     0.000 C 
BRANCH  12  13
ATOM     13  C   UNL     1       2.697  51.799  24.307  1.00  0.00    -0.000 C 
BRANCH  13  14
ATOM     14  C   UNL     1       1.341  51.603  25.003  1.00  0.00    -0.000 C 
BRANCH  14  15
ATOM     15  C   UNL     1       1.171  50.189  25.581  1.00  0.00    -0.000 C 
BRANCH  15  16
ATOM     16  C   UNL     1       2.493  49.400  25.614  1.00  0.00    -0.000 C 
BRANCH  16  17
ATOM     17  C   UNL     1       2.557  48.406  26.784  1.00  0.00    -0.000 C 
BRANCH  17  18
ATOM     18  C   UNL     1       3.668  48.748  27.787  1.00  0.00    -0.003 C 
ATOM     19  C   UNL     1       3.278  49.943  28.653  1.00  0.00     0.004 C 
ENDBRANCH  17  18
ENDBRANCH  16  17
ENDBRANCH  15  16
ENDBRANCH  14  15
ENDBRANCH  13  14
ENDBRANCH  12  13
ENDBRANCH   1  12
TORSDOF 14
ENDMDL
MODEL 2
REMARK VINA RESULT:    -4.343      1.172      2.042
REMARK INTER + INTRA:          -9.842
REMARK INTER:                  -8.157
REMARK INTRA:                  -1.686
REMARK UNBOUND:                -1.945
REMARK SMILES CCCCCCCCCCCCCC[C@@H](C)C(=O)[O-]
REMARK SMILES IDX 9 1 10 2 11 3 12 4 13 5 14 6 15 7 16 8 17 9 18 10 19 11 8 12
REMARK SMILES IDX 7 13 6 14 5 15 4 16 3 17 2 18 1 19
REMARK H PARENT
REMARK Flexibility Score: inf
ROOT
ATOM      1  C   UNL     1       1.940  50.291  21.238  1.00  0.00     0.000 C 
ENDROOT
BRANCH   1   2
ATOM      2  C   UNL     1       1.645  48.892  21.808  1.00  0.00     0.000 C 
BRANCH   2   3
ATOM      3  C   UNL     1       0.466  48.889  22.794  1.00  0.00     0.000 C 
BRANCH   3   4
ATOM      4  C   UNL     1      -0.102  47.480  23.030  1.00  0.00     0.000 C 
BRANCH   4   5
ATOM      5  C   UNL     1      -0.286  47.158  24.522  1.00  0.00     0.001 C 
BRANCH   5   6
ATOM      6  C   UNL     1      -1.032  45.832  24.756  1.00  0.00     0.009 C 
BRANCH   6   7
ATOM      7  C   UNL     1      -2.483  45.882  24.234  1.00  0.00     0.032 C 
ATOM      8  C   UNL     1      -3.082  44.472  24.167  1.00  0.00     0.014 C 
BRANCH   7   9
ATOM      9  C   UNL     1      -3.348  46.758  25.099  1.00  0.00     0.044 C 
ATOM     10  O   UNL     1      -4.209  47.513  24.574  1.00  0.00    -0.550 OA
ATOM     11  O   UNL     1      -3.208  46.739  26.482  1.00  0.00    -0.550 OA
ENDBRANCH   7   9
ENDBRANCH   6   7
ENDBRANCH   5   6
ENDBRANCH   4   5
ENDBRANCH   3   4
ENDBRANCH   2   3
ENDBRANCH   1   2
BRANCH   1  12
ATOM     12  C   UNL     1       1.186  51.403  21.984  1.00  0.00     0.000 C 
BRANCH  12  13
ATOM     13  C   UNL     1       2.125  52.493  22.525  1.00  0.00    -0.000 C 
BRANCH  13  14
ATOM     14  C   UNL     1       2.812  52.032  23.819  1.00  0.00    -0.000 C 
BRANCH  14  15
ATOM     15  C   UNL     1       1.978  52.338  25.073  1.00  0.00    -0.000 C 
BRANCH  15  16
ATOM     16  C   UNL     1       1.798  51.107  25.980  1.00  0.00    -0.000 C 
BRANCH  16  17
ATOM     17  C   UNL     1       2.519  49.864  25.437  1.00  0.00    -0.000 C 
BRANCH  17  18
ATOM     18  C   UNL     1       2.569  48.718  26.457  1.00  0.00    -0.003 C 
ATOM     19  C   UNL     1       3.695  48.929  27.465  1.00  0.00     0.004 C 
ENDBRANCH  17  18
ENDBRANCH  16  17
ENDBRANCH  15  16
ENDBRANCH  14  15
ENDBRANCH  13  14
ENDBRANCH  12  13
ENDBRANCH   1  12
TORSDOF 14
ENDMDL
MODEL 3
REMARK VINA RESULT:    -4.317      2.406      4.803
REMARK INTER + INTRA:          -9.796
REMARK INTER:                  -8.463
REMARK INTRA:                  -1.333
REMARK UNBOUND:                -1.945
REMARK SMILES CCCCCCCCCCCCCC[C@@H](C)C(=O)[O-]
REMARK SMILES IDX 9 1 10 2 11 3 12 4 13 5 14 6 15 7 16 8 17 9 18 10 19 11 8 12
REMARK SMILES IDX 7 13 6 14 5 15 4 16 3 17 2 18 1 19
REMARK H PARENT
REMARK Flexibility Score: inf
ROOT
ATOM      1  C   UNL     1      -0.133  47.746  24.781  1.00  0.00     0.000 C 
ENDROOT
BRANCH   1   2
ATOM      2  C   UNL     1      -0.379  46.235  24.612  1.00  0.00     0.000 C 
BRANCH   2   3
ATOM      3  C   UNL     1      -1.805  45.916  24.136  1.00  0.00     0.000 C 
BRANCH   3   4
ATOM      4  C   UNL     1      -2.877  46.376  25.138  1.00  0.00     0.000 C 
BRANCH   4   5
ATOM      5  C   UNL     1      -4.303  46.258  24.574  1.00  0.00     0.001 C 
BRANCH   5   6
ATOM      6  C   UNL     1      -5.241  45.454  25.494  1.00  0.00     0.009 C 
BRANCH   6   7
ATOM      7  C   UNL     1      -6.343  44.722  24.701  1.00  0.00     0.032 C 
ATOM      8  C   UNL     1      -6.530  45.361  23.320  1.00  0.00     0.014 C 
BRANCH   7   9
ATOM      9  C   UNL     1      -6.025  43.259  24.542  1.00  0.00     0.044 C 
ATOM     10  O   UNL     1      -6.939  42.399  24.647  1.00  0.00    -0.550 OA
ATOM     11  O   UNL     1      -4.725  42.848  24.274  1.00  0.00    -0.550 OA
ENDBRANCH   7   9
ENDBRANCH   6   7
ENDBRANCH   5   6
ENDBRANCH   4   5
ENDBRANCH   3   4
ENDBRANCH   2   3
ENDBRANCH   1   2
BRANCH   1  12
ATOM     12  C   UNL     1      -0.278  48.519  23.461  1.00  0.00     0.000 C 
BRANCH  12  13
ATOM     13  C   UNL     1       0.656  47.991  22.361  1.00  0.00    -0.000 C 
BRANCH  13  14
ATOM     14  C   UNL     1       1.831  48.954  22.130  1.00  0.00    -0.000 C 
BRANCH  14  15
ATOM     15  C   UNL     1       1.436  50.180  21.292  1.00  0.00    -0.000 C 
BRANCH  15  16
ATOM     16  C   UNL     1       1.484  51.489  22.099  1.00  0.00    -0.000 C 
BRANCH  16  17
ATOM     17  C   UNL     1       2.533  51.453  23.221  1.00  0.00    -0.000 C 
BRANCH  17  18
ATOM     18  C   UNL     1       1.900  51.444  24.620  1.00  0.00    -0.003 C 
ATOM     19  C   UNL     1       2.485  50.327  25.480  1.00  0.00     0.004 C 
ENDBRANCH  17  18
ENDBRANCH  16  17
ENDBRANCH  15  16
ENDBRANCH  14  15
ENDBRANCH  13  14
ENDBRANCH  12  13
ENDBRANCH   1  12
TORSDOF 14
ENDMDL
MODEL 4
REMARK VINA RESULT:    -4.316      1.258      2.140
REMARK INTER + INTRA:          -9.793
REMARK INTER:                  -7.515
REMARK INTRA:                  -2.278
REMARK UNBOUND:                -1.945
REMARK SMILES CCCCCCCCCCCCCC[C@@H](C)C(=O)[O-]
REMARK SMILES IDX 9 1 10 2 11 3 12 4 13 5 14 6 15 7 16 8 17 9 18 10 19 11 8 12
REMARK SMILES IDX 7 13 6 14 5 15 4 16 3 17 2 18 1 19
REMARK H PARENT
REMARK Flexibility Score: inf
ROOT
ATOM      1  C   UNL     1       1.633  52.191  23.692  1.00  0.00     0.000 C 
ENDROOT
BRANCH   1   2
ATOM      2  C   UNL     1       1.881  51.954  22.191  1.00  0.00     0.000 C 
BRANCH   2   3
ATOM      3  C   UNL     1       1.053  50.787  21.630  1.00  0.00     0.000 C 
BRANCH   3   4
ATOM      4  C   UNL     1       1.841  49.466  21.599  1.00  0.00     0.000 C 
BRANCH   4   5
ATOM      5  C   UNL     1       1.048  48.291  22.194  1.00  0.00     0.001 C 
BRANCH   5   6
ATOM      6  C   UNL     1      -0.036  48.748  23.188  1.00  0.00     0.009 C 
BRANCH   6   7
ATOM      7  C   UNL     1      -0.323  47.681  24.264  1.00  0.00     0.032 C 
ATOM      8  C   UNL     1      -0.748  48.342  25.580  1.00  0.00     0.014 C 
BRANCH   7   9
ATOM      9  C   UNL     1      -1.389  46.719  23.813  1.00  0.00     0.044 C 
ATOM     10  O   UNL     1      -1.093  45.759  23.053  1.00  0.00    -0.550 OA
ATOM     11  O   UNL     1      -2.704  46.879  24.235  1.00  0.00    -0.550 OA
ENDBRANCH   7   9
ENDBRANCH   6   7
ENDBRANCH   5   6
ENDBRANCH   4   5
ENDBRANCH   3   4
ENDBRANCH   2   3
ENDBRANCH   1   2
BRANCH   1  12
ATOM     12  C   UNL     1       2.707  51.540  24.579  1.00  0.00     0.000 C 
BRANCH  12  13
ATOM     13  C   UNL     1       2.107  50.623  25.656  1.00  0.00    -0.000 C 
BRANCH  13  14
ATOM     14  C   UNL     1       2.775  49.240  25.633  1.00  0.00    -0.000 C 
BRANCH  14  15
ATOM     15  C   UNL     1       2.725  48.536  26.998  1.00  0.00    -0.000 C 
BRANCH  15  16
ATOM     16  C   UNL     1       3.622  49.216  28.048  1.00  0.00    -0.000 C 
BRANCH  16  17
ATOM     17  C   UNL     1       2.825  49.740  29.253  1.00  0.00    -0.000 C 
BRANCH  17  18
ATOM     18  C   UNL     1       1.333  49.390  29.170  1.00  0.00    -0.003 C 
ATOM     19  C   UNL     1       0.479  50.650  29.061  1.00  0.00     0.004 C 
ENDBRANCH  17  18
ENDBRANCH  16  17
ENDBRANCH  15  16
ENDBRANCH  14  15
ENDBRANCH  13  14
ENDBRANCH  12  13
ENDBRANCH   1  12
TORSDOF 14
ENDMDL
MODEL 5
REMARK VINA RESULT:    -4.302      1.339      2.777
REMARK INTER + INTRA:          -9.769
REMARK INTER:                  -8.170
REMARK INTRA:                  -1.598
REMARK UNBOUND:                -1.945
REMARK SMILES CCCCCCCCCCCCCC[C@@H](C)C(=O)[O-]
REMARK SMILES IDX 9 1 10 2 11 3 12 4 13 5 14 6 15 7 16 8 17 9 18 10 19 11 8 12
REMARK SMILES IDX 7 13 6 14 5 15 4 16 3 17 2 18 1 19
REMARK H PARENT
REMARK Flexibility Score: inf
ROOT
ATOM      1  C   UNL     1       1.174  47.962  21.700  1.00  0.00     0.000 C 
ENDROOT
BRANCH   1   2
ATOM      2  C   UNL     1       0.192  47.998  22.885  1.00  0.00     0.000 C 
BRANCH   2   3
ATOM      3  C   UNL     1      -0.505  46.649  23.119  1.00  0.00     0.000 C 
BRANCH   3   4
ATOM      4  C   UNL     1      -0.690  46.331  24.613  1.00  0.00     0.000 C 
BRANCH   4   5
ATOM      5  C   UNL     1      -1.691  47.275  25.299  1.00  0.00     0.001 C 
BRANCH   5   6
ATOM      6  C   UNL     1      -3.124  47.115  24.759  1.00  0.00     0.009 C 
BRANCH   6   7
ATOM      7  C   UNL     1      -3.836  45.885  25.360  1.00  0.00     0.032 C 
ATOM      8  C   UNL     1      -5.090  46.310  26.132  1.00  0.00     0.014 C 
BRANCH   7   9
ATOM      9  C   UNL     1      -4.211  44.892  24.293  1.00  0.00     0.044 C 
ATOM     10  O   UNL     1      -3.350  44.087  23.848  1.00  0.00    -0.550 OA
ATOM     11  O   UNL     1      -5.508  44.852  23.795  1.00  0.00    -0.550 OA
ENDBRANCH   7   9
ENDBRANCH   6   7
ENDBRANCH   5   6
ENDBRANCH   4   5
ENDBRANCH   3   4
ENDBRANCH   2   3
ENDBRANCH   1   2
BRANCH   1  12
ATOM     12  C   UNL     1       2.053  49.220  21.623  1.00  0.00     0.000 C 
BRANCH  12  13
ATOM     13  C   UNL     1       1.365  50.459  22.217  1.00  0.00    -0.000 C 
BRANCH  13  14
ATOM     14  C   UNL     1       2.313  51.215  23.159  1.00  0.00    -0.000 C 
BRANCH  14  15
ATOM     15  C   UNL     1       1.630  51.645  24.467  1.00  0.00    -0.000 C 
BRANCH  15  16
ATOM     16  C   UNL     1       2.101  50.823  25.680  1.00  0.00    -0.000 C 
BRANCH  16  17
ATOM     17  C   UNL     1       1.286  49.535  25.873  1.00  0.00    -0.000 C 
BRANCH  17  18
ATOM     18  C   UNL     1       2.107  48.407  26.513  1.00  0.00    -0.003 C 
ATOM     19  C   UNL     1       3.482  48.908  26.947  1.00  0.00     0.004 C 
ENDBRANCH  17  18
ENDBRANCH  16  17
ENDBRANCH  15  16
ENDBRANCH  14  15
ENDBRANCH  13  14
ENDBRANCH  12  13
ENDBRANCH   1  12
TORSDOF 14
ENDMDL
MODEL 6
REMARK VINA RESULT:    -4.301      3.843      5.440
REMARK INTER + INTRA:          -9.766
REMARK INTER:                  -7.564
REMARK INTRA:                  -2.202
REMARK UNBOUND:                -1.945
REMARK SMILES CCCCCCCCCCCCCC[C@@H](C)C(=O)[O-]
REMARK SMILES IDX 9 1 10 2 11 3 12 4 13 5 14 6 15 7 16 8 17 9 18 10 19 11 8 12
REMARK SMILES IDX 7 13 6 14 5 15 4 16 3 17 2 18 1 19
REMARK H PARENT
REMARK Flexibility Score: inf
ROOT
ATOM      1  C   UNL     1      -0.094  48.129  23.542  1.00  0.00     0.000 C 
ENDROOT
BRANCH   1   2
ATOM      2  C   UNL     1       0.644  48.107  22.191  1.00  0.00     0.000 C 
BRANCH   2   3
ATOM      3  C   UNL     1       1.869  49.035  22.169  1.00  0.00     0.000 C 
BRANCH   3   4
ATOM      4  C   UNL     1       1.766  50.121  21.086  1.00  0.00     0.000 C 
BRANCH   4   5
ATOM      5  C   UNL     1       1.533  51.522  21.673  1.00  0.00     0.001 C 
BRANCH   5   6
ATOM      6  C   UNL     1       2.478  51.839  22.847  1.00  0.00     0.009 C 
BRANCH   6   7
ATOM      7  C   UNL     1       2.009  53.068  23.654  1.00  0.00     0.032 C 
ATOM      8  C   UNL     1       2.496  52.980  25.105  1.00  0.00     0.014 C 
BRANCH   7   9
ATOM      9  C   UNL     1       2.496  54.350  23.034  1.00  0.00     0.044 C 
ATOM     10  O   UNL     1       3.584  54.372  22.400  1.00  0.00    -0.550 OA
ATOM     11  O   UNL     1       1.748  55.516  23.151  1.00  0.00    -0.550 OA
ENDBRANCH   7   9
ENDBRANCH   6   7
ENDBRANCH   5   6
ENDBRANCH   4   5
ENDBRANCH   3   4
ENDBRANCH   2   3
ENDBRANCH   1   2
BRANCH   1  12
ATOM     12  C   UNL     1      -0.553  49.540  23.941  1.00  0.00     0.000 C 
BRANCH  12  13
ATOM     13  C   UNL     1       0.074  50.014  25.262  1.00  0.00    -0.000 C 
BRANCH  13  14
ATOM     14  C   UNL     1       1.066  48.972  25.802  1.00  0.00    -0.000 C 
BRANCH  14  15
ATOM     15  C   UNL     1       2.525  49.446  25.718  1.00  0.00    -0.000 C 
BRANCH  15  16
ATOM     16  C   UNL     1       3.388  48.916  26.878  1.00  0.00    -0.000 C 
BRANCH  16  17
ATOM     17  C   UNL     1       2.637  48.914  28.219  1.00  0.00    -0.000 C 
BRANCH  17  18
ATOM     18  C   UNL     1       3.247  49.886  29.238  1.00  0.00    -0.003 C 
ATOM     19  C   UNL     1       2.790  51.318  28.973  1.00  0.00     0.004 C 
ENDBRANCH  17  18
ENDBRANCH  16  17
ENDBRANCH  15  16
ENDBRANCH  14  15
ENDBRANCH  13  14
ENDBRANCH  12  13
ENDBRANCH   1  12
TORSDOF 14
ENDMDL
MODEL 7
REMARK VINA RESULT:    -4.283     14.836     17.144
REMARK INTER + INTRA:          -9.733
REMARK INTER:                  -8.457
REMARK INTRA:                  -1.276
REMARK UNBOUND:                -1.945
REMARK SMILES CCCCCCCCCCCCCC[C@@H](C)C(=O)[O-]
REMARK SMILES IDX 9 1 10 2 11 3 12 4 13 5 14 6 15 7 16 8 17 9 18 10 19 11 8 12
REMARK SMILES IDX 7 13 6 14 5 15 4 16 3 17 2 18 1 19
REMARK H PARENT
REMARK Flexibility Score: inf
ROOT
ATOM      1  C   UNL     1      -6.893  47.598  38.256  1.00  0.00     0.000 C 
ENDROOT
BRANCH   1   2
ATOM      2  C   UNL     1      -6.027  46.416  38.726  1.00  0.00     0.000 C 
BRANCH   2   3
ATOM      3  C   UNL     1      -6.863  45.240  39.256  1.00  0.00     0.000 C 
BRANCH   3   4
ATOM      4  C   UNL     1      -5.996  44.045  39.686  1.00  0.00     0.000 C 
BRANCH   4   5
ATOM      5  C   UNL     1      -5.745  43.053  38.539  1.00  0.00     0.001 C 
BRANCH   5   6
ATOM      6  C   UNL     1      -4.279  42.585  38.468  1.00  0.00     0.009 C 
BRANCH   6   7
ATOM      7  C   UNL     1      -3.298  43.680  38.936  1.00  0.00     0.032 C 
ATOM      8  C   UNL     1      -2.277  43.103  39.923  1.00  0.00     0.014 C 
BRANCH   7   9
ATOM      9  C   UNL     1      -2.578  44.305  37.771  1.00  0.00     0.044 C 
ATOM     10  O   UNL     1      -3.131  45.219  37.103  1.00  0.00    -0.550 OA
ATOM     11  O   UNL     1      -1.298  43.885  37.429  1.00  0.00    -0.550 OA
ENDBRANCH   7   9
ENDBRANCH   6   7
ENDBRANCH   5   6
ENDBRANCH   4   5
ENDBRANCH   3   4
ENDBRANCH   2   3
ENDBRANCH   1   2
BRANCH   1  12
ATOM     12  C   UNL     1      -8.298  47.584  38.879  1.00  0.00     0.000 C 
BRANCH  12  13
ATOM     13  C   UNL     1      -8.409  48.503  40.106  1.00  0.00    -0.000 C 
BRANCH  13  14
ATOM     14  C   UNL     1      -8.156  49.968  39.718  1.00  0.00    -0.000 C 
BRANCH  14  15
ATOM     15  C   UNL     1      -9.349  50.880  40.044  1.00  0.00    -0.000 C 
BRANCH  15  16
ATOM     16  C   UNL     1      -9.720  51.810  38.875  1.00  0.00    -0.000 C 
BRANCH  16  17
ATOM     17  C   UNL     1      -9.393  51.195  37.505  1.00  0.00    -0.000 C 
BRANCH  17  18
ATOM     18  C   UNL     1     -10.622  50.568  36.833  1.00  0.00    -0.003 C 
ATOM     19  C   UNL     1     -11.314  51.568  35.911  1.00  0.00     0.004 C 
ENDBRANCH  17  18
ENDBRANCH  16  17
ENDBRANCH  15  16
ENDBRANCH  14  15
ENDBRANCH  13  14
ENDBRANCH  12  13
ENDBRANCH   1  12
TORSDOF 14
ENDMDL
MODEL 8
REMARK VINA RESULT:    -4.267      3.405      7.636
REMARK INTER + INTRA:          -9.705
REMARK INTER:                  -8.973
REMARK INTRA:                  -0.731
REMARK UNBOUND:                -1.945
REMARK SMILES CCCCCCCCCCCCCC[C@@H](C)C(=O)[O-]
REMARK SMILES IDX 9 1 10 2 11 3 12 4 13 5 14 6 15 7 16 8 17 9 18 10 19 11 8 12
REMARK SMILES IDX 7 13 6 14 5 15 4 16 3 17 2 18 1 19
REMARK H PARENT
REMARK Flexibility Score: inf
ROOT
ATOM      1  C   UNL     1      -0.518  46.557  23.101  1.00  0.00     0.000 C 
ENDROOT
BRANCH   1   2
ATOM      2  C   UNL     1       0.135  47.941  22.930  1.00  0.00     0.000 C 
BRANCH   2   3
ATOM      3  C   UNL     1       0.988  48.041  21.655  1.00  0.00     0.000 C 
BRANCH   3   4
ATOM      4  C   UNL     1       2.129  49.063  21.789  1.00  0.00     0.000 C 
BRANCH   4   5
ATOM      5  C   UNL     1       1.731  50.463  21.295  1.00  0.00     0.001 C 
BRANCH   5   6
ATOM      6  C   UNL     1       1.465  51.447  22.449  1.00  0.00     0.009 C 
BRANCH   6   7
ATOM      7  C   UNL     1       2.572  51.394  23.523  1.00  0.00     0.032 C 
ATOM      8  C   UNL     1       3.280  52.748  23.637  1.00  0.00     0.014 C 
BRANCH   7   9
ATOM      9  C   UNL     1       2.015  50.999  24.865  1.00  0.00     0.044 C 
ATOM     10  O   UNL     1       2.622  50.156  25.578  1.00  0.00    -0.550 OA
ATOM     11  O   UNL     1       0.834  51.564  25.330  1.00  0.00    -0.550 OA
ENDBRANCH   7   9
ENDBRANCH   6   7
ENDBRANCH   5   6
ENDBRANCH   4   5
ENDBRANCH   3   4
ENDBRANCH   2   3
ENDBRANCH   1   2
BRANCH   1  12
ATOM     12  C   UNL     1      -0.823  46.225  24.570  1.00  0.00     0.000 C 
BRANCH  12  13
ATOM     13  C   UNL     1      -2.324  46.291  24.891  1.00  0.00    -0.000 C 
BRANCH  13  14
ATOM     14  C   UNL     1      -3.064  45.078  24.305  1.00  0.00    -0.000 C 
BRANCH  14  15
ATOM     15  C   UNL     1      -4.582  45.145  24.532  1.00  0.00    -0.000 C 
BRANCH  15  16
ATOM     16  C   UNL     1      -5.348  44.075  23.733  1.00  0.00    -0.000 C 
BRANCH  16  17
ATOM     17  C   UNL     1      -6.547  44.656  22.968  1.00  0.00    -0.000 C 
BRANCH  17  18
ATOM     18  C   UNL     1      -7.847  43.884  23.236  1.00  0.00    -0.003 C 
ATOM     19  C   UNL     1      -7.951  43.476  24.703  1.00  0.00     0.004 C 
ENDBRANCH  17  18
ENDBRANCH  16  17
ENDBRANCH  15  16
ENDBRANCH  14  15
ENDBRANCH  13  14
ENDBRANCH  12  13
ENDBRANCH   1  12
TORSDOF 14
ENDMDL
MODEL 9
REMARK VINA RESULT:    -4.254      2.652      5.009
REMARK INTER + INTRA:          -9.680
REMARK INTER:                  -8.681
REMARK INTRA:                  -0.999
REMARK UNBOUND:                -1.945
REMARK SMILES CCCCCCCCCCCCCC[C@@H](C)C(=O)[O-]
REMARK SMILES IDX 9 1 10 2 11 3 12 4 13 5 14 6 15 7 16 8 17 9 18 10 19 11 8 12
REMARK SMILES IDX 7 13 6 14 5 15 4 16 3 17 2 18 1 19
REMARK H PARENT
REMARK Flexibility Score: inf
ROOT
ATOM      1  C   UNL     1      -0.587  46.566  23.116  1.00  0.00     0.000 C 
ENDROOT
BRANCH   1   2
ATOM      2  C   UNL     1      -0.809  46.095  24.564  1.00  0.00     0.000 C 
BRANCH   2   3
ATOM      3  C   UNL     1      -1.637  47.091  25.392  1.00  0.00     0.000 C 
BRANCH   3   4
ATOM      4  C   UNL     1      -3.082  46.614  25.615  1.00  0.00     0.000 C 
BRANCH   4   5
ATOM      5  C   UNL     1      -4.057  47.172  24.566  1.00  0.00     0.001 C 
BRANCH   5   6
ATOM      6  C   UNL     1      -5.479  46.600  24.714  1.00  0.00     0.009 C 
BRANCH   6   7
ATOM      7  C   UNL     1      -5.467  45.098  25.066  1.00  0.00     0.032 C 
ATOM      8  C   UNL     1      -6.748  44.707  25.812  1.00  0.00     0.014 C 
BRANCH   7   9
ATOM      9  C   UNL     1      -5.320  44.246  23.834  1.00  0.00     0.044 C 
ATOM     10  O   UNL     1      -4.404  43.384  23.767  1.00  0.00    -0.550 OA
ATOM     11  O   UNL     1      -6.194  44.400  22.765  1.00  0.00    -0.550 OA
ENDBRANCH   7   9
ENDBRANCH   6   7
ENDBRANCH   5   6
ENDBRANCH   4   5
ENDBRANCH   3   4
ENDBRANCH   2   3
ENDBRANCH   1   2
BRANCH   1  12
ATOM     12  C   UNL     1       0.058  47.960  23.041  1.00  0.00     0.000 C 
BRANCH  12  13
ATOM     13  C   UNL     1       1.003  48.109  21.839  1.00  0.00    -0.000 C 
BRANCH  13  14
ATOM     14  C   UNL     1       2.024  49.232  22.080  1.00  0.00    -0.000 C 
BRANCH  14  15
ATOM     15  C   UNL     1       1.728  50.490  21.248  1.00  0.00    -0.000 C 
BRANCH  15  16
ATOM     16  C   UNL     1       1.171  51.645  22.100  1.00  0.00    -0.000 C 
BRANCH  16  17
ATOM     17  C   UNL     1       1.968  51.861  23.396  1.00  0.00    -0.000 C 
BRANCH  17  18
ATOM     18  C   UNL     1       3.323  52.537  23.148  1.00  0.00    -0.003 C 
ATOM     19  C   UNL     1       3.144  54.009  22.785  1.00  0.00     0.004 C 
ENDBRANCH  17  18
ENDBRANCH  16  17
ENDBRANCH  15  16
ENDBRANCH  14  15
ENDBRANCH  13  14
ENDBRANCH  12  13
ENDBRANCH   1  12
TORSDOF 14
ENDMDL
