MODEL 1
REMARK VINA RESULT:    -6.803      0.000      0.000
REMARK INTER + INTRA:          -8.234
REMARK INTER:                  -7.996
REMARK INTRA:                  -0.238
REMARK UNBOUND:                -0.238
REMARK SMILES O=c1c(O)c(-c2ccc(O)cc2)oc2cc(O)cc(O)c12
REMARK SMILES IDX 5 1 3 2 2 3 1 4 21 5 19 6 18 7 16 8 15 9 14 10 13 11 6 12
REMARK SMILES IDX 7 13 8 14 9 15 12 16 11 17 10 18 4 20 20 22 17 24
REMARK H PARENT 10 19 4 21 20 23 17 25
REMARK Flexibility Score: inf
ROOT
ATOM      1  C   UNL     1      18.498  24.406  41.655  1.00  0.00     0.180 A 
ATOM      2  C   UNL     1      17.253  24.092  42.231  1.00  0.00     0.208 A 
ATOM      3  C   UNL     1      16.826  24.810  43.358  1.00  0.00     0.238 A 
ATOM      4  O   UNL     1      15.716  24.530  43.889  1.00  0.00    -0.285 OA
ATOM      5  C   UNL     1      17.637  25.839  43.877  1.00  0.00     0.111 A 
ATOM      6  C   UNL     1      17.280  26.613  45.007  1.00  0.00     0.134 A 
ATOM      7  C   UNL     1      18.139  27.627  45.457  1.00  0.00     0.093 A 
ATOM      8  C   UNL     1      19.347  27.881  44.799  1.00  0.00     0.123 A 
ATOM      9  C   UNL     1      19.705  27.121  43.685  1.00  0.00     0.094 A 
ATOM     10  C   UNL     1      18.863  26.105  43.222  1.00  0.00     0.146 A 
ATOM     11  O   UNL     1      19.231  25.393  42.162  1.00  0.00    -0.452 OA
ENDROOT
BRANCH   1  12
ATOM     12  C   UNL     1      19.026  23.681  40.476  1.00  0.00     0.021 A 
ATOM     13  C   UNL     1      20.000  22.685  40.656  1.00  0.00     0.016 A 
ATOM     14  C   UNL     1      20.495  21.972  39.561  1.00  0.00     0.047 A 
ATOM     15  C   UNL     1      20.011  22.235  38.272  1.00  0.00     0.115 A 
ATOM     16  C   UNL     1      18.530  23.926  39.182  1.00  0.00     0.016 A 
ATOM     17  C   UNL     1      19.027  23.211  38.088  1.00  0.00     0.047 A 
BRANCH  15  18
ATOM     18  O   UNL     1      20.498  21.532  37.173  1.00  0.00    -0.508 OA
ATOM     19  H   UNL     1      20.682  20.536  37.220  1.00  0.00     0.293 HD
ENDBRANCH  15  18
ENDBRANCH   1  12
BRANCH   2  20
ATOM     20  O   UNL     1      16.443  23.101  41.667  1.00  0.00    -0.502 OA
ATOM     21  H   UNL     1      15.692  23.315  41.023  1.00  0.00     0.293 HD
ENDBRANCH   2  20
BRANCH   6  22
ATOM     22  O   UNL     1      16.080  26.384  45.684  1.00  0.00    -0.507 OA
ATOM     23  H   UNL     1      16.041  26.330  46.696  1.00  0.00     0.293 HD
ENDBRANCH   6  22
BRANCH   8  24
ATOM     24  O   UNL     1      20.200  28.888  45.245  1.00  0.00    -0.508 OA
ATOM     25  H   UNL     1      20.581  29.579  44.610  1.00  0.00     0.293 HD
ENDBRANCH   8  24
TORSDOF 5
ENDMDL
MODEL 2
REMARK VINA RESULT:    -6.663      1.202      2.922
REMARK INTER + INTRA:          -8.070
REMARK INTER:                  -7.773
REMARK INTRA:                  -0.297
REMARK UNBOUND:                -0.238
REMARK SMILES O=c1c(O)c(-c2ccc(O)cc2)oc2cc(O)cc(O)c12
REMARK SMILES IDX 5 1 3 2 2 3 1 4 21 5 19 6 18 7 16 8 15 9 14 10 13 11 6 12
REMARK SMILES IDX 7 13 8 14 9 15 12 16 11 17 10 18 4 20 20 22 17 24
REMARK H PARENT 10 19 4 21 20 23 17 25
REMARK Flexibility Score: inf
ROOT
ATOM      1  C   UNL     1      19.247  24.921  41.271  1.00  0.00     0.180 A 
ATOM      2  C   UNL     1      20.088  26.020  41.531  1.00  0.00     0.208 A 
ATOM      3  C   UNL     1      19.829  26.822  42.653  1.00  0.00     0.238 A 
ATOM      4  O   UNL     1      20.570  27.816  42.890  1.00  0.00    -0.285 OA
ATOM      5  C   UNL     1      18.752  26.504  43.504  1.00  0.00     0.111 A 
ATOM      6  C   UNL     1      18.425  27.258  44.656  1.00  0.00     0.134 A 
ATOM      7  C   UNL     1      17.341  26.870  45.458  1.00  0.00     0.093 A 
ATOM      8  C   UNL     1      16.579  25.743  45.130  1.00  0.00     0.123 A 
ATOM      9  C   UNL     1      16.897  24.997  43.994  1.00  0.00     0.094 A 
ATOM     10  C   UNL     1      17.972  25.368  43.181  1.00  0.00     0.146 A 
ATOM     11  O   UNL     1      18.248  24.642  42.104  1.00  0.00    -0.452 OA
ENDROOT
BRANCH   1  12
ATOM     12  C   UNL     1      19.444  24.039  40.098  1.00  0.00     0.021 A 
ATOM     13  C   UNL     1      20.182  22.853  40.241  1.00  0.00     0.016 A 
ATOM     14  C   UNL     1      20.361  21.994  39.153  1.00  0.00     0.047 A 
ATOM     15  C   UNL     1      19.792  22.304  37.910  1.00  0.00     0.115 A 
ATOM     16  C   UNL     1      18.858  24.334  38.852  1.00  0.00     0.016 A 
ATOM     17  C   UNL     1      19.039  23.473  37.766  1.00  0.00     0.047 A 
BRANCH  15  18
ATOM     18  O   UNL     1      19.964  21.456  36.819  1.00  0.00    -0.508 OA
ATOM     19  H   UNL     1      20.029  20.451  36.933  1.00  0.00     0.293 HD
ENDBRANCH  15  18
ENDBRANCH   1  12
BRANCH   2  20
ATOM     20  O   UNL     1      21.181  26.286  40.701  1.00  0.00    -0.502 OA
ATOM     21  H   UNL     1      21.438  27.226  40.425  1.00  0.00     0.293 HD
ENDBRANCH   2  20
BRANCH   6  22
ATOM     22  O   UNL     1      19.166  28.386  45.010  1.00  0.00    -0.507 OA
ATOM     23  H   UNL     1      18.937  28.941  45.827  1.00  0.00     0.293 HD
ENDBRANCH   6  22
BRANCH   8  24
ATOM     24  O   UNL     1      15.503  25.357  45.926  1.00  0.00    -0.508 OA
ATOM     25  H   UNL     1      14.837  26.033  46.280  1.00  0.00     0.293 HD
ENDBRANCH   8  24
TORSDOF 5
ENDMDL
MODEL 3
REMARK VINA RESULT:    -6.597     12.240     13.765
REMARK INTER + INTRA:          -7.991
REMARK INTER:                  -8.013
REMARK INTRA:                   0.022
REMARK UNBOUND:                -0.238
REMARK SMILES O=c1c(O)c(-c2ccc(O)cc2)oc2cc(O)cc(O)c12
REMARK SMILES IDX 5 1 3 2 2 3 1 4 21 5 19 6 18 7 16 8 15 9 14 10 13 11 6 12
REMARK SMILES IDX 7 13 8 14 9 15 12 16 11 17 10 18 4 20 20 22 17 24
REMARK H PARENT 10 19 4 21 20 23 17 25
REMARK Flexibility Score: inf
ROOT
ATOM      1  C   UNL     1      28.781  23.089  49.755  1.00  0.00     0.180 A 
ATOM      2  C   UNL     1      30.025  22.527  50.099  1.00  0.00     0.208 A 
ATOM      3  C   UNL     1      30.271  22.194  51.440  1.00  0.00     0.238 A 
ATOM      4  O   UNL     1      31.387  21.700  51.762  1.00  0.00    -0.285 OA
ATOM      5  C   UNL     1      29.269  22.409  52.407  1.00  0.00     0.111 A 
ATOM      6  C   UNL     1      29.435  22.098  53.778  1.00  0.00     0.134 A 
ATOM      7  C   UNL     1      28.384  22.333  54.678  1.00  0.00     0.093 A 
ATOM      8  C   UNL     1      27.172  22.872  54.232  1.00  0.00     0.123 A 
ATOM      9  C   UNL     1      27.004  23.181  52.882  1.00  0.00     0.094 A 
ATOM     10  C   UNL     1      28.039  22.955  51.970  1.00  0.00     0.146 A 
ATOM     11  O   UNL     1      27.852  23.264  50.691  1.00  0.00    -0.452 OA
ENDROOT
BRANCH   1  12
ATOM     12  C   UNL     1      28.453  23.484  48.365  1.00  0.00     0.021 A 
ATOM     13  C   UNL     1      27.210  23.122  47.819  1.00  0.00     0.016 A 
ATOM     14  C   UNL     1      26.870  23.503  46.519  1.00  0.00     0.047 A 
ATOM     15  C   UNL     1      27.763  24.264  45.752  1.00  0.00     0.115 A 
ATOM     16  C   UNL     1      29.336  24.266  47.597  1.00  0.00     0.016 A 
ATOM     17  C   UNL     1      28.993  24.646  46.297  1.00  0.00     0.047 A 
BRANCH  15  18
ATOM     18  O   UNL     1      27.435  24.650  44.454  1.00  0.00    -0.508 OA
ATOM     19  H   UNL     1      27.800  25.503  44.047  1.00  0.00     0.293 HD
ENDBRANCH  15  18
ENDBRANCH   1  12
BRANCH   2  20
ATOM     20  O   UNL     1      30.985  22.277  49.114  1.00  0.00    -0.502 OA
ATOM     21  H   UNL     1      30.736  22.010  48.169  1.00  0.00     0.293 HD
ENDBRANCH   2  20
BRANCH   6  22
ATOM     22  O   UNL     1      30.632  21.559  54.252  1.00  0.00    -0.507 OA
ATOM     23  H   UNL     1      31.052  20.740  53.829  1.00  0.00     0.293 HD
ENDBRANCH   6  22
BRANCH   8  24
ATOM     24  O   UNL     1      26.128  23.105  55.125  1.00  0.00    -0.508 OA
ATOM     25  H   UNL     1      25.274  23.565  54.833  1.00  0.00     0.293 HD
ENDBRANCH   8  24
TORSDOF 5
ENDMDL
MODEL 4
REMARK VINA RESULT:    -6.564     12.123     13.566
REMARK INTER + INTRA:          -7.953
REMARK INTER:                  -8.058
REMARK INTRA:                   0.105
REMARK UNBOUND:                -0.238
REMARK SMILES O=c1c(O)c(-c2ccc(O)cc2)oc2cc(O)cc(O)c12
REMARK SMILES IDX 5 1 3 2 2 3 1 4 21 5 19 6 18 7 16 8 15 9 14 10 13 11 6 12
REMARK SMILES IDX 7 13 8 14 9 15 12 16 11 17 10 18 4 20 20 22 17 24
REMARK H PARENT 10 19 4 21 20 23 17 25
REMARK Flexibility Score: inf
ROOT
ATOM      1  C   UNL     1      28.079  23.460  50.125  1.00  0.00     0.180 A 
ATOM      2  C   UNL     1      26.986  23.659  50.991  1.00  0.00     0.208 A 
ATOM      3  C   UNL     1      27.128  23.330  52.348  1.00  0.00     0.238 A 
ATOM      4  O   UNL     1      26.153  23.494  53.132  1.00  0.00    -0.285 OA
ATOM      5  C   UNL     1      28.359  22.829  52.818  1.00  0.00     0.111 A 
ATOM      6  C   UNL     1      28.586  22.476  54.170  1.00  0.00     0.134 A 
ATOM      7  C   UNL     1      29.843  21.992  54.562  1.00  0.00     0.093 A 
ATOM      8  C   UNL     1      30.876  21.856  53.628  1.00  0.00     0.123 A 
ATOM      9  C   UNL     1      30.657  22.201  52.294  1.00  0.00     0.094 A 
ATOM     10  C   UNL     1      29.411  22.683  51.884  1.00  0.00     0.146 A 
ATOM     11  O   UNL     1      29.229  22.999  50.606  1.00  0.00    -0.452 OA
ENDROOT
BRANCH   1  12
ATOM     12  C   UNL     1      28.001  23.766  48.677  1.00  0.00     0.021 A 
ATOM     13  C   UNL     1      29.099  24.363  48.037  1.00  0.00     0.016 A 
ATOM     14  C   UNL     1      29.057  24.639  46.668  1.00  0.00     0.047 A 
ATOM     15  C   UNL     1      27.920  24.308  45.917  1.00  0.00     0.115 A 
ATOM     16  C   UNL     1      26.871  23.418  47.914  1.00  0.00     0.016 A 
ATOM     17  C   UNL     1      26.831  23.695  46.544  1.00  0.00     0.047 A 
BRANCH  15  18
ATOM     18  O   UNL     1      27.866  24.579  44.552  1.00  0.00    -0.508 OA
ATOM     19  H   UNL     1      28.284  25.415  44.161  1.00  0.00     0.293 HD
ENDBRANCH  15  18
ENDBRANCH   1  12
BRANCH   2  20
ATOM     20  O   UNL     1      25.793  24.205  50.510  1.00  0.00    -0.502 OA
ATOM     21  H   UNL     1      24.996  23.632  50.259  1.00  0.00     0.293 HD
ENDBRANCH   2  20
BRANCH   6  22
ATOM     22  O   UNL     1      27.575  22.603  55.125  1.00  0.00    -0.507 OA
ATOM     23  H   UNL     1      27.765  22.518  56.117  1.00  0.00     0.293 HD
ENDBRANCH   6  22
BRANCH   8  24
ATOM     24  O   UNL     1      32.125  21.376  54.017  1.00  0.00    -0.508 OA
ATOM     25  H   UNL     1      32.283  21.001  54.945  1.00  0.00     0.293 HD
ENDBRANCH   8  24
TORSDOF 5
ENDMDL
MODEL 5
REMARK VINA RESULT:    -6.083      2.822      5.596
REMARK INTER + INTRA:          -7.388
REMARK INTER:                  -7.090
REMARK INTRA:                  -0.298
REMARK UNBOUND:                -0.238
REMARK SMILES O=c1c(O)c(-c2ccc(O)cc2)oc2cc(O)cc(O)c12
REMARK SMILES IDX 5 1 3 2 2 3 1 4 21 5 19 6 18 7 16 8 15 9 14 10 13 11 6 12
REMARK SMILES IDX 7 13 8 14 9 15 12 16 11 17 10 18 4 20 20 22 17 24
REMARK H PARENT 10 19 4 21 20 23 17 25
REMARK Flexibility Score: inf
ROOT
ATOM      1  C   UNL     1      17.247  23.364  42.565  1.00  0.00     0.180 A 
ATOM      2  C   UNL     1      17.517  24.530  43.307  1.00  0.00     0.208 A 
ATOM      3  C   UNL     1      18.193  25.590  42.683  1.00  0.00     0.238 A 
ATOM      4  O   UNL     1      18.450  26.636  43.341  1.00  0.00    -0.285 OA
ATOM      5  C   UNL     1      18.571  25.476  41.330  1.00  0.00     0.111 A 
ATOM      6  C   UNL     1      19.253  26.497  40.627  1.00  0.00     0.134 A 
ATOM      7  C   UNL     1      19.587  26.310  39.277  1.00  0.00     0.093 A 
ATOM      8  C   UNL     1      19.250  25.123  38.618  1.00  0.00     0.123 A 
ATOM      9  C   UNL     1      18.579  24.112  39.307  1.00  0.00     0.094 A 
ATOM     10  C   UNL     1      18.240  24.278  40.653  1.00  0.00     0.146 A 
ATOM     11  O   UNL     1      17.605  23.297  41.285  1.00  0.00    -0.452 OA
ENDROOT
BRANCH   1  12
ATOM     12  C   UNL     1      16.554  22.197  43.157  1.00  0.00     0.021 A 
ATOM     13  C   UNL     1      15.158  22.092  43.045  1.00  0.00     0.016 A 
ATOM     14  C   UNL     1      14.485  20.989  43.576  1.00  0.00     0.047 A 
ATOM     15  C   UNL     1      15.202  19.967  44.213  1.00  0.00     0.115 A 
ATOM     16  C   UNL     1      17.269  21.158  43.780  1.00  0.00     0.016 A 
ATOM     17  C   UNL     1      16.594  20.054  44.310  1.00  0.00     0.047 A 
BRANCH  15  18
ATOM     18  O   UNL     1      14.542  18.862  44.747  1.00  0.00    -0.508 OA
ATOM     19  H   UNL     1      13.534  18.777  44.706  1.00  0.00     0.293 HD
ENDBRANCH  15  18
ENDBRANCH   1  12
BRANCH   2  20
ATOM     20  O   UNL     1      17.087  24.639  44.632  1.00  0.00    -0.502 OA
ATOM     21  H   UNL     1      16.437  23.983  45.048  1.00  0.00     0.293 HD
ENDBRANCH   2  20
BRANCH   6  22
ATOM     22  O   UNL     1      19.600  27.694  41.257  1.00  0.00    -0.507 OA
ATOM     23  H   UNL     1      20.095  28.430  40.767  1.00  0.00     0.293 HD
ENDBRANCH   6  22
BRANCH   8  24
ATOM     24  O   UNL     1      19.581  24.937  37.278  1.00  0.00    -0.508 OA
ATOM     25  H   UNL     1      20.358  25.427  36.851  1.00  0.00     0.293 HD
ENDBRANCH   8  24
TORSDOF 5
ENDMDL
MODEL 6
REMARK VINA RESULT:    -6.042      3.818      8.470
REMARK INTER + INTRA:          -7.339
REMARK INTER:                  -7.059
REMARK INTRA:                  -0.280
REMARK UNBOUND:                -0.238
REMARK SMILES O=c1c(O)c(-c2ccc(O)cc2)oc2cc(O)cc(O)c12
REMARK SMILES IDX 5 1 3 2 2 3 1 4 21 5 19 6 18 7 16 8 15 9 14 10 13 11 6 12
REMARK SMILES IDX 7 13 8 14 9 15 12 16 11 17 10 18 4 20 20 22 17 24
REMARK H PARENT 10 19 4 21 20 23 17 25
REMARK Flexibility Score: inf
ROOT
ATOM      1  C   UNL     1      15.551  26.679  47.400  1.00  0.00     0.180 A 
ATOM      2  C   UNL     1      14.967  25.554  46.786  1.00  0.00     0.208 A 
ATOM      3  C   UNL     1      15.538  25.053  45.606  1.00  0.00     0.238 A 
ATOM      4  O   UNL     1      15.016  24.052  45.041  1.00  0.00    -0.285 OA
ATOM      5  C   UNL     1      16.688  25.668  45.071  1.00  0.00     0.111 A 
ATOM      6  C   UNL     1      17.326  25.223  43.889  1.00  0.00     0.134 A 
ATOM      7  C   UNL     1      18.473  25.884  43.426  1.00  0.00     0.093 A 
ATOM      8  C   UNL     1      18.995  26.979  44.123  1.00  0.00     0.123 A 
ATOM      9  C   UNL     1      18.369  27.422  45.289  1.00  0.00     0.094 A 
ATOM     10  C   UNL     1      17.223  26.778  45.766  1.00  0.00     0.146 A 
ATOM     11  O   UNL     1      16.645  27.225  46.875  1.00  0.00    -0.452 OA
ENDROOT
BRANCH   1  12
ATOM     12  C   UNL     1      14.997  27.278  48.636  1.00  0.00     0.021 A 
ATOM     13  C   UNL     1      15.619  27.018  49.869  1.00  0.00     0.016 A 
ATOM     14  C   UNL     1      15.127  27.590  51.044  1.00  0.00     0.047 A 
ATOM     15  C   UNL     1      14.015  28.443  51.002  1.00  0.00     0.115 A 
ATOM     16  C   UNL     1      13.894  28.151  48.597  1.00  0.00     0.016 A 
ATOM     17  C   UNL     1      13.405  28.723  49.775  1.00  0.00     0.047 A 
BRANCH  15  18
ATOM     18  O   UNL     1      13.516  29.019  52.167  1.00  0.00    -0.508 OA
ATOM     19  H   UNL     1      13.592  28.552  53.063  1.00  0.00     0.293 HD
ENDBRANCH  15  18
ENDBRANCH   1  12
BRANCH   2  20
ATOM     20  O   UNL     1      13.857  24.932  47.363  1.00  0.00    -0.502 OA
ATOM     21  H   UNL     1      13.524  25.166  48.290  1.00  0.00     0.293 HD
ENDBRANCH   2  20
BRANCH   6  22
ATOM     22  O   UNL     1      16.830  24.132  43.172  1.00  0.00    -0.507 OA
ATOM     23  H   UNL     1      17.382  23.295  43.026  1.00  0.00     0.293 HD
ENDBRANCH   6  22
BRANCH   8  24
ATOM     24  O   UNL     1      20.135  27.635  43.665  1.00  0.00    -0.508 OA
ATOM     25  H   UNL     1      20.513  27.457  42.742  1.00  0.00     0.293 HD
ENDBRANCH   8  24
TORSDOF 5
ENDMDL
MODEL 7
REMARK VINA RESULT:    -5.993      1.891      6.703
REMARK INTER + INTRA:          -7.282
REMARK INTER:                  -7.022
REMARK INTRA:                  -0.260
REMARK UNBOUND:                -0.238
REMARK SMILES O=c1c(O)c(-c2ccc(O)cc2)oc2cc(O)cc(O)c12
REMARK SMILES IDX 5 1 3 2 2 3 1 4 21 5 19 6 18 7 16 8 15 9 14 10 13 11 6 12
REMARK SMILES IDX 7 13 8 14 9 15 12 16 11 17 10 18 4 20 20 22 17 24
REMARK H PARENT 10 19 4 21 20 23 17 25
REMARK Flexibility Score: inf
ROOT
ATOM      1  C   UNL     1      17.254  24.995  42.450  1.00  0.00     0.180 A 
ATOM      2  C   UNL     1      16.482  25.400  41.344  1.00  0.00     0.208 A 
ATOM      3  C   UNL     1      16.846  24.954  40.064  1.00  0.00     0.238 A 
ATOM      4  O   UNL     1      16.168  25.319  39.063  1.00  0.00    -0.285 OA
ATOM      5  C   UNL     1      17.957  24.101  39.912  1.00  0.00     0.111 A 
ATOM      6  C   UNL     1      18.389  23.605  38.659  1.00  0.00     0.134 A 
ATOM      7  C   UNL     1      19.501  22.752  38.592  1.00  0.00     0.093 A 
ATOM      8  C   UNL     1      20.187  22.385  39.755  1.00  0.00     0.123 A 
ATOM      9  C   UNL     1      19.767  22.872  40.993  1.00  0.00     0.094 A 
ATOM     10  C   UNL     1      18.662  23.725  41.080  1.00  0.00     0.146 A 
ATOM     11  O   UNL     1      18.287  24.178  42.271  1.00  0.00    -0.452 OA
ENDROOT
BRANCH   1  12
ATOM     12  C   UNL     1      16.944  25.438  43.829  1.00  0.00     0.021 A 
ATOM     13  C   UNL     1      17.644  26.524  44.380  1.00  0.00     0.016 A 
ATOM     14  C   UNL     1      17.353  26.973  45.671  1.00  0.00     0.047 A 
ATOM     15  C   UNL     1      16.347  26.351  46.423  1.00  0.00     0.115 A 
ATOM     16  C   UNL     1      15.921  24.831  44.582  1.00  0.00     0.016 A 
ATOM     17  C   UNL     1      15.632  25.283  45.873  1.00  0.00     0.047 A 
BRANCH  15  18
ATOM     18  O   UNL     1      16.048  26.789  47.711  1.00  0.00    -0.508 OA
ATOM     19  H   UNL     1      15.273  27.417  47.890  1.00  0.00     0.293 HD
ENDBRANCH  15  18
ENDBRANCH   1  12
BRANCH   2  20
ATOM     20  O   UNL     1      15.354  26.205  41.525  1.00  0.00    -0.502 OA
ATOM     21  H   UNL     1      14.746  26.469  40.760  1.00  0.00     0.293 HD
ENDBRANCH   2  20
BRANCH   6  22
ATOM     22  O   UNL     1      17.723  23.952  37.481  1.00  0.00    -0.507 OA
ATOM     23  H   UNL     1      16.714  24.041  37.446  1.00  0.00     0.293 HD
ENDBRANCH   6  22
BRANCH   8  24
ATOM     24  O   UNL     1      21.291  21.538  39.690  1.00  0.00    -0.508 OA
ATOM     25  H   UNL     1      22.137  21.728  40.214  1.00  0.00     0.293 HD
ENDBRANCH   8  24
TORSDOF 5
ENDMDL
MODEL 8
REMARK VINA RESULT:    -5.927      1.743      3.421
REMARK INTER + INTRA:          -7.205
REMARK INTER:                  -6.927
REMARK INTRA:                  -0.277
REMARK UNBOUND:                -0.238
REMARK SMILES O=c1c(O)c(-c2ccc(O)cc2)oc2cc(O)cc(O)c12
REMARK SMILES IDX 5 1 3 2 2 3 1 4 21 5 19 6 18 7 16 8 15 9 14 10 13 11 6 12
REMARK SMILES IDX 7 13 8 14 9 15 12 16 11 17 10 18 4 20 20 22 17 24
REMARK H PARENT 10 19 4 21 20 23 17 25
REMARK Flexibility Score: inf
ROOT
ATOM      1  C   UNL     1      18.124  25.472  42.337  1.00  0.00     0.180 A 
ATOM      2  C   UNL     1      18.766  26.503  43.050  1.00  0.00     0.208 A 
ATOM      3  C   UNL     1      18.273  26.861  44.315  1.00  0.00     0.238 A 
ATOM      4  O   UNL     1      18.833  27.791  44.959  1.00  0.00    -0.285 OA
ATOM      5  C   UNL     1      17.166  26.174  44.852  1.00  0.00     0.111 A 
ATOM      6  C   UNL     1      16.610  26.470  46.120  1.00  0.00     0.134 A 
ATOM      7  C   UNL     1      15.513  25.733  46.588  1.00  0.00     0.093 A 
ATOM      8  C   UNL     1      14.962  24.706  45.814  1.00  0.00     0.123 A 
ATOM      9  C   UNL     1      15.505  24.410  44.563  1.00  0.00     0.094 A 
ATOM     10  C   UNL     1      16.598  25.135  44.078  1.00  0.00     0.146 A 
ATOM     11  O   UNL     1      17.091  24.835  42.881  1.00  0.00    -0.452 OA
ENDROOT
BRANCH   1  12
ATOM     12  C   UNL     1      18.573  25.049  40.990  1.00  0.00     0.021 A 
ATOM     13  C   UNL     1      19.317  23.867  40.849  1.00  0.00     0.016 A 
ATOM     14  C   UNL     1      19.731  23.437  39.585  1.00  0.00     0.047 A 
ATOM     15  C   UNL     1      19.394  24.177  38.444  1.00  0.00     0.115 A 
ATOM     16  C   UNL     1      18.220  25.777  39.838  1.00  0.00     0.016 A 
ATOM     17  C   UNL     1      18.636  25.344  38.575  1.00  0.00     0.047 A 
BRANCH  15  18
ATOM     18  O   UNL     1      19.802  23.759  37.179  1.00  0.00    -0.508 OA
ATOM     19  H   UNL     1      20.724  23.978  36.821  1.00  0.00     0.293 HD
ENDBRANCH  15  18
ENDBRANCH   1  12
BRANCH   2  20
ATOM     20  O   UNL     1      19.893  27.135  42.518  1.00  0.00    -0.502 OA
ATOM     21  H   UNL     1      19.826  27.872  41.826  1.00  0.00     0.293 HD
ENDBRANCH   2  20
BRANCH   6  22
ATOM     22  O   UNL     1      17.139  27.488  46.915  1.00  0.00    -0.507 OA
ATOM     23  H   UNL     1      17.286  28.424  46.556  1.00  0.00     0.293 HD
ENDBRANCH   6  22
BRANCH   8  24
ATOM     24  O   UNL     1      13.872  23.973  46.279  1.00  0.00    -0.508 OA
ATOM     25  H   UNL     1      12.941  24.114  45.906  1.00  0.00     0.293 HD
ENDBRANCH   8  24
TORSDOF 5
ENDMDL
MODEL 9
REMARK VINA RESULT:    -5.917      3.444      5.964
REMARK INTER + INTRA:          -7.192
REMARK INTER:                  -6.912
REMARK INTRA:                  -0.280
REMARK UNBOUND:                -0.238
REMARK SMILES O=c1c(O)c(-c2ccc(O)cc2)oc2cc(O)cc(O)c12
REMARK SMILES IDX 5 1 3 2 2 3 1 4 21 5 19 6 18 7 16 8 15 9 14 10 13 11 6 12
REMARK SMILES IDX 7 13 8 14 9 15 12 16 11 17 10 18 4 20 20 22 17 24
REMARK H PARENT 10 19 4 21 20 23 17 25
REMARK Flexibility Score: inf
ROOT
ATOM      1  C   UNL     1      16.746  23.418  42.786  1.00  0.00     0.180 A 
ATOM      2  C   UNL     1      15.359  23.555  42.583  1.00  0.00     0.208 A 
ATOM      3  C   UNL     1      14.518  22.477  42.894  1.00  0.00     0.238 A 
ATOM      4  O   UNL     1      13.275  22.584  42.705  1.00  0.00    -0.285 OA
ATOM      5  C   UNL     1      15.070  21.291  43.419  1.00  0.00     0.111 A 
ATOM      6  C   UNL     1      14.293  20.159  43.761  1.00  0.00     0.134 A 
ATOM      7  C   UNL     1      14.917  19.018  44.288  1.00  0.00     0.093 A 
ATOM      8  C   UNL     1      16.303  18.989  44.479  1.00  0.00     0.123 A 
ATOM      9  C   UNL     1      17.075  20.102  44.142  1.00  0.00     0.094 A 
ATOM     10  C   UNL     1      16.471  21.247  43.614  1.00  0.00     0.146 A 
ATOM     11  O   UNL     1      17.231  22.290  43.297  1.00  0.00    -0.452 OA
ENDROOT
BRANCH   1  12
ATOM     12  C   UNL     1      17.700  24.505  42.465  1.00  0.00     0.021 A 
ATOM     13  C   UNL     1      17.949  25.509  43.415  1.00  0.00     0.016 A 
ATOM     14  C   UNL     1      18.863  26.531  43.143  1.00  0.00     0.047 A 
ATOM     15  C   UNL     1      19.550  26.554  41.922  1.00  0.00     0.115 A 
ATOM     16  C   UNL     1      18.410  24.522  41.250  1.00  0.00     0.016 A 
ATOM     17  C   UNL     1      19.323  25.546  40.980  1.00  0.00     0.047 A 
BRANCH  15  18
ATOM     18  O   UNL     1      20.463  27.568  41.639  1.00  0.00    -0.508 OA
ATOM     19  H   UNL     1      21.332  27.657  42.152  1.00  0.00     0.293 HD
ENDBRANCH  15  18
ENDBRANCH   1  12
BRANCH   2  20
ATOM     20  O   UNL     1      14.831  24.759  42.108  1.00  0.00    -0.502 OA
ATOM     21  H   UNL     1      13.841  24.887  41.936  1.00  0.00     0.293 HD
ENDBRANCH   2  20
BRANCH   6  22
ATOM     22  O   UNL     1      12.908  20.158  43.584  1.00  0.00    -0.507 OA
ATOM     23  H   UNL     1      12.467  19.643  42.830  1.00  0.00     0.293 HD
ENDBRANCH   6  22
BRANCH   8  24
ATOM     24  O   UNL     1      16.924  17.857  45.002  1.00  0.00    -0.508 OA
ATOM     25  H   UNL     1      16.443  16.966  45.056  1.00  0.00     0.293 HD
ENDBRANCH   8  24
TORSDOF 5
ENDMDL
