MODEL 1
REMARK VINA RESULT:    -2.961      0.000      0.000
REMARK INTER + INTRA:          -3.822
REMARK INTER:                  -3.654
REMARK INTRA:                  -0.169
REMARK UNBOUND:                -0.169
REMARK SMILES CCCCC(=O)CC
REMARK SMILES IDX 4 1 3 2 2 3 1 4 5 5 6 6 7 7 8 8
REMARK H PARENT
REMARK Flexibility Score: inf
ROOT
ATOM      1  C   UNL     1     151.320 150.358 144.494  1.00  0.00     0.075 C 
ENDROOT
BRANCH   1   2
ATOM      2  C   UNL     1     149.972 149.741 144.890  1.00  0.00     0.008 C 
BRANCH   2   3
ATOM      3  C   UNL     1     149.009 150.769 145.502  1.00  0.00    -0.003 C 
ATOM      4  C   UNL     1     147.594 150.219 145.682  1.00  0.00     0.004 C 
ENDBRANCH   2   3
ENDBRANCH   1   2
BRANCH   1   5
ATOM      5  C   UNL     1     152.376 150.024 145.515  1.00  0.00     0.132 C 
ATOM      6  O   UNL     1     152.307 148.967 146.125  1.00  0.00    -0.300 OA
BRANCH   5   7
ATOM      7  C   UNL     1     153.527 150.958 145.786  1.00  0.00     0.072 C 
ATOM      8  C   UNL     1     153.184 152.380 145.354  1.00  0.00     0.012 C 
ENDBRANCH   5   7
ENDBRANCH   1   5
TORSDOF 4
ENDMDL
MODEL 2
REMARK VINA RESULT:    -2.424      9.520     10.600
REMARK INTER + INTRA:          -3.160
REMARK INTER:                  -2.796
REMARK INTRA:                  -0.363
REMARK UNBOUND:                -0.169
REMARK SMILES CCCCC(=O)CC
REMARK SMILES IDX 4 1 3 2 2 3 1 4 5 5 6 6 7 7 8 8
REMARK H PARENT
REMARK Flexibility Score: inf
ROOT
ATOM      1  C   UNL     1     158.413 154.623 140.430  1.00  0.00     0.075 C 
ENDROOT
BRANCH   1   2
ATOM      2  C   UNL     1     157.226 153.946 139.732  1.00  0.00     0.008 C 
BRANCH   2   3
ATOM      3  C   UNL     1     156.389 154.931 138.901  1.00  0.00    -0.003 C 
ATOM      4  C   UNL     1     156.667 154.826 137.403  1.00  0.00     0.004 C 
ENDBRANCH   2   3
ENDBRANCH   1   2
BRANCH   1   5
ATOM      5  C   UNL     1     159.704 153.939 140.063  1.00  0.00     0.132 C 
ATOM      6  O   UNL     1     160.649 153.986 140.837  1.00  0.00    -0.300 OA
BRANCH   5   7
ATOM      7  C   UNL     1     159.848 153.179 138.770  1.00  0.00     0.072 C 
ATOM      8  C   UNL     1     160.394 154.082 137.669  1.00  0.00     0.012 C 
ENDBRANCH   5   7
ENDBRANCH   1   5
TORSDOF 4
ENDMDL
MODEL 3
REMARK VINA RESULT:    -2.376      8.411      9.738
REMARK INTER + INTRA:          -3.101
REMARK INTER:                  -2.714
REMARK INTRA:                  -0.386
REMARK UNBOUND:                -0.169
REMARK SMILES CCCCC(=O)CC
REMARK SMILES IDX 4 1 3 2 2 3 1 4 5 5 6 6 7 7 8 8
REMARK H PARENT
REMARK Flexibility Score: inf
ROOT
ATOM      1  C   UNL     1     144.128 147.391 139.768  1.00  0.00     0.075 C 
ENDROOT
BRANCH   1   2
ATOM      2  C   UNL     1     143.829 146.794 138.386  1.00  0.00     0.008 C 
BRANCH   2   3
ATOM      3  C   UNL     1     145.103 146.369 137.639  1.00  0.00    -0.003 C 
ATOM      4  C   UNL     1     146.163 145.777 138.567  1.00  0.00     0.004 C 
ENDBRANCH   2   3
ENDBRANCH   1   2
BRANCH   1   5
ATOM      5  C   UNL     1     144.341 148.879 139.667  1.00  0.00     0.132 C 
ATOM      6  O   UNL     1     143.417 149.595 139.310  1.00  0.00    -0.300 OA
BRANCH   5   7
ATOM      7  C   UNL     1     145.666 149.505 140.019  1.00  0.00     0.072 C 
ATOM      8  C   UNL     1     146.470 149.814 138.760  1.00  0.00     0.012 C 
ENDBRANCH   5   7
ENDBRANCH   1   5
TORSDOF 4
ENDMDL
MODEL 4
REMARK VINA RESULT:    -2.366      7.975      9.383
REMARK INTER + INTRA:          -3.088
REMARK INTER:                  -2.744
REMARK INTRA:                  -0.344
REMARK UNBOUND:                -0.169
REMARK SMILES CCCCC(=O)CC
REMARK SMILES IDX 4 1 3 2 2 3 1 4 5 5 6 6 7 7 8 8
REMARK H PARENT
REMARK Flexibility Score: inf
ROOT
ATOM      1  C   UNL     1     158.727 152.230 139.279  1.00  0.00     0.075 C 
ENDROOT
BRANCH   1   2
ATOM      2  C   UNL     1     157.486 151.475 138.782  1.00  0.00     0.008 C 
BRANCH   2   3
ATOM      3  C   UNL     1     156.705 150.808 139.925  1.00  0.00    -0.003 C 
ATOM      4  C   UNL     1     155.600 151.702 140.486  1.00  0.00     0.004 C 
ENDBRANCH   2   3
ENDBRANCH   1   2
BRANCH   1   5
ATOM      5  C   UNL     1     158.453 153.709 139.352  1.00  0.00     0.132 C 
ATOM      6  O   UNL     1     158.944 154.366 140.260  1.00  0.00    -0.300 OA
BRANCH   5   7
ATOM      7  C   UNL     1     157.603 154.400 138.318  1.00  0.00     0.072 C 
ATOM      8  C   UNL     1     156.367 155.023 138.961  1.00  0.00     0.012 C 
ENDBRANCH   5   7
ENDBRANCH   1   5
TORSDOF 4
ENDMDL
MODEL 5
REMARK VINA RESULT:    -2.365      8.387      9.549
REMARK INTER + INTRA:          -3.086
REMARK INTER:                  -2.696
REMARK INTRA:                  -0.390
REMARK UNBOUND:                -0.169
REMARK SMILES CCCCC(=O)CC
REMARK SMILES IDX 4 1 3 2 2 3 1 4 5 5 6 6 7 7 8 8
REMARK H PARENT
REMARK Flexibility Score: inf
ROOT
ATOM      1  C   UNL     1     153.980 143.809 139.778  1.00  0.00     0.075 C 
ENDROOT
BRANCH   1   2
ATOM      2  C   UNL     1     154.788 144.240 138.547  1.00  0.00     0.008 C 
BRANCH   2   3
ATOM      3  C   UNL     1     155.207 145.717 138.602  1.00  0.00    -0.003 C 
ATOM      4  C   UNL     1     154.352 146.608 137.702  1.00  0.00     0.004 C 
ENDBRANCH   2   3
ENDBRANCH   1   2
BRANCH   1   5
ATOM      5  C   UNL     1     152.552 143.518 139.400  1.00  0.00     0.132 C 
ATOM      6  O   UNL     1     152.215 142.364 139.172  1.00  0.00    -0.300 OA
BRANCH   5   7
ATOM      7  C   UNL     1     151.524 144.616 139.316  1.00  0.00     0.072 C 
ATOM      8  C   UNL     1     151.746 145.650 140.415  1.00  0.00     0.012 C 
ENDBRANCH   5   7
ENDBRANCH   1   5
TORSDOF 4
ENDMDL
MODEL 6
REMARK VINA RESULT:    -2.361     10.210     10.813
REMARK INTER + INTRA:          -3.082
REMARK INTER:                  -2.719
REMARK INTRA:                  -0.363
REMARK UNBOUND:                -0.169
REMARK SMILES CCCCC(=O)CC
REMARK SMILES IDX 4 1 3 2 2 3 1 4 5 5 6 6 7 7 8 8
REMARK H PARENT
REMARK Flexibility Score: inf
ROOT
ATOM      1  C   UNL     1     146.825 158.235 140.140  1.00  0.00     0.075 C 
ENDROOT
BRANCH   1   2
ATOM      2  C   UNL     1     146.844 157.441 138.827  1.00  0.00     0.008 C 
BRANCH   2   3
ATOM      3  C   UNL     1     147.459 156.043 138.992  1.00  0.00    -0.003 C 
ATOM      4  C   UNL     1     148.774 156.064 139.770  1.00  0.00     0.004 C 
ENDBRANCH   2   3
ENDBRANCH   1   2
BRANCH   1   5
ATOM      5  C   UNL     1     147.467 159.585 139.952  1.00  0.00     0.132 C 
ATOM      6  O   UNL     1     147.151 160.508 140.688  1.00  0.00    -0.300 OA
BRANCH   5   7
ATOM      7  C   UNL     1     148.508 159.815 138.887  1.00  0.00     0.072 C 
ATOM      8  C   UNL     1     149.912 159.636 139.454  1.00  0.00     0.012 C 
ENDBRANCH   5   7
ENDBRANCH   1   5
TORSDOF 4
ENDMDL
MODEL 7
REMARK VINA RESULT:    -2.360      7.775      9.285
REMARK INTER + INTRA:          -3.081
REMARK INTER:                  -2.696
REMARK INTRA:                  -0.385
REMARK UNBOUND:                -0.169
REMARK SMILES CCCCC(=O)CC
REMARK SMILES IDX 4 1 3 2 2 3 1 4 5 5 6 6 7 7 8 8
REMARK H PARENT
REMARK Flexibility Score: inf
ROOT
ATOM      1  C   UNL     1     157.470 153.982 139.765  1.00  0.00     0.075 C 
ENDROOT
BRANCH   1   2
ATOM      2  C   UNL     1     157.023 154.792 138.541  1.00  0.00     0.008 C 
BRANCH   2   3
ATOM      3  C   UNL     1     155.551 155.225 138.625  1.00  0.00    -0.003 C 
ATOM      4  C   UNL     1     154.646 154.427 137.688  1.00  0.00     0.004 C 
ENDBRANCH   2   3
ENDBRANCH   1   2
BRANCH   1   5
ATOM      5  C   UNL     1     157.764 152.556 139.378  1.00  0.00     0.132 C 
ATOM      6  O   UNL     1     158.918 152.225 139.143  1.00  0.00    -0.300 OA
BRANCH   5   7
ATOM      7  C   UNL     1     156.669 151.526 139.293  1.00  0.00     0.072 C 
ATOM      8  C   UNL     1     155.635 151.742 140.394  1.00  0.00     0.012 C 
ENDBRANCH   5   7
ENDBRANCH   1   5
TORSDOF 4
ENDMDL
MODEL 8
REMARK VINA RESULT:    -2.347      9.284      9.761
REMARK INTER + INTRA:          -3.065
REMARK INTER:                  -2.683
REMARK INTRA:                  -0.382
REMARK UNBOUND:                -0.169
REMARK SMILES CCCCC(=O)CC
REMARK SMILES IDX 4 1 3 2 2 3 1 4 5 5 6 6 7 7 8 8
REMARK H PARENT
REMARK Flexibility Score: inf
ROOT
ATOM      1  C   UNL     1     147.319 157.327 139.808  1.00  0.00     0.075 C 
ENDROOT
BRANCH   1   2
ATOM      2  C   UNL     1     146.411 156.965 138.626  1.00  0.00     0.008 C 
BRANCH   2   3
ATOM      3  C   UNL     1     146.081 155.465 138.573  1.00  0.00    -0.003 C 
ATOM      4  C   UNL     1     147.038 154.680 137.678  1.00  0.00     0.004 C 
ENDBRANCH   2   3
ENDBRANCH   1   2
BRANCH   1   5
ATOM      5  C   UNL     1     148.692 157.714 139.323  1.00  0.00     0.132 C 
ATOM      6  O   UNL     1     148.856 158.805 138.797  1.00  0.00    -0.300 OA
BRANCH   5   7
ATOM      7  C   UNL     1     149.871 156.791 139.491  1.00  0.00     0.072 C 
ATOM      8  C   UNL     1     149.527 155.639 140.430  1.00  0.00     0.012 C 
ENDBRANCH   5   7
ENDBRANCH   1   5
TORSDOF 4
ENDMDL
MODEL 9
REMARK VINA RESULT:    -2.344      8.546     10.384
REMARK INTER + INTRA:          -3.061
REMARK INTER:                  -2.649
REMARK INTRA:                  -0.412
REMARK UNBOUND:                -0.169
REMARK SMILES CCCCC(=O)CC
REMARK SMILES IDX 4 1 3 2 2 3 1 4 5 5 6 6 7 7 8 8
REMARK H PARENT
REMARK Flexibility Score: inf
ROOT
ATOM      1  C   UNL     1     144.536 146.888 139.382  1.00  0.00     0.075 C 
ENDROOT
BRANCH   1   2
ATOM      2  C   UNL     1     145.182 148.225 138.994  1.00  0.00     0.008 C 
BRANCH   2   3
ATOM      3  C   UNL     1     145.377 149.159 140.199  1.00  0.00    -0.003 C 
ATOM      4  C   UNL     1     144.704 150.517 140.009  1.00  0.00     0.004 C 
ENDBRANCH   2   3
ENDBRANCH   1   2
BRANCH   1   5
ATOM      5  C   UNL     1     143.070 147.074 139.674  1.00  0.00     0.132 C 
ATOM      6  O   UNL     1     142.604 146.631 140.714  1.00  0.00    -0.300 OA
BRANCH   5   7
ATOM      7  C   UNL     1     142.169 147.812 138.718  1.00  0.00     0.072 C 
ATOM      8  C   UNL     1     141.369 148.886 139.448  1.00  0.00     0.012 C 
ENDBRANCH   5   7
ENDBRANCH   1   5
TORSDOF 4
ENDMDL
