MODEL 1
REMARK VINA RESULT:    -6.413      0.000      0.000
REMARK INTER + INTRA:          -7.835
REMARK INTER:                  -7.538
REMARK INTRA:                  -0.297
REMARK UNBOUND:                -0.297
REMARK SMILES O=c1cc(-c2ccc(O)c(O)c2)oc2cc(O)cc(O)c12
REMARK SMILES IDX 4 1 3 2 2 3 1 4 21 5 19 6 18 7 16 8 15 9 14 10 13 11 5 12
REMARK SMILES IDX 6 13 7 14 8 15 12 16 10 17 9 18 11 20 20 22 17 24
REMARK H PARENT 9 19 11 21 20 23 17 25
REMARK Flexibility Score: inf
ROOT
ATOM      1  C   UNL     1      -0.165   3.768  -6.749  1.00  0.00     0.138 A 
ATOM      2  C   UNL     1       0.270   4.210  -8.009  1.00  0.00     0.100 A 
ATOM      3  C   UNL     1       1.148   5.290  -8.095  1.00  0.00     0.197 A 
ATOM      4  O   UNL     1       1.532   5.678  -9.231  1.00  0.00    -0.289 OA
ATOM      5  C   UNL     1       1.591   5.921  -6.915  1.00  0.00     0.107 A 
ATOM      6  C   UNL     1       2.480   7.021  -6.913  1.00  0.00     0.134 A 
ATOM      7  C   UNL     1       2.878   7.590  -5.693  1.00  0.00     0.093 A 
ATOM      8  C   UNL     1       2.404   7.078  -4.480  1.00  0.00     0.123 A 
ATOM      9  C   UNL     1       1.527   5.992  -4.478  1.00  0.00     0.094 A 
ATOM     10  C   UNL     1       1.118   5.412  -5.682  1.00  0.00     0.146 A 
ATOM     11  O   UNL     1       0.281   4.380  -5.653  1.00  0.00    -0.456 OA
ENDROOT
BRANCH   1  12
ATOM     12  C   UNL     1      -1.098   2.624  -6.598  1.00  0.00     0.021 A 
ATOM     13  C   UNL     1      -1.496   2.221  -5.311  1.00  0.00     0.016 A 
ATOM     14  C   UNL     1      -2.379   1.152  -5.142  1.00  0.00     0.051 A 
ATOM     15  C   UNL     1      -2.887   0.474  -6.255  1.00  0.00     0.157 A 
ATOM     16  C   UNL     1      -1.624   1.945  -7.714  1.00  0.00     0.062 A 
ATOM     17  C   UNL     1      -2.513   0.872  -7.544  1.00  0.00     0.158 A 
BRANCH  15  18
ATOM     18  O   UNL     1      -3.767  -0.594  -6.090  1.00  0.00    -0.504 OA
ATOM     19  H   UNL     1      -3.657  -1.261  -5.336  1.00  0.00     0.293 HD
ENDBRANCH  15  18
BRANCH  17  20
ATOM     20  O   UNL     1      -3.030   0.202  -8.652  1.00  0.00    -0.504 OA
ATOM     21  H   UNL     1      -3.681   0.649  -9.286  1.00  0.00     0.293 HD
ENDBRANCH  17  20
ENDBRANCH   1  12
BRANCH   6  22
ATOM     22  O   UNL     1       2.969   7.553  -8.106  1.00  0.00    -0.507 OA
ATOM     23  H   UNL     1       2.658   8.451  -8.457  1.00  0.00     0.293 HD
ENDBRANCH   6  22
BRANCH   8  24
ATOM     24  O   UNL     1       2.800   7.642  -3.268  1.00  0.00    -0.508 OA
ATOM     25  H   UNL     1       3.548   7.240  -2.716  1.00  0.00     0.293 HD
ENDBRANCH   8  24
TORSDOF 5
ENDMDL
MODEL 2
REMARK VINA RESULT:    -6.199      1.124      2.977
REMARK INTER + INTRA:          -7.583
REMARK INTER:                  -7.289
REMARK INTRA:                  -0.294
REMARK UNBOUND:                -0.297
REMARK SMILES O=c1cc(-c2ccc(O)c(O)c2)oc2cc(O)cc(O)c12
REMARK SMILES IDX 4 1 3 2 2 3 1 4 21 5 19 6 18 7 16 8 15 9 14 10 13 11 5 12
REMARK SMILES IDX 6 13 7 14 8 15 12 16 10 17 9 18 11 20 20 22 17 24
REMARK H PARENT 9 19 11 21 20 23 17 25
REMARK Flexibility Score: inf
ROOT
ATOM      1  C   UNL     1       0.031   4.044  -6.054  1.00  0.00     0.138 A 
ATOM      2  C   UNL     1       0.052   4.254  -4.665  1.00  0.00     0.100 A 
ATOM      3  C   UNL     1       0.841   5.275  -4.135  1.00  0.00     0.197 A 
ATOM      4  O   UNL     1       0.851   5.455  -2.888  1.00  0.00    -0.289 OA
ATOM      5  C   UNL     1       1.604   6.084  -5.001  1.00  0.00     0.107 A 
ATOM      6  C   UNL     1       2.430   7.139  -4.547  1.00  0.00     0.134 A 
ATOM      7  C   UNL     1       3.154   7.903  -5.475  1.00  0.00     0.093 A 
ATOM      8  C   UNL     1       3.066   7.631  -6.845  1.00  0.00     0.123 A 
ATOM      9  C   UNL     1       2.252   6.591  -7.297  1.00  0.00     0.094 A 
ATOM     10  C   UNL     1       1.522   5.819  -6.389  1.00  0.00     0.146 A 
ATOM     11  O   UNL     1       0.756   4.834  -6.845  1.00  0.00    -0.456 OA
ENDROOT
BRANCH   1  12
ATOM     12  C   UNL     1      -0.791   2.975  -6.673  1.00  0.00     0.021 A 
ATOM     13  C   UNL     1      -0.518   2.568  -7.990  1.00  0.00     0.016 A 
ATOM     14  C   UNL     1      -1.272   1.558  -8.593  1.00  0.00     0.051 A 
ATOM     15  C   UNL     1      -2.304   0.930  -7.887  1.00  0.00     0.157 A 
ATOM     16  C   UNL     1      -1.822   2.329  -5.963  1.00  0.00     0.062 A 
ATOM     17  C   UNL     1      -2.578   1.313  -6.568  1.00  0.00     0.158 A 
BRANCH  15  18
ATOM     18  O   UNL     1      -3.059  -0.077  -8.485  1.00  0.00    -0.504 OA
ATOM     19  H   UNL     1      -2.646  -0.731  -9.140  1.00  0.00     0.293 HD
ENDBRANCH  15  18
BRANCH  17  20
ATOM     20  O   UNL     1      -3.599   0.678  -5.863  1.00  0.00    -0.504 OA
ATOM     21  H   UNL     1      -3.683  -0.331  -5.844  1.00  0.00     0.293 HD
ENDBRANCH  17  20
ENDBRANCH   1  12
BRANCH   6  22
ATOM     22  O   UNL     1       2.538   7.433  -3.187  1.00  0.00    -0.507 OA
ATOM     23  H   UNL     1       1.721   7.570  -2.605  1.00  0.00     0.293 HD
ENDBRANCH   6  22
BRANCH   8  24
ATOM     24  O   UNL     1       3.785   8.390  -7.767  1.00  0.00    -0.508 OA
ATOM     25  H   UNL     1       4.797   8.448  -7.731  1.00  0.00     0.293 HD
ENDBRANCH   8  24
TORSDOF 5
ENDMDL
MODEL 3
REMARK VINA RESULT:    -5.665      1.158      6.878
REMARK INTER + INTRA:          -6.956
REMARK INTER:                  -6.661
REMARK INTRA:                  -0.295
REMARK UNBOUND:                -0.297
REMARK SMILES O=c1cc(-c2ccc(O)c(O)c2)oc2cc(O)cc(O)c12
REMARK SMILES IDX 4 1 3 2 2 3 1 4 21 5 19 6 18 7 16 8 15 9 14 10 13 11 5 12
REMARK SMILES IDX 6 13 7 14 8 15 12 16 10 17 9 18 11 20 20 22 17 24
REMARK H PARENT 9 19 11 21 20 23 17 25
REMARK Flexibility Score: inf
ROOT
ATOM      1  C   UNL     1      -0.017   3.769  -6.750  1.00  0.00     0.138 A 
ATOM      2  C   UNL     1      -0.042   3.188  -8.028  1.00  0.00     0.100 A 
ATOM      3  C   UNL     1      -0.843   2.069  -8.260  1.00  0.00     0.197 A 
ATOM      4  O   UNL     1      -0.859   1.556  -9.411  1.00  0.00    -0.289 OA
ATOM      5  C   UNL     1      -1.619   1.541  -7.209  1.00  0.00     0.107 A 
ATOM      6  C   UNL     1      -2.457   0.410  -7.358  1.00  0.00     0.134 A 
ATOM      7  C   UNL     1      -3.202  -0.051  -6.262  1.00  0.00     0.093 A 
ATOM      8  C   UNL     1      -3.126   0.597  -5.024  1.00  0.00     0.123 A 
ATOM      9  C   UNL     1      -2.300   1.713  -4.873  1.00  0.00     0.094 A 
ATOM     10  C   UNL     1      -1.549   2.188  -5.952  1.00  0.00     0.146 A 
ATOM     11  O   UNL     1      -0.770   3.251  -5.781  1.00  0.00    -0.456 OA
ENDROOT
BRANCH   1  12
ATOM     12  C   UNL     1       0.815   4.961  -6.447  1.00  0.00     0.021 A 
ATOM     13  C   UNL     1       1.034   5.329  -5.108  1.00  0.00     0.016 A 
ATOM     14  C   UNL     1       1.819   6.441  -4.796  1.00  0.00     0.051 A 
ATOM     15  C   UNL     1       2.408   7.198  -5.815  1.00  0.00     0.157 A 
ATOM     16  C   UNL     1       1.422   5.719  -7.467  1.00  0.00     0.062 A 
ATOM     17  C   UNL     1       2.213   6.835  -7.153  1.00  0.00     0.158 A 
BRANCH  15  18
ATOM     18  O   UNL     1       3.192   8.308  -5.508  1.00  0.00    -0.504 OA
ATOM     19  H   UNL     1       4.053   8.504  -6.005  1.00  0.00     0.293 HD
ENDBRANCH  15  18
BRANCH  17  20
ATOM     20  O   UNL     1       2.810   7.583  -8.166  1.00  0.00    -0.504 OA
ATOM     21  H   UNL     1       2.664   7.365  -9.144  1.00  0.00     0.293 HD
ENDBRANCH  17  20
ENDBRANCH   1  12
BRANCH   6  22
ATOM     22  O   UNL     1      -2.553  -0.256  -8.579  1.00  0.00    -0.507 OA
ATOM     23  H   UNL     1      -1.800  -0.833  -8.933  1.00  0.00     0.293 HD
ENDBRANCH   6  22
BRANCH   8  24
ATOM     24  O   UNL     1      -3.866   0.140  -3.935  1.00  0.00    -0.508 OA
ATOM     25  H   UNL     1      -4.849  -0.092  -4.024  1.00  0.00     0.293 HD
ENDBRANCH   8  24
TORSDOF 5
ENDMDL
MODEL 4
REMARK VINA RESULT:    -5.519      2.792      4.872
REMARK INTER + INTRA:          -6.784
REMARK INTER:                  -6.495
REMARK INTRA:                  -0.289
REMARK UNBOUND:                -0.297
REMARK SMILES O=c1cc(-c2ccc(O)c(O)c2)oc2cc(O)cc(O)c12
REMARK SMILES IDX 4 1 3 2 2 3 1 4 21 5 19 6 18 7 16 8 15 9 14 10 13 11 5 12
REMARK SMILES IDX 6 13 7 14 8 15 12 16 10 17 9 18 11 20 20 22 17 24
REMARK H PARENT 9 19 11 21 20 23 17 25
REMARK Flexibility Score: inf
ROOT
ATOM      1  C   UNL     1       3.021   6.883  -7.414  1.00  0.00     0.138 A 
ATOM      2  C   UNL     1       4.354   6.677  -7.807  1.00  0.00     0.100 A 
ATOM      3  C   UNL     1       5.284   7.706  -7.650  1.00  0.00     0.197 A 
ATOM      4  O   UNL     1       6.477   7.510  -8.005  1.00  0.00    -0.289 OA
ATOM      5  C   UNL     1       4.874   8.934  -7.096  1.00  0.00     0.107 A 
ATOM      6  C   UNL     1       5.751  10.027  -6.903  1.00  0.00     0.134 A 
ATOM      7  C   UNL     1       5.265  11.217  -6.338  1.00  0.00     0.093 A 
ATOM      8  C   UNL     1       3.921  11.331  -5.964  1.00  0.00     0.123 A 
ATOM      9  C   UNL     1       3.052  10.255  -6.153  1.00  0.00     0.094 A 
ATOM     10  C   UNL     1       3.517   9.062  -6.714  1.00  0.00     0.146 A 
ATOM     11  O   UNL     1       2.669   8.053  -6.884  1.00  0.00    -0.456 OA
ENDROOT
BRANCH   1  12
ATOM     12  C   UNL     1       1.990   5.824  -7.557  1.00  0.00     0.021 A 
ATOM     13  C   UNL     1       1.865   5.141  -8.780  1.00  0.00     0.016 A 
ATOM     14  C   UNL     1       0.908   4.136  -8.938  1.00  0.00     0.051 A 
ATOM     15  C   UNL     1       0.068   3.788  -7.874  1.00  0.00     0.157 A 
ATOM     16  C   UNL     1       1.150   5.459  -6.487  1.00  0.00     0.062 A 
ATOM     17  C   UNL     1       0.191   4.448  -6.645  1.00  0.00     0.158 A 
BRANCH  15  18
ATOM     18  O   UNL     1      -0.889   2.786  -8.029  1.00  0.00    -0.504 OA
ATOM     19  H   UNL     1      -1.872   3.004  -8.143  1.00  0.00     0.293 HD
ENDBRANCH  15  18
BRANCH  17  20
ATOM     20  O   UNL     1      -0.640   4.091  -5.584  1.00  0.00    -0.504 OA
ATOM     21  H   UNL     1      -0.784   4.706  -4.793  1.00  0.00     0.293 HD
ENDBRANCH  17  20
ENDBRANCH   1  12
BRANCH   6  22
ATOM     22  O   UNL     1       7.095   9.943  -7.266  1.00  0.00    -0.507 OA
ATOM     23  H   UNL     1       7.726   9.285  -6.825  1.00  0.00     0.293 HD
ENDBRANCH   6  22
BRANCH   8  24
ATOM     24  O   UNL     1       3.438  12.512  -5.403  1.00  0.00    -0.508 OA
ATOM     25  H   UNL     1       4.048  13.302  -5.224  1.00  0.00     0.293 HD
ENDBRANCH   8  24
TORSDOF 5
ENDMDL
MODEL 5
REMARK VINA RESULT:    -5.267      2.290      4.306
REMARK INTER + INTRA:          -6.487
REMARK INTER:                  -6.201
REMARK INTRA:                  -0.286
REMARK UNBOUND:                -0.297
REMARK SMILES O=c1cc(-c2ccc(O)c(O)c2)oc2cc(O)cc(O)c12
REMARK SMILES IDX 4 1 3 2 2 3 1 4 21 5 19 6 18 7 16 8 15 9 14 10 13 11 5 12
REMARK SMILES IDX 6 13 7 14 8 15 12 16 10 17 9 18 11 20 20 22 17 24
REMARK H PARENT 9 19 11 21 20 23 17 25
REMARK Flexibility Score: inf
ROOT
ATOM      1  C   UNL     1       1.896   6.254  -6.776  1.00  0.00     0.138 A 
ATOM      2  C   UNL     1       1.627   7.288  -5.865  1.00  0.00     0.100 A 
ATOM      3  C   UNL     1       2.533   8.340  -5.730  1.00  0.00     0.197 A 
ATOM      4  O   UNL     1       2.281   9.263  -4.910  1.00  0.00    -0.289 OA
ATOM      5  C   UNL     1       3.704   8.353  -6.514  1.00  0.00     0.107 A 
ATOM      6  C   UNL     1       4.674   9.380  -6.440  1.00  0.00     0.134 A 
ATOM      7  C   UNL     1       5.811   9.322  -7.260  1.00  0.00     0.093 A 
ATOM      8  C   UNL     1       5.995   8.258  -8.150  1.00  0.00     0.123 A 
ATOM      9  C   UNL     1       5.040   7.242  -8.227  1.00  0.00     0.094 A 
ATOM     10  C   UNL     1       3.900   7.282  -7.419  1.00  0.00     0.146 A 
ATOM     11  O   UNL     1       3.007   6.302  -7.510  1.00  0.00    -0.456 OA
ENDROOT
BRANCH   1  12
ATOM     12  C   UNL     1       0.967   5.111  -6.962  1.00  0.00     0.021 A 
ATOM     13  C   UNL     1       0.849   4.514  -8.229  1.00  0.00     0.016 A 
ATOM     14  C   UNL     1      -0.012   3.433  -8.429  1.00  0.00     0.051 A 
ATOM     15  C   UNL     1      -0.762   2.923  -7.363  1.00  0.00     0.157 A 
ATOM     16  C   UNL     1       0.219   4.583  -5.891  1.00  0.00     0.062 A 
ATOM     17  C   UNL     1      -0.644   3.495  -6.091  1.00  0.00     0.158 A 
BRANCH  15  18
ATOM     18  O   UNL     1      -1.623   1.844  -7.559  1.00  0.00    -0.504 OA
ATOM     19  H   UNL     1      -1.388   1.084  -8.187  1.00  0.00     0.293 HD
ENDBRANCH  15  18
BRANCH  17  20
ATOM     20  O   UNL     1      -1.384   2.977  -5.030  1.00  0.00    -0.504 OA
ATOM     21  H   UNL     1      -2.338   2.660  -5.153  1.00  0.00     0.293 HD
ENDBRANCH  17  20
ENDBRANCH   1  12
BRANCH   6  22
ATOM     22  O   UNL     1       4.519  10.453  -5.561  1.00  0.00    -0.507 OA
ATOM     23  H   UNL     1       5.108  11.275  -5.614  1.00  0.00     0.293 HD
ENDBRANCH   6  22
BRANCH   8  24
ATOM     24  O   UNL     1       7.124   8.200  -8.965  1.00  0.00    -0.508 OA
ATOM     25  H   UNL     1       7.762   7.412  -8.931  1.00  0.00     0.293 HD
ENDBRANCH   8  24
TORSDOF 5
ENDMDL
MODEL 6
REMARK VINA RESULT:    -4.979      1.838      7.388
REMARK INTER + INTRA:          -6.149
REMARK INTER:                  -5.844
REMARK INTRA:                  -0.305
REMARK UNBOUND:                -0.297
REMARK SMILES O=c1cc(-c2ccc(O)c(O)c2)oc2cc(O)cc(O)c12
REMARK SMILES IDX 4 1 3 2 2 3 1 4 21 5 19 6 18 7 16 8 15 9 14 10 13 11 5 12
REMARK SMILES IDX 6 13 7 14 8 15 12 16 10 17 9 18 11 20 20 22 17 24
REMARK H PARENT 9 19 11 21 20 23 17 25
REMARK Flexibility Score: inf
ROOT
ATOM      1  C   UNL     1       1.137   5.508  -6.370  1.00  0.00     0.138 A 
ATOM      2  C   UNL     1       0.516   5.269  -5.133  1.00  0.00     0.100 A 
ATOM      3  C   UNL     1      -0.383   4.210  -5.008  1.00  0.00     0.197 A 
ATOM      4  O   UNL     1      -0.934   4.004  -3.893  1.00  0.00    -0.289 OA
ATOM      5  C   UNL     1      -0.653   3.392  -6.123  1.00  0.00     0.107 A 
ATOM      6  C   UNL     1      -1.551   2.299  -6.082  1.00  0.00     0.134 A 
ATOM      7  C   UNL     1      -1.760   1.529  -7.236  1.00  0.00     0.093 A 
ATOM      8  C   UNL     1      -1.089   1.832  -8.427  1.00  0.00     0.123 A 
ATOM      9  C   UNL     1      -0.202   2.909  -8.471  1.00  0.00     0.094 A 
ATOM     10  C   UNL     1       0.020   3.689  -7.332  1.00  0.00     0.146 A 
ATOM     11  O   UNL     1       0.868   4.710  -7.401  1.00  0.00    -0.456 OA
ENDROOT
BRANCH   1  12
ATOM     12  C   UNL     1       2.103   6.619  -6.560  1.00  0.00     0.021 A 
ATOM     13  C   UNL     1       1.965   7.793  -5.798  1.00  0.00     0.016 A 
ATOM     14  C   UNL     1       2.865   8.850  -5.952  1.00  0.00     0.051 A 
ATOM     15  C   UNL     1       3.923   8.749  -6.862  1.00  0.00     0.157 A 
ATOM     16  C   UNL     1       3.179   6.519  -7.463  1.00  0.00     0.062 A 
ATOM     17  C   UNL     1       4.084   7.581  -7.617  1.00  0.00     0.158 A 
BRANCH  15  18
ATOM     18  O   UNL     1       4.823   9.802  -7.019  1.00  0.00    -0.504 OA
ATOM     19  H   UNL     1       5.701   9.681  -7.509  1.00  0.00     0.293 HD
ENDBRANCH  15  18
BRANCH  17  20
ATOM     20  O   UNL     1       5.146   7.478  -8.513  1.00  0.00    -0.504 OA
ATOM     21  H   UNL     1       6.092   7.717  -8.244  1.00  0.00     0.293 HD
ENDBRANCH  17  20
ENDBRANCH   1  12
BRANCH   6  22
ATOM     22  O   UNL     1      -2.234   1.974  -4.910  1.00  0.00    -0.507 OA
ATOM     23  H   UNL     1      -3.221   2.168  -4.797  1.00  0.00     0.293 HD
ENDBRANCH   6  22
BRANCH   8  24
ATOM     24  O   UNL     1      -1.297   1.067  -9.574  1.00  0.00    -0.508 OA
ATOM     25  H   UNL     1      -0.665   1.118 -10.365  1.00  0.00     0.293 HD
ENDBRANCH   8  24
TORSDOF 5
ENDMDL
MODEL 7
REMARK VINA RESULT:    -4.918      6.482      8.441
REMARK INTER + INTRA:          -6.078
REMARK INTER:                  -5.765
REMARK INTRA:                  -0.313
REMARK UNBOUND:                -0.297
REMARK SMILES O=c1cc(-c2ccc(O)c(O)c2)oc2cc(O)cc(O)c12
REMARK SMILES IDX 4 1 3 2 2 3 1 4 21 5 19 6 18 7 16 8 15 9 14 10 13 11 5 12
REMARK SMILES IDX 6 13 7 14 8 15 12 16 10 17 9 18 11 20 20 22 17 24
REMARK H PARENT 9 19 11 21 20 23 17 25
REMARK Flexibility Score: inf
ROOT
ATOM      1  C   UNL     1       3.369  10.364  -6.310  1.00  0.00     0.138 A 
ATOM      2  C   UNL     1       3.684  11.727  -6.183  1.00  0.00     0.100 A 
ATOM      3  C   UNL     1       2.743  12.601  -5.637  1.00  0.00     0.197 A 
ATOM      4  O   UNL     1       3.036  13.822  -5.526  1.00  0.00    -0.289 OA
ATOM      5  C   UNL     1       1.493  12.104  -5.218  1.00  0.00     0.107 A 
ATOM      6  C   UNL     1       0.484  12.922  -4.656  1.00  0.00     0.134 A 
ATOM      7  C   UNL     1      -0.733  12.348  -4.259  1.00  0.00     0.093 A 
ATOM      8  C   UNL     1      -0.958  10.975  -4.412  1.00  0.00     0.123 A 
ATOM      9  C   UNL     1       0.035  10.165  -4.966  1.00  0.00     0.094 A 
ATOM     10  C   UNL     1       1.254  10.718  -5.369  1.00  0.00     0.146 A 
ATOM     11  O   UNL     1       2.182   9.925  -5.895  1.00  0.00    -0.456 OA
ENDROOT
BRANCH   1  12
ATOM     12  C   UNL     1       4.331   9.388  -6.882  1.00  0.00     0.021 A 
ATOM     13  C   UNL     1       5.701   9.705  -6.914  1.00  0.00     0.016 A 
ATOM     14  C   UNL     1       6.627   8.802  -7.440  1.00  0.00     0.051 A 
ATOM     15  C   UNL     1       6.203   7.562  -7.931  1.00  0.00     0.157 A 
ATOM     16  C   UNL     1       3.914   8.133  -7.366  1.00  0.00     0.062 A 
ATOM     17  C   UNL     1       4.845   7.225  -7.892  1.00  0.00     0.158 A 
BRANCH  15  18
ATOM     18  O   UNL     1       7.125   6.658  -8.457  1.00  0.00    -0.504 OA
ATOM     19  H   UNL     1       8.072   6.601  -8.103  1.00  0.00     0.293 HD
ENDBRANCH  15  18
BRANCH  17  20
ATOM     20  O   UNL     1       4.427   5.985  -8.372  1.00  0.00    -0.504 OA
ATOM     21  H   UNL     1       5.011   5.161  -8.292  1.00  0.00     0.293 HD
ENDBRANCH  17  20
ENDBRANCH   1  12
BRANCH   6  22
ATOM     22  O   UNL     1       0.680  14.293  -4.491  1.00  0.00    -0.507 OA
ATOM     23  H   UNL     1       1.153  14.852  -5.190  1.00  0.00     0.293 HD
ENDBRANCH   6  22
BRANCH   8  24
ATOM     24  O   UNL     1      -2.167  10.405  -4.017  1.00  0.00    -0.508 OA
ATOM     25  H   UNL     1      -2.407  10.298  -3.038  1.00  0.00     0.293 HD
ENDBRANCH   8  24
TORSDOF 5
ENDMDL
MODEL 8
REMARK VINA RESULT:    -4.850      6.445      8.487
REMARK INTER + INTRA:          -5.997
REMARK INTER:                  -5.705
REMARK INTRA:                  -0.293
REMARK UNBOUND:                -0.297
REMARK SMILES O=c1cc(-c2ccc(O)c(O)c2)oc2cc(O)cc(O)c12
REMARK SMILES IDX 4 1 3 2 2 3 1 4 21 5 19 6 18 7 16 8 15 9 14 10 13 11 5 12
REMARK SMILES IDX 6 13 7 14 8 15 12 16 10 17 9 18 11 20 20 22 17 24
REMARK H PARENT 9 19 11 21 20 23 17 25
REMARK Flexibility Score: inf
ROOT
ATOM      1  C   UNL     1       2.966  10.132  -6.209  1.00  0.00     0.138 A 
ATOM      2  C   UNL     1       1.660   9.664  -5.990  1.00  0.00     0.100 A 
ATOM      3  C   UNL     1       0.692  10.536  -5.489  1.00  0.00     0.197 A 
ATOM      4  O   UNL     1      -0.477  10.106  -5.298  1.00  0.00    -0.289 OA
ATOM      5  C   UNL     1       1.038  11.873  -5.213  1.00  0.00     0.107 A 
ATOM      6  C   UNL     1       0.119  12.820  -4.703  1.00  0.00     0.134 A 
ATOM      7  C   UNL     1       0.541  14.136  -4.459  1.00  0.00     0.093 A 
ATOM      8  C   UNL     1       1.862  14.520  -4.717  1.00  0.00     0.123 A 
ATOM      9  C   UNL     1       2.772  13.589  -5.220  1.00  0.00     0.094 A 
ATOM     10  C   UNL     1       2.371  12.273  -5.469  1.00  0.00     0.146 A 
ATOM     11  O   UNL     1       3.257  11.405  -5.947  1.00  0.00    -0.456 OA
ENDROOT
BRANCH   1  12
ATOM     12  C   UNL     1       4.035   9.250  -6.742  1.00  0.00     0.021 A 
ATOM     13  C   UNL     1       5.382   9.612  -6.564  1.00  0.00     0.016 A 
ATOM     14  C   UNL     1       6.407   8.797  -7.049  1.00  0.00     0.051 A 
ATOM     15  C   UNL     1       6.105   7.601  -7.710  1.00  0.00     0.157 A 
ATOM     16  C   UNL     1       3.739   8.039  -7.396  1.00  0.00     0.062 A 
ATOM     17  C   UNL     1       4.769   7.219  -7.881  1.00  0.00     0.158 A 
BRANCH  15  18
ATOM     18  O   UNL     1       7.125   6.785  -8.196  1.00  0.00    -0.504 OA
ATOM     19  H   UNL     1       7.854   7.149  -8.797  1.00  0.00     0.293 HD
ENDBRANCH  15  18
BRANCH  17  20
ATOM     20  O   UNL     1       4.471   6.021  -8.529  1.00  0.00    -0.504 OA
ATOM     21  H   UNL     1       4.397   5.968  -9.538  1.00  0.00     0.293 HD
ENDBRANCH  17  20
ENDBRANCH   1  12
BRANCH   6  22
ATOM     22  O   UNL     1      -1.204  12.467  -4.436  1.00  0.00    -0.507 OA
ATOM     23  H   UNL     1      -1.874  12.307  -5.180  1.00  0.00     0.293 HD
ENDBRANCH   6  22
BRANCH   8  24
ATOM     24  O   UNL     1       2.282  15.827  -4.475  1.00  0.00    -0.508 OA
ATOM     25  H   UNL     1       2.343  16.510  -5.222  1.00  0.00     0.293 HD
ENDBRANCH   8  24
TORSDOF 5
ENDMDL
MODEL 9
REMARK VINA RESULT:    -4.511      6.236      8.085
REMARK INTER + INTRA:          -5.599
REMARK INTER:                  -5.281
REMARK INTRA:                  -0.318
REMARK UNBOUND:                -0.297
REMARK SMILES O=c1cc(-c2ccc(O)c(O)c2)oc2cc(O)cc(O)c12
REMARK SMILES IDX 4 1 3 2 2 3 1 4 21 5 19 6 18 7 16 8 15 9 14 10 13 11 5 12
REMARK SMILES IDX 6 13 7 14 8 15 12 16 10 17 9 18 11 20 20 22 17 24
REMARK H PARENT 9 19 11 21 20 23 17 25
REMARK Flexibility Score: inf
ROOT
ATOM      1  C   UNL     1       2.389  10.637  -5.544  1.00  0.00     0.138 A 
ATOM      2  C   UNL     1       3.518  11.472  -5.500  1.00  0.00     0.100 A 
ATOM      3  C   UNL     1       4.713  11.044  -6.080  1.00  0.00     0.197 A 
ATOM      4  O   UNL     1       5.720  11.801  -6.035  1.00  0.00    -0.289 OA
ATOM      5  C   UNL     1       4.769   9.782  -6.705  1.00  0.00     0.107 A 
ATOM      6  C   UNL     1       5.939   9.272  -7.316  1.00  0.00     0.134 A 
ATOM      7  C   UNL     1       5.911   8.008  -7.923  1.00  0.00     0.093 A 
ATOM      8  C   UNL     1       4.737   7.247  -7.931  1.00  0.00     0.123 A 
ATOM      9  C   UNL     1       3.580   7.746  -7.329  1.00  0.00     0.094 A 
ATOM     10  C   UNL     1       3.587   9.004  -6.719  1.00  0.00     0.146 A 
ATOM     11  O   UNL     1       2.473   9.455  -6.152  1.00  0.00    -0.456 OA
ENDROOT
BRANCH   1  12
ATOM     12  C   UNL     1       1.092  11.042  -4.946  1.00  0.00     0.021 A 
ATOM     13  C   UNL     1       0.964  12.319  -4.372  1.00  0.00     0.016 A 
ATOM     14  C   UNL     1      -0.248  12.726  -3.809  1.00  0.00     0.051 A 
ATOM     15  C   UNL     1      -1.354  11.870  -3.819  1.00  0.00     0.157 A 
ATOM     16  C   UNL     1      -0.030  10.190  -4.965  1.00  0.00     0.062 A 
ATOM     17  C   UNL     1      -1.247  10.601  -4.401  1.00  0.00     0.158 A 
BRANCH  15  18
ATOM     18  O   UNL     1      -2.565  12.273  -3.257  1.00  0.00    -0.504 OA
ATOM     19  H   UNL     1      -3.215  11.604  -2.862  1.00  0.00     0.293 HD
ENDBRANCH  15  18
BRANCH  17  20
ATOM     20  O   UNL     1      -2.354   9.754  -4.420  1.00  0.00    -0.504 OA
ATOM     21  H   UNL     1      -3.252  10.047  -4.053  1.00  0.00     0.293 HD
ENDBRANCH  17  20
ENDBRANCH   1  12
BRANCH   6  22
ATOM     22  O   UNL     1       7.125  10.008  -7.323  1.00  0.00    -0.507 OA
ATOM     23  H   UNL     1       7.276  10.782  -6.688  1.00  0.00     0.293 HD
ENDBRANCH   6  22
BRANCH   8  24
ATOM     24  O   UNL     1       4.708   5.990  -8.534  1.00  0.00    -0.508 OA
ATOM     25  H   UNL     1       4.214   5.212  -8.113  1.00  0.00     0.293 HD
ENDBRANCH   8  24
TORSDOF 5
ENDMDL
