MODEL 1
REMARK VINA RESULT:    -3.384      0.000      0.000
REMARK INTER + INTRA:          -3.681
REMARK INTER:                  -3.681
REMARK INTRA:                   0.000
REMARK UNBOUND:                 0.000
REMARK SMILES [NH3+]CC(=O)[O-]
REMARK SMILES IDX 2 1 1 2 3 6 4 7 5 8
REMARK H PARENT 1 3 1 4 1 5
REMARK Flexibility Score: inf
ROOT
ATOM      1  C   UNL     1       4.243  13.096  22.837  1.00  0.00     0.312 C 
ENDROOT
BRANCH   1   2
ATOM      2  N   UNL     1       5.269  13.112  23.879  1.00  0.00    -0.353 N 
ATOM      3  H   UNL     1       5.557  12.134  24.113  1.00  0.00     0.344 HD
ATOM      4  H   UNL     1       4.878  13.563  24.737  1.00  0.00     0.344 HD
ATOM      5  H   UNL     1       6.100  13.659  23.556  1.00  0.00     0.344 HD
ENDBRANCH   1   2
BRANCH   1   6
ATOM      6  C   UNL     1       4.586  12.101  21.772  1.00  0.00     0.096 C 
ATOM      7  O   UNL     1       3.701  11.700  20.972  1.00  0.00    -0.544 OA
ATOM      8  O   UNL     1       5.871  11.579  21.697  1.00  0.00    -0.544 OA
ENDBRANCH   1   6
TORSDOF 2
ENDMDL
MODEL 2
REMARK VINA RESULT:    -3.334     17.228     17.757
REMARK INTER + INTRA:          -3.626
REMARK INTER:                  -3.626
REMARK INTRA:                   0.000
REMARK UNBOUND:                 0.000
REMARK SMILES [NH3+]CC(=O)[O-]
REMARK SMILES IDX 2 1 1 2 3 6 4 7 5 8
REMARK H PARENT 1 3 1 4 1 5
REMARK Flexibility Score: inf
ROOT
ATOM      1  C   UNL     1      16.192  -1.797  18.157  1.00  0.00     0.312 C 
ENDROOT
BRANCH   1   2
ATOM      2  N   UNL     1      15.040  -2.684  18.313  1.00  0.00    -0.353 N 
ATOM      3  H   UNL     1      15.001  -3.053  19.291  1.00  0.00     0.344 HD
ATOM      4  H   UNL     1      15.136  -3.488  17.652  1.00  0.00     0.344 HD
ATOM      5  H   UNL     1      14.157  -2.168  18.094  1.00  0.00     0.344 HD
ENDBRANCH   1   2
BRANCH   1   6
ATOM      6  C   UNL     1      15.849  -0.405  18.591  1.00  0.00     0.096 C 
ATOM      7  O   UNL     1      16.640   0.242  19.325  1.00  0.00    -0.544 OA
ATOM      8  O   UNL     1      14.633   0.157  18.224  1.00  0.00    -0.544 OA
ENDBRANCH   1   6
TORSDOF 2
ENDMDL
MODEL 3
REMARK VINA RESULT:    -3.295      1.105      1.805
REMARK INTER + INTRA:          -3.584
REMARK INTER:                  -3.584
REMARK INTRA:                   0.000
REMARK UNBOUND:                 0.000
REMARK SMILES [NH3+]CC(=O)[O-]
REMARK SMILES IDX 2 1 1 2 3 6 4 7 5 8
REMARK H PARENT 1 3 1 4 1 5
REMARK Flexibility Score: inf
ROOT
ATOM      1  C   UNL     1       3.948  13.341  22.048  1.00  0.00     0.312 C 
ENDROOT
BRANCH   1   2
ATOM      2  N   UNL     1       4.282  12.758  23.347  1.00  0.00    -0.353 N 
ATOM      3  H   UNL     1       4.401  11.724  23.256  1.00  0.00     0.344 HD
ATOM      4  H   UNL     1       3.505  12.952  24.018  1.00  0.00     0.344 HD
ATOM      5  H   UNL     1       5.163  13.185  23.716  1.00  0.00     0.344 HD
ENDBRANCH   1   2
BRANCH   1   6
ATOM      6  C   UNL     1       4.029  12.305  20.969  1.00  0.00     0.096 C 
ATOM      7  O   UNL     1       5.149  11.889  20.573  1.00  0.00    -0.544 OA
ATOM      8  O   UNL     1       2.868  11.838  20.366  1.00  0.00    -0.544 OA
ENDBRANCH   1   6
TORSDOF 2
ENDMDL
MODEL 4
REMARK VINA RESULT:    -3.096     17.254     17.739
REMARK INTER + INTRA:          -3.367
REMARK INTER:                  -3.367
REMARK INTRA:                   0.000
REMARK UNBOUND:                 0.000
REMARK SMILES [NH3+]CC(=O)[O-]
REMARK SMILES IDX 2 1 1 2 3 6 4 7 5 8
REMARK H PARENT 1 3 1 4 1 5
REMARK Flexibility Score: inf
ROOT
ATOM      1  C   UNL     1      17.342  -0.137  19.373  1.00  0.00     0.312 C 
ENDROOT
BRANCH   1   2
ATOM      2  N   UNL     1      16.973   0.125  20.763  1.00  0.00    -0.353 N 
ATOM      3  H   UNL     1      17.832   0.256  21.344  1.00  0.00     0.344 HD
ATOM      4  H   UNL     1      16.434  -0.690  21.134  1.00  0.00     0.344 HD
ATOM      5  H   UNL     1      16.374   0.981  20.820  1.00  0.00     0.344 HD
ENDBRANCH   1   2
BRANCH   1   6
ATOM      6  C   UNL     1      16.222  -0.815  18.647  1.00  0.00     0.096 C 
ATOM      7  O   UNL     1      16.380  -1.971  18.176  1.00  0.00    -0.544 OA
ATOM      8  O   UNL     1      15.020  -0.149  18.449  1.00  0.00    -0.544 OA
ENDBRANCH   1   6
TORSDOF 2
ENDMDL
MODEL 5
REMARK VINA RESULT:    -3.095      2.533      2.905
REMARK INTER + INTRA:          -3.366
REMARK INTER:                  -3.366
REMARK INTRA:                   0.000
REMARK UNBOUND:                 0.000
REMARK SMILES [NH3+]CC(=O)[O-]
REMARK SMILES IDX 2 1 1 2 3 6 4 7 5 8
REMARK H PARENT 1 3 1 4 1 5
REMARK Flexibility Score: inf
ROOT
ATOM      1  C   UNL     1       3.149  11.794  20.451  1.00  0.00     0.312 C 
ENDROOT
BRANCH   1   2
ATOM      2  N   UNL     1       2.745  10.440  20.830  1.00  0.00    -0.353 N 
ATOM      3  H   UNL     1       3.570   9.906  21.185  1.00  0.00     0.344 HD
ATOM      4  H   UNL     1       2.360   9.951  19.990  1.00  0.00     0.344 HD
ATOM      5  H   UNL     1       2.004  10.480  21.568  1.00  0.00     0.344 HD
ENDBRANCH   1   2
BRANCH   1   6
ATOM      6  C   UNL     1       4.168  12.328  21.410  1.00  0.00     0.096 C 
ATOM      7  O   UNL     1       5.232  11.691  21.622  1.00  0.00    -0.544 OA
ATOM      8  O   UNL     1       3.918  13.504  22.105  1.00  0.00    -0.544 OA
ENDBRANCH   1   6
TORSDOF 2
ENDMDL
MODEL 6
REMARK VINA RESULT:    -3.009     10.460     10.771
REMARK INTER + INTRA:          -3.273
REMARK INTER:                  -3.273
REMARK INTRA:                   0.000
REMARK UNBOUND:                 0.000
REMARK SMILES [NH3+]CC(=O)[O-]
REMARK SMILES IDX 2 1 1 2 3 6 4 7 5 8
REMARK H PARENT 1 3 1 4 1 5
REMARK Flexibility Score: inf
ROOT
ATOM      1  C   UNL     1       7.925   2.542  19.103  1.00  0.00     0.312 C 
ENDROOT
BRANCH   1   2
ATOM      2  N   UNL     1       7.994   1.253  18.416  1.00  0.00    -0.353 N 
ATOM      3  H   UNL     1       8.909   0.789  18.615  1.00  0.00     0.344 HD
ATOM      4  H   UNL     1       7.911   1.410  17.386  1.00  0.00     0.344 HD
ATOM      5  H   UNL     1       7.208   0.637  18.729  1.00  0.00     0.344 HD
ENDBRANCH   1   2
BRANCH   1   6
ATOM      6  C   UNL     1       6.601   2.709  19.783  1.00  0.00     0.096 C 
ATOM      7  O   UNL     1       5.820   3.630  19.428  1.00  0.00    -0.544 OA
ATOM      8  O   UNL     1       6.253   1.878  20.840  1.00  0.00    -0.544 OA
ENDBRANCH   1   6
TORSDOF 2
ENDMDL
MODEL 7
REMARK VINA RESULT:    -2.991     10.585     10.930
REMARK INTER + INTRA:          -3.254
REMARK INTER:                  -3.254
REMARK INTRA:                   0.000
REMARK UNBOUND:                 0.000
REMARK SMILES [NH3+]CC(=O)[O-]
REMARK SMILES IDX 2 1 1 2 3 6 4 7 5 8
REMARK H PARENT 1 3 1 4 1 5
REMARK Flexibility Score: inf
ROOT
ATOM      1  C   UNL     1       8.088   2.116  19.588  1.00  0.00     0.312 C 
ENDROOT
BRANCH   1   2
ATOM      2  N   UNL     1       7.981   1.265  18.404  1.00  0.00    -0.353 N 
ATOM      3  H   UNL     1       8.934   1.006  18.061  1.00  0.00     0.344 HD
ATOM      4  H   UNL     1       7.481   1.789  17.650  1.00  0.00     0.344 HD
ATOM      5  H   UNL     1       7.439   0.399  18.631  1.00  0.00     0.344 HD
ENDBRANCH   1   2
BRANCH   1   6
ATOM      6  C   UNL     1       6.729   2.475  20.105  1.00  0.00     0.096 C 
ATOM      7  O   UNL     1       6.190   1.778  21.004  1.00  0.00    -0.544 OA
ATOM      8  O   UNL     1       6.039   3.549  19.558  1.00  0.00    -0.544 OA
ENDBRANCH   1   6
TORSDOF 2
ENDMDL
MODEL 8
REMARK VINA RESULT:    -2.889     17.043     17.392
REMARK INTER + INTRA:          -3.143
REMARK INTER:                  -3.143
REMARK INTRA:                   0.000
REMARK UNBOUND:                 0.000
REMARK SMILES [NH3+]CC(=O)[O-]
REMARK SMILES IDX 2 1 1 2 3 6 4 7 5 8
REMARK H PARENT 1 3 1 4 1 5
REMARK Flexibility Score: inf
ROOT
ATOM      1  C   UNL     1      15.874   0.688  18.051  1.00  0.00     0.312 C 
ENDROOT
BRANCH   1   2
ATOM      2  N   UNL     1      14.708   0.980  18.884  1.00  0.00    -0.353 N 
ATOM      3  H   UNL     1      14.243   1.857  18.555  1.00  0.00     0.344 HD
ATOM      4  H   UNL     1      15.019   1.113  19.873  1.00  0.00     0.344 HD
ATOM      5  H   UNL     1      14.030   0.184  18.845  1.00  0.00     0.344 HD
ENDBRANCH   1   2
BRANCH   1   6
ATOM      6  C   UNL     1      16.719  -0.376  18.680  1.00  0.00     0.096 C 
ATOM      7  O   UNL     1      16.645  -1.565  18.274  1.00  0.00    -0.544 OA
ATOM      8  O   UNL     1      17.551  -0.063  19.747  1.00  0.00    -0.544 OA
ENDBRANCH   1   6
TORSDOF 2
ENDMDL
MODEL 9
REMARK VINA RESULT:    -2.861     10.259     10.546
REMARK INTER + INTRA:          -3.111
REMARK INTER:                  -3.111
REMARK INTRA:                   0.000
REMARK UNBOUND:                 0.000
REMARK SMILES [NH3+]CC(=O)[O-]
REMARK SMILES IDX 2 1 1 2 3 6 4 7 5 8
REMARK H PARENT 1 3 1 4 1 5
REMARK Flexibility Score: inf
ROOT
ATOM      1  C   UNL     1       7.272   1.976  19.459  1.00  0.00     0.312 C 
ENDROOT
BRANCH   1   2
ATOM      2  N   UNL     1       7.996   1.209  18.446  1.00  0.00    -0.353 N 
ATOM      3  H   UNL     1       7.520   1.299  17.520  1.00  0.00     0.344 HD
ATOM      4  H   UNL     1       8.007   0.201  18.724  1.00  0.00     0.344 HD
ATOM      5  H   UNL     1       8.982   1.551  18.373  1.00  0.00     0.344 HD
ENDBRANCH   1   2
BRANCH   1   6
ATOM      6  C   UNL     1       6.893   3.324  18.929  1.00  0.00     0.096 C 
ATOM      7  O   UNL     1       5.714   3.745  19.056  1.00  0.00    -0.544 OA
ATOM      8  O   UNL     1       7.831   4.093  18.252  1.00  0.00    -0.544 OA
ENDBRANCH   1   6
TORSDOF 2
ENDMDL
