MODEL 1
REMARK VINA RESULT:    -5.588      0.000      0.000
REMARK INTER + INTRA:          -6.344
REMARK INTER:                  -6.241
REMARK INTRA:                  -0.103
REMARK UNBOUND:                -0.103
REMARK SMILES CCc1ccc(O)cc1O
REMARK SMILES IDX 3 1 9 2 8 3 6 4 5 5 4 6 2 7 1 8 10 9 7 11
REMARK H PARENT 10 10 7 12
REMARK Flexibility Score: inf
ROOT
ATOM      1  C   UNL     1     -13.319   0.547  -9.928  1.00  0.00    -0.006 A 
ATOM      2  C   UNL     1     -11.945   0.524  -9.613  1.00  0.00     0.122 A 
ATOM      3  C   UNL     1     -11.205  -0.651  -9.807  1.00  0.00     0.092 A 
ATOM      4  C   UNL     1     -11.825  -1.806 -10.301  1.00  0.00     0.119 A 
ATOM      5  C   UNL     1     -13.190  -1.786 -10.599  1.00  0.00     0.047 A 
ATOM      6  C   UNL     1     -13.935  -0.620 -10.410  1.00  0.00     0.011 A 
ENDROOT
BRANCH   1   7
ATOM      7  C   UNL     1     -14.146   1.788  -9.701  1.00  0.00     0.036 C 
ATOM      8  C   UNL     1     -15.125   1.583  -8.549  1.00  0.00     0.009 C 
ENDBRANCH   1   7
BRANCH   2   9
ATOM      9  O   UNL     1     -11.321   1.665  -9.108  1.00  0.00    -0.508 OA
ATOM     10  H   UNL     1     -11.507   2.001  -8.171  1.00  0.00     0.293 HD
ENDBRANCH   2   9
BRANCH   4  11
ATOM     11  O   UNL     1     -11.096  -2.977 -10.496  1.00  0.00    -0.508 OA
ATOM     12  H   UNL     1     -11.544  -3.886 -10.493  1.00  0.00     0.293 HD
ENDBRANCH   4  11
TORSDOF 3
ENDMDL
MODEL 2
REMARK VINA RESULT:    -5.402     16.635     17.857
REMARK INTER + INTRA:          -6.136
REMARK INTER:                  -6.050
REMARK INTRA:                  -0.086
REMARK UNBOUND:                -0.103
REMARK SMILES CCc1ccc(O)cc1O
REMARK SMILES IDX 3 1 9 2 8 3 6 4 5 5 4 6 2 7 1 8 10 9 7 11
REMARK H PARENT 10 10 7 12
REMARK Flexibility Score: inf
ROOT
ATOM      1  C   UNL     1      -9.434   6.534   6.507  1.00  0.00    -0.006 A 
ATOM      2  C   UNL     1      -9.844   5.878   7.685  1.00  0.00     0.122 A 
ATOM      3  C   UNL     1     -10.657   4.738   7.602  1.00  0.00     0.092 A 
ATOM      4  C   UNL     1     -11.075   4.255   6.355  1.00  0.00     0.119 A 
ATOM      5  C   UNL     1     -10.681   4.915   5.189  1.00  0.00     0.047 A 
ATOM      6  C   UNL     1      -9.870   6.051   5.262  1.00  0.00     0.011 A 
ENDROOT
BRANCH   1   7
ATOM      7  C   UNL     1      -8.586   7.780   6.568  1.00  0.00     0.036 C 
ATOM      8  C   UNL     1      -8.414   8.388   5.180  1.00  0.00     0.009 C 
ENDBRANCH   1   7
BRANCH   2   9
ATOM      9  O   UNL     1      -9.444   6.359   8.932  1.00  0.00    -0.508 OA
ATOM     10  H   UNL     1      -8.715   5.902   9.468  1.00  0.00     0.293 HD
ENDBRANCH   2   9
BRANCH   4  11
ATOM     11  O   UNL     1     -11.883   3.124   6.265  1.00  0.00    -0.508 OA
ATOM     12  H   UNL     1     -11.908   2.557   5.426  1.00  0.00     0.293 HD
ENDBRANCH   4  11
TORSDOF 3
ENDMDL
MODEL 3
REMARK VINA RESULT:    -5.234      1.475      3.780
REMARK INTER + INTRA:          -5.949
REMARK INTER:                  -5.864
REMARK INTRA:                  -0.085
REMARK UNBOUND:                -0.103
REMARK SMILES CCc1ccc(O)cc1O
REMARK SMILES IDX 3 1 9 2 8 3 6 4 5 5 4 6 2 7 1 8 10 9 7 11
REMARK H PARENT 10 10 7 12
REMARK Flexibility Score: inf
ROOT
ATOM      1  C   UNL     1     -13.051   0.028 -10.080  1.00  0.00    -0.006 A 
ATOM      2  C   UNL     1     -11.938   0.791  -9.673  1.00  0.00     0.122 A 
ATOM      3  C   UNL     1     -12.122   2.098  -9.200  1.00  0.00     0.092 A 
ATOM      4  C   UNL     1     -13.405   2.656  -9.141  1.00  0.00     0.119 A 
ATOM      5  C   UNL     1     -14.507   1.904  -9.558  1.00  0.00     0.047 A 
ATOM      6  C   UNL     1     -14.333   0.601 -10.030  1.00  0.00     0.011 A 
ENDROOT
BRANCH   1   7
ATOM      7  C   UNL     1     -12.879  -1.368 -10.622  1.00  0.00     0.036 C 
ATOM      8  C   UNL     1     -14.201  -2.127 -10.595  1.00  0.00     0.009 C 
ENDBRANCH   1   7
BRANCH   2   9
ATOM      9  O   UNL     1     -10.653   0.249  -9.741  1.00  0.00    -0.508 OA
ATOM     10  H   UNL     1     -10.162  -0.057  -8.910  1.00  0.00     0.293 HD
ENDBRANCH   2   9
BRANCH   4  11
ATOM     11  O   UNL     1     -13.596   3.953  -8.672  1.00  0.00    -0.508 OA
ATOM     12  H   UNL     1     -13.817   4.716  -9.301  1.00  0.00     0.293 HD
ENDBRANCH   4  11
TORSDOF 3
ENDMDL
MODEL 4
REMARK VINA RESULT:    -5.120      2.146      2.928
REMARK INTER + INTRA:          -5.821
REMARK INTER:                  -5.736
REMARK INTRA:                  -0.085
REMARK UNBOUND:                -0.103
REMARK SMILES CCc1ccc(O)cc1O
REMARK SMILES IDX 3 1 9 2 8 3 6 4 5 5 4 6 2 7 1 8 10 9 7 11
REMARK H PARENT 10 10 7 12
REMARK Flexibility Score: inf
ROOT
ATOM      1  C   UNL     1     -12.710   2.170  -9.250  1.00  0.00    -0.006 A 
ATOM      2  C   UNL     1     -13.957   1.628  -9.625  1.00  0.00     0.122 A 
ATOM      3  C   UNL     1     -14.021   0.339 -10.172  1.00  0.00     0.092 A 
ATOM      4  C   UNL     1     -12.853  -0.411 -10.359  1.00  0.00     0.119 A 
ATOM      5  C   UNL     1     -11.617   0.132 -10.001  1.00  0.00     0.047 A 
ATOM      6  C   UNL     1     -11.543   1.416  -9.455  1.00  0.00     0.011 A 
ENDROOT
BRANCH   1   7
ATOM      7  C   UNL     1     -12.608   3.566  -8.689  1.00  0.00     0.036 C 
ATOM      8  C   UNL     1     -11.176   3.876  -8.265  1.00  0.00     0.009 C 
ENDBRANCH   1   7
BRANCH   2   9
ATOM      9  O   UNL     1     -15.125   2.373  -9.455  1.00  0.00    -0.508 OA
ATOM     10  H   UNL     1     -16.038   1.935  -9.458  1.00  0.00     0.293 HD
ENDBRANCH   2   9
BRANCH   4  11
ATOM     11  O   UNL     1     -12.910  -1.693 -10.902  1.00  0.00    -0.508 OA
ATOM     12  H   UNL     1     -12.847  -1.848 -11.901  1.00  0.00     0.293 HD
ENDBRANCH   4  11
TORSDOF 3
ENDMDL
MODEL 5
REMARK VINA RESULT:    -5.047      1.891      2.769
REMARK INTER + INTRA:          -5.740
REMARK INTER:                  -5.655
REMARK INTRA:                  -0.086
REMARK UNBOUND:                -0.103
REMARK SMILES CCc1ccc(O)cc1O
REMARK SMILES IDX 3 1 9 2 8 3 6 4 5 5 4 6 2 7 1 8 10 9 7 11
REMARK H PARENT 10 10 7 12
REMARK Flexibility Score: inf
ROOT
ATOM      1  C   UNL     1     -12.789  -0.803 -10.262  1.00  0.00    -0.006 A 
ATOM      2  C   UNL     1     -12.661  -2.207 -10.265  1.00  0.00     0.122 A 
ATOM      3  C   UNL     1     -11.441  -2.797  -9.903  1.00  0.00     0.092 A 
ATOM      4  C   UNL     1     -10.345  -1.999  -9.549  1.00  0.00     0.119 A 
ATOM      5  C   UNL     1     -10.469  -0.607  -9.560  1.00  0.00     0.047 A 
ATOM      6  C   UNL     1     -11.681  -0.011  -9.919  1.00  0.00     0.011 A 
ENDROOT
BRANCH   1   7
ATOM      7  C   UNL     1     -14.080  -0.141 -10.676  1.00  0.00     0.036 C 
ATOM      8  C   UNL     1     -14.321   1.130  -9.869  1.00  0.00     0.009 C 
ENDBRANCH   1   7
BRANCH   2   9
ATOM      9  O   UNL     1     -13.742  -3.010 -10.629  1.00  0.00    -0.508 OA
ATOM     10  H   UNL     1     -14.425  -2.703 -11.312  1.00  0.00     0.293 HD
ENDBRANCH   2   9
BRANCH   4  11
ATOM     11  O   UNL     1      -9.131  -2.578  -9.189  1.00  0.00    -0.508 OA
ATOM     12  H   UNL     1      -9.083  -3.523  -8.825  1.00  0.00     0.293 HD
ENDBRANCH   4  11
TORSDOF 3
ENDMDL
MODEL 6
REMARK VINA RESULT:    -4.981      4.435      6.265
REMARK INTER + INTRA:          -5.666
REMARK INTER:                  -5.572
REMARK INTRA:                  -0.094
REMARK UNBOUND:                -0.103
REMARK SMILES CCc1ccc(O)cc1O
REMARK SMILES IDX 3 1 9 2 8 3 6 4 5 5 4 6 2 7 1 8 10 9 7 11
REMARK H PARENT 10 10 7 12
REMARK Flexibility Score: inf
ROOT
ATOM      1  C   UNL     1     -10.027  -4.867  -7.419  1.00  0.00    -0.006 A 
ATOM      2  C   UNL     1     -10.079  -5.128  -8.804  1.00  0.00     0.122 A 
ATOM      3  C   UNL     1      -9.936  -4.074  -9.718  1.00  0.00     0.092 A 
ATOM      4  C   UNL     1      -9.755  -2.762  -9.265  1.00  0.00     0.119 A 
ATOM      5  C   UNL     1      -9.718  -2.502  -7.892  1.00  0.00     0.047 A 
ATOM      6  C   UNL     1      -9.859  -3.545  -6.974  1.00  0.00     0.011 A 
ENDROOT
BRANCH   1   7
ATOM      7  C   UNL     1     -10.209  -5.976  -6.414  1.00  0.00     0.036 C 
ATOM      8  C   UNL     1     -11.312  -5.630  -5.419  1.00  0.00     0.009 C 
ENDBRANCH   1   7
BRANCH   2   9
ATOM      9  O   UNL     1     -10.273  -6.430  -9.266  1.00  0.00    -0.508 OA
ATOM     10  H   UNL     1     -10.190  -6.663 -10.248  1.00  0.00     0.293 HD
ENDBRANCH   2   9
BRANCH   4  11
ATOM     11  O   UNL     1      -9.612  -1.710 -10.167  1.00  0.00    -0.508 OA
ATOM     12  H   UNL     1      -9.169  -1.844 -11.069  1.00  0.00     0.293 HD
ENDBRANCH   4  11
TORSDOF 3
ENDMDL
MODEL 7
REMARK VINA RESULT:    -4.940     15.972     17.510
REMARK INTER + INTRA:          -5.620
REMARK INTER:                  -5.534
REMARK INTRA:                  -0.087
REMARK UNBOUND:                -0.103
REMARK SMILES CCc1ccc(O)cc1O
REMARK SMILES IDX 3 1 9 2 8 3 6 4 5 5 4 6 2 7 1 8 10 9 7 11
REMARK H PARENT 10 10 7 12
REMARK Flexibility Score: inf
ROOT
ATOM      1  C   UNL     1     -11.985   5.488   5.566  1.00  0.00    -0.006 A 
ATOM      2  C   UNL     1     -11.457   4.459   6.372  1.00  0.00     0.122 A 
ATOM      3  C   UNL     1     -10.612   4.777   7.445  1.00  0.00     0.092 A 
ATOM      4  C   UNL     1     -10.279   6.111   7.713  1.00  0.00     0.119 A 
ATOM      5  C   UNL     1     -10.790   7.129   6.905  1.00  0.00     0.047 A 
ATOM      6  C   UNL     1     -11.633   6.821   5.834  1.00  0.00     0.011 A 
ENDROOT
BRANCH   1   7
ATOM      7  C   UNL     1     -12.871   5.173   4.387  1.00  0.00     0.036 C 
ATOM      8  C   UNL     1     -14.021   6.170   4.291  1.00  0.00     0.009 C 
ENDBRANCH   1   7
BRANCH   2   9
ATOM      9  O   UNL     1     -11.773   3.126   6.105  1.00  0.00    -0.508 OA
ATOM     10  H   UNL     1     -11.410   2.371   6.674  1.00  0.00     0.293 HD
ENDBRANCH   2   9
BRANCH   4  11
ATOM     11  O   UNL     1      -9.440   6.434   8.778  1.00  0.00    -0.508 OA
ATOM     12  H   UNL     1      -9.788   6.916   9.598  1.00  0.00     0.293 HD
ENDBRANCH   4  11
TORSDOF 3
ENDMDL
MODEL 8
REMARK VINA RESULT:    -4.607      2.953      4.539
REMARK INTER + INTRA:          -5.249
REMARK INTER:                  -5.163
REMARK INTRA:                  -0.085
REMARK UNBOUND:                -0.103
REMARK SMILES CCc1ccc(O)cc1O
REMARK SMILES IDX 3 1 9 2 8 3 6 4 5 5 4 6 2 7 1 8 10 9 7 11
REMARK H PARENT 10 10 7 12
REMARK Flexibility Score: inf
ROOT
ATOM      1  C   UNL     1     -11.336  -2.635  -9.571  1.00  0.00    -0.006 A 
ATOM      2  C   UNL     1     -11.729  -3.977  -9.392  1.00  0.00     0.122 A 
ATOM      3  C   UNL     1     -10.904  -4.857  -8.676  1.00  0.00     0.092 A 
ATOM      4  C   UNL     1      -9.685  -4.414  -8.148  1.00  0.00     0.119 A 
ATOM      5  C   UNL     1      -9.288  -3.087  -8.338  1.00  0.00     0.047 A 
ATOM      6  C   UNL     1     -10.104  -2.204  -9.049  1.00  0.00     0.011 A 
ENDROOT
BRANCH   1   7
ATOM      7  C   UNL     1     -12.188  -1.676 -10.362  1.00  0.00     0.036 C 
ATOM      8  C   UNL     1     -11.605  -0.268 -10.316  1.00  0.00     0.009 C 
ENDBRANCH   1   7
BRANCH   2   9
ATOM      9  O   UNL     1     -12.935  -4.432  -9.926  1.00  0.00    -0.508 OA
ATOM     10  H   UNL     1     -13.636  -3.790 -10.276  1.00  0.00     0.293 HD
ENDBRANCH   2   9
BRANCH   4  11
ATOM     11  O   UNL     1      -8.860  -5.282  -7.436  1.00  0.00    -0.508 OA
ATOM     12  H   UNL     1      -9.217  -6.143  -7.038  1.00  0.00     0.293 HD
ENDBRANCH   4  11
TORSDOF 3
ENDMDL
