MODEL 1
REMARK VINA RESULT:    24.961      0.000      0.000
REMARK INTER + INTRA:          47.497
REMARK INTER:                  39.553
REMARK INTRA:                   7.944
REMARK UNBOUND:                 7.944
REMARK SMILES C[C@@H]1O[C@@H](O[C@@H]2CC[C@]3(C)[C@@H](CC[C@@]4(C)[C@H]3C=C[C@]35OC[C@@]6(CCC(C)(C)C[C@H]63)[C@H](O)C[C@@]45C)[C@]2(C)CO)[C@H](O)[C@H](O[C@H]2O[C@H](CO)[C@H](O)[C@H](O)[C@H]2O)[C@H]1O
REMARK SMILES IDX 1 1 2 2 54 3 41 4 39 5 4 6 3 7 55 8 42 10 43 11 52 12 44 13
REMARK SMILES IDX 50 14 45 15 48 16 53 17 51 19 46 21 47 22 49 24 5 26 6 27
REMARK SMILES IDX 7 28 35 29 8 30 11 31 36 32 9 33 12 34 10 35 16 36 13 37
REMARK SMILES IDX 14 38 17 39 15 40 33 41 18 42 19 43 32 44 34 45 29 46 20 47
REMARK SMILES IDX 30 48 22 49 28 50 21 51 23 52 25 53 24 54 26 55 27 56 37 57
REMARK SMILES IDX 38 58 31 60 40 62
REMARK H PARENT 55 9 53 18 51 20 47 23 49 25 38 59 31 61 40 63
REMARK Flexibility Score: inf
ROOT
ATOM      1  C   UNL     1       2.040 -20.269  16.405  1.00  0.00     0.041 C 
ATOM      2  C   UNL     1       0.965 -19.430  15.718  1.00  0.00     0.150 C 
ATOM      3  C   UNL     1      -0.413 -20.146  15.752  1.00  0.00     0.175 C 
ATOM      4  C   UNL     1      -1.579 -19.118  15.804  1.00  0.00     0.186 C 
ATOM      5  C   UNL     1      -1.172 -17.857  15.017  1.00  0.00     0.202 C 
ATOM      6  C   UNL     1       0.135 -17.239  15.600  1.00  0.00     0.282 C 
ATOM      7  O   UNL     1       0.885 -18.174  16.367  1.00  0.00    -0.344 OA
ENDROOT
BRANCH   3   8
ATOM      8  O   UNL     1      -0.532 -20.954  14.610  1.00  0.00    -0.388 OA
ATOM      9  H   UNL     1      -0.486 -21.898  14.918  1.00  0.00     0.211 HD
ENDBRANCH   3   8
BRANCH   4  10
ATOM     10  O   UNL     1      -1.850 -18.746  17.145  1.00  0.00    -0.341 OA
BRANCH  10  11
ATOM     11  C   UNL     1      -2.847 -19.562  17.750  1.00  0.00     0.282 C 
ATOM     12  C   UNL     1      -2.894 -19.314  19.275  1.00  0.00     0.202 C 
ATOM     13  O   UNL     1      -2.597 -20.931  17.462  1.00  0.00    -0.341 OA
ATOM     14  C   UNL     1      -1.606 -19.816  19.942  1.00  0.00     0.179 C 
ATOM     15  C   UNL     1      -1.342 -21.354  17.975  1.00  0.00     0.178 C 
ATOM     16  C   UNL     1      -1.317 -21.268  19.519  1.00  0.00     0.177 C 
BRANCH  12  17
ATOM     17  O   UNL     1      -3.054 -17.944  19.541  1.00  0.00    -0.385 OA
ATOM     18  H   UNL     1      -3.429 -17.876  20.458  1.00  0.00     0.211 HD
ENDBRANCH  12  17
BRANCH  14  19
ATOM     19  O   UNL     1      -1.740 -19.736  21.337  1.00  0.00    -0.387 OA
ATOM     20  H   UNL     1      -2.712 -19.655  21.527  1.00  0.00     0.211 HD
ENDBRANCH  14  19
BRANCH  15  21
ATOM     21  C   UNL     1      -1.034 -22.772  17.467  1.00  0.00     0.191 C 
BRANCH  21  22
ATOM     22  O   UNL     1      -1.770 -23.075  16.311  1.00  0.00    -0.394 OA
ATOM     23  H   UNL     1      -1.514 -22.404  15.626  1.00  0.00     0.210 HD
ENDBRANCH  21  22
ENDBRANCH  15  21
BRANCH  16  24
ATOM     24  O   UNL     1      -2.290 -22.117  20.078  1.00  0.00    -0.387 OA
ATOM     25  H   UNL     1      -2.914 -22.365  19.346  1.00  0.00     0.211 HD
ENDBRANCH  16  24
ENDBRANCH  10  11
ENDBRANCH   4  10
BRANCH   6  26
ATOM     26  O   UNL     1       0.957 -16.748  14.552  1.00  0.00    -0.346 OA
BRANCH  26  27
ATOM     27  C   UNL     1       1.865 -15.733  14.964  1.00  0.00     0.130 C 
ATOM     28  C   UNL     1       2.939 -15.551  13.875  1.00  0.00     0.033 C 
ATOM     29  C   UNL     1       2.469 -16.126  16.351  1.00  0.00     0.020 C 
ATOM     30  C   UNL     1       4.254 -16.307  14.120  1.00  0.00     0.010 C 
ATOM     31  C   UNL     1       3.238 -17.508  16.213  1.00  0.00     0.006 C 
ATOM     32  C   UNL     1       3.401 -14.990  16.887  1.00  0.00     0.017 C 
ATOM     33  C   UNL     1       4.126 -17.671  14.886  1.00  0.00    -0.022 C 
ATOM     34  C   UNL     1       3.866 -17.952  17.594  1.00  0.00     0.005 C 
ATOM     35  C   UNL     1       3.450 -18.662  13.877  1.00  0.00     0.012 C 
ATOM     36  C   UNL     1       5.583 -18.143  15.254  1.00  0.00     0.024 C 
ATOM     37  C   UNL     1       5.276 -18.590  17.649  1.00  0.00     0.008 C 
ATOM     38  C   UNL     1       5.747 -19.284  16.343  1.00  0.00    -0.017 C 
ATOM     39  C   UNL     1       6.536 -18.305  14.090  1.00  0.00    -0.024 C 
ATOM     40  C   UNL     1       4.762 -20.474  16.133  1.00  0.00     0.013 C 
ATOM     41  C   UNL     1       7.310 -19.835  16.408  1.00  0.00     0.009 C 
ATOM     42  C   UNL     1       7.836 -18.474  14.346  1.00  0.00     0.005 C 
ATOM     43  C   UNL     1       8.288 -18.758  15.764  1.00  0.00     0.096 C 
ATOM     44  C   UNL     1       7.801 -20.130  17.876  1.00  0.00     0.043 C 
ATOM     45  C   UNL     1       7.436 -21.179  15.611  1.00  0.00     0.015 C 
ATOM     46  C   UNL     1       9.797 -19.052  15.797  1.00  0.00     0.037 C 
ATOM     47  O   UNL     1       8.202 -17.580  16.563  1.00  0.00    -0.369 OA
ATOM     48  C   UNL     1       9.343 -20.099  18.078  1.00  0.00     0.124 C 
ATOM     49  C   UNL     1      10.048 -18.942  17.274  1.00  0.00     0.026 C 
ATOM     50  C   UNL     1      10.605 -20.167  15.098  1.00  0.00     0.014 C 
ATOM     51  C   UNL     1       9.282 -17.622  17.499  1.00  0.00     0.171 C 
ATOM     52  C   UNL     1      11.574 -18.877  17.606  1.00  0.00     0.013 C 
ATOM     53  C   UNL     1      12.154 -19.919  15.278  1.00  0.00    -0.035 C 
ATOM     54  C   UNL     1      12.481 -18.821  16.355  1.00  0.00     0.007 C 
ATOM     55  C   UNL     1      12.750 -19.460  13.931  1.00  0.00     0.011 C 
ATOM     56  C   UNL     1      12.851 -21.239  15.681  1.00  0.00     0.011 C 
BRANCH  29  57
ATOM     57  C   UNL     1       1.282 -16.283  17.357  1.00  0.00     0.165 C 
BRANCH  57  58
ATOM     58  O   UNL     1       1.416 -15.390  18.430  1.00  0.00    -0.396 OA
ATOM     59  H   UNL     1       2.379 -15.391  18.675  1.00  0.00     0.210 HD
ENDBRANCH  57  58
ENDBRANCH  29  57
BRANCH  48  60
ATOM     60  O   UNL     1       9.902 -21.349  17.775  1.00  0.00    -0.392 OA
ATOM     61  H   UNL     1      10.725 -21.443  18.325  1.00  0.00     0.210 HD
ENDBRANCH  48  60
ENDBRANCH  26  27
ENDBRANCH   6  26
BRANCH   5  62
ATOM     62  O   UNL     1      -2.217 -16.916  14.973  1.00  0.00    -0.385 OA
ATOM     63  H   UNL     1      -1.959 -16.199  14.338  1.00  0.00     0.211 HD
ENDBRANCH   5  62
TORSDOF 14
ENDMDL
MODEL 2
REMARK VINA RESULT:    26.237      1.178      2.039
REMARK INTER + INTRA:          49.518
REMARK INTER:                  43.258
REMARK INTRA:                   6.260
REMARK UNBOUND:                 7.944
REMARK SMILES C[C@@H]1O[C@@H](O[C@@H]2CC[C@]3(C)[C@@H](CC[C@@]4(C)[C@H]3C=C[C@]35OC[C@@]6(CCC(C)(C)C[C@H]63)[C@H](O)C[C@@]45C)[C@]2(C)CO)[C@H](O)[C@H](O[C@H]2O[C@H](CO)[C@H](O)[C@H](O)[C@H]2O)[C@H]1O
REMARK SMILES IDX 1 1 2 2 54 3 41 4 39 5 4 6 3 7 55 8 42 10 43 11 52 12 44 13
REMARK SMILES IDX 50 14 45 15 48 16 53 17 51 19 46 21 47 22 49 24 5 26 6 27
REMARK SMILES IDX 7 28 35 29 8 30 11 31 36 32 9 33 12 34 10 35 16 36 13 37
REMARK SMILES IDX 14 38 17 39 15 40 33 41 18 42 19 43 32 44 34 45 29 46 20 47
REMARK SMILES IDX 30 48 22 49 28 50 21 51 23 52 25 53 24 54 26 55 27 56 37 57
REMARK SMILES IDX 38 58 31 60 40 62
REMARK H PARENT 55 9 53 18 51 20 47 23 49 25 38 59 31 61 40 63
REMARK Flexibility Score: inf
ROOT
ATOM      1  C   UNL     1       1.091 -21.731  16.754  1.00  0.00     0.041 C 
ATOM      2  C   UNL     1       0.276 -20.759  15.902  1.00  0.00     0.150 C 
ATOM      3  C   UNL     1      -1.197 -21.233  15.764  1.00  0.00     0.175 C 
ATOM      4  C   UNL     1      -2.165 -20.024  15.626  1.00  0.00     0.186 C 
ATOM      5  C   UNL     1      -1.447 -18.889  14.871  1.00  0.00     0.202 C 
ATOM      6  C   UNL     1      -0.141 -18.470  15.612  1.00  0.00     0.282 C 
ATOM      7  O   UNL     1       0.329 -19.477  16.500  1.00  0.00    -0.344 OA
ENDROOT
BRANCH   3   8
ATOM      8  O   UNL     1      -1.302 -22.066  14.638  1.00  0.00    -0.388 OA
ATOM      9  H   UNL     1      -2.244 -22.378  14.598  1.00  0.00     0.211 HD
ENDBRANCH   3   8
BRANCH   4  10
ATOM     10  O   UNL     1      -2.542 -19.545  16.907  1.00  0.00    -0.341 OA
BRANCH  10  11
ATOM     11  C   UNL     1      -1.458 -19.537  17.830  1.00  0.00     0.282 C 
ATOM     12  C   UNL     1      -1.817 -20.359  19.089  1.00  0.00     0.202 C 
ATOM     13  O   UNL     1      -1.119 -18.200  18.172  1.00  0.00    -0.341 OA
ATOM     14  C   UNL     1      -2.933 -19.666  19.884  1.00  0.00     0.179 C 
ATOM     15  C   UNL     1      -2.204 -17.525  18.793  1.00  0.00     0.178 C 
ATOM     16  C   UNL     1      -2.571 -18.193  20.139  1.00  0.00     0.177 C 
BRANCH  12  17
ATOM     17  O   UNL     1      -2.234 -21.649  18.726  1.00  0.00    -0.385 OA
ATOM     18  H   UNL     1      -2.704 -21.560  17.855  1.00  0.00     0.211 HD
ENDBRANCH  12  17
BRANCH  14  19
ATOM     19  O   UNL     1      -3.125 -20.337  21.102  1.00  0.00    -0.387 OA
ATOM     20  H   UNL     1      -2.582 -19.857  21.781  1.00  0.00     0.211 HD
ENDBRANCH  14  19
BRANCH  15  21
ATOM     21  C   UNL     1      -1.853 -16.038  18.958  1.00  0.00     0.191 C 
BRANCH  21  22
ATOM     22  O   UNL     1      -2.367 -15.269  17.902  1.00  0.00    -0.394 OA
ATOM     23  H   UNL     1      -2.276 -15.817  17.080  1.00  0.00     0.210 HD
ENDBRANCH  21  22
ENDBRANCH  15  21
BRANCH  16  24
ATOM     24  O   UNL     1      -1.488 -18.129  21.036  1.00  0.00    -0.387 OA
ATOM     25  H   UNL     1      -0.776 -17.597  20.593  1.00  0.00     0.211 HD
ENDBRANCH  16  24
ENDBRANCH  10  11
ENDBRANCH   4  10
BRANCH   6  26
ATOM     26  O   UNL     1       0.884 -18.176  14.675  1.00  0.00    -0.346 OA
BRANCH  26  27
ATOM     27  C   UNL     1       1.644 -17.018  15.003  1.00  0.00     0.130 C 
ATOM     28  C   UNL     1       2.659 -16.752  13.875  1.00  0.00     0.033 C 
ATOM     29  C   UNL     1       2.326 -17.237  16.392  1.00  0.00     0.020 C 
ATOM     30  C   UNL     1       4.074 -17.297  14.126  1.00  0.00     0.010 C 
ATOM     31  C   UNL     1       3.282 -18.501  16.311  1.00  0.00     0.006 C 
ATOM     32  C   UNL     1       3.095 -15.950  16.836  1.00  0.00     0.017 C 
ATOM     33  C   UNL     1       4.159 -18.616  14.972  1.00  0.00    -0.022 C 
ATOM     34  C   UNL     1       3.995 -18.767  17.698  1.00  0.00     0.005 C 
ATOM     35  C   UNL     1       3.612 -19.753  14.041  1.00  0.00     0.012 C 
ATOM     36  C   UNL     1       5.675 -18.852  15.324  1.00  0.00     0.024 C 
ATOM     37  C   UNL     1       5.483 -19.193  17.749  1.00  0.00     0.008 C 
ATOM     38  C   UNL     1       6.023 -19.891  16.472  1.00  0.00    -0.017 C 
ATOM     39  C   UNL     1       6.619 -18.948  14.145  1.00  0.00    -0.024 C 
ATOM     40  C   UNL     1       5.215 -21.219  16.358  1.00  0.00     0.013 C 
ATOM     41  C   UNL     1       7.650 -20.209  16.524  1.00  0.00     0.009 C 
ATOM     42  C   UNL     1       7.933 -18.914  14.374  1.00  0.00     0.005 C 
ATOM     43  C   UNL     1       8.450 -19.045  15.792  1.00  0.00     0.096 C 
ATOM     44  C   UNL     1       8.207 -20.341  17.992  1.00  0.00     0.043 C 
ATOM     45  C   UNL     1       7.952 -21.566  15.802  1.00  0.00     0.015 C 
ATOM     46  C   UNL     1       9.986 -19.118  15.799  1.00  0.00     0.037 C 
ATOM     47  O   UNL     1       8.212 -17.844  16.525  1.00  0.00    -0.369 OA
ATOM     48  C   UNL     1       9.732 -20.079  18.148  1.00  0.00     0.124 C 
ATOM     49  C   UNL     1      10.248 -18.884  17.260  1.00  0.00     0.026 C 
ATOM     50  C   UNL     1      10.932 -20.147  15.143  1.00  0.00     0.014 C 
ATOM     51  C   UNL     1       9.304 -17.675  17.430  1.00  0.00     0.171 C 
ATOM     52  C   UNL     1      11.755 -18.582  17.544  1.00  0.00     0.013 C 
ATOM     53  C   UNL     1      12.432 -19.670  15.264  1.00  0.00    -0.035 C 
ATOM     54  C   UNL     1      12.619 -18.474  16.267  1.00  0.00     0.007 C 
ATOM     55  C   UNL     1      12.929 -19.214  13.877  1.00  0.00     0.011 C 
ATOM     56  C   UNL     1      13.319 -20.851  15.722  1.00  0.00     0.011 C 
BRANCH  29  57
ATOM     57  C   UNL     1       1.194 -17.500  17.439  1.00  0.00     0.165 C 
BRANCH  57  58
ATOM     58  O   UNL     1       1.344 -16.666  18.557  1.00  0.00    -0.396 OA
ATOM     59  H   UNL     1       0.505 -16.750  19.082  1.00  0.00     0.210 HD
ENDBRANCH  57  58
ENDBRANCH  29  57
BRANCH  48  60
ATOM     60  O   UNL     1      10.460 -21.253  17.902  1.00  0.00    -0.392 OA
ATOM     61  H   UNL     1      10.665 -21.661  18.784  1.00  0.00     0.210 HD
ENDBRANCH  48  60
ENDBRANCH  26  27
ENDBRANCH   6  26
BRANCH   5  62
ATOM     62  O   UNL     1      -2.299 -17.790  14.657  1.00  0.00    -0.385 OA
ATOM     63  H   UNL     1      -3.132 -17.942  15.174  1.00  0.00     0.211 HD
ENDBRANCH   5  62
TORSDOF 14
ENDMDL
