MODEL 1
REMARK VINA RESULT:    78.879      0.000      0.000
REMARK INTER + INTRA:         121.849
REMARK INTER:                 115.770
REMARK INTRA:                   6.080
REMARK UNBOUND:                 6.080
REMARK SMILES Cc1cc2c(C(C)C)c(O)c(O)c(C=O)c2c(O)c1-c1c(C)cc2c(C(C)C)c(O)c(O)c(C=O)c2c1O
REMARK SMILES IDX 1 1 2 2 3 3 4 4 16 5 13 6 11 7 9 8 5 9 17 10 19 11 20 12
REMARK SMILES IDX 37 13 21 14 36 15 23 16 22 17 24 18 33 19 25 20 31 21 29 22
REMARK SMILES IDX 38 23 34 25 35 26 26 27 27 28 28 29 32 30 30 32 18 34 6 36
REMARK SMILES IDX 7 37 8 38 14 39 15 40 10 41 12 43
REMARK H PARENT 38 24 32 31 30 33 18 35 10 42 12 44
REMARK Flexibility Score: inf
ROOT
ATOM      1  C   UNL     1       3.539  18.112  28.977  1.00  0.00     0.045 C 
ATOM      2  C   UNL     1       5.018  17.892  28.764  1.00  0.00    -0.039 A 
ATOM      3  C   UNL     1       5.841  17.661  29.866  1.00  0.00     0.013 A 
ATOM      4  C   UNL     1       7.226  17.421  29.727  1.00  0.00    -0.006 A 
ATOM      5  C   UNL     1       7.806  17.485  28.424  1.00  0.00     0.039 A 
ATOM      6  C   UNL     1       9.209  17.271  28.285  1.00  0.00     0.072 A 
ATOM      7  C   UNL     1      10.023  17.183  29.429  1.00  0.00     0.169 A 
ATOM      8  C   UNL     1       9.451  17.215  30.712  1.00  0.00     0.162 A 
ATOM      9  C   UNL     1       8.049  17.165  30.868  1.00  0.00     0.008 A 
ATOM     10  C   UNL     1       6.973  17.808  27.311  1.00  0.00     0.132 A 
ATOM     11  C   UNL     1       5.584  17.978  27.482  1.00  0.00     0.031 A 
ENDROOT
BRANCH  11  12
ATOM     12  C   UNL     1       4.716  18.290  26.315  1.00  0.00     0.031 A 
ATOM     13  C   UNL     1       3.437  17.705  26.208  1.00  0.00     0.132 A 
ATOM     14  C   UNL     1       5.189  19.141  25.304  1.00  0.00    -0.039 A 
ATOM     15  C   UNL     1       2.587  18.018  25.101  1.00  0.00     0.039 A 
ATOM     16  C   UNL     1       4.377  19.421  24.205  1.00  0.00     0.013 A 
ATOM     17  C   UNL     1       6.588  19.708  25.352  1.00  0.00     0.045 C 
ATOM     18  C   UNL     1       3.058  18.927  24.105  1.00  0.00    -0.006 A 
ATOM     19  C   UNL     1       1.299  17.421  24.935  1.00  0.00     0.072 A 
ATOM     20  C   UNL     1       2.219  19.290  23.006  1.00  0.00     0.008 A 
ATOM     21  C   UNL     1       0.552  17.675  23.767  1.00  0.00     0.169 A 
ATOM     22  C   UNL     1       1.027  18.565  22.799  1.00  0.00     0.162 A 
BRANCH  13  23
ATOM     23  O   UNL     1       3.020  16.799  27.190  1.00  0.00    -0.507 OA
ATOM     24  H   UNL     1       2.140  16.867  27.686  1.00  0.00     0.293 HD
ENDBRANCH  13  23
BRANCH  19  25
ATOM     25  C   UNL     1       0.713  16.530  25.956  1.00  0.00     0.264 C 
ATOM     26  O   UNL     1      -0.182  15.700  25.646  1.00  0.00    -0.298 OA
ENDBRANCH  19  25
BRANCH  20  27
ATOM     27  C   UNL     1       2.592  20.432  22.042  1.00  0.00     0.017 C 
ATOM     28  C   UNL     1       1.732  21.671  22.306  1.00  0.00     0.012 C 
ATOM     29  C   UNL     1       4.093  20.781  22.039  1.00  0.00     0.012 C 
ENDBRANCH  20  27
BRANCH  21  30
ATOM     30  O   UNL     1      -0.697  17.079  23.550  1.00  0.00    -0.504 OA
ATOM     31  H   UNL     1      -0.831  16.196  23.074  1.00  0.00     0.293 HD
ENDBRANCH  21  30
BRANCH  22  32
ATOM     32  O   UNL     1       0.304  18.735  21.615  1.00  0.00    -0.504 OA
ATOM     33  H   UNL     1       0.713  18.621  20.696  1.00  0.00     0.293 HD
ENDBRANCH  22  32
ENDBRANCH  11  12
BRANCH  10  34
ATOM     34  O   UNL     1       7.533  18.000  26.042  1.00  0.00    -0.507 OA
ATOM     35  H   UNL     1       8.376  18.531  25.870  1.00  0.00     0.293 HD
ENDBRANCH  10  34
BRANCH   9  36
ATOM     36  C   UNL     1       7.447  16.889  32.258  1.00  0.00     0.017 C 
ATOM     37  C   UNL     1       7.463  18.153  33.124  1.00  0.00     0.012 C 
ATOM     38  C   UNL     1       8.094  15.699  32.993  1.00  0.00     0.012 C 
ENDBRANCH   9  36
BRANCH   6  39
ATOM     39  C   UNL     1       9.847  17.052  26.964  1.00  0.00     0.264 C 
ATOM     40  O   UNL     1      10.263  15.913  26.622  1.00  0.00    -0.298 OA
ENDBRANCH   6  39
BRANCH   8  41
ATOM     41  O   UNL     1      10.260  17.310  31.848  1.00  0.00    -0.504 OA
ATOM     42  H   UNL     1       9.953  17.697  32.731  1.00  0.00     0.293 HD
ENDBRANCH   8  41
BRANCH   7  43
ATOM     43  O   UNL     1      11.402  17.010  29.262  1.00  0.00    -0.504 OA
ATOM     44  H   UNL     1      12.032  16.732  30.002  1.00  0.00     0.293 HD
ENDBRANCH   7  43
TORSDOF 11
ENDMDL
