MODEL 1
REMARK VINA RESULT:    -2.696      0.000      0.000
REMARK INTER + INTRA:          -6.372
REMARK INTER:                  -4.586
REMARK INTRA:                  -1.785
REMARK UNBOUND:                -1.785
REMARK SMILES CCCCCCCCCCCCCC(=O)[O-]
REMARK SMILES IDX 8 1 9 2 10 3 11 4 12 5 13 6 14 7 15 8 16 9 7 10 6 11 5 12
REMARK SMILES IDX 4 13 3 14 2 15 1 16
REMARK H PARENT
REMARK Flexibility Score: inf
ROOT
ATOM      1  C   UNL     1     -25.682   3.032   3.619  1.00  0.00     0.000 C 
ENDROOT
BRANCH   1   2
ATOM      2  C   UNL     1     -25.810   2.593   2.145  1.00  0.00     0.000 C 
BRANCH   2   3
ATOM      3  C   UNL     1     -24.738   1.597   1.665  1.00  0.00     0.000 C 
BRANCH   3   4
ATOM      4  C   UNL     1     -23.457   1.648   2.509  1.00  0.00     0.000 C 
BRANCH   4   5
ATOM      5  C   UNL     1     -22.597   0.399   2.276  1.00  0.00     0.006 C 
BRANCH   5   6
ATOM      6  C   UNL     1     -22.087   0.344   0.834  1.00  0.00     0.053 C 
BRANCH   6   7
ATOM      7  C   UNL     1     -20.893   1.230   0.666  1.00  0.00     0.041 C 
ATOM      8  O   UNL     1     -20.969   2.267  -0.043  1.00  0.00    -0.550 OA
ATOM      9  O   UNL     1     -19.683   0.882   1.251  1.00  0.00    -0.550 OA
ENDBRANCH   6   7
ENDBRANCH   5   6
ENDBRANCH   4   5
ENDBRANCH   3   4
ENDBRANCH   2   3
ENDBRANCH   1   2
BRANCH   1  10
ATOM     10  C   UNL     1     -25.386   4.527   3.835  1.00  0.00     0.000 C 
BRANCH  10  11
ATOM     11  C   UNL     1     -23.879   4.841   3.852  1.00  0.00    -0.000 C 
BRANCH  11  12
ATOM     12  C   UNL     1     -23.576   6.298   3.467  1.00  0.00    -0.000 C 
BRANCH  12  13
ATOM     13  C   UNL     1     -23.124   6.445   2.006  1.00  0.00    -0.000 C 
BRANCH  13  14
ATOM     14  C   UNL     1     -22.769   5.078   1.403  1.00  0.00    -0.000 C 
BRANCH  14  15
ATOM     15  C   UNL     1     -23.550   4.780   0.113  1.00  0.00    -0.003 C 
ATOM     16  C   UNL     1     -24.872   5.543   0.032  1.00  0.00     0.004 C 
ENDBRANCH  14  15
ENDBRANCH  13  14
ENDBRANCH  12  13
ENDBRANCH  11  12
ENDBRANCH  10  11
ENDBRANCH   1  10
TORSDOF 12
ENDMDL
MODEL 2
REMARK VINA RESULT:    -2.684      1.583      2.325
REMARK INTER + INTRA:          -6.352
REMARK INTER:                  -4.946
REMARK INTRA:                  -1.406
REMARK UNBOUND:                -1.785
REMARK SMILES CCCCCCCCCCCCCC(=O)[O-]
REMARK SMILES IDX 8 1 9 2 10 3 11 4 12 5 13 6 14 7 15 8 16 9 7 10 6 11 5 12
REMARK SMILES IDX 4 13 3 14 2 15 1 16
REMARK H PARENT
REMARK Flexibility Score: inf
ROOT
ATOM      1  C   UNL     1     -25.233   4.050   3.399  1.00  0.00     0.000 C 
ENDROOT
BRANCH   1   2
ATOM      2  C   UNL     1     -25.476   2.533   3.256  1.00  0.00     0.000 C 
BRANCH   2   3
ATOM      3  C   UNL     1     -25.602   2.025   1.809  1.00  0.00     0.000 C 
BRANCH   3   4
ATOM      4  C   UNL     1     -24.286   1.459   1.258  1.00  0.00     0.000 C 
BRANCH   4   5
ATOM      5  C   UNL     1     -23.497   0.737   2.358  1.00  0.00     0.006 C 
BRANCH   5   6
ATOM      6  C   UNL     1     -22.048   1.228   2.406  1.00  0.00     0.053 C 
BRANCH   6   7
ATOM      7  C   UNL     1     -21.150   0.288   1.666  1.00  0.00     0.041 C 
ATOM      8  O   UNL     1     -21.529  -0.888   1.420  1.00  0.00    -0.550 OA
ATOM      9  O   UNL     1     -19.876   0.694   1.291  1.00  0.00    -0.550 OA
ENDBRANCH   6   7
ENDBRANCH   5   6
ENDBRANCH   4   5
ENDBRANCH   3   4
ENDBRANCH   2   3
ENDBRANCH   1   2
BRANCH   1  10
ATOM     10  C   UNL     1     -23.757   4.471   3.516  1.00  0.00     0.000 C 
BRANCH  10  11
ATOM     11  C   UNL     1     -23.481   5.858   2.909  1.00  0.00    -0.000 C 
BRANCH  11  12
ATOM     12  C   UNL     1     -23.243   5.800   1.392  1.00  0.00    -0.000 C 
BRANCH  12  13
ATOM     13  C   UNL     1     -22.528   4.514   0.951  1.00  0.00    -0.000 C 
BRANCH  13  14
ATOM     14  C   UNL     1     -21.427   4.825  -0.074  1.00  0.00    -0.000 C 
BRANCH  14  15
ATOM     15  C   UNL     1     -20.653   6.110   0.262  1.00  0.00    -0.003 C 
ATOM     16  C   UNL     1     -19.138   5.915   0.225  1.00  0.00     0.004 C 
ENDBRANCH  14  15
ENDBRANCH  13  14
ENDBRANCH  12  13
ENDBRANCH  11  12
ENDBRANCH  10  11
ENDBRANCH   1  10
TORSDOF 12
ENDMDL
MODEL 3
REMARK VINA RESULT:    -2.650     14.919     17.282
REMARK INTER + INTRA:          -6.294
REMARK INTER:                  -5.379
REMARK INTRA:                  -0.915
REMARK UNBOUND:                -1.785
REMARK SMILES CCCCCCCCCCCCCC(=O)[O-]
REMARK SMILES IDX 8 1 9 2 10 3 11 4 12 5 13 6 14 7 15 8 16 9 7 10 6 11 5 12
REMARK SMILES IDX 4 13 3 14 2 15 1 16
REMARK H PARENT
REMARK Flexibility Score: inf
ROOT
ATOM      1  C   UNL     1     -16.283 -12.103   2.855  1.00  0.00     0.000 C 
ENDROOT
BRANCH   1   2
ATOM      2  C   UNL     1     -17.596 -12.413   2.106  1.00  0.00     0.000 C 
BRANCH   2   3
ATOM      3  C   UNL     1     -18.792 -12.774   3.006  1.00  0.00     0.000 C 
BRANCH   3   4
ATOM      4  C   UNL     1     -20.134 -12.718   2.264  1.00  0.00     0.000 C 
BRANCH   4   5
ATOM      5  C   UNL     1     -21.302 -12.591   3.251  1.00  0.00     0.006 C 
BRANCH   5   6
ATOM      6  C   UNL     1     -22.624 -12.366   2.512  1.00  0.00     0.053 C 
BRANCH   6   7
ATOM      7  C   UNL     1     -23.474 -11.379   3.249  1.00  0.00     0.041 C 
ATOM      8  O   UNL     1     -23.036 -10.814   4.285  1.00  0.00    -0.550 OA
ATOM      9  O   UNL     1     -24.769 -11.122   2.818  1.00  0.00    -0.550 OA
ENDBRANCH   6   7
ENDBRANCH   5   6
ENDBRANCH   4   5
ENDBRANCH   3   4
ENDBRANCH   2   3
ENDBRANCH   1   2
BRANCH   1  10
ATOM     10  C   UNL     1     -15.957 -10.607   3.016  1.00  0.00     0.000 C 
BRANCH  10  11
ATOM     11  C   UNL     1     -14.556 -10.242   2.493  1.00  0.00    -0.000 C 
BRANCH  11  12
ATOM     12  C   UNL     1     -14.018 -11.268   1.484  1.00  0.00    -0.000 C 
BRANCH  12  13
ATOM     13  C   UNL     1     -12.553 -11.650   1.748  1.00  0.00    -0.000 C 
BRANCH  13  14
ATOM     14  C   UNL     1     -12.249 -11.642   3.253  1.00  0.00    -0.000 C 
BRANCH  14  15
ATOM     15  C   UNL     1     -12.355 -13.039   3.886  1.00  0.00    -0.003 C 
ATOM     16  C   UNL     1     -13.438 -13.120   4.961  1.00  0.00     0.004 C 
ENDBRANCH  14  15
ENDBRANCH  13  14
ENDBRANCH  12  13
ENDBRANCH  11  12
ENDBRANCH  10  11
ENDBRANCH   1  10
TORSDOF 12
ENDMDL
MODEL 4
REMARK VINA RESULT:    -2.621      2.121      4.427
REMARK INTER + INTRA:          -6.245
REMARK INTER:                  -4.785
REMARK INTRA:                  -1.460
REMARK UNBOUND:                -1.785
REMARK SMILES CCCCCCCCCCCCCC(=O)[O-]
REMARK SMILES IDX 8 1 9 2 10 3 11 4 12 5 13 6 14 7 15 8 16 9 7 10 6 11 5 12
REMARK SMILES IDX 4 13 3 14 2 15 1 16
REMARK H PARENT
REMARK Flexibility Score: inf
ROOT
ATOM      1  C   UNL     1     -23.927   4.328   3.436  1.00  0.00     0.000 C 
ENDROOT
BRANCH   1   2
ATOM      2  C   UNL     1     -23.323   5.251   2.357  1.00  0.00     0.000 C 
BRANCH   2   3
ATOM      3  C   UNL     1     -23.912   5.078   0.946  1.00  0.00     0.000 C 
BRANCH   3   4
ATOM      4  C   UNL     1     -22.836   4.847  -0.125  1.00  0.00     0.000 C 
BRANCH   4   5
ATOM      5  C   UNL     1     -21.483   5.413   0.325  1.00  0.00     0.006 C 
BRANCH   5   6
ATOM      6  C   UNL     1     -20.338   4.475  -0.066  1.00  0.00     0.053 C 
BRANCH   6   7
ATOM      7  C   UNL     1     -19.019   5.165   0.089  1.00  0.00     0.041 C 
ATOM      8  O   UNL     1     -18.968   6.419   0.185  1.00  0.00    -0.550 OA
ATOM      9  O   UNL     1     -17.844   4.426   0.076  1.00  0.00    -0.550 OA
ENDBRANCH   6   7
ENDBRANCH   5   6
ENDBRANCH   4   5
ENDBRANCH   3   4
ENDBRANCH   2   3
ENDBRANCH   1   2
BRANCH   1  10
ATOM     10  C   UNL     1     -25.277   3.686   3.070  1.00  0.00     0.000 C 
BRANCH  10  11
ATOM     11  C   UNL     1     -25.212   2.149   3.018  1.00  0.00    -0.000 C 
BRANCH  11  12
ATOM     12  C   UNL     1     -24.982   1.617   1.594  1.00  0.00    -0.000 C 
BRANCH  12  13
ATOM     13  C   UNL     1     -23.509   1.284   1.314  1.00  0.00    -0.000 C 
BRANCH  13  14
ATOM     14  C   UNL     1     -22.820   0.750   2.579  1.00  0.00    -0.000 C 
BRANCH  14  15
ATOM     15  C   UNL     1     -21.398   0.234   2.304  1.00  0.00    -0.003 C 
ATOM     16  C   UNL     1     -20.735   0.931   1.116  1.00  0.00     0.004 C 
ENDBRANCH  14  15
ENDBRANCH  13  14
ENDBRANCH  12  13
ENDBRANCH  11  12
ENDBRANCH  10  11
ENDBRANCH   1  10
TORSDOF 12
ENDMDL
MODEL 5
REMARK VINA RESULT:    -2.611      2.419      4.403
REMARK INTER + INTRA:          -6.229
REMARK INTER:                  -5.442
REMARK INTRA:                  -0.787
REMARK UNBOUND:                -1.785
REMARK SMILES CCCCCCCCCCCCCC(=O)[O-]
REMARK SMILES IDX 8 1 9 2 10 3 11 4 12 5 13 6 14 7 15 8 16 9 7 10 6 11 5 12
REMARK SMILES IDX 4 13 3 14 2 15 1 16
REMARK H PARENT
REMARK Flexibility Score: inf
ROOT
ATOM      1  C   UNL     1     -22.007   1.080   2.256  1.00  0.00     0.000 C 
ENDROOT
BRANCH   1   2
ATOM      2  C   UNL     1     -20.980   0.544   1.237  1.00  0.00     0.000 C 
BRANCH   2   3
ATOM      3  C   UNL     1     -20.343   1.611   0.329  1.00  0.00     0.000 C 
BRANCH   3   4
ATOM      4  C   UNL     1     -18.840   1.793   0.586  1.00  0.00     0.000 C 
BRANCH   4   5
ATOM      5  C   UNL     1     -18.342   3.124   0.008  1.00  0.00     0.006 C 
BRANCH   5   6
ATOM      6  C   UNL     1     -19.490   4.129  -0.125  1.00  0.00     0.053 C 
BRANCH   6   7
ATOM      7  C   UNL     1     -18.992   5.524   0.093  1.00  0.00     0.041 C 
ATOM      8  O   UNL     1     -17.799   5.723   0.441  1.00  0.00    -0.550 OA
ATOM      9  O   UNL     1     -19.861   6.598  -0.039  1.00  0.00    -0.550 OA
ENDBRANCH   6   7
ENDBRANCH   5   6
ENDBRANCH   4   5
ENDBRANCH   3   4
ENDBRANCH   2   3
ENDBRANCH   1   2
BRANCH   1  10
ATOM     10  C   UNL     1     -23.481   0.797   1.914  1.00  0.00     0.000 C 
BRANCH  10  11
ATOM     11  C   UNL     1     -24.440   1.862   2.475  1.00  0.00    -0.000 C 
BRANCH  11  12
ATOM     12  C   UNL     1     -24.445   3.151   1.638  1.00  0.00    -0.000 C 
BRANCH  12  13
ATOM     13  C   UNL     1     -23.450   4.201   2.155  1.00  0.00    -0.000 C 
BRANCH  13  14
ATOM     14  C   UNL     1     -23.774   4.594   3.604  1.00  0.00    -0.000 C 
BRANCH  14  15
ATOM     15  C   UNL     1     -23.632   6.104   3.853  1.00  0.00    -0.003 C 
ATOM     16  C   UNL     1     -23.112   6.859   2.630  1.00  0.00     0.004 C 
ENDBRANCH  14  15
ENDBRANCH  13  14
ENDBRANCH  12  13
ENDBRANCH  11  12
ENDBRANCH  10  11
ENDBRANCH   1  10
TORSDOF 12
ENDMDL
MODEL 6
REMARK VINA RESULT:    -2.516      1.150      2.542
REMARK INTER + INTRA:          -6.067
REMARK INTER:                  -4.873
REMARK INTRA:                  -1.194
REMARK UNBOUND:                -1.785
REMARK SMILES CCCCCCCCCCCCCC(=O)[O-]
REMARK SMILES IDX 8 1 9 2 10 3 11 4 12 5 13 6 14 7 15 8 16 9 7 10 6 11 5 12
REMARK SMILES IDX 4 13 3 14 2 15 1 16
REMARK H PARENT
REMARK Flexibility Score: inf
ROOT
ATOM      1  C   UNL     1     -24.580   1.469   1.618  1.00  0.00     0.000 C 
ENDROOT
BRANCH   1   2
ATOM      2  C   UNL     1     -23.341   1.564   2.532  1.00  0.00     0.000 C 
BRANCH   2   3
ATOM      3  C   UNL     1     -22.395   0.351   2.479  1.00  0.00     0.000 C 
BRANCH   3   4
ATOM      4  C   UNL     1     -22.297  -0.268   1.077  1.00  0.00     0.000 C 
BRANCH   4   5
ATOM      5  C   UNL     1     -21.327   0.528   0.194  1.00  0.00     0.006 C 
BRANCH   5   6
ATOM      6  C   UNL     1     -20.068   0.918   0.974  1.00  0.00     0.053 C 
BRANCH   6   7
ATOM      7  C   UNL     1     -19.423   2.120   0.359  1.00  0.00     0.041 C 
ATOM      8  O   UNL     1     -18.168   2.210   0.309  1.00  0.00    -0.550 OA
ATOM      9  O   UNL     1     -20.208   3.164  -0.113  1.00  0.00    -0.550 OA
ENDBRANCH   6   7
ENDBRANCH   5   6
ENDBRANCH   4   5
ENDBRANCH   3   4
ENDBRANCH   2   3
ENDBRANCH   1   2
BRANCH   1  10
ATOM     10  C   UNL     1     -25.607   2.604   1.785  1.00  0.00     0.000 C 
BRANCH  10  11
ATOM     11  C   UNL     1     -25.756   3.065   3.245  1.00  0.00    -0.000 C 
BRANCH  11  12
ATOM     12  C   UNL     1     -25.588   4.585   3.404  1.00  0.00    -0.000 C 
BRANCH  12  13
ATOM     13  C   UNL     1     -24.258   4.969   4.070  1.00  0.00    -0.000 C 
BRANCH  13  14
ATOM     14  C   UNL     1     -23.424   5.870   3.147  1.00  0.00    -0.000 C 
BRANCH  14  15
ATOM     15  C   UNL     1     -23.013   5.163   1.845  1.00  0.00    -0.003 C 
ATOM     16  C   UNL     1     -22.295   6.094   0.869  1.00  0.00     0.004 C 
ENDBRANCH  14  15
ENDBRANCH  13  14
ENDBRANCH  12  13
ENDBRANCH  11  12
ENDBRANCH  10  11
ENDBRANCH   1  10
TORSDOF 12
ENDMDL
MODEL 7
REMARK VINA RESULT:    -2.515      1.713      2.374
REMARK INTER + INTRA:          -6.064
REMARK INTER:                  -4.290
REMARK INTRA:                  -1.775
REMARK UNBOUND:                -1.785
REMARK SMILES CCCCCCCCCCCCCC(=O)[O-]
REMARK SMILES IDX 8 1 9 2 10 3 11 4 12 5 13 6 14 7 15 8 16 9 7 10 6 11 5 12
REMARK SMILES IDX 4 13 3 14 2 15 1 16
REMARK H PARENT
REMARK Flexibility Score: inf
ROOT
ATOM      1  C   UNL     1     -24.623   2.536   2.518  1.00  0.00     0.000 C 
ENDROOT
BRANCH   1   2
ATOM      2  C   UNL     1     -24.489   1.908   1.115  1.00  0.00     0.000 C 
BRANCH   2   3
ATOM      3  C   UNL     1     -23.426   2.554   0.209  1.00  0.00     0.000 C 
BRANCH   3   4
ATOM      4  C   UNL     1     -22.266   1.603  -0.120  1.00  0.00     0.000 C 
BRANCH   4   5
ATOM      5  C   UNL     1     -21.043   1.906   0.756  1.00  0.00     0.006 C 
BRANCH   5   6
ATOM      6  C   UNL     1     -20.444   0.619   1.327  1.00  0.00     0.053 C 
BRANCH   6   7
ATOM      7  C   UNL     1     -21.528  -0.303   1.790  1.00  0.00     0.041 C 
ATOM      8  O   UNL     1     -22.155  -0.060   2.854  1.00  0.00    -0.550 OA
ATOM      9  O   UNL     1     -21.811  -1.457   1.071  1.00  0.00    -0.550 OA
ENDBRANCH   6   7
ENDBRANCH   5   6
ENDBRANCH   4   5
ENDBRANCH   3   4
ENDBRANCH   2   3
ENDBRANCH   1   2
BRANCH   1  10
ATOM     10  C   UNL     1     -23.505   3.522   2.905  1.00  0.00     0.000 C 
BRANCH  10  11
ATOM     11  C   UNL     1     -24.031   4.755   3.661  1.00  0.00    -0.000 C 
BRANCH  11  12
ATOM     12  C   UNL     1     -23.793   6.063   2.891  1.00  0.00    -0.000 C 
BRANCH  12  13
ATOM     13  C   UNL     1     -24.452   6.065   1.503  1.00  0.00    -0.000 C 
BRANCH  13  14
ATOM     14  C   UNL     1     -23.406   6.294   0.402  1.00  0.00    -0.000 C 
BRANCH  14  15
ATOM     15  C   UNL     1     -21.978   6.416   0.959  1.00  0.00    -0.003 C 
ATOM     16  C   UNL     1     -20.987   5.490   0.254  1.00  0.00     0.004 C 
ENDBRANCH  14  15
ENDBRANCH  13  14
ENDBRANCH  12  13
ENDBRANCH  11  12
ENDBRANCH  10  11
ENDBRANCH   1  10
TORSDOF 12
ENDMDL
MODEL 8
REMARK VINA RESULT:    -2.451      1.427      4.639
REMARK INTER + INTRA:          -5.956
REMARK INTER:                  -4.604
REMARK INTRA:                  -1.352
REMARK UNBOUND:                -1.785
REMARK SMILES CCCCCCCCCCCCCC(=O)[O-]
REMARK SMILES IDX 8 1 9 2 10 3 11 4 12 5 13 6 14 7 15 8 16 9 7 10 6 11 5 12
REMARK SMILES IDX 4 13 3 14 2 15 1 16
REMARK H PARENT
REMARK Flexibility Score: inf
ROOT
ATOM      1  C   UNL     1     -25.164   3.087   3.256  1.00  0.00     0.000 C 
ENDROOT
BRANCH   1   2
ATOM      2  C   UNL     1     -23.788   3.780   3.170  1.00  0.00     0.000 C 
BRANCH   2   3
ATOM      3  C   UNL     1     -23.743   5.213   3.731  1.00  0.00     0.000 C 
BRANCH   3   4
ATOM      4  C   UNL     1     -23.463   6.268   2.651  1.00  0.00     0.000 C 
BRANCH   4   5
ATOM      5  C   UNL     1     -23.420   5.628   1.258  1.00  0.00     0.006 C 
BRANCH   5   6
ATOM      6  C   UNL     1     -22.237   6.162   0.445  1.00  0.00     0.053 C 
BRANCH   6   7
ATOM      7  C   UNL     1     -21.207   5.093   0.253  1.00  0.00     0.041 C 
ATOM      8  O   UNL     1     -21.554   3.886   0.180  1.00  0.00    -0.550 OA
ATOM      9  O   UNL     1     -19.861   5.428   0.207  1.00  0.00    -0.550 OA
ENDBRANCH   6   7
ENDBRANCH   5   6
ENDBRANCH   4   5
ENDBRANCH   3   4
ENDBRANCH   2   3
ENDBRANCH   1   2
BRANCH   1  10
ATOM     10  C   UNL     1     -25.843   2.805   1.903  1.00  0.00     0.000 C 
BRANCH  10  11
ATOM     11  C   UNL     1     -25.460   1.435   1.317  1.00  0.00    -0.000 C 
BRANCH  11  12
ATOM     12  C   UNL     1     -24.308   1.528   0.303  1.00  0.00    -0.000 C 
BRANCH  12  13
ATOM     13  C   UNL     1     -23.154   0.567   0.625  1.00  0.00    -0.000 C 
BRANCH  13  14
ATOM     14  C   UNL     1     -23.006   0.378   2.142  1.00  0.00    -0.000 C 
BRANCH  14  15
ATOM     15  C   UNL     1     -21.536   0.347   2.592  1.00  0.00    -0.003 C 
ATOM     16  C   UNL     1     -20.561   0.624   1.449  1.00  0.00     0.004 C 
ENDBRANCH  14  15
ENDBRANCH  13  14
ENDBRANCH  12  13
ENDBRANCH  11  12
ENDBRANCH  10  11
ENDBRANCH   1  10
TORSDOF 12
ENDMDL
MODEL 9
REMARK VINA RESULT:    -2.432      3.013      5.562
REMARK INTER + INTRA:          -5.923
REMARK INTER:                  -4.809
REMARK INTRA:                  -1.114
REMARK UNBOUND:                -1.785
REMARK SMILES CCCCCCCCCCCCCC(=O)[O-]
REMARK SMILES IDX 8 1 9 2 10 3 11 4 12 5 13 6 14 7 15 8 16 9 7 10 6 11 5 12
REMARK SMILES IDX 4 13 3 14 2 15 1 16
REMARK H PARENT
REMARK Flexibility Score: inf
ROOT
ATOM      1  C   UNL     1     -22.721   0.936   2.815  1.00  0.00     0.000 C 
ENDROOT
BRANCH   1   2
ATOM      2  C   UNL     1     -24.077   1.148   2.110  1.00  0.00     0.000 C 
BRANCH   2   3
ATOM      3  C   UNL     1     -24.321   2.573   1.579  1.00  0.00     0.000 C 
BRANCH   3   4
ATOM      4  C   UNL     1     -23.117   3.502   1.789  1.00  0.00     0.000 C 
BRANCH   4   5
ATOM      5  C   UNL     1     -23.538   4.974   1.699  1.00  0.00     0.006 C 
BRANCH   5   6
ATOM      6  C   UNL     1     -24.927   5.186   2.307  1.00  0.00     0.053 C 
BRANCH   6   7
ATOM      7  C   UNL     1     -24.814   5.777   3.678  1.00  0.00     0.041 C 
ATOM      8  O   UNL     1     -25.621   5.437   4.582  1.00  0.00    -0.550 OA
ATOM      9  O   UNL     1     -23.849   6.740   3.941  1.00  0.00    -0.550 OA
ENDBRANCH   6   7
ENDBRANCH   5   6
ENDBRANCH   4   5
ENDBRANCH   3   4
ENDBRANCH   2   3
ENDBRANCH   1   2
BRANCH   1  10
ATOM     10  C   UNL     1     -21.828  -0.158   2.203  1.00  0.00     0.000 C 
BRANCH  10  11
ATOM     11  C   UNL     1     -22.037  -0.321   0.687  1.00  0.00    -0.000 C 
BRANCH  11  12
ATOM     12  C   UNL     1     -21.362   0.796  -0.125  1.00  0.00    -0.000 C 
BRANCH  12  13
ATOM     13  C   UNL     1     -20.152   1.407   0.596  1.00  0.00    -0.000 C 
BRANCH  13  14
ATOM     14  C   UNL     1     -19.793   2.776  -0.001  1.00  0.00    -0.000 C 
BRANCH  14  15
ATOM     15  C   UNL     1     -18.278   3.036  -0.017  1.00  0.00    -0.003 C 
ATOM     16  C   UNL     1     -17.927   4.504   0.223  1.00  0.00     0.004 C 
ENDBRANCH  14  15
ENDBRANCH  13  14
ENDBRANCH  12  13
ENDBRANCH  11  12
ENDBRANCH  10  11
ENDBRANCH   1  10
TORSDOF 12
ENDMDL
