MODEL 1
REMARK VINA RESULT:    -8.080      0.000      0.000
REMARK INTER + INTRA:         -13.047
REMARK INTER:                 -11.859
REMARK INTRA:                  -1.188
REMARK UNBOUND:                -1.188
REMARK SMILES Cc1cc2c(C(C)C)c(O)c(O)c(C=O)c2c(O)c1-c1c(C)cc2c(C(C)C)c(O)c(O)c(C=O)c2c1O
REMARK SMILES IDX 1 1 2 2 3 3 4 4 16 5 13 6 11 7 9 8 5 9 17 10 19 11 20 12
REMARK SMILES IDX 37 13 21 14 36 15 23 16 22 17 24 18 33 19 25 20 31 21 29 22
REMARK SMILES IDX 38 23 34 25 35 26 26 27 27 28 28 29 32 30 30 32 18 34 6 36
REMARK SMILES IDX 7 37 8 38 14 39 15 40 10 41 12 43
REMARK H PARENT 38 24 32 31 30 33 18 35 10 42 12 44
REMARK Flexibility Score: inf
ROOT
ATOM      1  C   UNL     1      14.794 -15.627  24.921  1.00  0.00     0.045 C 
ATOM      2  C   UNL     1      15.838 -14.559  25.143  1.00  0.00    -0.039 A 
ATOM      3  C   UNL     1      17.163 -14.807  24.782  1.00  0.00     0.013 A 
ATOM      4  C   UNL     1      18.182 -13.851  24.966  1.00  0.00    -0.006 A 
ATOM      5  C   UNL     1      17.860 -12.643  25.656  1.00  0.00     0.039 A 
ATOM      6  C   UNL     1      18.913 -11.766  26.042  1.00  0.00     0.072 A 
ATOM      7  C   UNL     1      20.234 -12.038  25.652  1.00  0.00     0.169 A 
ATOM      8  C   UNL     1      20.525 -13.144  24.834  1.00  0.00     0.162 A 
ATOM      9  C   UNL     1      19.512 -14.069  24.481  1.00  0.00     0.008 A 
ATOM     10  C   UNL     1      16.489 -12.344  25.919  1.00  0.00     0.132 A 
ATOM     11  C   UNL     1      15.489 -13.306  25.673  1.00  0.00     0.031 A 
ENDROOT
BRANCH  11  12
ATOM     12  C   UNL     1      14.065 -13.002  25.970  1.00  0.00     0.031 A 
ATOM     13  C   UNL     1      13.508 -13.355  27.217  1.00  0.00     0.132 A 
ATOM     14  C   UNL     1      13.274 -12.360  25.003  1.00  0.00    -0.039 A 
ATOM     15  C   UNL     1      12.146 -13.046  27.511  1.00  0.00     0.039 A 
ATOM     16  C   UNL     1      11.915 -12.160  25.251  1.00  0.00     0.013 A 
ATOM     17  C   UNL     1      13.867 -11.899  23.694  1.00  0.00     0.045 C 
ATOM     18  C   UNL     1      11.312 -12.562  26.462  1.00  0.00    -0.006 A 
ATOM     19  C   UNL     1      11.584 -13.234  28.807  1.00  0.00     0.072 A 
ATOM     20  C   UNL     1       9.902 -12.458  26.656  1.00  0.00     0.008 A 
ATOM     21  C   UNL     1      10.215 -12.994  29.025  1.00  0.00     0.169 A 
ATOM     22  C   UNL     1       9.385 -12.577  27.966  1.00  0.00     0.162 A 
BRANCH  13  23
ATOM     23  O   UNL     1      14.291 -14.048  28.147  1.00  0.00    -0.507 OA
ATOM     24  H   UNL     1      13.961 -14.839  28.686  1.00  0.00     0.293 HD
ENDBRANCH  13  23
BRANCH  19  25
ATOM     25  C   UNL     1      12.420 -13.552  29.990  1.00  0.00     0.264 C 
ATOM     26  O   UNL     1      12.049 -14.414  30.831  1.00  0.00    -0.298 OA
ENDBRANCH  19  25
BRANCH  20  27
ATOM     27  C   UNL     1       8.947 -12.209  25.476  1.00  0.00     0.017 C 
ATOM     28  C   UNL     1       9.318 -13.081  24.272  1.00  0.00     0.012 C 
ATOM     29  C   UNL     1       8.829 -10.725  25.077  1.00  0.00     0.012 C 
ENDBRANCH  20  27
BRANCH  21  30
ATOM     30  O   UNL     1       9.708 -13.177  30.319  1.00  0.00    -0.504 OA
ATOM     31  H   UNL     1      10.011 -12.665  31.134  1.00  0.00     0.293 HD
ENDBRANCH  21  30
BRANCH  22  32
ATOM     32  O   UNL     1       8.050 -12.233  28.195  1.00  0.00    -0.504 OA
ATOM     33  H   UNL     1       7.565 -12.349  29.071  1.00  0.00     0.293 HD
ENDBRANCH  22  32
ENDBRANCH  11  12
BRANCH  10  34
ATOM     34  O   UNL     1      16.121 -11.075  26.380  1.00  0.00    -0.507 OA
ATOM     35  H   UNL     1      15.201 -10.849  26.736  1.00  0.00     0.293 HD
ENDBRANCH  10  34
BRANCH   9  36
ATOM     36  C   UNL     1      19.905 -15.242  23.558  1.00  0.00     0.017 C 
ATOM     37  C   UNL     1      19.526 -16.604  24.158  1.00  0.00     0.012 C 
ATOM     38  C   UNL     1      19.455 -15.077  22.091  1.00  0.00     0.012 C 
ENDBRANCH   9  36
BRANCH   6  39
ATOM     39  C   UNL     1      18.690 -10.635  26.974  1.00  0.00     0.264 C 
ATOM     40  O   UNL     1      18.730  -9.443  26.568  1.00  0.00    -0.298 OA
ENDBRANCH   6  39
BRANCH   8  41
ATOM     41  O   UNL     1      21.826 -13.347  24.358  1.00  0.00    -0.504 OA
ATOM     42  H   UNL     1      22.357 -14.195  24.494  1.00  0.00     0.293 HD
ENDBRANCH   8  41
BRANCH   7  43
ATOM     43  O   UNL     1      21.254 -11.204  26.129  1.00  0.00    -0.504 OA
ATOM     44  H   UNL     1      22.198 -11.190  25.766  1.00  0.00     0.293 HD
ENDBRANCH   7  43
TORSDOF 11
ENDMDL
MODEL 2
REMARK VINA RESULT:    -8.036      0.180      8.844
REMARK INTER + INTRA:         -12.982
REMARK INTER:                 -11.703
REMARK INTRA:                  -1.279
REMARK UNBOUND:                -1.188
REMARK SMILES Cc1cc2c(C(C)C)c(O)c(O)c(C=O)c2c(O)c1-c1c(C)cc2c(C(C)C)c(O)c(O)c(C=O)c2c1O
REMARK SMILES IDX 1 1 2 2 3 3 4 4 16 5 13 6 11 7 9 8 5 9 17 10 19 11 20 12
REMARK SMILES IDX 37 13 21 14 36 15 23 16 22 17 24 18 33 19 25 20 31 21 29 22
REMARK SMILES IDX 38 23 34 25 35 26 26 27 27 28 28 29 32 30 30 32 18 34 6 36
REMARK SMILES IDX 7 37 8 38 14 39 15 40 10 41 12 43
REMARK H PARENT 38 24 32 31 30 33 18 35 10 42 12 44
REMARK Flexibility Score: inf
ROOT
ATOM      1  C   UNL     1      13.855 -11.939  23.722  1.00  0.00     0.045 C 
ATOM      2  C   UNL     1      13.271 -12.374  25.045  1.00  0.00    -0.039 A 
ATOM      3  C   UNL     1      11.907 -12.201  25.283  1.00  0.00     0.013 A 
ATOM      4  C   UNL     1      11.304 -12.584  26.498  1.00  0.00    -0.006 A 
ATOM      5  C   UNL     1      12.146 -13.049  27.554  1.00  0.00     0.039 A 
ATOM      6  C   UNL     1      11.588 -13.233  28.851  1.00  0.00     0.072 A 
ATOM      7  C   UNL     1      10.209 -13.064  29.056  1.00  0.00     0.169 A 
ATOM      8  C   UNL     1       9.358 -12.765  27.977  1.00  0.00     0.162 A 
ATOM      9  C   UNL     1       9.886 -12.517  26.686  1.00  0.00     0.008 A 
ATOM     10  C   UNL     1      13.515 -13.331  27.270  1.00  0.00     0.132 A 
ATOM     11  C   UNL     1      14.073 -12.982  26.024  1.00  0.00     0.031 A 
ENDROOT
BRANCH  11  12
ATOM     12  C   UNL     1      15.506 -13.254  25.738  1.00  0.00     0.031 A 
ATOM     13  C   UNL     1      16.483 -12.272  26.004  1.00  0.00     0.132 A 
ATOM     14  C   UNL     1      15.884 -14.497  25.203  1.00  0.00    -0.039 A 
ATOM     15  C   UNL     1      17.861 -12.540  25.749  1.00  0.00     0.039 A 
ATOM     16  C   UNL     1      17.217 -14.715  24.852  1.00  0.00     0.013 A 
ATOM     17  C   UNL     1      14.870 -15.593  24.987  1.00  0.00     0.045 C 
ATOM     18  C   UNL     1      18.208 -13.727  25.042  1.00  0.00    -0.006 A 
ATOM     19  C   UNL     1      18.898 -11.648  26.148  1.00  0.00     0.072 A 
ATOM     20  C   UNL     1      19.542 -13.918  24.571  1.00  0.00     0.008 A 
ATOM     21  C   UNL     1      20.234 -11.915  25.799  1.00  0.00     0.169 A 
ATOM     22  C   UNL     1      20.560 -13.060  25.045  1.00  0.00     0.162 A 
BRANCH  13  23
ATOM     23  O   UNL     1      16.083 -11.019  26.480  1.00  0.00    -0.507 OA
ATOM     24  H   UNL     1      15.290 -10.504  26.119  1.00  0.00     0.293 HD
ENDBRANCH  13  23
BRANCH  19  25
ATOM     25  C   UNL     1      18.643 -10.494  27.044  1.00  0.00     0.264 C 
ATOM     26  O   UNL     1      18.603  -9.319  26.591  1.00  0.00    -0.298 OA
ENDBRANCH  19  25
BRANCH  20  27
ATOM     27  C   UNL     1      19.888 -15.040  23.577  1.00  0.00     0.017 C 
ATOM     28  C   UNL     1      19.296 -14.753  22.193  1.00  0.00     0.012 C 
ATOM     29  C   UNL     1      19.501 -16.447  24.071  1.00  0.00     0.012 C 
ENDBRANCH  20  27
BRANCH  21  30
ATOM     30  O   UNL     1      21.224 -11.019  26.226  1.00  0.00    -0.504 OA
ATOM     31  H   UNL     1      21.174 -10.016  26.126  1.00  0.00     0.293 HD
ENDBRANCH  21  30
BRANCH  22  32
ATOM     32  O   UNL     1      21.893 -13.392  24.785  1.00  0.00    -0.504 OA
ATOM     33  H   UNL     1      22.389 -14.163  25.205  1.00  0.00     0.293 HD
ENDBRANCH  22  32
ENDBRANCH  11  12
BRANCH  10  34
ATOM     34  O   UNL     1      14.306 -14.001  28.212  1.00  0.00    -0.507 OA
ATOM     35  H   UNL     1      14.465 -13.667  29.154  1.00  0.00     0.293 HD
ENDBRANCH  10  34
BRANCH   9  36
ATOM     36  C   UNL     1       8.885 -12.222  25.549  1.00  0.00     0.017 C 
ATOM     37  C   UNL     1       8.696 -10.715  25.319  1.00  0.00     0.012 C 
ATOM     38  C   UNL     1       9.150 -13.007  24.247  1.00  0.00     0.012 C 
ENDBRANCH   9  36
BRANCH   6  39
ATOM     39  C   UNL     1      12.437 -13.461  30.045  1.00  0.00     0.264 C 
ATOM     40  O   UNL     1      12.098 -14.288  30.933  1.00  0.00    -0.298 OA
ENDBRANCH   6  39
BRANCH   8  41
ATOM     41  O   UNL     1       7.972 -12.707  28.167  1.00  0.00    -0.504 OA
ATOM     42  H   UNL     1       7.462 -11.866  28.396  1.00  0.00     0.293 HD
ENDBRANCH   8  41
BRANCH   7  43
ATOM     43  O   UNL     1       9.713 -13.162  30.362  1.00  0.00    -0.504 OA
ATOM     44  H   UNL     1       9.374 -14.017  30.782  1.00  0.00     0.293 HD
ENDBRANCH   7  43
TORSDOF 11
ENDMDL
MODEL 3
REMARK VINA RESULT:    -7.492      4.484      7.503
REMARK INTER + INTRA:         -12.183
REMARK INTER:                 -11.074
REMARK INTRA:                  -1.109
REMARK UNBOUND:                -1.188
REMARK SMILES Cc1cc2c(C(C)C)c(O)c(O)c(C=O)c2c(O)c1-c1c(C)cc2c(C(C)C)c(O)c(O)c(C=O)c2c1O
REMARK SMILES IDX 1 1 2 2 3 3 4 4 16 5 13 6 11 7 9 8 5 9 17 10 19 11 20 12
REMARK SMILES IDX 37 13 21 14 36 15 23 16 22 17 24 18 33 19 25 20 31 21 29 22
REMARK SMILES IDX 38 23 34 25 35 26 26 27 27 28 28 29 32 30 30 32 18 34 6 36
REMARK SMILES IDX 7 37 8 38 14 39 15 40 10 41 12 43
REMARK H PARENT 38 24 32 31 30 33 18 35 10 42 12 44
REMARK Flexibility Score: inf
ROOT
ATOM      1  C   UNL     1      14.905 -14.033  25.620  1.00  0.00     0.045 C 
ATOM      2  C   UNL     1      15.866 -12.869  25.572  1.00  0.00    -0.039 A 
ATOM      3  C   UNL     1      16.074 -12.103  26.719  1.00  0.00     0.013 A 
ATOM      4  C   UNL     1      16.956 -11.003  26.735  1.00  0.00    -0.006 A 
ATOM      5  C   UNL     1      17.554 -10.597  25.504  1.00  0.00     0.039 A 
ATOM      6  C   UNL     1      18.271  -9.368  25.457  1.00  0.00     0.072 A 
ATOM      7  C   UNL     1      18.474  -8.625  26.631  1.00  0.00     0.169 A 
ATOM      8  C   UNL     1      18.023  -9.111  27.871  1.00  0.00     0.162 A 
ATOM      9  C   UNL     1      17.256 -10.300  27.946  1.00  0.00     0.008 A 
ATOM     10  C   UNL     1      17.431 -11.447  24.364  1.00  0.00     0.132 A 
ATOM     11  C   UNL     1      16.579 -12.570  24.400  1.00  0.00     0.031 A 
ENDROOT
BRANCH  11  12
ATOM     12  C   UNL     1      16.432 -13.440  23.205  1.00  0.00     0.031 A 
ATOM     13  C   UNL     1      17.276 -14.558  23.031  1.00  0.00     0.132 A 
ATOM     14  C   UNL     1      15.447 -13.147  22.247  1.00  0.00    -0.039 A 
ATOM     15  C   UNL     1      17.124 -15.406  21.894  1.00  0.00     0.039 A 
ATOM     16  C   UNL     1      15.374 -13.912  21.082  1.00  0.00     0.013 A 
ATOM     17  C   UNL     1      14.479 -12.008  22.450  1.00  0.00     0.045 C 
ATOM     18  C   UNL     1      16.248 -14.996  20.847  1.00  0.00    -0.006 A 
ATOM     19  C   UNL     1      17.838 -16.631  21.754  1.00  0.00     0.072 A 
ATOM     20  C   UNL     1      16.240 -15.695  19.602  1.00  0.00     0.008 A 
ATOM     21  C   UNL     1      17.716 -17.390  20.576  1.00  0.00     0.169 A 
ATOM     22  C   UNL     1      16.897 -16.943  19.520  1.00  0.00     0.162 A 
BRANCH  13  23
ATOM     23  O   UNL     1      18.291 -14.802  23.962  1.00  0.00    -0.507 OA
ATOM     24  H   UNL     1      18.139 -15.243  24.861  1.00  0.00     0.293 HD
ENDBRANCH  13  23
BRANCH  19  25
ATOM     25  C   UNL     1      18.618 -17.219  22.869  1.00  0.00     0.264 C 
ATOM     26  O   UNL     1      19.878 -17.200  22.858  1.00  0.00    -0.298 OA
ENDBRANCH  19  25
BRANCH  20  27
ATOM     27  C   UNL     1      15.523 -15.124  18.366  1.00  0.00     0.017 C 
ATOM     28  C   UNL     1      16.207 -13.843  17.875  1.00  0.00     0.012 C 
ATOM     29  C   UNL     1      14.011 -14.909  18.571  1.00  0.00     0.012 C 
ENDBRANCH  20  27
BRANCH  21  30
ATOM     30  O   UNL     1      18.425 -18.596  20.487  1.00  0.00    -0.504 OA
ATOM     31  H   UNL     1      19.195 -18.767  19.857  1.00  0.00     0.293 HD
ENDBRANCH  21  30
BRANCH  22  32
ATOM     32  O   UNL     1      16.685 -17.741  18.391  1.00  0.00    -0.504 OA
ATOM     33  H   UNL     1      16.036 -17.530  17.648  1.00  0.00     0.293 HD
ENDBRANCH  22  32
ENDBRANCH  11  12
BRANCH  10  34
ATOM     34  O   UNL     1      18.190 -11.199  23.215  1.00  0.00    -0.507 OA
ATOM     35  H   UNL     1      18.182 -11.793  22.395  1.00  0.00     0.293 HD
ENDBRANCH  10  34
BRANCH   9  36
ATOM     36  C   UNL     1      16.821 -10.782  29.346  1.00  0.00     0.017 C 
ATOM     37  C   UNL     1      17.960 -11.485  30.098  1.00  0.00     0.012 C 
ATOM     38  C   UNL     1      16.103  -9.710  30.195  1.00  0.00     0.012 C 
ENDBRANCH   9  36
BRANCH   6  39
ATOM     39  C   UNL     1      18.696  -8.756  24.174  1.00  0.00     0.264 C 
ATOM     40  O   UNL     1      17.857  -8.221  23.402  1.00  0.00    -0.298 OA
ENDBRANCH   6  39
BRANCH   8  41
ATOM     41  O   UNL     1      18.325  -8.422  29.051  1.00  0.00    -0.504 OA
ATOM     42  H   UNL     1      18.154  -8.778  29.980  1.00  0.00     0.293 HD
ENDBRANCH   8  41
BRANCH   7  43
ATOM     43  O   UNL     1      19.102  -7.377  26.530  1.00  0.00    -0.504 OA
ATOM     44  H   UNL     1      18.842  -6.561  27.066  1.00  0.00     0.293 HD
ENDBRANCH   7  43
TORSDOF 11
ENDMDL
MODEL 4
REMARK VINA RESULT:    -7.392      4.462      7.380
REMARK INTER + INTRA:         -12.037
REMARK INTER:                 -10.681
REMARK INTRA:                  -1.356
REMARK UNBOUND:                -1.188
REMARK SMILES Cc1cc2c(C(C)C)c(O)c(O)c(C=O)c2c(O)c1-c1c(C)cc2c(C(C)C)c(O)c(O)c(C=O)c2c1O
REMARK SMILES IDX 1 1 2 2 3 3 4 4 16 5 13 6 11 7 9 8 5 9 17 10 19 11 20 12
REMARK SMILES IDX 37 13 21 14 36 15 23 16 22 17 24 18 33 19 25 20 31 21 29 22
REMARK SMILES IDX 38 23 34 25 35 26 26 27 27 28 28 29 32 30 30 32 18 34 6 36
REMARK SMILES IDX 7 37 8 38 14 39 15 40 10 41 12 43
REMARK H PARENT 38 24 32 31 30 33 18 35 10 42 12 44
REMARK Flexibility Score: inf
ROOT
ATOM      1  C   UNL     1      14.503 -11.891  22.318  1.00  0.00     0.045 C 
ATOM      2  C   UNL     1      15.428 -13.067  22.118  1.00  0.00    -0.039 A 
ATOM      3  C   UNL     1      15.347 -13.812  20.941  1.00  0.00     0.013 A 
ATOM      4  C   UNL     1      16.182 -14.922  20.698  1.00  0.00    -0.006 A 
ATOM      5  C   UNL     1      17.047 -15.360  21.745  1.00  0.00     0.039 A 
ATOM      6  C   UNL     1      17.734 -16.599  21.601  1.00  0.00     0.072 A 
ATOM      7  C   UNL     1      17.642 -17.319  20.399  1.00  0.00     0.169 A 
ATOM      8  C   UNL     1      16.919 -16.803  19.309  1.00  0.00     0.162 A 
ATOM      9  C   UNL     1      16.175 -15.604  19.438  1.00  0.00     0.008 A 
ATOM     10  C   UNL     1      17.211 -14.532  22.896  1.00  0.00     0.132 A 
ATOM     11  C   UNL     1      16.393 -13.399  23.082  1.00  0.00     0.031 A 
ENDROOT
BRANCH  11  12
ATOM     12  C   UNL     1      16.548 -12.551  24.293  1.00  0.00     0.031 A 
ATOM     13  C   UNL     1      17.407 -11.433  24.273  1.00  0.00     0.132 A 
ATOM     14  C   UNL     1      15.832 -12.868  25.460  1.00  0.00    -0.039 A 
ATOM     15  C   UNL     1      17.542 -10.607  25.429  1.00  0.00     0.039 A 
ATOM     16  C   UNL     1      16.050 -12.124  26.621  1.00  0.00     0.013 A 
ATOM     17  C   UNL     1      14.845 -14.009  25.482  1.00  0.00     0.045 C 
ATOM     18  C   UNL     1      16.955 -11.041  26.652  1.00  0.00    -0.006 A 
ATOM     19  C   UNL     1      18.267  -9.381  25.410  1.00  0.00     0.072 A 
ATOM     20  C   UNL     1      17.256 -10.365  27.873  1.00  0.00     0.008 A 
ATOM     21  C   UNL     1      18.442  -8.644  26.596  1.00  0.00     0.169 A 
ATOM     22  C   UNL     1      17.912  -9.114  27.814  1.00  0.00     0.162 A 
BRANCH  13  23
ATOM     23  O   UNL     1      18.159 -11.166  23.123  1.00  0.00    -0.507 OA
ATOM     24  H   UNL     1      17.852 -11.387  22.184  1.00  0.00     0.293 HD
ENDBRANCH  13  23
BRANCH  19  25
ATOM     25  C   UNL     1      18.746  -8.768  24.147  1.00  0.00     0.264 C 
ATOM     26  O   UNL     1      17.996  -8.019  23.466  1.00  0.00    -0.298 OA
ENDBRANCH  19  25
BRANCH  20  27
ATOM     27  C   UNL     1      16.869 -10.963  29.237  1.00  0.00     0.017 C 
ATOM     28  C   UNL     1      15.970 -10.004  30.025  1.00  0.00     0.012 C 
ATOM     29  C   UNL     1      18.076 -11.418  30.079  1.00  0.00     0.012 C 
ENDBRANCH  20  27
BRANCH  21  30
ATOM     30  O   UNL     1      19.150  -7.436  26.528  1.00  0.00    -0.504 OA
ATOM     31  H   UNL     1      18.748  -6.524  26.690  1.00  0.00     0.293 HD
ENDBRANCH  21  30
BRANCH  22  32
ATOM     32  O   UNL     1      17.986  -8.339  28.975  1.00  0.00    -0.504 OA
ATOM     33  H   UNL     1      17.873  -8.691  29.913  1.00  0.00     0.293 HD
ENDBRANCH  22  32
ENDBRANCH  11  12
BRANCH  10  34
ATOM     34  O   UNL     1      18.216 -14.813  23.829  1.00  0.00    -0.507 OA
ATOM     35  H   UNL     1      18.447 -14.209  24.608  1.00  0.00     0.293 HD
ENDBRANCH  10  34
BRANCH   9  36
ATOM     36  C   UNL     1      15.429 -15.088  18.189  1.00  0.00     0.017 C 
ATOM     37  C   UNL     1      13.947 -15.492  18.191  1.00  0.00     0.012 C 
ATOM     38  C   UNL     1      15.651 -13.590  17.888  1.00  0.00     0.012 C 
ENDBRANCH   9  36
BRANCH   6  39
ATOM     39  C   UNL     1      18.440 -17.242  22.735  1.00  0.00     0.264 C 
ATOM     40  O   UNL     1      19.697 -17.221  22.811  1.00  0.00    -0.298 OA
ENDBRANCH   6  39
BRANCH   8  41
ATOM     41  O   UNL     1      16.922 -17.471  18.079  1.00  0.00    -0.504 OA
ATOM     42  H   UNL     1      17.490 -18.280  17.871  1.00  0.00     0.293 HD
ENDBRANCH   8  41
BRANCH   7  43
ATOM     43  O   UNL     1      18.255 -18.577  20.328  1.00  0.00    -0.504 OA
ATOM     44  H   UNL     1      19.220 -18.729  20.065  1.00  0.00     0.293 HD
ENDBRANCH   7  43
TORSDOF 11
ENDMDL
MODEL 5
REMARK VINA RESULT:    -7.291      3.595      6.732
REMARK INTER + INTRA:         -11.888
REMARK INTER:                 -10.673
REMARK INTRA:                  -1.215
REMARK UNBOUND:                -1.188
REMARK SMILES Cc1cc2c(C(C)C)c(O)c(O)c(C=O)c2c(O)c1-c1c(C)cc2c(C(C)C)c(O)c(O)c(C=O)c2c1O
REMARK SMILES IDX 1 1 2 2 3 3 4 4 16 5 13 6 11 7 9 8 5 9 17 10 19 11 20 12
REMARK SMILES IDX 37 13 21 14 36 15 23 16 22 17 24 18 33 19 25 20 31 21 29 22
REMARK SMILES IDX 38 23 34 25 35 26 26 27 27 28 28 29 32 30 30 32 18 34 6 36
REMARK SMILES IDX 7 37 8 38 14 39 15 40 10 41 12 43
REMARK H PARENT 38 24 32 31 30 33 18 35 10 42 12 44
REMARK Flexibility Score: inf
ROOT
ATOM      1  C   UNL     1      19.092 -10.030  23.661  1.00  0.00     0.045 C 
ATOM      2  C   UNL     1      19.253 -11.460  23.204  1.00  0.00    -0.039 A 
ATOM      3  C   UNL     1      19.605 -11.722  21.880  1.00  0.00     0.013 A 
ATOM      4  C   UNL     1      19.768 -13.035  21.393  1.00  0.00    -0.006 A 
ATOM      5  C   UNL     1      19.439 -14.122  22.259  1.00  0.00     0.039 A 
ATOM      6  C   UNL     1      19.388 -15.441  21.723  1.00  0.00     0.072 A 
ATOM      7  C   UNL     1      19.761 -15.674  20.389  1.00  0.00     0.169 A 
ATOM      8  C   UNL     1      20.240 -14.623  19.587  1.00  0.00     0.162 A 
ATOM      9  C   UNL     1      20.249 -13.291  20.069  1.00  0.00     0.008 A 
ATOM     10  C   UNL     1      19.192 -13.855  23.639  1.00  0.00     0.132 A 
ATOM     11  C   UNL     1      19.088 -12.528  24.101  1.00  0.00     0.031 A 
ENDROOT
BRANCH  11  12
ATOM     12  C   UNL     1      18.806 -12.250  25.533  1.00  0.00     0.031 A 
ATOM     13  C   UNL     1      17.515 -12.467  26.059  1.00  0.00     0.132 A 
ATOM     14  C   UNL     1      19.833 -11.772  26.365  1.00  0.00    -0.039 A 
ATOM     15  C   UNL     1      17.248 -12.220  27.438  1.00  0.00     0.039 A 
ATOM     16  C   UNL     1      19.541 -11.427  27.685  1.00  0.00     0.013 A 
ATOM     17  C   UNL     1      21.241 -11.611  25.848  1.00  0.00     0.045 C 
ATOM     18  C   UNL     1      18.243 -11.568  28.222  1.00  0.00    -0.006 A 
ATOM     19  C   UNL     1      16.011 -12.575  28.051  1.00  0.00     0.072 A 
ATOM     20  C   UNL     1      17.932 -11.102  29.535  1.00  0.00     0.008 A 
ATOM     21  C   UNL     1      15.765 -12.234  29.394  1.00  0.00     0.169 A 
ATOM     22  C   UNL     1      16.731 -11.532  30.142  1.00  0.00     0.162 A 
BRANCH  13  23
ATOM     23  O   UNL     1      16.489 -12.886  25.205  1.00  0.00    -0.507 OA
ATOM     24  H   UNL     1      15.646 -13.352  25.520  1.00  0.00     0.293 HD
ENDBRANCH  13  23
BRANCH  19  25
ATOM     25  C   UNL     1      15.004 -13.416  27.363  1.00  0.00     0.264 C 
ATOM     26  O   UNL     1      13.955 -12.909  26.883  1.00  0.00    -0.298 OA
ENDBRANCH  19  25
BRANCH  20  27
ATOM     27  C   UNL     1      18.880 -10.160  30.297  1.00  0.00     0.017 C 
ATOM     28  C   UNL     1      19.586 -10.895  31.442  1.00  0.00     0.012 C 
ATOM     29  C   UNL     1      18.204  -8.868  30.793  1.00  0.00     0.012 C 
ENDBRANCH  20  27
BRANCH  21  30
ATOM     30  O   UNL     1      14.541 -12.615  29.961  1.00  0.00    -0.504 OA
ATOM     31  H   UNL     1      13.634 -12.396  29.575  1.00  0.00     0.293 HD
ENDBRANCH  21  30
BRANCH  22  32
ATOM     32  O   UNL     1      16.540 -11.284  31.505  1.00  0.00    -0.504 OA
ATOM     33  H   UNL     1      17.203 -10.819  32.106  1.00  0.00     0.293 HD
ENDBRANCH  22  32
ENDBRANCH  11  12
BRANCH  10  34
ATOM     34  O   UNL     1      19.096 -14.910  24.555  1.00  0.00    -0.507 OA
ATOM     35  H   UNL     1      19.162 -14.793  25.558  1.00  0.00     0.293 HD
ENDBRANCH  10  34
BRANCH   9  36
ATOM     36  C   UNL     1      20.814 -12.198  19.138  1.00  0.00     0.017 C 
ATOM     37  C   UNL     1      19.731 -11.214  18.673  1.00  0.00     0.012 C 
ATOM     38  C   UNL     1      22.081 -11.498  19.673  1.00  0.00     0.012 C 
ENDBRANCH   9  36
BRANCH   6  39
ATOM     39  C   UNL     1      18.811 -16.575  22.484  1.00  0.00     0.264 C 
ATOM     40  O   UNL     1      19.553 -17.451  23.002  1.00  0.00    -0.298 OA
ENDBRANCH   6  39
BRANCH   8  41
ATOM     41  O   UNL     1      20.714 -14.881  18.295  1.00  0.00    -0.504 OA
ATOM     42  H   UNL     1      20.279 -14.544  17.449  1.00  0.00     0.293 HD
ENDBRANCH   8  41
BRANCH   7  43
ATOM     43  O   UNL     1      19.608 -16.966  19.871  1.00  0.00    -0.504 OA
ATOM     44  H   UNL     1      20.356 -17.511  19.464  1.00  0.00     0.293 HD
ENDBRANCH   7  43
TORSDOF 11
ENDMDL
MODEL 6
REMARK VINA RESULT:    -7.273      1.874      8.903
REMARK INTER + INTRA:         -11.862
REMARK INTER:                 -12.501
REMARK INTRA:                   0.639
REMARK UNBOUND:                -1.188
REMARK SMILES Cc1cc2c(C(C)C)c(O)c(O)c(C=O)c2c(O)c1-c1c(C)cc2c(C(C)C)c(O)c(O)c(C=O)c2c1O
REMARK SMILES IDX 1 1 2 2 3 3 4 4 16 5 13 6 11 7 9 8 5 9 17 10 19 11 20 12
REMARK SMILES IDX 37 13 21 14 36 15 23 16 22 17 24 18 33 19 25 20 31 21 29 22
REMARK SMILES IDX 38 23 34 25 35 26 26 27 27 28 28 29 32 30 30 32 18 34 6 36
REMARK SMILES IDX 7 37 8 38 14 39 15 40 10 41 12 43
REMARK H PARENT 38 24 32 31 30 33 18 35 10 42 12 44
REMARK Flexibility Score: inf
ROOT
ATOM      1  C   UNL     1      14.671 -13.749  28.370  1.00  0.00     0.045 C 
ATOM      2  C   UNL     1      13.810 -13.313  27.209  1.00  0.00    -0.039 A 
ATOM      3  C   UNL     1      12.427 -13.232  27.371  1.00  0.00     0.013 A 
ATOM      4  C   UNL     1      11.571 -12.834  26.324  1.00  0.00    -0.006 A 
ATOM      5  C   UNL     1      12.137 -12.628  25.030  1.00  0.00     0.039 A 
ATOM      6  C   UNL     1      11.267 -12.438  23.918  1.00  0.00     0.072 A 
ATOM      7  C   UNL     1       9.880 -12.349  24.116  1.00  0.00     0.169 A 
ATOM      8  C   UNL     1       9.339 -12.390  25.413  1.00  0.00     0.162 A 
ATOM      9  C   UNL     1      10.168 -12.636  26.535  1.00  0.00     0.008 A 
ATOM     10  C   UNL     1      13.557 -12.598  24.894  1.00  0.00     0.132 A 
ATOM     11  C   UNL     1      14.384 -12.952  25.979  1.00  0.00     0.031 A 
ENDROOT
BRANCH  11  12
ATOM     12  C   UNL     1      15.863 -12.944  25.831  1.00  0.00     0.031 A 
ATOM     13  C   UNL     1      16.622 -11.860  26.320  1.00  0.00     0.132 A 
ATOM     14  C   UNL     1      16.505 -14.024  25.201  1.00  0.00    -0.039 A 
ATOM     15  C   UNL     1      18.043 -11.860  26.195  1.00  0.00     0.039 A 
ATOM     16  C   UNL     1      17.882 -13.970  24.982  1.00  0.00     0.013 A 
ATOM     17  C   UNL     1      15.726 -15.232  24.743  1.00  0.00     0.045 C 
ATOM     18  C   UNL     1      18.660 -12.868  25.399  1.00  0.00    -0.006 A 
ATOM     19  C   UNL     1      18.863 -10.872  26.813  1.00  0.00     0.072 A 
ATOM     20  C   UNL     1      20.044 -12.772  25.065  1.00  0.00     0.008 A 
ATOM     21  C   UNL     1      20.252 -10.867  26.590  1.00  0.00     0.169 A 
ATOM     22  C   UNL     1      20.845 -11.830  25.750  1.00  0.00     0.162 A 
BRANCH  13  23
ATOM     23  O   UNL     1      15.963 -10.765  26.890  1.00  0.00    -0.507 OA
ATOM     24  H   UNL     1      16.069 -10.483  27.857  1.00  0.00     0.293 HD
ENDBRANCH  13  23
BRANCH  19  25
ATOM     25  C   UNL     1      18.325  -9.908  27.802  1.00  0.00     0.264 C 
ATOM     26  O   UNL     1      18.180  -8.691  27.507  1.00  0.00    -0.298 OA
ENDBRANCH  19  25
BRANCH  20  27
ATOM     27  C   UNL     1      20.675 -13.678  23.993  1.00  0.00     0.017 C 
ATOM     28  C   UNL     1      20.715 -12.975  22.632  1.00  0.00     0.012 C 
ATOM     29  C   UNL     1      20.015 -15.066  23.888  1.00  0.00     0.012 C 
ENDBRANCH  20  27
BRANCH  21  30
ATOM     30  O   UNL     1      21.023  -9.887  27.230  1.00  0.00    -0.504 OA
ATOM     31  H   UNL     1      21.994  -9.992  27.484  1.00  0.00     0.293 HD
ENDBRANCH  21  30
BRANCH  22  32
ATOM     32  O   UNL     1      22.234 -11.900  25.608  1.00  0.00    -0.504 OA
ATOM     33  H   UNL     1      22.748 -11.603  24.793  1.00  0.00     0.293 HD
ENDBRANCH  22  32
ENDBRANCH  11  12
BRANCH  10  34
ATOM     34  O   UNL     1      14.143 -12.172  23.696  1.00  0.00    -0.507 OA
ATOM     35  H   UNL     1      14.611 -11.282  23.582  1.00  0.00     0.293 HD
ENDBRANCH  10  34
BRANCH   9  36
ATOM     36  C   UNL     1       9.503 -12.640  27.928  1.00  0.00     0.017 C 
ATOM     37  C   UNL     1       8.181 -13.421  27.938  1.00  0.00     0.012 C 
ATOM     38  C   UNL     1      10.449 -13.030  29.084  1.00  0.00     0.012 C 
ENDBRANCH   9  36
BRANCH   6  39
ATOM     39  C   UNL     1      11.761 -12.475  22.520  1.00  0.00     0.264 C 
ATOM     40  O   UNL     1      11.374 -13.367  21.719  1.00  0.00    -0.298 OA
ENDBRANCH   6  39
BRANCH   8  41
ATOM     41  O   UNL     1       7.968 -12.190  25.613  1.00  0.00    -0.504 OA
ATOM     42  H   UNL     1       7.319 -11.918  24.888  1.00  0.00     0.293 HD
ENDBRANCH   8  41
BRANCH   7  43
ATOM     43  O   UNL     1       9.051 -12.257  22.990  1.00  0.00    -0.504 OA
ATOM     44  H   UNL     1       9.216 -11.640  22.207  1.00  0.00     0.293 HD
ENDBRANCH   7  43
TORSDOF 11
ENDMDL
MODEL 7
REMARK VINA RESULT:    -7.226      3.647      9.002
REMARK INTER + INTRA:         -11.793
REMARK INTER:                 -10.909
REMARK INTRA:                  -0.884
REMARK UNBOUND:                -1.188
REMARK SMILES Cc1cc2c(C(C)C)c(O)c(O)c(C=O)c2c(O)c1-c1c(C)cc2c(C(C)C)c(O)c(O)c(C=O)c2c1O
REMARK SMILES IDX 1 1 2 2 3 3 4 4 16 5 13 6 11 7 9 8 5 9 17 10 19 11 20 12
REMARK SMILES IDX 37 13 21 14 36 15 23 16 22 17 24 18 33 19 25 20 31 21 29 22
REMARK SMILES IDX 38 23 34 25 35 26 26 27 27 28 28 29 32 30 30 32 18 34 6 36
REMARK SMILES IDX 7 37 8 38 14 39 15 40 10 41 12 43
REMARK H PARENT 38 24 32 31 30 33 18 35 10 42 12 44
REMARK Flexibility Score: inf
ROOT
ATOM      1  C   UNL     1      21.242 -11.505  25.821  1.00  0.00     0.045 C 
ATOM      2  C   UNL     1      19.846 -11.710  26.358  1.00  0.00    -0.039 A 
ATOM      3  C   UNL     1      19.553 -11.334  27.669  1.00  0.00     0.013 A 
ATOM      4  C   UNL     1      18.270 -11.502  28.229  1.00  0.00    -0.006 A 
ATOM      5  C   UNL     1      17.283 -12.192  27.461  1.00  0.00     0.039 A 
ATOM      6  C   UNL     1      16.058 -12.562  28.085  1.00  0.00     0.072 A 
ATOM      7  C   UNL     1      15.787 -12.157  29.402  1.00  0.00     0.169 A 
ATOM      8  C   UNL     1      16.693 -11.338  30.099  1.00  0.00     0.162 A 
ATOM      9  C   UNL     1      17.947 -11.001  29.531  1.00  0.00     0.008 A 
ATOM     10  C   UNL     1      17.549 -12.471  26.087  1.00  0.00     0.132 A 
ATOM     11  C   UNL     1      18.830 -12.241  25.547  1.00  0.00     0.031 A 
ENDROOT
BRANCH  11  12
ATOM     12  C   UNL     1      19.113 -12.555  24.122  1.00  0.00     0.031 A 
ATOM     13  C   UNL     1      19.235 -13.895  23.700  1.00  0.00     0.132 A 
ATOM     14  C   UNL     1      19.257 -11.510  23.195  1.00  0.00    -0.039 A 
ATOM     15  C   UNL     1      19.487 -14.199  22.329  1.00  0.00     0.039 A 
ATOM     16  C   UNL     1      19.613 -11.805  21.878  1.00  0.00     0.013 A 
ATOM     17  C   UNL     1      19.050 -10.072  23.604  1.00  0.00     0.045 C 
ATOM     18  C   UNL     1      19.809 -13.133  21.440  1.00  0.00    -0.006 A 
ATOM     19  C   UNL     1      19.458 -15.532  21.825  1.00  0.00     0.072 A 
ATOM     20  C   UNL     1      20.286 -13.415  20.124  1.00  0.00     0.008 A 
ATOM     21  C   UNL     1      19.796 -15.788  20.484  1.00  0.00     0.169 A 
ATOM     22  C   UNL     1      20.175 -14.734  19.629  1.00  0.00     0.162 A 
BRANCH  13  23
ATOM     23  O   UNL     1      19.148 -14.923  24.647  1.00  0.00    -0.507 OA
ATOM     24  H   UNL     1      18.700 -14.823  25.549  1.00  0.00     0.293 HD
ENDBRANCH  13  23
BRANCH  19  25
ATOM     25  C   UNL     1      18.953 -16.668  22.632  1.00  0.00     0.264 C 
ATOM     26  O   UNL     1      19.748 -17.441  23.231  1.00  0.00    -0.298 OA
ENDBRANCH  19  25
BRANCH  20  27
ATOM     27  C   UNL     1      20.900 -12.314  19.242  1.00  0.00     0.017 C 
ATOM     28  C   UNL     1      22.242 -11.838  19.809  1.00  0.00     0.012 C 
ATOM     29  C   UNL     1      19.951 -11.130  18.978  1.00  0.00     0.012 C 
ENDBRANCH  20  27
BRANCH  21  30
ATOM     30  O   UNL     1      19.739 -17.111  20.026  1.00  0.00    -0.504 OA
ATOM     31  H   UNL     1      19.556 -17.915  20.609  1.00  0.00     0.293 HD
ENDBRANCH  21  30
BRANCH  22  32
ATOM     32  O   UNL     1      20.407 -14.962  18.269  1.00  0.00    -0.504 OA
ATOM     33  H   UNL     1      21.043 -15.652  17.900  1.00  0.00     0.293 HD
ENDBRANCH  22  32
ENDBRANCH  11  12
BRANCH  10  34
ATOM     34  O   UNL     1      16.525 -12.934  25.251  1.00  0.00    -0.507 OA
ATOM     35  H   UNL     1      16.019 -12.345  24.601  1.00  0.00     0.293 HD
ENDBRANCH  10  34
BRANCH   9  36
ATOM     36  C   UNL     1      18.875 -10.077  30.347  1.00  0.00     0.017 C 
ATOM     37  C   UNL     1      18.255  -8.692  30.581  1.00  0.00     0.012 C 
ATOM     38  C   UNL     1      19.440 -10.716  31.633  1.00  0.00     0.012 C 
ENDBRANCH   9  36
BRANCH   6  39
ATOM     39  C   UNL     1      15.100 -13.494  27.442  1.00  0.00     0.264 C 
ATOM     40  O   UNL     1      13.995 -13.083  26.999  1.00  0.00    -0.298 OA
ENDBRANCH   6  39
BRANCH   8  41
ATOM     41  O   UNL     1      16.369 -10.847  31.368  1.00  0.00    -0.504 OA
ATOM     42  H   UNL     1      17.000 -10.321  31.955  1.00  0.00     0.293 HD
ENDBRANCH   8  41
BRANCH   7  43
ATOM     43  O   UNL     1      14.614 -12.619  30.013  1.00  0.00    -0.504 OA
ATOM     44  H   UNL     1      13.679 -12.395  29.699  1.00  0.00     0.293 HD
ENDBRANCH   7  43
TORSDOF 11
ENDMDL
MODEL 8
REMARK VINA RESULT:    -7.224      3.759      7.065
REMARK INTER + INTRA:         -11.790
REMARK INTER:                 -10.522
REMARK INTRA:                  -1.268
REMARK UNBOUND:                -1.188
REMARK SMILES Cc1cc2c(C(C)C)c(O)c(O)c(C=O)c2c(O)c1-c1c(C)cc2c(C(C)C)c(O)c(O)c(C=O)c2c1O
REMARK SMILES IDX 1 1 2 2 3 3 4 4 16 5 13 6 11 7 9 8 5 9 17 10 19 11 20 12
REMARK SMILES IDX 37 13 21 14 36 15 23 16 22 17 24 18 33 19 25 20 31 21 29 22
REMARK SMILES IDX 38 23 34 25 35 26 26 27 27 28 28 29 32 30 30 32 18 34 6 36
REMARK SMILES IDX 7 37 8 38 14 39 15 40 10 41 12 43
REMARK H PARENT 38 24 32 31 30 33 18 35 10 42 12 44
REMARK Flexibility Score: inf
ROOT
ATOM      1  C   UNL     1      15.219 -11.510  23.023  1.00  0.00     0.045 C 
ATOM      2  C   UNL     1      15.902 -12.776  22.565  1.00  0.00    -0.039 A 
ATOM      3  C   UNL     1      15.529 -13.357  21.352  1.00  0.00     0.013 A 
ATOM      4  C   UNL     1      16.127 -14.539  20.872  1.00  0.00    -0.006 A 
ATOM      5  C   UNL     1      17.054 -15.219  21.718  1.00  0.00     0.039 A 
ATOM      6  C   UNL     1      17.503 -16.519  21.347  1.00  0.00     0.072 A 
ATOM      7  C   UNL     1      17.120 -17.071  20.114  1.00  0.00     0.169 A 
ATOM      8  C   UNL     1      16.338 -16.329  19.211  1.00  0.00     0.162 A 
ATOM      9  C   UNL     1      15.826 -15.059  19.572  1.00  0.00     0.008 A 
ATOM     10  C   UNL     1      17.517 -14.567  22.900  1.00  0.00     0.132 A 
ATOM     11  C   UNL     1      16.931 -13.357  23.323  1.00  0.00     0.031 A 
ENDROOT
BRANCH  11  12
ATOM     12  C   UNL     1      17.397 -12.690  24.567  1.00  0.00     0.031 A 
ATOM     13  C   UNL     1      16.679 -12.850  25.771  1.00  0.00     0.132 A 
ATOM     14  C   UNL     1      18.558 -11.900  24.540  1.00  0.00    -0.039 A 
ATOM     15  C   UNL     1      17.135 -12.227  26.970  1.00  0.00     0.039 A 
ATOM     16  C   UNL     1      18.940 -11.203  25.687  1.00  0.00     0.013 A 
ATOM     17  C   UNL     1      19.389 -11.781  23.286  1.00  0.00     0.045 C 
ATOM     18  C   UNL     1      18.204 -11.288  26.889  1.00  0.00    -0.006 A 
ATOM     19  C   UNL     1      16.541 -12.486  28.239  1.00  0.00     0.072 A 
ATOM     20  C   UNL     1      18.537 -10.480  28.018  1.00  0.00     0.008 A 
ATOM     21  C   UNL     1      16.972 -11.783  29.379  1.00  0.00     0.169 A 
ATOM     22  C   UNL     1      17.987 -10.811  29.277  1.00  0.00     0.162 A 
BRANCH  13  23
ATOM     23  O   UNL     1      15.491 -13.590  25.768  1.00  0.00    -0.507 OA
ATOM     24  H   UNL     1      14.763 -13.493  26.465  1.00  0.00     0.293 HD
ENDBRANCH  13  23
BRANCH  19  25
ATOM     25  C   UNL     1      15.558 -13.578  28.440  1.00  0.00     0.264 C 
ATOM     26  O   UNL     1      14.333 -13.327  28.589  1.00  0.00    -0.298 OA
ENDBRANCH  19  25
BRANCH  20  27
ATOM     27  C   UNL     1      19.487  -9.276  27.890  1.00  0.00     0.017 C 
ATOM     28  C   UNL     1      19.138  -8.426  26.664  1.00  0.00     0.012 C 
ATOM     29  C   UNL     1      20.979  -9.660  27.899  1.00  0.00     0.012 C 
ENDBRANCH  20  27
BRANCH  21  30
ATOM     30  O   UNL     1      16.371 -12.081  30.609  1.00  0.00    -0.504 OA
ATOM     31  H   UNL     1      16.330 -11.452  31.398  1.00  0.00     0.293 HD
ENDBRANCH  21  30
BRANCH  22  32
ATOM     32  O   UNL     1      18.497 -10.185  30.418  1.00  0.00    -0.504 OA
ATOM     33  H   UNL     1      18.583  -9.188  30.541  1.00  0.00     0.293 HD
ENDBRANCH  22  32
ENDBRANCH  11  12
BRANCH  10  34
ATOM     34  O   UNL     1      18.590 -15.099  23.626  1.00  0.00    -0.507 OA
ATOM     35  H   UNL     1      19.464 -15.390  23.207  1.00  0.00     0.293 HD
ENDBRANCH  10  34
BRANCH   9  36
ATOM     36  C   UNL     1      14.999 -14.295  18.516  1.00  0.00     0.017 C 
ATOM     37  C   UNL     1      13.539 -14.099  18.953  1.00  0.00     0.012 C 
ATOM     38  C   UNL     1      15.659 -12.998  18.005  1.00  0.00     0.012 C 
ENDBRANCH   9  36
BRANCH   6  39
ATOM     39  C   UNL     1      18.254 -17.388  22.286  1.00  0.00     0.264 C 
ATOM     40  O   UNL     1      19.504 -17.507  22.198  1.00  0.00    -0.298 OA
ENDBRANCH   6  39
BRANCH   8  41
ATOM     41  O   UNL     1      16.052 -16.841  17.940  1.00  0.00    -0.504 OA
ATOM     42  H   UNL     1      15.173 -16.718  17.460  1.00  0.00     0.293 HD
ENDBRANCH   8  41
BRANCH   7  43
ATOM     43  O   UNL     1      17.503 -18.387  19.826  1.00  0.00    -0.504 OA
ATOM     44  H   UNL     1      17.288 -18.870  18.964  1.00  0.00     0.293 HD
ENDBRANCH   7  43
TORSDOF 11
ENDMDL
MODEL 9
REMARK VINA RESULT:    -7.221      5.971      9.640
REMARK INTER + INTRA:         -11.786
REMARK INTER:                 -10.351
REMARK INTRA:                  -1.434
REMARK UNBOUND:                -1.188
REMARK SMILES Cc1cc2c(C(C)C)c(O)c(O)c(C=O)c2c(O)c1-c1c(C)cc2c(C(C)C)c(O)c(O)c(C=O)c2c1O
REMARK SMILES IDX 1 1 2 2 3 3 4 4 16 5 13 6 11 7 9 8 5 9 17 10 19 11 20 12
REMARK SMILES IDX 37 13 21 14 36 15 23 16 22 17 24 18 33 19 25 20 31 21 29 22
REMARK SMILES IDX 38 23 34 25 35 26 26 27 27 28 28 29 32 30 30 32 18 34 6 36
REMARK SMILES IDX 7 37 8 38 14 39 15 40 10 41 12 43
REMARK H PARENT 38 24 32 31 30 33 18 35 10 42 12 44
REMARK Flexibility Score: inf
ROOT
ATOM      1  C   UNL     1      20.747 -12.044  32.340  1.00  0.00     0.045 C 
ATOM      2  C   UNL     1      20.287 -10.635  32.629  1.00  0.00    -0.039 A 
ATOM      3  C   UNL     1      20.861  -9.929  33.686  1.00  0.00     0.013 A 
ATOM      4  C   UNL     1      20.472  -8.612  34.007  1.00  0.00    -0.006 A 
ATOM      5  C   UNL     1      19.371  -8.041  33.299  1.00  0.00     0.039 A 
ATOM      6  C   UNL     1      18.826  -6.806  33.752  1.00  0.00     0.072 A 
ATOM      7  C   UNL     1      19.435  -6.112  34.810  1.00  0.00     0.169 A 
ATOM      8  C   UNL     1      20.617  -6.599  35.397  1.00  0.00     0.162 A 
ATOM      9  C   UNL     1      21.152  -7.853  35.013  1.00  0.00     0.008 A 
ATOM     10  C   UNL     1      18.865  -8.717  32.150  1.00  0.00     0.132 A 
ATOM     11  C   UNL     1      19.315 -10.014  31.828  1.00  0.00     0.031 A 
ENDROOT
BRANCH  11  12
ATOM     12  C   UNL     1      18.769 -10.727  30.644  1.00  0.00     0.031 A 
ATOM     13  C   UNL     1      19.355 -10.548  29.373  1.00  0.00     0.132 A 
ATOM     14  C   UNL     1      17.666 -11.584  30.796  1.00  0.00    -0.039 A 
ATOM     15  C   UNL     1      18.844 -11.247  28.239  1.00  0.00     0.039 A 
ATOM     16  C   UNL     1      17.101 -12.180  29.668  1.00  0.00     0.013 A 
ATOM     17  C   UNL     1      17.075 -11.857  32.157  1.00  0.00     0.045 C 
ATOM     18  C   UNL     1      17.621 -11.967  28.373  1.00  0.00    -0.006 A 
ATOM     19  C   UNL     1      19.496 -11.226  26.973  1.00  0.00     0.072 A 
ATOM     20  C   UNL     1      16.964 -12.486  27.217  1.00  0.00     0.008 A 
ATOM     21  C   UNL     1      18.908 -11.862  25.864  1.00  0.00     0.169 A 
ATOM     22  C   UNL     1      17.667 -12.517  25.991  1.00  0.00     0.162 A 
BRANCH  13  23
ATOM     23  O   UNL     1      20.414  -9.645  29.228  1.00  0.00    -0.507 OA
ATOM     24  H   UNL     1      21.324  -9.769  29.654  1.00  0.00     0.293 HD
ENDBRANCH  13  23
BRANCH  19  25
ATOM     25  C   UNL     1      20.856 -10.663  26.796  1.00  0.00     0.264 C 
ATOM     26  O   UNL     1      21.878 -11.391  26.909  1.00  0.00    -0.298 OA
ENDBRANCH  19  25
BRANCH  20  27
ATOM     27  C   UNL     1      15.522 -13.019  27.287  1.00  0.00     0.017 C 
ATOM     28  C   UNL     1      15.500 -14.551  27.288  1.00  0.00     0.012 C 
ATOM     29  C   UNL     1      14.596 -12.446  26.197  1.00  0.00     0.012 C 
ENDBRANCH  20  27
BRANCH  21  30
ATOM     30  O   UNL     1      19.591 -11.829  24.641  1.00  0.00    -0.504 OA
ATOM     31  H   UNL     1      20.447 -12.328  24.445  1.00  0.00     0.293 HD
ENDBRANCH  21  30
BRANCH  22  32
ATOM     32  O   UNL     1      17.127 -13.243  24.926  1.00  0.00    -0.504 OA
ATOM     33  H   UNL     1      16.214 -13.089  24.525  1.00  0.00     0.293 HD
ENDBRANCH  22  32
ENDBRANCH  11  12
BRANCH  10  34
ATOM     34  O   UNL     1      17.949  -8.081  31.304  1.00  0.00    -0.507 OA
ATOM     35  H   UNL     1      18.207  -7.608  30.447  1.00  0.00     0.293 HD
ENDBRANCH  10  34
BRANCH   9  36
ATOM     36  C   UNL     1      22.466  -8.305  35.685  1.00  0.00     0.017 C 
ATOM     37  C   UNL     1      22.269  -9.546  36.567  1.00  0.00     0.012 C 
ATOM     38  C   UNL     1      23.665  -8.429  34.720  1.00  0.00     0.012 C 
ENDBRANCH   9  36
BRANCH   6  39
ATOM     39  C   UNL     1      17.538  -6.282  33.238  1.00  0.00     0.264 C 
ATOM     40  O   UNL     1      17.504  -5.284  32.469  1.00  0.00    -0.298 OA
ENDBRANCH   6  39
BRANCH   8  41
ATOM     41  O   UNL     1      21.280  -5.848  36.375  1.00  0.00    -0.504 OA
ATOM     42  H   UNL     1      22.278  -5.698  36.401  1.00  0.00     0.293 HD
ENDBRANCH   8  41
BRANCH   7  43
ATOM     43  O   UNL     1      18.817  -4.949  35.287  1.00  0.00    -0.504 OA
ATOM     44  H   UNL     1      18.821  -4.656  36.255  1.00  0.00     0.293 HD
ENDBRANCH   7  43
TORSDOF 11
ENDMDL
