MODEL 1
REMARK VINA RESULT:    -3.864      0.000      0.000
REMARK INTER + INTRA:          -5.723
REMARK INTER:                  -5.445
REMARK INTRA:                  -0.278
REMARK UNBOUND:                -0.278
REMARK SMILES CCCCCCCCC(=O)[O-]
REMARK SMILES IDX 6 1 7 2 8 3 9 4 10 5 11 6 5 7 4 8 3 9 2 10 1 11
REMARK H PARENT
REMARK Flexibility Score: inf
ROOT
ATOM      1  C   UNL     1      44.363  66.593  49.620  1.00  0.00     0.000 C 
ENDROOT
BRANCH   1   2
ATOM      2  C   UNL     1      44.327  66.269  48.115  1.00  0.00     0.006 C 
BRANCH   2   3
ATOM      3  C   UNL     1      42.913  66.218  47.514  1.00  0.00     0.053 C 
BRANCH   3   4
ATOM      4  C   UNL     1      42.766  65.110  46.518  1.00  0.00     0.041 C 
ATOM      5  O   UNL     1      41.624  64.660  46.235  1.00  0.00    -0.550 OA
ATOM      6  O   UNL     1      43.893  64.551  45.928  1.00  0.00    -0.550 OA
ENDBRANCH   3   4
ENDBRANCH   2   3
ENDBRANCH   1   2
BRANCH   1   7
ATOM      7  C   UNL     1      45.415  65.766  50.380  1.00  0.00     0.000 C 
BRANCH   7   8
ATOM      8  C   UNL     1      44.947  65.362  51.787  1.00  0.00    -0.000 C 
BRANCH   8   9
ATOM      9  C   UNL     1      44.086  66.447  52.457  1.00  0.00    -0.000 C 
BRANCH   9  10
ATOM     10  C   UNL     1      43.084  65.863  53.465  1.00  0.00    -0.003 C 
ATOM     11  C   UNL     1      43.577  64.568  54.110  1.00  0.00     0.004 C 
ENDBRANCH   9  10
ENDBRANCH   8   9
ENDBRANCH   7   8
ENDBRANCH   1   7
TORSDOF 7
ENDMDL
MODEL 2
REMARK VINA RESULT:    -3.772      1.410      2.209
REMARK INTER + INTRA:          -5.593
REMARK INTER:                  -5.207
REMARK INTRA:                  -0.387
REMARK UNBOUND:                -0.278
REMARK SMILES CCCCCCCCC(=O)[O-]
REMARK SMILES IDX 6 1 7 2 8 3 9 4 10 5 11 6 5 7 4 8 3 9 2 10 1 11
REMARK H PARENT
REMARK Flexibility Score: inf
ROOT
ATOM      1  C   UNL     1      44.295  66.313  48.075  1.00  0.00     0.000 C 
ENDROOT
BRANCH   1   2
ATOM      2  C   UNL     1      43.569  66.390  46.719  1.00  0.00     0.006 C 
BRANCH   2   3
ATOM      3  C   UNL     1      42.868  65.086  46.305  1.00  0.00     0.053 C 
BRANCH   3   4
ATOM      4  C   UNL     1      41.393  65.139  46.553  1.00  0.00     0.041 C 
ATOM      5  O   UNL     1      40.793  66.246  46.579  1.00  0.00    -0.550 OA
ATOM      6  O   UNL     1      40.685  63.966  46.789  1.00  0.00    -0.550 OA
ENDBRANCH   3   4
ENDBRANCH   2   3
ENDBRANCH   1   2
BRANCH   1   7
ATOM      7  C   UNL     1      43.755  67.332  49.096  1.00  0.00     0.000 C 
BRANCH   7   8
ATOM      8  C   UNL     1      44.309  67.104  50.510  1.00  0.00    -0.000 C 
BRANCH   8   9
ATOM      9  C   UNL     1      45.433  66.054  50.542  1.00  0.00    -0.000 C 
BRANCH   9  10
ATOM     10  C   UNL     1      45.229  65.006  51.646  1.00  0.00    -0.003 C 
ATOM     11  C   UNL     1      44.189  65.430  52.683  1.00  0.00     0.004 C 
ENDBRANCH   9  10
ENDBRANCH   8   9
ENDBRANCH   7   8
ENDBRANCH   1   7
TORSDOF 7
ENDMDL
MODEL 3
REMARK VINA RESULT:    -3.717      1.549      3.075
REMARK INTER + INTRA:          -5.516
REMARK INTER:                  -5.171
REMARK INTRA:                  -0.345
REMARK UNBOUND:                -0.278
REMARK SMILES CCCCCCCCC(=O)[O-]
REMARK SMILES IDX 6 1 7 2 8 3 9 4 10 5 11 6 5 7 4 8 3 9 2 10 1 11
REMARK H PARENT
REMARK Flexibility Score: inf
ROOT
ATOM      1  C   UNL     1      41.601  67.018  48.107  1.00  0.00     0.000 C 
ENDROOT
BRANCH   1   2
ATOM      2  C   UNL     1      40.781  67.030  46.804  1.00  0.00     0.006 C 
BRANCH   2   3
ATOM      3  C   UNL     1      41.385  66.184  45.672  1.00  0.00     0.053 C 
BRANCH   3   4
ATOM      4  C   UNL     1      41.709  64.793  46.121  1.00  0.00     0.041 C 
ATOM      5  O   UNL     1      42.871  64.332  45.967  1.00  0.00    -0.550 OA
ATOM      6  O   UNL     1      40.719  63.993  46.676  1.00  0.00    -0.550 OA
ENDBRANCH   3   4
ENDBRANCH   2   3
ENDBRANCH   1   2
BRANCH   1   7
ATOM      7  C   UNL     1      43.016  67.598  47.924  1.00  0.00     0.000 C 
BRANCH   7   8
ATOM      8  C   UNL     1      44.115  66.643  48.415  1.00  0.00    -0.000 C 
BRANCH   8   9
ATOM      9  C   UNL     1      44.410  66.806  49.916  1.00  0.00    -0.000 C 
BRANCH   9  10
ATOM     10  C   UNL     1      45.504  65.847  50.408  1.00  0.00    -0.003 C 
ATOM     11  C   UNL     1      45.112  65.101  51.683  1.00  0.00     0.004 C 
ENDBRANCH   9  10
ENDBRANCH   8   9
ENDBRANCH   7   8
ENDBRANCH   1   7
TORSDOF 7
ENDMDL
MODEL 4
REMARK VINA RESULT:    -3.699      9.711     10.833
REMARK INTER + INTRA:          -5.491
REMARK INTER:                  -5.146
REMARK INTRA:                  -0.345
REMARK UNBOUND:                -0.278
REMARK SMILES CCCCCCCCC(=O)[O-]
REMARK SMILES IDX 6 1 7 2 8 3 9 4 10 5 11 6 5 7 4 8 3 9 2 10 1 11
REMARK H PARENT
REMARK Flexibility Score: inf
ROOT
ATOM      1  C   UNL     1      36.200  64.502  54.663  1.00  0.00     0.000 C 
ENDROOT
BRANCH   1   2
ATOM      2  C   UNL     1      36.282  63.584  55.896  1.00  0.00     0.006 C 
BRANCH   2   3
ATOM      3  C   UNL     1      36.154  62.086  55.576  1.00  0.00     0.053 C 
BRANCH   3   4
ATOM      4  C   UNL     1      37.448  61.358  55.769  1.00  0.00     0.041 C 
ATOM      5  O   UNL     1      37.530  60.130  55.502  1.00  0.00    -0.550 OA
ATOM      6  O   UNL     1      38.554  62.029  56.276  1.00  0.00    -0.550 OA
ENDBRANCH   3   4
ENDBRANCH   2   3
ENDBRANCH   1   2
BRANCH   1   7
ATOM      7  C   UNL     1      35.683  65.912  55.006  1.00  0.00     0.000 C 
BRANCH   7   8
ATOM      8  C   UNL     1      34.155  65.961  55.155  1.00  0.00    -0.000 C 
BRANCH   8   9
ATOM      9  C   UNL     1      33.509  67.038  54.265  1.00  0.00    -0.000 C 
BRANCH   9  10
ATOM     10  C   UNL     1      34.474  67.577  53.199  1.00  0.00    -0.003 C 
ATOM     11  C   UNL     1      34.015  67.274  51.773  1.00  0.00     0.004 C 
ENDBRANCH   9  10
ENDBRANCH   8   9
ENDBRANCH   7   8
ENDBRANCH   1   7
TORSDOF 7
ENDMDL
MODEL 5
REMARK VINA RESULT:    -3.615     10.016     11.898
REMARK INTER + INTRA:          -5.373
REMARK INTER:                  -4.791
REMARK INTRA:                  -0.582
REMARK UNBOUND:                -0.278
REMARK SMILES CCCCCCCCC(=O)[O-]
REMARK SMILES IDX 6 1 7 2 8 3 9 4 10 5 11 6 5 7 4 8 3 9 2 10 1 11
REMARK H PARENT
REMARK Flexibility Score: inf
ROOT
ATOM      1  C   UNL     1      33.073  66.080  55.212  1.00  0.00     0.000 C 
ENDROOT
BRANCH   1   2
ATOM      2  C   UNL     1      34.534  66.054  55.697  1.00  0.00     0.006 C 
BRANCH   2   3
ATOM      3  C   UNL     1      35.552  65.662  54.615  1.00  0.00     0.053 C 
BRANCH   3   4
ATOM      4  C   UNL     1      36.496  64.601  55.089  1.00  0.00     0.041 C 
ATOM      5  O   UNL     1      37.696  64.888  55.343  1.00  0.00    -0.550 OA
ATOM      6  O   UNL     1      36.059  63.288  55.216  1.00  0.00    -0.550 OA
ENDBRANCH   3   4
ENDBRANCH   2   3
ENDBRANCH   1   2
BRANCH   1   7
ATOM      7  C   UNL     1      32.325  67.354  55.645  1.00  0.00     0.000 C 
BRANCH   7   8
ATOM      8  C   UNL     1      31.511  67.980  54.503  1.00  0.00    -0.000 C 
BRANCH   8   9
ATOM      9  C   UNL     1      31.679  67.224  53.174  1.00  0.00    -0.000 C 
BRANCH   9  10
ATOM     10  C   UNL     1      32.495  68.018  52.144  1.00  0.00    -0.003 C 
ATOM     11  C   UNL     1      33.779  67.302  51.722  1.00  0.00     0.004 C 
ENDBRANCH   9  10
ENDBRANCH   8   9
ENDBRANCH   7   8
ENDBRANCH   1   7
TORSDOF 7
ENDMDL
MODEL 6
REMARK VINA RESULT:    -3.585      4.726      6.751
REMARK INTER + INTRA:          -5.330
REMARK INTER:                  -5.010
REMARK INTRA:                  -0.321
REMARK UNBOUND:                -0.278
REMARK SMILES CCCCCCCCC(=O)[O-]
REMARK SMILES IDX 6 1 7 2 8 3 9 4 10 5 11 6 5 7 4 8 3 9 2 10 1 11
REMARK H PARENT
REMARK Flexibility Score: inf
ROOT
ATOM      1  C   UNL     1      44.034  65.622  52.763  1.00  0.00     0.000 C 
ENDROOT
BRANCH   1   2
ATOM      2  C   UNL     1      43.533  64.574  53.773  1.00  0.00     0.006 C 
BRANCH   2   3
ATOM      3  C   UNL     1      42.905  65.171  55.042  1.00  0.00     0.053 C 
BRANCH   3   4
ATOM      4  C   UNL     1      43.436  64.531  56.287  1.00  0.00     0.041 C 
ATOM      5  O   UNL     1      43.304  65.104  57.400  1.00  0.00    -0.550 OA
ATOM      6  O   UNL     1      44.110  63.318  56.212  1.00  0.00    -0.550 OA
ENDBRANCH   3   4
ENDBRANCH   2   3
ENDBRANCH   1   2
BRANCH   1   7
ATOM      7  C   UNL     1      45.120  65.069  51.822  1.00  0.00     0.000 C 
BRANCH   7   8
ATOM      8  C   UNL     1      45.469  66.041  50.684  1.00  0.00    -0.000 C 
BRANCH   8   9
ATOM      9  C   UNL     1      44.602  67.311  50.706  1.00  0.00    -0.000 C 
BRANCH   9  10
ATOM     10  C   UNL     1      43.718  67.442  49.456  1.00  0.00    -0.003 C 
ATOM     11  C   UNL     1      44.198  66.570  48.295  1.00  0.00     0.004 C 
ENDBRANCH   9  10
ENDBRANCH   8   9
ENDBRANCH   7   8
ENDBRANCH   1   7
TORSDOF 7
ENDMDL
MODEL 7
REMARK VINA RESULT:    -3.584      9.916     11.391
REMARK INTER + INTRA:          -5.329
REMARK INTER:                  -5.152
REMARK INTRA:                  -0.178
REMARK UNBOUND:                -0.278
REMARK SMILES CCCCCCCCC(=O)[O-]
REMARK SMILES IDX 6 1 7 2 8 3 9 4 10 5 11 6 5 7 4 8 3 9 2 10 1 11
REMARK H PARENT
REMARK Flexibility Score: inf
ROOT
ATOM      1  C   UNL     1      36.123  63.406  55.236  1.00  0.00     0.000 C 
ENDROOT
BRANCH   1   2
ATOM      2  C   UNL     1      37.004  62.851  56.370  1.00  0.00     0.006 C 
BRANCH   2   3
ATOM      3  C   UNL     1      37.852  61.633  55.971  1.00  0.00     0.053 C 
BRANCH   3   4
ATOM      4  C   UNL     1      37.032  60.383  55.877  1.00  0.00     0.041 C 
ATOM      5  O   UNL     1      37.353  59.473  55.068  1.00  0.00    -0.550 OA
ATOM      6  O   UNL     1      35.892  60.240  56.659  1.00  0.00    -0.550 OA
ENDBRANCH   3   4
ENDBRANCH   2   3
ENDBRANCH   1   2
BRANCH   1   7
ATOM      7  C   UNL     1      36.097  64.945  55.203  1.00  0.00     0.000 C 
BRANCH   7   8
ATOM      8  C   UNL     1      34.832  65.529  55.850  1.00  0.00    -0.000 C 
BRANCH   8   9
ATOM      9  C   UNL     1      33.970  66.322  54.852  1.00  0.00    -0.000 C 
BRANCH   9  10
ATOM     10  C   UNL     1      32.467  66.191  55.138  1.00  0.00    -0.003 C 
ATOM     11  C   UNL     1      31.601  66.922  54.113  1.00  0.00     0.004 C 
ENDBRANCH   9  10
ENDBRANCH   8   9
ENDBRANCH   7   8
ENDBRANCH   1   7
TORSDOF 7
ENDMDL
MODEL 8
REMARK VINA RESULT:    -3.518     10.571     11.430
REMARK INTER + INTRA:          -5.236
REMARK INTER:                  -5.106
REMARK INTRA:                  -0.131
REMARK UNBOUND:                -0.278
REMARK SMILES CCCCCCCCC(=O)[O-]
REMARK SMILES IDX 6 1 7 2 8 3 9 4 10 5 11 6 5 7 4 8 3 9 2 10 1 11
REMARK H PARENT
REMARK Flexibility Score: inf
ROOT
ATOM      1  C   UNL     1      36.277  61.475  55.510  1.00  0.00     0.000 C 
ENDROOT
BRANCH   1   2
ATOM      2  C   UNL     1      37.151  60.359  56.110  1.00  0.00     0.006 C 
BRANCH   2   3
ATOM      3  C   UNL     1      37.136  59.047  55.309  1.00  0.00     0.053 C 
BRANCH   3   4
ATOM      4  C   UNL     1      37.411  57.857  56.175  1.00  0.00     0.041 C 
ATOM      5  O   UNL     1      37.046  56.709  55.809  1.00  0.00    -0.550 OA
ATOM      6  O   UNL     1      38.040  58.022  57.403  1.00  0.00    -0.550 OA
ENDBRANCH   3   4
ENDBRANCH   2   3
ENDBRANCH   1   2
BRANCH   1   7
ATOM      7  C   UNL     1      36.667  62.874  56.020  1.00  0.00     0.000 C 
BRANCH   7   8
ATOM      8  C   UNL     1      36.097  64.003  55.147  1.00  0.00    -0.000 C 
BRANCH   8   9
ATOM      9  C   UNL     1      35.525  65.163  55.981  1.00  0.00    -0.000 C 
BRANCH   9  10
ATOM     10  C   UNL     1      34.368  65.883  55.271  1.00  0.00    -0.003 C 
ATOM     11  C   UNL     1      34.834  66.741  54.095  1.00  0.00     0.004 C 
ENDBRANCH   9  10
ENDBRANCH   8   9
ENDBRANCH   7   8
ENDBRANCH   1   7
TORSDOF 7
ENDMDL
MODEL 9
REMARK VINA RESULT:    -3.513      9.896     11.581
REMARK INTER + INTRA:          -5.230
REMARK INTER:                  -4.973
REMARK INTRA:                  -0.257
REMARK UNBOUND:                -0.278
REMARK SMILES CCCCCCCCC(=O)[O-]
REMARK SMILES IDX 6 1 7 2 8 3 9 4 10 5 11 6 5 7 4 8 3 9 2 10 1 11
REMARK H PARENT
REMARK Flexibility Score: inf
ROOT
ATOM      1  C   UNL     1      36.945  60.159  56.309  1.00  0.00     0.000 C 
ENDROOT
BRANCH   1   2
ATOM      2  C   UNL     1      37.361  61.601  55.963  1.00  0.00     0.006 C 
BRANCH   2   3
ATOM      3  C   UNL     1      36.208  62.488  55.468  1.00  0.00     0.053 C 
BRANCH   3   4
ATOM      4  C   UNL     1      36.476  63.942  55.707  1.00  0.00     0.041 C 
ATOM      5  O   UNL     1      35.556  64.697  56.120  1.00  0.00    -0.550 OA
ATOM      6  O   UNL     1      37.733  64.471  55.440  1.00  0.00    -0.550 OA
ENDBRANCH   3   4
ENDBRANCH   2   3
ENDBRANCH   1   2
BRANCH   1   7
ATOM      7  C   UNL     1      37.164  59.182  55.140  1.00  0.00     0.000 C 
BRANCH   7   8
ATOM      8  C   UNL     1      37.168  57.713  55.590  1.00  0.00    -0.000 C 
BRANCH   8   9
ATOM      9  C   UNL     1      37.802  57.521  56.978  1.00  0.00    -0.000 C 
BRANCH   9  10
ATOM     10  C   UNL     1      37.236  56.302  57.721  1.00  0.00    -0.003 C 
ATOM     11  C   UNL     1      36.863  55.155  56.783  1.00  0.00     0.004 C 
ENDBRANCH   9  10
ENDBRANCH   8   9
ENDBRANCH   7   8
ENDBRANCH   1   7
TORSDOF 7
ENDMDL
