MODEL 1
REMARK VINA RESULT:    11.633      0.000      0.000
REMARK INTER + INTRA:          12.787
REMARK INTER:                  12.993
REMARK INTRA:                  -0.207
REMARK UNBOUND:                -0.207
REMARK SMILES CC(C)c1ccc(C(=O)[O-])cc1
REMARK SMILES IDX 7 1 6 2 11 3 5 4 12 5 4 6 8 7 9 8 10 9 2 10 1 11 3 12
REMARK H PARENT
REMARK Flexibility Score: inf
ROOT
ATOM      1  C   UNL     1     -35.422  15.887  17.959  1.00  0.00    -0.003 A 
ATOM      2  C   UNL     1     -35.078  15.318  16.721  1.00  0.00     0.010 A 
ATOM      3  C   UNL     1     -35.027  15.238  19.140  1.00  0.00     0.010 A 
ATOM      4  C   UNL     1     -34.353  14.124  16.667  1.00  0.00     0.004 A 
ATOM      5  C   UNL     1     -34.304  14.042  19.086  1.00  0.00     0.004 A 
ATOM      6  C   UNL     1     -33.958  13.472  17.849  1.00  0.00    -0.045 A 
ENDROOT
BRANCH   1   7
ATOM      7  C   UNL     1     -36.188  17.151  18.021  1.00  0.00     0.071 C 
ATOM      8  O   UNL     1     -37.445  17.137  18.094  1.00  0.00    -0.545 OA
ATOM      9  O   UNL     1     -35.529  18.375  18.000  1.00  0.00    -0.545 OA
ENDBRANCH   1   7
BRANCH   6  10
ATOM     10  C   UNL     1     -33.172  12.175  17.805  1.00  0.00     0.013 C 
ATOM     11  C   UNL     1     -31.766  12.399  17.235  1.00  0.00     0.012 C 
ATOM     12  C   UNL     1     -33.109  11.520  19.189  1.00  0.00     0.012 C 
ENDBRANCH   6  10
TORSDOF 2
ENDMDL
MODEL 2
REMARK VINA RESULT:    12.257      3.207      5.095
REMARK INTER + INTRA:          13.483
REMARK INTER:                  13.692
REMARK INTRA:                  -0.209
REMARK UNBOUND:                -0.207
REMARK SMILES CC(C)c1ccc(C(=O)[O-])cc1
REMARK SMILES IDX 7 1 6 2 11 3 5 4 12 5 4 6 8 7 9 8 10 9 2 10 1 11 3 12
REMARK H PARENT
REMARK Flexibility Score: inf
ROOT
ATOM      1  C   UNL     1     -33.762  13.081  18.113  1.00  0.00    -0.003 A 
ATOM      2  C   UNL     1     -34.065  13.549  16.822  1.00  0.00     0.010 A 
ATOM      3  C   UNL     1     -34.183  13.829  19.224  1.00  0.00     0.010 A 
ATOM      4  C   UNL     1     -34.774  14.741  16.648  1.00  0.00     0.004 A 
ATOM      5  C   UNL     1     -34.892  15.022  19.050  1.00  0.00     0.004 A 
ATOM      6  C   UNL     1     -35.196  15.491  17.761  1.00  0.00    -0.045 A 
ENDROOT
BRANCH   1   7
ATOM      7  C   UNL     1     -33.012  11.820  18.300  1.00  0.00     0.071 C 
ATOM      8  O   UNL     1     -32.295  11.356  17.374  1.00  0.00    -0.545 OA
ATOM      9  O   UNL     1     -33.087  11.129  19.504  1.00  0.00    -0.545 OA
ENDBRANCH   1   7
BRANCH   6  10
ATOM     10  C   UNL     1     -35.965  16.786  17.587  1.00  0.00     0.013 C 
ATOM     11  C   UNL     1     -37.384  16.669  18.159  1.00  0.00     0.012 C 
ATOM     12  C   UNL     1     -35.213  17.965  18.215  1.00  0.00     0.012 C 
ENDBRANCH   6  10
TORSDOF 2
ENDMDL
