MODEL 1
REMARK VINA RESULT:    -3.976      0.000      0.000
REMARK INTER + INTRA:          -4.286
REMARK INTER:                  -4.209
REMARK INTRA:                  -0.077
REMARK UNBOUND:                -0.077
REMARK SMILES CC(=O)c1cccc(C)c1
REMARK SMILES IDX 9 1 8 2 10 3 4 4 5 5 6 6 7 7 2 8 3 9 1 10
REMARK H PARENT
REMARK Flexibility Score: inf
ROOT
ATOM      1  C   UNL     1      11.958  16.851  31.766  1.00  0.00     0.044 C 
ATOM      2  C   UNL     1      13.173  16.538  30.944  1.00  0.00    -0.050 A 
ATOM      3  C   UNL     1      14.327  17.330  31.059  1.00  0.00     0.015 A 
ATOM      4  C   UNL     1      15.462  17.068  30.264  1.00  0.00     0.017 A 
ATOM      5  C   UNL     1      15.412  16.004  29.343  1.00  0.00     0.012 A 
ATOM      6  C   UNL     1      14.257  15.229  29.215  1.00  0.00     0.001 A 
ATOM      7  C   UNL     1      13.139  15.497  30.006  1.00  0.00     0.003 A 
ENDROOT
BRANCH   4   8
ATOM      8  C   UNL     1      16.697  17.891  30.382  1.00  0.00     0.159 C 
ATOM      9  O   UNL     1      17.607  17.780  29.517  1.00  0.00    -0.295 OA
ATOM     10  C   UNL     1      16.900  18.861  31.508  1.00  0.00     0.093 C 
ENDBRANCH   4   8
TORSDOF 1
ENDMDL
MODEL 2
REMARK VINA RESULT:    -3.898      1.594      2.744
REMARK INTER + INTRA:          -4.203
REMARK INTER:                  -4.129
REMARK INTRA:                  -0.074
REMARK UNBOUND:                -0.077
REMARK SMILES CC(=O)c1cccc(C)c1
REMARK SMILES IDX 9 1 8 2 10 3 4 4 5 5 6 6 7 7 2 8 3 9 1 10
REMARK H PARENT
REMARK Flexibility Score: inf
ROOT
ATOM      1  C   UNL     1      11.089  13.924  29.194  1.00  0.00     0.044 C 
ATOM      2  C   UNL     1      11.972  14.992  29.769  1.00  0.00    -0.050 A 
ATOM      3  C   UNL     1      13.349  14.992  29.497  1.00  0.00     0.015 A 
ATOM      4  C   UNL     1      14.195  15.969  30.061  1.00  0.00     0.017 A 
ATOM      5  C   UNL     1      13.633  16.938  30.914  1.00  0.00     0.012 A 
ATOM      6  C   UNL     1      12.266  16.927  31.200  1.00  0.00     0.001 A 
ATOM      7  C   UNL     1      11.438  15.955  30.636  1.00  0.00     0.003 A 
ENDROOT
BRANCH   4   8
ATOM      8  C   UNL     1      15.656  15.989  29.774  1.00  0.00     0.159 C 
ATOM      9  O   UNL     1      16.293  14.903  29.700  1.00  0.00    -0.295 OA
ATOM     10  C   UNL     1      16.406  17.270  29.568  1.00  0.00     0.093 C 
ENDBRANCH   4   8
TORSDOF 1
ENDMDL
MODEL 3
REMARK VINA RESULT:    -3.847      3.223      5.288
REMARK INTER + INTRA:          -4.149
REMARK INTER:                  -4.080
REMARK INTRA:                  -0.069
REMARK UNBOUND:                -0.077
REMARK SMILES CC(=O)c1cccc(C)c1
REMARK SMILES IDX 9 1 8 2 10 3 4 4 5 5 6 6 7 7 2 8 3 9 1 10
REMARK H PARENT
REMARK Flexibility Score: inf
ROOT
ATOM      1  C   UNL     1      15.609  15.219  29.647  1.00  0.00     0.044 C 
ATOM      2  C   UNL     1      14.234  15.607  30.106  1.00  0.00    -0.050 A 
ATOM      3  C   UNL     1      13.113  14.879  29.675  1.00  0.00     0.015 A 
ATOM      4  C   UNL     1      11.814  15.256  30.070  1.00  0.00     0.017 A 
ATOM      5  C   UNL     1      11.660  16.386  30.897  1.00  0.00     0.012 A 
ATOM      6  C   UNL     1      12.773  17.122  31.310  1.00  0.00     0.001 A 
ATOM      7  C   UNL     1      14.055  16.739  30.913  1.00  0.00     0.003 A 
ENDROOT
BRANCH   4   8
ATOM      8  C   UNL     1      10.616  14.489  29.630  1.00  0.00     0.159 C 
ATOM      9  O   UNL     1       9.842  13.990  30.491  1.00  0.00    -0.295 OA
ATOM     10  C   UNL     1      10.294  14.285  28.180  1.00  0.00     0.093 C 
ENDBRANCH   4   8
TORSDOF 1
ENDMDL
MODEL 4
REMARK VINA RESULT:    -3.846      1.371      2.221
REMARK INTER + INTRA:          -4.147
REMARK INTER:                  -4.073
REMARK INTRA:                  -0.075
REMARK UNBOUND:                -0.077
REMARK SMILES CC(=O)c1cccc(C)c1
REMARK SMILES IDX 9 1 8 2 10 3 4 4 5 5 6 6 7 7 2 8 3 9 1 10
REMARK H PARENT
REMARK Flexibility Score: inf
ROOT
ATOM      1  C   UNL     1      11.738  16.337  30.812  1.00  0.00     0.044 C 
ATOM      2  C   UNL     1      13.018  16.781  31.458  1.00  0.00    -0.050 A 
ATOM      3  C   UNL     1      14.110  17.171  30.667  1.00  0.00     0.015 A 
ATOM      4  C   UNL     1      15.330  17.554  31.262  1.00  0.00     0.017 A 
ATOM      5  C   UNL     1      15.436  17.526  32.666  1.00  0.00     0.012 A 
ATOM      6  C   UNL     1      14.355  17.120  33.452  1.00  0.00     0.001 A 
ATOM      7  C   UNL     1      13.153  16.742  32.853  1.00  0.00     0.003 A 
ENDROOT
BRANCH   4   8
ATOM      8  C   UNL     1      16.494  17.981  30.437  1.00  0.00     0.159 C 
ATOM      9  O   UNL     1      16.719  17.414  29.334  1.00  0.00    -0.295 OA
ATOM     10  C   UNL     1      17.421  19.074  30.879  1.00  0.00     0.093 C 
ENDBRANCH   4   8
TORSDOF 1
ENDMDL
MODEL 5
REMARK VINA RESULT:    -3.776      2.262      4.130
REMARK INTER + INTRA:          -4.074
REMARK INTER:                  -3.995
REMARK INTRA:                  -0.079
REMARK UNBOUND:                -0.077
REMARK SMILES CC(=O)c1cccc(C)c1
REMARK SMILES IDX 9 1 8 2 10 3 4 4 5 5 6 6 7 7 2 8 3 9 1 10
REMARK H PARENT
REMARK Flexibility Score: inf
ROOT
ATOM      1  C   UNL     1      16.343  18.312  30.739  1.00  0.00     0.044 C 
ATOM      2  C   UNL     1      15.289  17.295  30.411  1.00  0.00    -0.050 A 
ATOM      3  C   UNL     1      14.092  17.257  31.142  1.00  0.00     0.015 A 
ATOM      4  C   UNL     1      13.110  16.283  30.868  1.00  0.00     0.017 A 
ATOM      5  C   UNL     1      13.360  15.340  29.853  1.00  0.00     0.012 A 
ATOM      6  C   UNL     1      14.560  15.365  29.138  1.00  0.00     0.001 A 
ATOM      7  C   UNL     1      15.524  16.334  29.418  1.00  0.00     0.003 A 
ENDROOT
BRANCH   4   8
ATOM      8  C   UNL     1      11.830  16.237  31.627  1.00  0.00     0.159 C 
ATOM      9  O   UNL     1      11.692  16.943  32.662  1.00  0.00    -0.295 OA
ATOM     10  C   UNL     1      10.686  15.367  31.200  1.00  0.00     0.093 C 
ENDBRANCH   4   8
TORSDOF 1
ENDMDL
MODEL 6
REMARK VINA RESULT:    -3.717      1.626      2.406
REMARK INTER + INTRA:          -4.011
REMARK INTER:                  -3.938
REMARK INTRA:                  -0.073
REMARK UNBOUND:                -0.077
REMARK SMILES CC(=O)c1cccc(C)c1
REMARK SMILES IDX 9 1 8 2 10 3 4 4 5 5 6 6 7 7 2 8 3 9 1 10
REMARK H PARENT
REMARK Flexibility Score: inf
ROOT
ATOM      1  C   UNL     1      13.730  16.863  34.819  1.00  0.00     0.044 C 
ATOM      2  C   UNL     1      13.563  16.902  33.328  1.00  0.00    -0.050 A 
ATOM      3  C   UNL     1      14.668  17.154  32.500  1.00  0.00     0.015 A 
ATOM      4  C   UNL     1      14.517  17.230  31.100  1.00  0.00     0.017 A 
ATOM      5  C   UNL     1      13.233  17.060  30.549  1.00  0.00     0.012 A 
ATOM      6  C   UNL     1      12.130  16.828  31.374  1.00  0.00     0.001 A 
ATOM      7  C   UNL     1      12.291  16.755  32.758  1.00  0.00     0.003 A 
ENDROOT
BRANCH   4   8
ATOM      8  C   UNL     1      15.681  17.486  30.208  1.00  0.00     0.159 C 
ATOM      9  O   UNL     1      15.726  16.948  29.069  1.00  0.00    -0.295 OA
ATOM     10  C   UNL     1      16.817  18.373  30.621  1.00  0.00     0.093 C 
ENDBRANCH   4   8
TORSDOF 1
ENDMDL
MODEL 7
REMARK VINA RESULT:    -3.712      2.004      3.827
REMARK INTER + INTRA:          -4.005
REMARK INTER:                  -3.932
REMARK INTRA:                  -0.073
REMARK UNBOUND:                -0.077
REMARK SMILES CC(=O)c1cccc(C)c1
REMARK SMILES IDX 9 1 8 2 10 3 4 4 5 5 6 6 7 7 2 8 3 9 1 10
REMARK H PARENT
REMARK Flexibility Score: inf
ROOT
ATOM      1  C   UNL     1      16.278  18.648  32.983  1.00  0.00     0.044 C 
ATOM      2  C   UNL     1      15.853  17.972  31.712  1.00  0.00    -0.050 A 
ATOM      3  C   UNL     1      14.638  17.271  31.657  1.00  0.00     0.015 A 
ATOM      4  C   UNL     1      14.245  16.602  30.480  1.00  0.00     0.017 A 
ATOM      5  C   UNL     1      15.102  16.639  29.363  1.00  0.00     0.012 A 
ATOM      6  C   UNL     1      16.319  17.321  29.424  1.00  0.00     0.001 A 
ATOM      7  C   UNL     1      16.698  17.980  30.594  1.00  0.00     0.003 A 
ENDROOT
BRANCH   4   8
ATOM      8  C   UNL     1      12.955  15.862  30.402  1.00  0.00     0.159 C 
ATOM      9  O   UNL     1      12.891  14.784  29.751  1.00  0.00    -0.295 OA
ATOM     10  C   UNL     1      11.713  16.361  31.079  1.00  0.00     0.093 C 
ENDBRANCH   4   8
TORSDOF 1
ENDMDL
MODEL 8
REMARK VINA RESULT:    -3.661      2.728      4.640
REMARK INTER + INTRA:          -3.952
REMARK INTER:                  -3.874
REMARK INTRA:                  -0.078
REMARK UNBOUND:                -0.077
REMARK SMILES CC(=O)c1cccc(C)c1
REMARK SMILES IDX 9 1 8 2 10 3 4 4 5 5 6 6 7 7 2 8 3 9 1 10
REMARK H PARENT
REMARK Flexibility Score: inf
ROOT
ATOM      1  C   UNL     1      15.420  17.273  29.277  1.00  0.00     0.044 C 
ATOM      2  C   UNL     1      14.916  17.195  30.688  1.00  0.00    -0.050 A 
ATOM      3  C   UNL     1      13.575  16.866  30.942  1.00  0.00     0.015 A 
ATOM      4  C   UNL     1      13.081  16.825  32.262  1.00  0.00     0.017 A 
ATOM      5  C   UNL     1      13.957  17.133  33.321  1.00  0.00     0.012 A 
ATOM      6  C   UNL     1      15.286  17.479  33.067  1.00  0.00     0.001 A 
ATOM      7  C   UNL     1      15.764  17.516  31.757  1.00  0.00     0.003 A 
ENDROOT
BRANCH   4   8
ATOM      8  C   UNL     1      11.665  16.468  32.549  1.00  0.00     0.159 C 
ATOM      9  O   UNL     1      10.989  15.847  31.685  1.00  0.00    -0.295 OA
ATOM     10  C   UNL     1      11.004  16.826  33.847  1.00  0.00     0.093 C 
ENDBRANCH   4   8
TORSDOF 1
ENDMDL
MODEL 9
REMARK VINA RESULT:    -3.605      3.242      4.671
REMARK INTER + INTRA:          -3.893
REMARK INTER:                  -3.826
REMARK INTRA:                  -0.067
REMARK UNBOUND:                -0.077
REMARK SMILES CC(=O)c1cccc(C)c1
REMARK SMILES IDX 9 1 8 2 10 3 4 4 5 5 6 6 7 7 2 8 3 9 1 10
REMARK H PARENT
REMARK Flexibility Score: inf
ROOT
ATOM      1  C   UNL     1      16.089  17.253  31.274  1.00  0.00     0.044 C 
ATOM      2  C   UNL     1      14.643  17.114  31.647  1.00  0.00    -0.050 A 
ATOM      3  C   UNL     1      14.268  17.002  32.996  1.00  0.00     0.015 A 
ATOM      4  C   UNL     1      12.916  16.835  33.357  1.00  0.00     0.017 A 
ATOM      5  C   UNL     1      11.947  16.769  32.337  1.00  0.00     0.012 A 
ATOM      6  C   UNL     1      12.321  16.860  30.995  1.00  0.00     0.001 A 
ATOM      7  C   UNL     1      13.663  17.026  30.649  1.00  0.00     0.003 A 
ENDROOT
BRANCH   4   8
ATOM      8  C   UNL     1      12.502  16.725  34.783  1.00  0.00     0.159 C 
ATOM      9  O   UNL     1      12.093  15.620  35.232  1.00  0.00    -0.295 OA
ATOM     10  C   UNL     1      12.554  17.898  35.716  1.00  0.00     0.093 C 
ENDBRANCH   4   8
TORSDOF 1
ENDMDL
