MODEL 1
REMARK VINA RESULT:    -3.452      0.000      0.000
REMARK INTER + INTRA:          -4.663
REMARK INTER:                  -4.461
REMARK INTRA:                  -0.202
REMARK UNBOUND:                -0.202
REMARK SMILES CCCCCCC(=O)[O-]
REMARK SMILES IDX 5 1 6 2 7 3 8 4 9 5 4 6 3 7 2 8 1 9
REMARK H PARENT
REMARK Flexibility Score: inf
ROOT
ATOM      1  C   UNL     1      21.189 -15.740   6.110  1.00  0.00     0.006 C 
ENDROOT
BRANCH   1   2
ATOM      2  C   UNL     1      21.579 -14.324   6.545  1.00  0.00     0.053 C 
BRANCH   2   3
ATOM      3  C   UNL     1      21.561 -14.210   8.037  1.00  0.00     0.041 C 
ATOM      4  O   UNL     1      21.734 -15.231   8.753  1.00  0.00    -0.550 OA
ATOM      5  O   UNL     1      21.402 -12.967   8.636  1.00  0.00    -0.550 OA
ENDBRANCH   2   3
ENDBRANCH   1   2
BRANCH   1   6
ATOM      6  C   UNL     1      21.481 -15.958   4.621  1.00  0.00     0.000 C 
BRANCH   6   7
ATOM      7  C   UNL     1      22.182 -14.734   4.014  1.00  0.00    -0.000 C 
BRANCH   7   8
ATOM      8  C   UNL     1      21.825 -14.521   2.535  1.00  0.00    -0.003 C 
ATOM      9  C   UNL     1      21.366 -15.806   1.846  1.00  0.00     0.004 C 
ENDBRANCH   7   8
ENDBRANCH   6   7
ENDBRANCH   1   6
TORSDOF 5
ENDMDL
MODEL 2
REMARK VINA RESULT:    -3.200      7.013      8.368
REMARK INTER + INTRA:          -4.338
REMARK INTER:                  -4.210
REMARK INTRA:                  -0.128
REMARK UNBOUND:                -0.202
REMARK SMILES CCCCCCC(=O)[O-]
REMARK SMILES IDX 5 1 6 2 7 3 8 4 9 5 4 6 3 7 2 8 1 9
REMARK H PARENT
REMARK Flexibility Score: inf
ROOT
ATOM      1  C   UNL     1      23.576  -7.848   7.946  1.00  0.00     0.006 C 
ENDROOT
BRANCH   1   2
ATOM      2  C   UNL     1      23.692  -6.787   6.846  1.00  0.00     0.053 C 
BRANCH   2   3
ATOM      3  C   UNL     1      23.937  -5.438   7.443  1.00  0.00     0.041 C 
ATOM      4  O   UNL     1      23.336  -5.091   8.494  1.00  0.00    -0.550 OA
ATOM      5  O   UNL     1      24.866  -4.581   6.867  1.00  0.00    -0.550 OA
ENDBRANCH   2   3
ENDBRANCH   1   2
BRANCH   1   6
ATOM      6  C   UNL     1      24.580  -8.985   7.722  1.00  0.00     0.000 C 
BRANCH   6   7
ATOM      7  C   UNL     1      24.207 -10.219   8.557  1.00  0.00    -0.000 C 
BRANCH   7   8
ATOM      8  C   UNL     1      24.598 -11.537   7.870  1.00  0.00    -0.003 C 
ATOM      9  C   UNL     1      25.825 -11.394   6.971  1.00  0.00     0.004 C 
ENDBRANCH   7   8
ENDBRANCH   6   7
ENDBRANCH   1   6
TORSDOF 5
ENDMDL
MODEL 3
REMARK VINA RESULT:    -3.199     13.089     14.876
REMARK INTER + INTRA:          -4.336
REMARK INTER:                  -4.132
REMARK INTRA:                  -0.204
REMARK UNBOUND:                -0.202
REMARK SMILES CCCCCCC(=O)[O-]
REMARK SMILES IDX 5 1 6 2 7 3 8 4 9 5 4 6 3 7 2 8 1 9
REMARK H PARENT
REMARK Flexibility Score: inf
ROOT
ATOM      1  C   UNL     1      24.566  -1.088  10.915  1.00  0.00     0.006 C 
ENDROOT
BRANCH   1   2
ATOM      2  C   UNL     1      24.316  -2.519  10.430  1.00  0.00     0.053 C 
BRANCH   2   3
ATOM      3  C   UNL     1      22.940  -2.647   9.858  1.00  0.00     0.041 C 
ATOM      4  O   UNL     1      22.401  -3.779   9.750  1.00  0.00    -0.550 OA
ATOM      5  O   UNL     1      22.233  -1.509   9.490  1.00  0.00    -0.550 OA
ENDBRANCH   2   3
ENDBRANCH   1   2
BRANCH   1   6
ATOM      6  C   UNL     1      26.067  -0.781  10.974  1.00  0.00     0.000 C 
BRANCH   6   7
ATOM      7  C   UNL     1      26.897  -2.027  10.629  1.00  0.00    -0.000 C 
BRANCH   7   8
ATOM      8  C   UNL     1      28.240  -2.066  11.374  1.00  0.00    -0.003 C 
ATOM      9  C   UNL     1      28.662  -0.698  11.907  1.00  0.00     0.004 C 
ENDBRANCH   7   8
ENDBRANCH   6   7
ENDBRANCH   1   6
TORSDOF 5
ENDMDL
MODEL 4
REMARK VINA RESULT:    -3.159      4.265      5.333
REMARK INTER + INTRA:          -4.284
REMARK INTER:                  -4.028
REMARK INTRA:                  -0.255
REMARK UNBOUND:                -0.202
REMARK SMILES CCCCCCC(=O)[O-]
REMARK SMILES IDX 5 1 6 2 7 3 8 4 9 5 4 6 3 7 2 8 1 9
REMARK H PARENT
REMARK Flexibility Score: inf
ROOT
ATOM      1  C   UNL     1      23.357 -13.243   1.196  1.00  0.00     0.006 C 
ENDROOT
BRANCH   1   2
ATOM      2  C   UNL     1      24.078 -12.805   2.475  1.00  0.00     0.053 C 
BRANCH   2   3
ATOM      3  C   UNL     1      24.500 -11.373   2.375  1.00  0.00     0.041 C 
ATOM      4  O   UNL     1      25.231 -10.864   3.264  1.00  0.00    -0.550 OA
ATOM      5  O   UNL     1      24.124 -10.614   1.275  1.00  0.00    -0.550 OA
ENDBRANCH   2   3
ENDBRANCH   1   2
BRANCH   1   6
ATOM      6  C   UNL     1      21.959 -13.788   1.512  1.00  0.00     0.000 C 
BRANCH   6   7
ATOM      7  C   UNL     1      21.901 -14.360   2.936  1.00  0.00    -0.000 C 
BRANCH   7   8
ATOM      8  C   UNL     1      21.660 -15.877   2.954  1.00  0.00    -0.003 C 
ATOM      9  C   UNL     1      21.124 -16.407   1.625  1.00  0.00     0.004 C 
ENDBRANCH   7   8
ENDBRANCH   6   7
ENDBRANCH   1   6
TORSDOF 5
ENDMDL
MODEL 5
REMARK VINA RESULT:    -3.143      1.315      2.338
REMARK INTER + INTRA:          -4.264
REMARK INTER:                  -4.081
REMARK INTRA:                  -0.183
REMARK UNBOUND:                -0.202
REMARK SMILES CCCCCCC(=O)[O-]
REMARK SMILES IDX 5 1 6 2 7 3 8 4 9 5 4 6 3 7 2 8 1 9
REMARK H PARENT
REMARK Flexibility Score: inf
ROOT
ATOM      1  C   UNL     1      21.892 -14.978   3.954  1.00  0.00     0.006 C 
ENDROOT
BRANCH   1   2
ATOM      2  C   UNL     1      22.756 -14.485   5.119  1.00  0.00     0.053 C 
BRANCH   2   3
ATOM      3  C   UNL     1      21.965 -14.473   6.389  1.00  0.00     0.041 C 
ATOM      4  O   UNL     1      22.235 -13.643   7.296  1.00  0.00    -0.550 OA
ATOM      5  O   UNL     1      20.898 -15.347   6.551  1.00  0.00    -0.550 OA
ENDBRANCH   2   3
ENDBRANCH   1   2
BRANCH   1   6
ATOM      6  C   UNL     1      22.115 -14.121   2.702  1.00  0.00     0.000 C 
BRANCH   6   7
ATOM      7  C   UNL     1      21.729 -14.894   1.432  1.00  0.00    -0.000 C 
BRANCH   7   8
ATOM      8  C   UNL     1      21.098 -16.260   1.740  1.00  0.00    -0.003 C 
ATOM      9  C   UNL     1      21.861 -17.422   1.106  1.00  0.00     0.004 C 
ENDBRANCH   7   8
ENDBRANCH   6   7
ENDBRANCH   1   6
TORSDOF 5
ENDMDL
MODEL 6
REMARK VINA RESULT:    -3.122      3.343      5.105
REMARK INTER + INTRA:          -4.236
REMARK INTER:                  -4.046
REMARK INTRA:                  -0.190
REMARK UNBOUND:                -0.202
REMARK SMILES CCCCCCC(=O)[O-]
REMARK SMILES IDX 5 1 6 2 7 3 8 4 9 5 4 6 3 7 2 8 1 9
REMARK H PARENT
REMARK Flexibility Score: inf
ROOT
ATOM      1  C   UNL     1      21.494 -15.970   4.395  1.00  0.00     0.006 C 
ENDROOT
BRANCH   1   2
ATOM      2  C   UNL     1      22.176 -14.725   3.821  1.00  0.00     0.053 C 
BRANCH   2   3
ATOM      3  C   UNL     1      21.827 -14.554   2.377  1.00  0.00     0.041 C 
ATOM      4  O   UNL     1      22.116 -13.486   1.776  1.00  0.00    -0.550 OA
ATOM      5  O   UNL     1      21.224 -15.594   1.681  1.00  0.00    -0.550 OA
ENDBRANCH   2   3
ENDBRANCH   1   2
BRANCH   1   6
ATOM      6  C   UNL     1      21.120 -15.764   5.868  1.00  0.00     0.000 C 
BRANCH   6   7
ATOM      7  C   UNL     1      21.629 -14.407   6.378  1.00  0.00    -0.000 C 
BRANCH   7   8
ATOM      8  C   UNL     1      21.360 -14.202   7.877  1.00  0.00    -0.003 C 
ATOM      9  C   UNL     1      21.731 -15.423   8.718  1.00  0.00     0.004 C 
ENDBRANCH   7   8
ENDBRANCH   6   7
ENDBRANCH   1   6
TORSDOF 5
ENDMDL
MODEL 7
REMARK VINA RESULT:    -3.049      3.761      5.339
REMARK INTER + INTRA:          -4.142
REMARK INTER:                  -3.834
REMARK INTRA:                  -0.308
REMARK UNBOUND:                -0.202
REMARK SMILES CCCCCCC(=O)[O-]
REMARK SMILES IDX 5 1 6 2 7 3 8 4 9 5 4 6 3 7 2 8 1 9
REMARK H PARENT
REMARK Flexibility Score: inf
ROOT
ATOM      1  C   UNL     1      21.668 -13.870   1.846  1.00  0.00     0.006 C 
ENDROOT
BRANCH   1   2
ATOM      2  C   UNL     1      22.710 -13.298   0.880  1.00  0.00     0.053 C 
BRANCH   2   3
ATOM      3  C   UNL     1      23.556 -12.273   1.566  1.00  0.00     0.041 C 
ATOM      4  O   UNL     1      23.739 -11.146   1.037  1.00  0.00    -0.550 OA
ATOM      5  O   UNL     1      24.101 -12.546   2.814  1.00  0.00    -0.550 OA
ENDBRANCH   2   3
ENDBRANCH   1   2
BRANCH   1   6
ATOM      6  C   UNL     1      21.495 -15.379   1.640  1.00  0.00     0.000 C 
BRANCH   6   7
ATOM      7  C   UNL     1      21.920 -16.157   2.894  1.00  0.00    -0.000 C 
BRANCH   7   8
ATOM      8  C   UNL     1      21.907 -15.288   4.161  1.00  0.00    -0.003 C 
ATOM      9  C   UNL     1      23.232 -15.331   4.922  1.00  0.00     0.004 C 
ENDBRANCH   7   8
ENDBRANCH   6   7
ENDBRANCH   1   6
TORSDOF 5
ENDMDL
MODEL 8
REMARK VINA RESULT:    -3.048      1.749      2.635
REMARK INTER + INTRA:          -4.141
REMARK INTER:                  -3.884
REMARK INTRA:                  -0.257
REMARK UNBOUND:                -0.202
REMARK SMILES CCCCCCC(=O)[O-]
REMARK SMILES IDX 5 1 6 2 7 3 8 4 9 5 4 6 3 7 2 8 1 9
REMARK H PARENT
REMARK Flexibility Score: inf
ROOT
ATOM      1  C   UNL     1      22.518 -15.839   3.723  1.00  0.00     0.006 C 
ENDROOT
BRANCH   1   2
ATOM      2  C   UNL     1      22.039 -14.937   4.866  1.00  0.00     0.053 C 
BRANCH   2   3
ATOM      3  C   UNL     1      21.407 -15.754   5.948  1.00  0.00     0.041 C 
ATOM      4  O   UNL     1      21.504 -17.009   5.935  1.00  0.00    -0.550 OA
ATOM      5  O   UNL     1      20.750 -15.125   6.998  1.00  0.00    -0.550 OA
ENDBRANCH   2   3
ENDBRANCH   1   2
BRANCH   1   6
ATOM      6  C   UNL     1      21.494 -15.873   2.582  1.00  0.00     0.000 C 
BRANCH   6   7
ATOM      7  C   UNL     1      22.063 -15.218   1.314  1.00  0.00    -0.000 C 
BRANCH   7   8
ATOM      8  C   UNL     1      21.780 -13.710   1.250  1.00  0.00    -0.003 C 
ATOM      9  C   UNL     1      23.055 -12.870   1.194  1.00  0.00     0.004 C 
ENDBRANCH   7   8
ENDBRANCH   6   7
ENDBRANCH   1   6
TORSDOF 5
ENDMDL
MODEL 9
REMARK VINA RESULT:    -3.023      4.725      6.160
REMARK INTER + INTRA:          -4.109
REMARK INTER:                  -4.036
REMARK INTRA:                  -0.073
REMARK UNBOUND:                -0.202
REMARK SMILES CCCCCCC(=O)[O-]
REMARK SMILES IDX 5 1 6 2 7 3 8 4 9 5 4 6 3 7 2 8 1 9
REMARK H PARENT
REMARK Flexibility Score: inf
ROOT
ATOM      1  C   UNL     1      22.953 -13.200   1.805  1.00  0.00     0.006 C 
ENDROOT
BRANCH   1   2
ATOM      2  C   UNL     1      21.815 -14.031   1.202  1.00  0.00     0.053 C 
BRANCH   2   3
ATOM      3  C   UNL     1      21.590 -15.273   2.005  1.00  0.00     0.041 C 
ATOM      4  O   UNL     1      22.125 -15.402   3.137  1.00  0.00    -0.550 OA
ATOM      5  O   UNL     1      20.748 -16.267   1.523  1.00  0.00    -0.550 OA
ENDBRANCH   2   3
ENDBRANCH   1   2
BRANCH   1   6
ATOM      6  C   UNL     1      23.344 -12.046   0.875  1.00  0.00     0.000 C 
BRANCH   6   7
ATOM      7  C   UNL     1      24.331 -11.094   1.567  1.00  0.00    -0.000 C 
BRANCH   7   8
ATOM      8  C   UNL     1      24.161  -9.636   1.115  1.00  0.00    -0.003 C 
ATOM      9  C   UNL     1      25.488  -8.882   1.036  1.00  0.00     0.004 C 
ENDBRANCH   7   8
ENDBRANCH   6   7
ENDBRANCH   1   6
TORSDOF 5
ENDMDL
