MODEL 1
REMARK VINA RESULT:    -5.197      0.000      0.000
REMARK INTER + INTRA:          -7.306
REMARK INTER:                  -6.564
REMARK INTRA:                  -0.741
REMARK UNBOUND:                -0.741
REMARK SMILES Oc1cc(O)cc(CCc2ccccc2O)c1
REMARK SMILES IDX 9 1 10 2 12 3 13 4 11 5 14 6 15 7 16 8 8 10 7 11 6 12 17 13
REMARK SMILES IDX 4 14 2 15 3 16 5 17 1 19
REMARK H PARENT 16 9 5 18 1 20
REMARK Flexibility Score: inf
ROOT
ATOM      1  C   UNL     1     174.093 179.168 188.195  1.00  0.00     0.044 C 
ENDROOT
BRANCH   1   2
ATOM      2  C   UNL     1     172.660 178.984 187.761  1.00  0.00    -0.006 A 
ATOM      3  C   UNL     1     170.523 179.959 187.132  1.00  0.00     0.001 A 
ATOM      4  C   UNL     1     169.968 178.682 187.017  1.00  0.00     0.004 A 
ATOM      5  C   UNL     1     171.860 180.111 187.506  1.00  0.00     0.007 A 
ATOM      6  C   UNL     1     170.749 177.554 187.282  1.00  0.00     0.046 A 
ATOM      7  C   UNL     1     172.093 177.697 187.660  1.00  0.00     0.118 A 
BRANCH   7   8
ATOM      8  O   UNL     1     172.862 176.567 187.936  1.00  0.00    -0.508 OA
ATOM      9  H   UNL     1     172.462 175.748 188.377  1.00  0.00     0.293 HD
ENDBRANCH   7   8
ENDBRANCH   1   2
BRANCH   1  10
ATOM     10  C   UNL     1     174.860 180.014 187.174  1.00  0.00     0.040 C 
BRANCH  10  11
ATOM     11  C   UNL     1     175.251 179.179 185.984  1.00  0.00    -0.040 A 
ATOM     12  C   UNL     1     174.807 179.525 184.698  1.00  0.00     0.050 A 
ATOM     13  C   UNL     1     176.018 178.015 186.158  1.00  0.00     0.050 A 
ATOM     14  C   UNL     1     175.142 178.731 183.597  1.00  0.00     0.119 A 
ATOM     15  C   UNL     1     176.355 177.218 185.056  1.00  0.00     0.119 A 
ATOM     16  C   UNL     1     175.920 177.580 183.777  1.00  0.00     0.092 A 
BRANCH  14  17
ATOM     17  O   UNL     1     174.697 179.095 182.327  1.00  0.00    -0.508 OA
ATOM     18  H   UNL     1     174.642 178.421 181.572  1.00  0.00     0.293 HD
ENDBRANCH  14  17
BRANCH  15  19
ATOM     19  O   UNL     1     177.121 176.067 185.221  1.00  0.00    -0.508 OA
ATOM     20  H   UNL     1     177.583 175.859 186.098  1.00  0.00     0.293 HD
ENDBRANCH  15  19
ENDBRANCH  10  11
ENDBRANCH   1  10
TORSDOF 6
ENDMDL
MODEL 2
REMARK VINA RESULT:    -5.189      0.154      2.040
REMARK INTER + INTRA:          -7.296
REMARK INTER:                  -6.511
REMARK INTRA:                  -0.784
REMARK UNBOUND:                -0.741
REMARK SMILES Oc1cc(O)cc(CCc2ccccc2O)c1
REMARK SMILES IDX 9 1 10 2 12 3 13 4 11 5 14 6 15 7 16 8 8 10 7 11 6 12 17 13
REMARK SMILES IDX 4 14 2 15 3 16 5 17 1 19
REMARK H PARENT 16 9 5 18 1 20
REMARK Flexibility Score: inf
ROOT
ATOM      1  C   UNL     1     174.125 179.326 188.272  1.00  0.00     0.044 C 
ENDROOT
BRANCH   1   2
ATOM      2  C   UNL     1     172.740 179.046 187.745  1.00  0.00    -0.006 A 
ATOM      3  C   UNL     1     170.588 179.875 186.974  1.00  0.00     0.001 A 
ATOM      4  C   UNL     1     170.130 178.564 186.826  1.00  0.00     0.004 A 
ATOM      5  C   UNL     1     171.884 180.117 187.435  1.00  0.00     0.007 A 
ATOM      6  C   UNL     1     170.966 177.491 187.145  1.00  0.00     0.046 A 
ATOM      7  C   UNL     1     172.270 177.724 187.610  1.00  0.00     0.118 A 
BRANCH   7   8
ATOM      8  O   UNL     1     173.094 176.648 187.939  1.00  0.00    -0.508 OA
ATOM      9  H   UNL     1     173.863 176.367 187.342  1.00  0.00     0.293 HD
ENDBRANCH   7   8
ENDBRANCH   1   2
BRANCH   1  10
ATOM     10  C   UNL     1     174.951 180.093 187.234  1.00  0.00     0.040 C 
BRANCH  10  11
ATOM     11  C   UNL     1     175.263 179.213 186.054  1.00  0.00    -0.040 A 
ATOM     12  C   UNL     1     176.067 178.072 186.212  1.00  0.00     0.050 A 
ATOM     13  C   UNL     1     174.801 179.558 184.773  1.00  0.00     0.050 A 
ATOM     14  C   UNL     1     176.385 177.272 185.110  1.00  0.00     0.119 A 
ATOM     15  C   UNL     1     175.119 178.757 183.667  1.00  0.00     0.119 A 
ATOM     16  C   UNL     1     175.907 177.615 183.838  1.00  0.00     0.092 A 
BRANCH  14  17
ATOM     17  O   UNL     1     177.177 176.140 185.289  1.00  0.00    -0.508 OA
ATOM     18  H   UNL     1     177.018 175.499 186.058  1.00  0.00     0.293 HD
ENDBRANCH  14  17
BRANCH  15  19
ATOM     19  O   UNL     1     174.657 179.089 182.395  1.00  0.00    -0.508 OA
ATOM     20  H   UNL     1     174.676 180.044 182.058  1.00  0.00     0.293 HD
ENDBRANCH  15  19
ENDBRANCH  10  11
ENDBRANCH   1  10
TORSDOF 6
ENDMDL
MODEL 3
REMARK VINA RESULT:    -5.170     10.067     12.259
REMARK INTER + INTRA:          -7.271
REMARK INTER:                  -6.487
REMARK INTRA:                  -0.784
REMARK UNBOUND:                -0.741
REMARK SMILES Oc1cc(O)cc(CCc2ccccc2O)c1
REMARK SMILES IDX 9 1 10 2 12 3 13 4 11 5 14 6 15 7 16 8 8 10 7 11 6 12 17 13
REMARK SMILES IDX 4 14 2 15 3 16 5 17 1 19
REMARK H PARENT 16 9 5 18 1 20
REMARK Flexibility Score: inf
ROOT
ATOM      1  C   UNL     1     161.214 176.931 188.033  1.00  0.00     0.044 C 
ENDROOT
BRANCH   1   2
ATOM      2  C   UNL     1     161.171 175.484 187.607  1.00  0.00    -0.006 A 
ATOM      3  C   UNL     1     159.875 173.531 186.960  1.00  0.00     0.001 A 
ATOM      4  C   UNL     1     161.046 172.775 186.878  1.00  0.00     0.004 A 
ATOM      5  C   UNL     1     159.935 174.878 187.327  1.00  0.00     0.007 A 
ATOM      6  C   UNL     1     162.280 173.362 187.169  1.00  0.00     0.046 A 
ATOM      7  C   UNL     1     162.350 174.714 187.539  1.00  0.00     0.118 A 
BRANCH   7   8
ATOM      8  O   UNL     1     163.584 175.290 187.842  1.00  0.00    -0.508 OA
ATOM      9  H   UNL     1     164.087 175.053 188.688  1.00  0.00     0.293 HD
ENDBRANCH   7   8
ENDBRANCH   1   2
BRANCH   1  10
ATOM     10  C   UNL     1     160.744 177.841 186.894  1.00  0.00     0.040 C 
BRANCH  10  11
ATOM     11  C   UNL     1     161.754 177.855 185.779  1.00  0.00    -0.040 A 
ATOM     12  C   UNL     1     161.387 177.454 184.484  1.00  0.00     0.050 A 
ATOM     13  C   UNL     1     163.088 178.214 186.036  1.00  0.00     0.050 A 
ATOM     14  C   UNL     1     162.333 177.435 183.454  1.00  0.00     0.119 A 
ATOM     15  C   UNL     1     164.037 178.196 185.006  1.00  0.00     0.119 A 
ATOM     16  C   UNL     1     163.658 177.809 183.716  1.00  0.00     0.092 A 
BRANCH  14  17
ATOM     17  O   UNL     1     161.947 177.041 182.175  1.00  0.00    -0.508 OA
ATOM     18  H   UNL     1     161.958 176.067 181.895  1.00  0.00     0.293 HD
ENDBRANCH  14  17
BRANCH  15  19
ATOM     19  O   UNL     1     165.359 178.558 185.253  1.00  0.00    -0.508 OA
ATOM     20  H   UNL     1     166.132 177.966 184.971  1.00  0.00     0.293 HD
ENDBRANCH  15  19
ENDBRANCH  10  11
ENDBRANCH   1  10
TORSDOF 6
ENDMDL
MODEL 4
REMARK VINA RESULT:    -5.132     13.215     14.261
REMARK INTER + INTRA:          -7.224
REMARK INTER:                  -6.731
REMARK INTRA:                  -0.493
REMARK UNBOUND:                -0.741
REMARK SMILES Oc1cc(O)cc(CCc2ccccc2O)c1
REMARK SMILES IDX 9 1 10 2 12 3 13 4 11 5 14 6 15 7 16 8 8 10 7 11 6 12 17 13
REMARK SMILES IDX 4 14 2 15 3 16 5 17 1 19
REMARK H PARENT 16 9 5 18 1 20
REMARK Flexibility Score: inf
ROOT
ATOM      1  C   UNL     1     160.337 173.221 186.734  1.00  0.00     0.044 C 
ENDROOT
BRANCH   1   2
ATOM      2  C   UNL     1     161.073 171.949 187.076  1.00  0.00    -0.006 A 
ATOM      3  C   UNL     1     162.706 170.782 188.448  1.00  0.00     0.001 A 
ATOM      4  C   UNL     1     162.513 169.620 187.698  1.00  0.00     0.004 A 
ATOM      5  C   UNL     1     161.994 171.943 188.137  1.00  0.00     0.007 A 
ATOM      6  C   UNL     1     161.611 169.618 186.631  1.00  0.00     0.046 A 
ATOM      7  C   UNL     1     160.892 170.780 186.310  1.00  0.00     0.118 A 
BRANCH   7   8
ATOM      8  O   UNL     1     160.003 170.774 185.234  1.00  0.00    -0.508 OA
ATOM      9  H   UNL     1     160.236 170.324 184.357  1.00  0.00     0.293 HD
ENDBRANCH   7   8
ENDBRANCH   1   2
BRANCH   1  10
ATOM     10  C   UNL     1     161.181 174.098 185.803  1.00  0.00     0.040 C 
BRANCH  10  11
ATOM     11  C   UNL     1     160.973 175.554 186.118  1.00  0.00    -0.040 A 
ATOM     12  C   UNL     1     160.593 176.452 185.107  1.00  0.00     0.050 A 
ATOM     13  C   UNL     1     161.213 176.039 187.415  1.00  0.00     0.050 A 
ATOM     14  C   UNL     1     160.432 177.811 185.391  1.00  0.00     0.119 A 
ATOM     15  C   UNL     1     161.051 177.401 187.702  1.00  0.00     0.119 A 
ATOM     16  C   UNL     1     160.658 178.284 186.691  1.00  0.00     0.092 A 
BRANCH  14  17
ATOM     17  O   UNL     1     160.048 178.685 184.376  1.00  0.00    -0.508 OA
ATOM     18  H   UNL     1     159.281 179.336 184.500  1.00  0.00     0.293 HD
ENDBRANCH  14  17
BRANCH  15  19
ATOM     19  O   UNL     1     161.280 177.887 188.987  1.00  0.00    -0.508 OA
ATOM     20  H   UNL     1     161.664 177.297 189.716  1.00  0.00     0.293 HD
ENDBRANCH  15  19
ENDBRANCH  10  11
ENDBRANCH   1  10
TORSDOF 6
ENDMDL
MODEL 5
REMARK VINA RESULT:    -5.106     10.055     13.178
REMARK INTER + INTRA:          -7.190
REMARK INTER:                  -6.799
REMARK INTRA:                  -0.391
REMARK UNBOUND:                -0.741
REMARK SMILES Oc1cc(O)cc(CCc2ccccc2O)c1
REMARK SMILES IDX 9 1 10 2 12 3 13 4 11 5 14 6 15 7 16 8 8 10 7 11 6 12 17 13
REMARK SMILES IDX 4 14 2 15 3 16 5 17 1 19
REMARK H PARENT 16 9 5 18 1 20
REMARK Flexibility Score: inf
ROOT
ATOM      1  C   UNL     1     161.880 176.364 182.753  1.00  0.00     0.044 C 
ENDROOT
BRANCH   1   2
ATOM      2  C   UNL     1     161.428 176.731 181.361  1.00  0.00    -0.006 A 
ATOM      3  C   UNL     1     160.313 176.108 179.292  1.00  0.00     0.001 A 
ATOM      4  C   UNL     1     160.630 177.351 178.741  1.00  0.00     0.004 A 
ATOM      5  C   UNL     1     160.713 175.796 180.594  1.00  0.00     0.007 A 
ATOM      6  C   UNL     1     161.354 178.284 179.488  1.00  0.00     0.046 A 
ATOM      7  C   UNL     1     161.761 177.979 180.797  1.00  0.00     0.118 A 
BRANCH   7   8
ATOM      8  O   UNL     1     162.496 178.909 181.532  1.00  0.00    -0.508 OA
ATOM      9  H   UNL     1     162.554 178.860 182.542  1.00  0.00     0.293 HD
ENDBRANCH   7   8
ENDBRANCH   1   2
BRANCH   1  10
ATOM     10  C   UNL     1     161.013 177.067 183.803  1.00  0.00     0.040 C 
BRANCH  10  11
ATOM     11  C   UNL     1     161.857 177.541 184.954  1.00  0.00    -0.040 A 
ATOM     12  C   UNL     1     163.189 177.934 184.742  1.00  0.00     0.050 A 
ATOM     13  C   UNL     1     161.339 177.541 186.260  1.00  0.00     0.050 A 
ATOM     14  C   UNL     1     163.985 178.343 185.816  1.00  0.00     0.119 A 
ATOM     15  C   UNL     1     162.135 177.952 187.337  1.00  0.00     0.119 A 
ATOM     16  C   UNL     1     163.455 178.355 187.113  1.00  0.00     0.092 A 
BRANCH  14  17
ATOM     17  O   UNL     1     165.302 178.736 185.585  1.00  0.00    -0.508 OA
ATOM     18  H   UNL     1     165.611 179.684 185.768  1.00  0.00     0.293 HD
ENDBRANCH  14  17
BRANCH  15  19
ATOM     19  O   UNL     1     161.624 177.961 188.633  1.00  0.00    -0.508 OA
ATOM     20  H   UNL     1     160.742 178.408 188.852  1.00  0.00     0.293 HD
ENDBRANCH  15  19
ENDBRANCH  10  11
ENDBRANCH   1  10
TORSDOF 6
ENDMDL
MODEL 6
REMARK VINA RESULT:    -5.103     11.528     13.367
REMARK INTER + INTRA:          -7.187
REMARK INTER:                  -6.553
REMARK INTRA:                  -0.633
REMARK UNBOUND:                -0.741
REMARK SMILES Oc1cc(O)cc(CCc2ccccc2O)c1
REMARK SMILES IDX 9 1 10 2 12 3 13 4 11 5 14 6 15 7 16 8 8 10 7 11 6 12 17 13
REMARK SMILES IDX 4 14 2 15 3 16 5 17 1 19
REMARK H PARENT 16 9 5 18 1 20
REMARK Flexibility Score: inf
ROOT
ATOM      1  C   UNL     1     163.176 174.263 186.893  1.00  0.00     0.044 C 
ENDROOT
BRANCH   1   2
ATOM      2  C   UNL     1     162.391 173.139 187.522  1.00  0.00    -0.006 A 
ATOM      3  C   UNL     1     160.245 172.104 188.010  1.00  0.00     0.001 A 
ATOM      4  C   UNL     1     160.889 171.102 188.740  1.00  0.00     0.004 A 
ATOM      5  C   UNL     1     160.990 173.121 187.409  1.00  0.00     0.007 A 
ATOM      6  C   UNL     1     162.280 171.117 188.873  1.00  0.00     0.046 A 
ATOM      7  C   UNL     1     163.037 172.136 188.272  1.00  0.00     0.118 A 
BRANCH   7   8
ATOM      8  O   UNL     1     164.424 172.152 188.421  1.00  0.00    -0.508 OA
ATOM      9  H   UNL     1     164.880 171.683 189.194  1.00  0.00     0.293 HD
ENDBRANCH   7   8
ENDBRANCH   1   2
BRANCH   1  10
ATOM     10  C   UNL     1     163.229 175.474 187.830  1.00  0.00     0.040 C 
BRANCH  10  11
ATOM     11  C   UNL     1     162.281 176.545 187.362  1.00  0.00    -0.040 A 
ATOM     12  C   UNL     1     161.561 177.311 188.292  1.00  0.00     0.050 A 
ATOM     13  C   UNL     1     162.066 176.749 185.988  1.00  0.00     0.050 A 
ATOM     14  C   UNL     1     160.655 178.284 187.858  1.00  0.00     0.119 A 
ATOM     15  C   UNL     1     161.159 177.723 185.551  1.00  0.00     0.119 A 
ATOM     16  C   UNL     1     160.458 178.491 186.487  1.00  0.00     0.092 A 
BRANCH  14  17
ATOM     17  O   UNL     1     159.955 179.039 188.798  1.00  0.00    -0.508 OA
ATOM     18  H   UNL     1     158.944 179.005 188.856  1.00  0.00     0.293 HD
ENDBRANCH  14  17
BRANCH  15  19
ATOM     19  O   UNL     1     160.946 177.936 184.191  1.00  0.00    -0.508 OA
ATOM     20  H   UNL     1     160.040 177.779 183.766  1.00  0.00     0.293 HD
ENDBRANCH  15  19
ENDBRANCH  10  11
ENDBRANCH   1  10
TORSDOF 6
ENDMDL
MODEL 7
REMARK VINA RESULT:    -5.084      8.814     11.908
REMARK INTER + INTRA:          -7.163
REMARK INTER:                  -6.465
REMARK INTRA:                  -0.697
REMARK UNBOUND:                -0.741
REMARK SMILES Oc1cc(O)cc(CCc2ccccc2O)c1
REMARK SMILES IDX 9 1 10 2 12 3 13 4 11 5 14 6 15 7 16 8 8 10 7 11 6 12 17 13
REMARK SMILES IDX 4 14 2 15 3 16 5 17 1 19
REMARK H PARENT 16 9 5 18 1 20
REMARK Flexibility Score: inf
ROOT
ATOM      1  C   UNL     1     160.816 177.475 187.175  1.00  0.00     0.044 C 
ENDROOT
BRANCH   1   2
ATOM      2  C   UNL     1     160.581 176.065 186.693  1.00  0.00    -0.006 A 
ATOM      3  C   UNL     1     159.896 173.780 187.162  1.00  0.00     0.001 A 
ATOM      4  C   UNL     1     160.197 173.414 185.848  1.00  0.00     0.004 A 
ATOM      5  C   UNL     1     160.091 175.097 187.585  1.00  0.00     0.007 A 
ATOM      6  C   UNL     1     160.700 174.364 184.955  1.00  0.00     0.046 A 
ATOM      7  C   UNL     1     160.900 175.690 185.372  1.00  0.00     0.118 A 
BRANCH   7   8
ATOM      8  O   UNL     1     161.415 176.629 184.479  1.00  0.00    -0.508 OA
ATOM      9  H   UNL     1     161.633 176.386 183.520  1.00  0.00     0.293 HD
ENDBRANCH   7   8
ENDBRANCH   1   2
BRANCH   1  10
ATOM     10  C   UNL     1     161.955 177.511 188.199  1.00  0.00     0.040 C 
BRANCH  10  11
ATOM     11  C   UNL     1     163.260 177.140 187.549  1.00  0.00    -0.040 A 
ATOM     12  C   UNL     1     163.814 175.865 187.746  1.00  0.00     0.050 A 
ATOM     13  C   UNL     1     163.965 178.087 186.787  1.00  0.00     0.050 A 
ATOM     14  C   UNL     1     165.044 175.531 187.170  1.00  0.00     0.119 A 
ATOM     15  C   UNL     1     165.197 177.755 186.208  1.00  0.00     0.119 A 
ATOM     16  C   UNL     1     165.733 176.477 186.398  1.00  0.00     0.092 A 
BRANCH  14  17
ATOM     17  O   UNL     1     165.573 174.258 187.370  1.00  0.00    -0.508 OA
ATOM     18  H   UNL     1     164.977 173.440 187.432  1.00  0.00     0.293 HD
ENDBRANCH  14  17
BRANCH  15  19
ATOM     19  O   UNL     1     165.897 178.686 185.445  1.00  0.00    -0.508 OA
ATOM     20  H   UNL     1     165.777 178.746 184.441  1.00  0.00     0.293 HD
ENDBRANCH  15  19
ENDBRANCH  10  11
ENDBRANCH   1  10
TORSDOF 6
ENDMDL
MODEL 8
REMARK VINA RESULT:    -5.074     10.024     13.189
REMARK INTER + INTRA:          -7.151
REMARK INTER:                  -6.819
REMARK INTRA:                  -0.332
REMARK UNBOUND:                -0.741
REMARK SMILES Oc1cc(O)cc(CCc2ccccc2O)c1
REMARK SMILES IDX 9 1 10 2 12 3 13 4 11 5 14 6 15 7 16 8 8 10 7 11 6 12 17 13
REMARK SMILES IDX 4 14 2 15 3 16 5 17 1 19
REMARK H PARENT 16 9 5 18 1 20
REMARK Flexibility Score: inf
ROOT
ATOM      1  C   UNL     1     161.805 176.331 182.778  1.00  0.00     0.044 C 
ENDROOT
BRANCH   1   2
ATOM      2  C   UNL     1     161.372 176.703 181.382  1.00  0.00    -0.006 A 
ATOM      3  C   UNL     1     160.264 176.099 179.304  1.00  0.00     0.001 A 
ATOM      4  C   UNL     1     160.611 177.335 178.753  1.00  0.00     0.004 A 
ATOM      5  C   UNL     1     160.646 175.781 180.609  1.00  0.00     0.007 A 
ATOM      6  C   UNL     1     161.346 178.254 179.506  1.00  0.00     0.046 A 
ATOM      7  C   UNL     1     161.735 177.944 180.818  1.00  0.00     0.118 A 
BRANCH   7   8
ATOM      8  O   UNL     1     162.481 178.861 181.558  1.00  0.00    -0.508 OA
ATOM      9  H   UNL     1     162.176 179.820 181.676  1.00  0.00     0.293 HD
ENDBRANCH   7   8
ENDBRANCH   1   2
BRANCH   1  10
ATOM     10  C   UNL     1     161.002 177.119 183.818  1.00  0.00     0.040 C 
BRANCH  10  11
ATOM     11  C   UNL     1     161.882 177.523 184.969  1.00  0.00    -0.040 A 
ATOM     12  C   UNL     1     161.372 177.552 186.277  1.00  0.00     0.050 A 
ATOM     13  C   UNL     1     163.207 177.931 184.738  1.00  0.00     0.050 A 
ATOM     14  C   UNL     1     162.179 177.960 187.343  1.00  0.00     0.119 A 
ATOM     15  C   UNL     1     164.018 178.339 185.805  1.00  0.00     0.119 A 
ATOM     16  C   UNL     1     163.504 178.350 187.106  1.00  0.00     0.092 A 
BRANCH  14  17
ATOM     17  O   UNL     1     161.656 177.974 188.635  1.00  0.00    -0.508 OA
ATOM     18  H   UNL     1     161.245 177.145 189.048  1.00  0.00     0.293 HD
ENDBRANCH  14  17
BRANCH  15  19
ATOM     19  O   UNL     1     165.334 178.738 185.583  1.00  0.00    -0.508 OA
ATOM     20  H   UNL     1     165.731 179.541 186.057  1.00  0.00     0.293 HD
ENDBRANCH  15  19
ENDBRANCH  10  11
ENDBRANCH   1  10
TORSDOF 6
ENDMDL
MODEL 9
REMARK VINA RESULT:    -5.033     12.850     14.235
REMARK INTER + INTRA:          -7.098
REMARK INTER:                  -6.656
REMARK INTRA:                  -0.442
REMARK UNBOUND:                -0.741
REMARK SMILES Oc1cc(O)cc(CCc2ccccc2O)c1
REMARK SMILES IDX 9 1 10 2 12 3 13 4 11 5 14 6 15 7 16 8 8 10 7 11 6 12 17 13
REMARK SMILES IDX 4 14 2 15 3 16 5 17 1 19
REMARK H PARENT 16 9 5 18 1 20
REMARK Flexibility Score: inf
ROOT
ATOM      1  C   UNL     1     161.784 177.501 182.982  1.00  0.00     0.044 C 
ENDROOT
BRANCH   1   2
ATOM      2  C   UNL     1     161.542 177.322 181.504  1.00  0.00    -0.006 A 
ATOM      3  C   UNL     1     161.187 175.843 179.607  1.00  0.00     0.001 A 
ATOM      4  C   UNL     1     161.159 176.943 178.747  1.00  0.00     0.004 A 
ATOM      5  C   UNL     1     161.382 176.029 180.977  1.00  0.00     0.007 A 
ATOM      6  C   UNL     1     161.333 178.233 179.257  1.00  0.00     0.046 A 
ATOM      7  C   UNL     1     161.531 178.429 180.632  1.00  0.00     0.118 A 
BRANCH   7   8
ATOM      8  O   UNL     1     161.717 179.719 181.132  1.00  0.00    -0.508 OA
ATOM      9  H   UNL     1     161.278 180.023 181.992  1.00  0.00     0.293 HD
ENDBRANCH   7   8
ENDBRANCH   1   2
BRANCH   1  10
ATOM     10  C   UNL     1     160.458 177.499 183.749  1.00  0.00     0.040 C 
BRANCH  10  11
ATOM     11  C   UNL     1     160.657 176.974 185.145  1.00  0.00    -0.040 A 
ATOM     12  C   UNL     1     160.683 175.590 185.386  1.00  0.00     0.050 A 
ATOM     13  C   UNL     1     160.759 177.863 186.228  1.00  0.00     0.050 A 
ATOM     14  C   UNL     1     160.834 175.101 186.687  1.00  0.00     0.119 A 
ATOM     15  C   UNL     1     160.911 177.375 187.532  1.00  0.00     0.119 A 
ATOM     16  C   UNL     1     160.951 175.995 187.759  1.00  0.00     0.092 A 
BRANCH  14  17
ATOM     17  O   UNL     1     160.866 173.725 186.904  1.00  0.00    -0.508 OA
ATOM     18  H   UNL     1     161.550 173.302 187.521  1.00  0.00     0.293 HD
ENDBRANCH  14  17
BRANCH  15  19
ATOM     19  O   UNL     1     161.021 178.252 188.609  1.00  0.00    -0.508 OA
ATOM     20  H   UNL     1     160.838 179.243 188.506  1.00  0.00     0.293 HD
ENDBRANCH  15  19
ENDBRANCH  10  11
ENDBRANCH   1  10
TORSDOF 6
ENDMDL
