MODEL 1
REMARK VINA RESULT:    -2.961      0.000      0.000
REMARK INTER + INTRA:          -3.328
REMARK INTER:                  -3.307
REMARK INTRA:                  -0.021
REMARK UNBOUND:                -0.021
REMARK SMILES CCCC(=O)[O-]
REMARK SMILES IDX 3 1 4 2 5 3 6 4 2 5 1 6
REMARK H PARENT
REMARK Flexibility Score: inf
ROOT
ATOM      1  C   UNL     1     120.487  72.690   3.577  1.00  0.00     0.052 C 
ENDROOT
BRANCH   1   2
ATOM      2  C   UNL     1     120.679  71.218   3.780  1.00  0.00     0.041 C 
ATOM      3  O   UNL     1     121.425  70.797   4.703  1.00  0.00    -0.550 OA
ATOM      4  O   UNL     1     120.059  70.312   2.930  1.00  0.00    -0.550 OA
ENDBRANCH   1   2
BRANCH   1   5
ATOM      5  C   UNL     1     120.926  73.131   2.175  1.00  0.00     0.003 C 
ATOM      6  C   UNL     1     119.912  74.068   1.517  1.00  0.00     0.004 C 
ENDBRANCH   1   5
TORSDOF 2
ENDMDL
MODEL 2
REMARK VINA RESULT:    -2.955      0.101      1.325
REMARK INTER + INTRA:          -3.322
REMARK INTER:                  -3.300
REMARK INTRA:                  -0.022
REMARK UNBOUND:                -0.021
REMARK SMILES CCCC(=O)[O-]
REMARK SMILES IDX 3 1 4 2 5 3 6 4 2 5 1 6
REMARK H PARENT
REMARK Flexibility Score: inf
ROOT
ATOM      1  C   UNL     1     120.419  72.668   3.592  1.00  0.00     0.052 C 
ENDROOT
BRANCH   1   2
ATOM      2  C   UNL     1     120.660  71.204   3.799  1.00  0.00     0.041 C 
ATOM      3  O   UNL     1     120.053  70.356   3.093  1.00  0.00    -0.550 OA
ATOM      4  O   UNL     1     121.529  70.775   4.793  1.00  0.00    -0.550 OA
ENDBRANCH   1   2
BRANCH   1   5
ATOM      5  C   UNL     1     120.941  73.142   2.230  1.00  0.00     0.003 C 
ATOM      6  C   UNL     1     119.927  74.018   1.493  1.00  0.00     0.004 C 
ENDBRANCH   1   5
TORSDOF 2
ENDMDL
MODEL 3
REMARK VINA RESULT:    -2.766      2.625      2.935
REMARK INTER + INTRA:          -3.110
REMARK INTER:                  -3.084
REMARK INTRA:                  -0.026
REMARK UNBOUND:                -0.021
REMARK SMILES CCCC(=O)[O-]
REMARK SMILES IDX 3 1 4 2 5 3 6 4 2 5 1 6
REMARK H PARENT
REMARK Flexibility Score: inf
ROOT
ATOM      1  C   UNL     1     120.752  71.688   1.048  1.00  0.00     0.052 C 
ENDROOT
BRANCH   1   2
ATOM      2  C   UNL     1     120.868  71.707   2.542  1.00  0.00     0.041 C 
ATOM      3  O   UNL     1     121.379  72.699   3.126  1.00  0.00    -0.550 OA
ATOM      4  O   UNL     1     120.440  70.615   3.286  1.00  0.00    -0.550 OA
ENDBRANCH   1   2
BRANCH   1   5
ATOM      5  C   UNL     1     120.354  70.301   0.527  1.00  0.00     0.003 C 
ATOM      6  C   UNL     1     121.397  69.719  -0.428  1.00  0.00     0.004 C 
ENDBRANCH   1   5
TORSDOF 2
ENDMDL
MODEL 4
REMARK VINA RESULT:    -2.589      5.049      5.557
REMARK INTER + INTRA:          -2.913
REMARK INTER:                  -2.907
REMARK INTRA:                  -0.006
REMARK UNBOUND:                -0.021
REMARK SMILES CCCC(=O)[O-]
REMARK SMILES IDX 3 1 4 2 5 3 6 4 2 5 1 6
REMARK H PARENT
REMARK Flexibility Score: inf
ROOT
ATOM      1  C   UNL     1     120.209  68.172   0.239  1.00  0.00     0.052 C 
ENDROOT
BRANCH   1   2
ATOM      2  C   UNL     1     120.389  66.853  -0.449  1.00  0.00     0.041 C 
ATOM      3  O   UNL     1     120.641  65.817   0.221  1.00  0.00    -0.550 OA
ATOM      4  O   UNL     1     120.310  66.775  -1.833  1.00  0.00    -0.550 OA
ENDBRANCH   1   2
BRANCH   1   5
ATOM      5  C   UNL     1     121.158  69.238  -0.322  1.00  0.00     0.003 C 
ATOM      6  C   UNL     1     120.945  70.605   0.330  1.00  0.00     0.004 C 
ENDBRANCH   1   5
TORSDOF 2
ENDMDL
MODEL 5
REMARK VINA RESULT:    -2.536      1.757      2.471
REMARK INTER + INTRA:          -2.854
REMARK INTER:                  -2.839
REMARK INTRA:                  -0.015
REMARK UNBOUND:                -0.021
REMARK SMILES CCCC(=O)[O-]
REMARK SMILES IDX 3 1 4 2 5 3 6 4 2 5 1 6
REMARK H PARENT
REMARK Flexibility Score: inf
ROOT
ATOM      1  C   UNL     1     120.259  72.136   1.323  1.00  0.00     0.052 C 
ENDROOT
BRANCH   1   2
ATOM      2  C   UNL     1     120.523  70.662   1.281  1.00  0.00     0.041 C 
ATOM      3  O   UNL     1     119.973  69.895   2.115  1.00  0.00    -0.550 OA
ATOM      4  O   UNL     1     121.403  70.139   0.342  1.00  0.00    -0.550 OA
ENDBRANCH   1   2
BRANCH   1   5
ATOM      5  C   UNL     1     121.002  72.813   2.481  1.00  0.00     0.003 C 
ATOM      6  C   UNL     1     120.137  72.930   3.737  1.00  0.00     0.004 C 
ENDBRANCH   1   5
TORSDOF 2
ENDMDL
MODEL 6
REMARK VINA RESULT:    -2.500      5.406      5.769
REMARK INTER + INTRA:          -2.814
REMARK INTER:                  -2.794
REMARK INTRA:                  -0.020
REMARK UNBOUND:                -0.021
REMARK SMILES CCCC(=O)[O-]
REMARK SMILES IDX 3 1 4 2 5 3 6 4 2 5 1 6
REMARK H PARENT
REMARK Flexibility Score: inf
ROOT
ATOM      1  C   UNL     1     119.984  68.167  -1.664  1.00  0.00     0.052 C 
ENDROOT
BRANCH   1   2
ATOM      2  C   UNL     1     120.659  68.237  -0.328  1.00  0.00     0.041 C 
ATOM      3  O   UNL     1     120.257  67.518   0.624  1.00  0.00    -0.550 OA
ATOM      4  O   UNL     1     121.711  69.122  -0.126  1.00  0.00    -0.550 OA
ENDBRANCH   1   2
BRANCH   1   5
ATOM      5  C   UNL     1     119.875  69.550  -2.318  1.00  0.00     0.003 C 
ATOM      6  C   UNL     1     120.123  69.501  -3.826  1.00  0.00     0.004 C 
ENDBRANCH   1   5
TORSDOF 2
ENDMDL
MODEL 7
REMARK VINA RESULT:    -2.467      2.915      3.475
REMARK INTER + INTRA:          -2.776
REMARK INTER:                  -2.769
REMARK INTRA:                  -0.007
REMARK UNBOUND:                -0.021
REMARK SMILES CCCC(=O)[O-]
REMARK SMILES IDX 3 1 4 2 5 3 6 4 2 5 1 6
REMARK H PARENT
REMARK Flexibility Score: inf
ROOT
ATOM      1  C   UNL     1     120.135  71.067   0.589  1.00  0.00     0.052 C 
ENDROOT
BRANCH   1   2
ATOM      2  C   UNL     1     120.796  69.832   0.058  1.00  0.00     0.041 C 
ATOM      3  O   UNL     1     121.524  69.893  -0.967  1.00  0.00    -0.550 OA
ATOM      4  O   UNL     1     120.580  68.607   0.676  1.00  0.00    -0.550 OA
ENDBRANCH   1   2
BRANCH   1   5
ATOM      5  C   UNL     1     120.949  71.704   1.722  1.00  0.00     0.003 C 
ATOM      6  C   UNL     1     120.746  73.217   1.803  1.00  0.00     0.004 C 
ENDBRANCH   1   5
TORSDOF 2
ENDMDL
MODEL 8
REMARK VINA RESULT:    -2.444      2.403      3.485
REMARK INTER + INTRA:          -2.751
REMARK INTER:                  -2.721
REMARK INTRA:                  -0.030
REMARK UNBOUND:                -0.021
REMARK SMILES CCCC(=O)[O-]
REMARK SMILES IDX 3 1 4 2 5 3 6 4 2 5 1 6
REMARK H PARENT
REMARK Flexibility Score: inf
ROOT
ATOM      1  C   UNL     1     119.892  71.890   5.457  1.00  0.00     0.052 C 
ENDROOT
BRANCH   1   2
ATOM      2  C   UNL     1     120.722  71.013   4.571  1.00  0.00     0.041 C 
ATOM      3  O   UNL     1     121.917  70.756   4.872  1.00  0.00    -0.550 OA
ATOM      4  O   UNL     1     120.186  70.507   3.394  1.00  0.00    -0.550 OA
ENDBRANCH   1   2
BRANCH   1   5
ATOM      5  C   UNL     1     120.088  71.547   6.939  1.00  0.00     0.003 C 
ATOM      6  C   UNL     1     120.363  72.787   7.791  1.00  0.00     0.004 C 
ENDBRANCH   1   5
TORSDOF 2
ENDMDL
MODEL 9
REMARK VINA RESULT:    -2.266      1.884      3.176
REMARK INTER + INTRA:          -2.552
REMARK INTER:                  -2.543
REMARK INTRA:                  -0.009
REMARK UNBOUND:                -0.021
REMARK SMILES CCCC(=O)[O-]
REMARK SMILES IDX 3 1 4 2 5 3 6 4 2 5 1 6
REMARK H PARENT
REMARK Flexibility Score: inf
ROOT
ATOM      1  C   UNL     1     120.703  72.531   3.665  1.00  0.00     0.052 C 
ENDROOT
BRANCH   1   2
ATOM      2  C   UNL     1     120.960  72.346   2.201  1.00  0.00     0.041 C 
ATOM      3  O   UNL     1     120.859  73.321   1.411  1.00  0.00    -0.550 OA
ATOM      4  O   UNL     1     121.277  71.088   1.705  1.00  0.00    -0.550 OA
ENDBRANCH   1   2
BRANCH   1   5
ATOM      5  C   UNL     1     120.616  71.188   4.401  1.00  0.00     0.003 C 
ATOM      6  C   UNL     1     120.323  71.361   5.892  1.00  0.00     0.004 C 
ENDBRANCH   1   5
TORSDOF 2
ENDMDL
