MODEL 1
REMARK VINA RESULT:    -6.711      0.000      0.000
REMARK INTER + INTRA:          -9.049
REMARK INTER:                  -8.281
REMARK INTRA:                  -0.768
REMARK UNBOUND:                -0.768
REMARK SMILES CC(C)=CCC[C@H](C)c1ccc(C)cc1
REMARK SMILES IDX 6 1 7 2 8 3 9 4 13 5 12 6 11 7 14 8 10 9 15 10 5 11 4 12
REMARK SMILES IDX 2 13 1 14 3 15
REMARK H PARENT
REMARK Flexibility Score: inf
ROOT
ATOM      1  C   UNL     1      22.585  24.943  35.131  1.00  0.00     0.012 C 
ENDROOT
BRANCH   1   2
ATOM      2  C   UNL     1      23.354  25.921  34.217  1.00  0.00     0.016 C 
ATOM      3  C   UNL     1      24.769  26.169  34.753  1.00  0.00     0.013 C 
BRANCH   2   4
ATOM      4  C   UNL     1      22.612  27.237  34.045  1.00  0.00    -0.045 A 
ATOM      5  C   UNL     1      20.458  30.961  33.657  1.00  0.00     0.044 C 
ATOM      6  C   UNL     1      21.209  29.666  33.759  1.00  0.00    -0.051 A 
ATOM      7  C   UNL     1      22.606  29.666  33.874  1.00  0.00     0.004 A 
ATOM      8  C   UNL     1      20.514  28.449  33.811  1.00  0.00     0.004 A 
ATOM      9  C   UNL     1      23.303  28.463  34.008  1.00  0.00     0.004 A 
ATOM     10  C   UNL     1      21.209  27.245  33.946  1.00  0.00     0.004 A 
ENDBRANCH   2   4
ENDBRANCH   1   2
BRANCH   1  11
ATOM     11  C   UNL     1      22.369  23.577  34.463  1.00  0.00     0.028 C 
BRANCH  11  12
ATOM     12  C   UNL     1      23.075  22.488  35.231  1.00  0.00    -0.028 C 
ATOM     13  C   UNL     1      24.237  21.916  34.844  1.00  0.00    -0.080 C 
ATOM     14  C   UNL     1      24.978  22.363  33.605  1.00  0.00     0.039 C 
ATOM     15  C   UNL     1      24.810  20.810  35.693  1.00  0.00     0.039 C 
ENDBRANCH  11  12
ENDBRANCH   1  11
TORSDOF 4
ENDMDL
MODEL 2
REMARK VINA RESULT:    -6.662      1.924      3.731
REMARK INTER + INTRA:          -8.988
REMARK INTER:                  -8.320
REMARK INTRA:                  -0.668
REMARK UNBOUND:                -0.768
REMARK SMILES CC(C)=CCC[C@H](C)c1ccc(C)cc1
REMARK SMILES IDX 6 1 7 2 8 3 9 4 13 5 12 6 11 7 14 8 10 9 15 10 5 11 4 12
REMARK SMILES IDX 2 13 1 14 3 15
REMARK H PARENT
REMARK Flexibility Score: inf
ROOT
ATOM      1  C   UNL     1      24.262  22.769  33.691  1.00  0.00     0.012 C 
ENDROOT
BRANCH   1   2
ATOM      2  C   UNL     1      23.686  23.486  34.931  1.00  0.00     0.016 C 
ATOM      3  C   UNL     1      22.476  22.725  35.486  1.00  0.00     0.013 C 
BRANCH   2   4
ATOM      4  C   UNL     1      23.314  24.929  34.630  1.00  0.00    -0.045 A 
ATOM      5  C   UNL     1      22.324  29.024  33.680  1.00  0.00     0.044 C 
ATOM      6  C   UNL     1      22.660  27.607  34.041  1.00  0.00    -0.051 A 
ATOM      7  C   UNL     1      21.684  26.605  33.951  1.00  0.00     0.004 A 
ATOM      8  C   UNL     1      23.969  27.262  34.405  1.00  0.00     0.004 A 
ATOM      9  C   UNL     1      22.005  25.279  34.249  1.00  0.00     0.004 A 
ATOM     10  C   UNL     1      24.292  25.936  34.702  1.00  0.00     0.004 A 
ENDBRANCH   2   4
ENDBRANCH   1   2
BRANCH   1  11
ATOM     11  C   UNL     1      25.781  22.567  33.795  1.00  0.00     0.028 C 
BRANCH  11  12
ATOM     12  C   UNL     1      26.510  23.511  32.873  1.00  0.00    -0.028 C 
ATOM     13  C   UNL     1      27.663  23.211  32.234  1.00  0.00    -0.080 C 
ATOM     14  C   UNL     1      28.312  21.851  32.347  1.00  0.00     0.039 C 
ATOM     15  C   UNL     1      28.302  24.269  31.370  1.00  0.00     0.039 C 
ENDBRANCH  11  12
ENDBRANCH   1  11
TORSDOF 4
ENDMDL
MODEL 3
REMARK VINA RESULT:    -6.634      1.878      3.410
REMARK INTER + INTRA:          -8.953
REMARK INTER:                  -8.290
REMARK INTRA:                  -0.664
REMARK UNBOUND:                -0.768
REMARK SMILES CC(C)=CCC[C@H](C)c1ccc(C)cc1
REMARK SMILES IDX 6 1 7 2 8 3 9 4 13 5 12 6 11 7 14 8 10 9 15 10 5 11 4 12
REMARK SMILES IDX 2 13 1 14 3 15
REMARK H PARENT
REMARK Flexibility Score: inf
ROOT
ATOM      1  C   UNL     1      24.259  22.866  33.927  1.00  0.00     0.012 C 
ENDROOT
BRANCH   1   2
ATOM      2  C   UNL     1      23.686  23.676  35.110  1.00  0.00     0.016 C 
ATOM      3  C   UNL     1      22.451  22.982  35.697  1.00  0.00     0.013 C 
BRANCH   2   4
ATOM      4  C   UNL     1      23.355  25.105  34.711  1.00  0.00    -0.045 A 
ATOM      5  C   UNL     1      22.356  29.177  33.673  1.00  0.00     0.044 C 
ATOM      6  C   UNL     1      22.709  27.756  34.002  1.00  0.00    -0.051 A 
ATOM      7  C   UNL     1      24.030  27.412  34.320  1.00  0.00     0.004 A 
ATOM      8  C   UNL     1      21.709  26.776  34.062  1.00  0.00     0.004 A 
ATOM      9  C   UNL     1      24.353  26.097  34.664  1.00  0.00     0.004 A 
ATOM     10  C   UNL     1      22.030  25.460  34.408  1.00  0.00     0.004 A 
ENDBRANCH   2   4
ENDBRANCH   1   2
BRANCH   1  11
ATOM     11  C   UNL     1      25.779  22.678  34.037  1.00  0.00     0.028 C 
BRANCH  11  12
ATOM     12  C   UNL     1      26.501  23.562  33.051  1.00  0.00    -0.028 C 
ATOM     13  C   UNL     1      27.579  23.178  32.333  1.00  0.00    -0.080 C 
ATOM     14  C   UNL     1      28.140  21.776  32.415  1.00  0.00     0.039 C 
ATOM     15  C   UNL     1      28.223  24.182  31.411  1.00  0.00     0.039 C 
ENDBRANCH  11  12
ENDBRANCH   1  11
TORSDOF 4
ENDMDL
MODEL 4
REMARK VINA RESULT:    -6.598      2.618      3.856
REMARK INTER + INTRA:          -8.909
REMARK INTER:                  -8.113
REMARK INTRA:                  -0.795
REMARK UNBOUND:                -0.768
REMARK SMILES CC(C)=CCC[C@H](C)c1ccc(C)cc1
REMARK SMILES IDX 6 1 7 2 8 3 9 4 13 5 12 6 11 7 14 8 10 9 15 10 5 11 4 12
REMARK SMILES IDX 2 13 1 14 3 15
REMARK H PARENT
REMARK Flexibility Score: inf
ROOT
ATOM      1  C   UNL     1      22.257  27.246  34.008  1.00  0.00     0.012 C 
ENDROOT
BRANCH   1   2
ATOM      2  C   UNL     1      21.109  26.220  33.891  1.00  0.00     0.016 C 
ATOM      3  C   UNL     1      20.511  26.231  32.479  1.00  0.00     0.013 C 
BRANCH   2   4
ATOM      4  C   UNL     1      20.026  26.462  34.930  1.00  0.00    -0.045 A 
ATOM      5  C   UNL     1      16.874  27.096  37.814  1.00  0.00     0.044 C 
ATOM      6  C   UNL     1      17.986  26.900  36.826  1.00  0.00    -0.051 A 
ATOM      7  C   UNL     1      19.027  26.003  37.103  1.00  0.00     0.004 A 
ATOM      8  C   UNL     1      17.956  27.559  35.589  1.00  0.00     0.004 A 
ATOM      9  C   UNL     1      20.042  25.791  36.168  1.00  0.00     0.004 A 
ATOM     10  C   UNL     1      18.970  27.347  34.652  1.00  0.00     0.004 A 
ENDBRANCH   2   4
ENDBRANCH   1   2
BRANCH   1  11
ATOM     11  C   UNL     1      23.588  26.583  34.388  1.00  0.00     0.028 C 
BRANCH  11  12
ATOM     12  C   UNL     1      23.352  25.236  35.024  1.00  0.00    -0.028 C 
ATOM     13  C   UNL     1      23.786  24.064  34.507  1.00  0.00    -0.080 C 
ATOM     14  C   UNL     1      24.611  24.003  33.243  1.00  0.00     0.039 C 
ATOM     15  C   UNL     1      23.443  22.789  35.233  1.00  0.00     0.039 C 
ENDBRANCH  11  12
ENDBRANCH   1  11
TORSDOF 4
ENDMDL
MODEL 5
REMARK VINA RESULT:    -6.554      1.919      6.924
REMARK INTER + INTRA:          -8.854
REMARK INTER:                  -8.250
REMARK INTRA:                  -0.604
REMARK UNBOUND:                -0.768
REMARK SMILES CC(C)=CCC[C@H](C)c1ccc(C)cc1
REMARK SMILES IDX 6 1 7 2 8 3 9 4 13 5 12 6 11 7 14 8 10 9 15 10 5 11 4 12
REMARK SMILES IDX 2 13 1 14 3 15
REMARK H PARENT
REMARK Flexibility Score: inf
ROOT
ATOM      1  C   UNL     1      23.118  24.083  33.691  1.00  0.00     0.012 C 
ENDROOT
BRANCH   1   2
ATOM      2  C   UNL     1      23.889  22.905  34.322  1.00  0.00     0.016 C 
ATOM      3  C   UNL     1      24.052  23.107  35.834  1.00  0.00     0.013 C 
BRANCH   2   4
ATOM      4  C   UNL     1      25.244  22.697  33.664  1.00  0.00    -0.045 A 
ATOM      5  C   UNL     1      29.042  22.047  31.713  1.00  0.00     0.044 C 
ATOM      6  C   UNL     1      27.738  22.279  32.419  1.00  0.00    -0.051 A 
ATOM      7  C   UNL     1      27.164  23.558  32.438  1.00  0.00     0.004 A 
ATOM      8  C   UNL     1      27.051  21.207  33.004  1.00  0.00     0.004 A 
ATOM      9  C   UNL     1      25.931  23.767  33.061  1.00  0.00     0.004 A 
ATOM     10  C   UNL     1      25.818  21.415  33.627  1.00  0.00     0.004 A 
ENDBRANCH   2   4
ENDBRANCH   1   2
BRANCH   1  11
ATOM     11  C   UNL     1      22.554  25.040  34.752  1.00  0.00     0.028 C 
BRANCH  11  12
ATOM     12  C   UNL     1      22.820  26.475  34.374  1.00  0.00    -0.028 C 
ATOM     13  C   UNL     1      21.864  27.349  33.987  1.00  0.00    -0.080 C 
ATOM     14  C   UNL     1      20.401  26.972  33.948  1.00  0.00     0.039 C 
ATOM     15  C   UNL     1      22.282  28.745  33.601  1.00  0.00     0.039 C 
ENDBRANCH  11  12
ENDBRANCH   1  11
TORSDOF 4
ENDMDL
MODEL 6
REMARK VINA RESULT:    -6.536      1.286      1.913
REMARK INTER + INTRA:          -8.833
REMARK INTER:                  -8.346
REMARK INTRA:                  -0.487
REMARK UNBOUND:                -0.768
REMARK SMILES CC(C)=CCC[C@H](C)c1ccc(C)cc1
REMARK SMILES IDX 6 1 7 2 8 3 9 4 13 5 12 6 11 7 14 8 10 9 15 10 5 11 4 12
REMARK SMILES IDX 2 13 1 14 3 15
REMARK H PARENT
REMARK Flexibility Score: inf
ROOT
ATOM      1  C   UNL     1      23.442  24.094  33.459  1.00  0.00     0.012 C 
ENDROOT
BRANCH   1   2
ATOM      2  C   UNL     1      23.220  24.953  34.722  1.00  0.00     0.016 C 
ATOM      3  C   UNL     1      22.298  24.234  35.714  1.00  0.00     0.013 C 
BRANCH   2   4
ATOM      4  C   UNL     1      22.667  26.328  34.381  1.00  0.00    -0.045 A 
ATOM      5  C   UNL     1      21.051  30.239  33.517  1.00  0.00     0.044 C 
ATOM      6  C   UNL     1      21.615  28.875  33.785  1.00  0.00    -0.051 A 
ATOM      7  C   UNL     1      22.998  28.696  33.919  1.00  0.00     0.004 A 
ATOM      8  C   UNL     1      20.758  27.781  33.972  1.00  0.00     0.004 A 
ATOM      9  C   UNL     1      23.522  27.433  34.207  1.00  0.00     0.004 A 
ATOM     10  C   UNL     1      21.279  26.517  34.262  1.00  0.00     0.004 A 
ENDBRANCH   2   4
ENDBRANCH   1   2
BRANCH   1  11
ATOM     11  C   UNL     1      24.884  23.575  33.359  1.00  0.00     0.028 C 
BRANCH  11  12
ATOM     12  C   UNL     1      24.933  22.084  33.583  1.00  0.00    -0.028 C 
ATOM     13  C   UNL     1      26.014  21.313  33.333  1.00  0.00    -0.080 C 
ATOM     14  C   UNL     1      27.320  21.896  32.845  1.00  0.00     0.039 C 
ATOM     15  C   UNL     1      25.906  19.827  33.568  1.00  0.00     0.039 C 
ENDBRANCH  11  12
ENDBRANCH   1  11
TORSDOF 4
ENDMDL
MODEL 7
REMARK VINA RESULT:    -6.522      1.676      6.868
REMARK INTER + INTRA:          -8.815
REMARK INTER:                  -8.270
REMARK INTRA:                  -0.546
REMARK UNBOUND:                -0.768
REMARK SMILES CC(C)=CCC[C@H](C)c1ccc(C)cc1
REMARK SMILES IDX 6 1 7 2 8 3 9 4 13 5 12 6 11 7 14 8 10 9 15 10 5 11 4 12
REMARK SMILES IDX 2 13 1 14 3 15
REMARK H PARENT
REMARK Flexibility Score: inf
ROOT
ATOM      1  C   UNL     1      23.640  24.965  35.146  1.00  0.00     0.012 C 
ENDROOT
BRANCH   1   2
ATOM      2  C   UNL     1      23.436  23.675  34.323  1.00  0.00     0.016 C 
ATOM      3  C   UNL     1      22.725  22.603  35.158  1.00  0.00     0.013 C 
BRANCH   2   4
ATOM      4  C   UNL     1      24.748  23.140  33.774  1.00  0.00    -0.045 A 
ATOM      5  C   UNL     1      28.532  21.672  32.297  1.00  0.00     0.044 C 
ATOM      6  C   UNL     1      27.205  22.177  32.781  1.00  0.00    -0.051 A 
ATOM      7  C   UNL     1      26.280  21.294  33.355  1.00  0.00     0.004 A 
ATOM      8  C   UNL     1      26.907  23.546  32.725  1.00  0.00     0.004 A 
ATOM      9  C   UNL     1      25.060  21.768  33.841  1.00  0.00     0.004 A 
ATOM     10  C   UNL     1      25.687  24.022  33.212  1.00  0.00     0.004 A 
ENDBRANCH   2   4
ENDBRANCH   1   2
BRANCH   1  11
ATOM     11  C   UNL     1      23.111  26.208  34.415  1.00  0.00     0.028 C 
BRANCH  11  12
ATOM     12  C   UNL     1      21.603  26.236  34.431  1.00  0.00    -0.028 C 
ATOM     13  C   UNL     1      20.857  27.266  33.973  1.00  0.00    -0.080 C 
ATOM     14  C   UNL     1      21.480  28.489  33.341  1.00  0.00     0.039 C 
ATOM     15  C   UNL     1      19.357  27.172  34.087  1.00  0.00     0.039 C 
ENDBRANCH  11  12
ENDBRANCH   1  11
TORSDOF 4
ENDMDL
MODEL 8
REMARK VINA RESULT:    -6.459      1.182      6.845
REMARK INTER + INTRA:          -8.738
REMARK INTER:                  -8.221
REMARK INTRA:                  -0.517
REMARK UNBOUND:                -0.768
REMARK SMILES CC(C)=CCC[C@H](C)c1ccc(C)cc1
REMARK SMILES IDX 6 1 7 2 8 3 9 4 13 5 12 6 11 7 14 8 10 9 15 10 5 11 4 12
REMARK SMILES IDX 2 13 1 14 3 15
REMARK H PARENT
REMARK Flexibility Score: inf
ROOT
ATOM      1  C   UNL     1      21.691  25.880  34.429  1.00  0.00     0.012 C 
ENDROOT
BRANCH   1   2
ATOM      2  C   UNL     1      22.409  25.001  33.383  1.00  0.00     0.016 C 
ATOM      3  C   UNL     1      21.454  24.617  32.247  1.00  0.00     0.013 C 
BRANCH   2   4
ATOM      4  C   UNL     1      23.018  23.757  34.010  1.00  0.00    -0.045 A 
ATOM      5  C   UNL     1      24.834  20.286  35.829  1.00  0.00     0.044 C 
ATOM      6  C   UNL     1      24.186  21.472  35.178  1.00  0.00    -0.051 A 
ATOM      7  C   UNL     1      22.995  22.000  35.696  1.00  0.00     0.004 A 
ATOM      8  C   UNL     1      24.803  22.104  34.089  1.00  0.00     0.004 A 
ATOM      9  C   UNL     1      22.411  23.127  35.114  1.00  0.00     0.004 A 
ATOM     10  C   UNL     1      24.221  23.234  33.506  1.00  0.00     0.004 A 
ENDBRANCH   2   4
ENDBRANCH   1   2
BRANCH   1  11
ATOM     11  C   UNL     1      21.451  27.308  33.918  1.00  0.00     0.028 C 
BRANCH  11  12
ATOM     12  C   UNL     1      22.731  28.106  33.940  1.00  0.00    -0.028 C 
ATOM     13  C   UNL     1      22.786  29.456  33.897  1.00  0.00    -0.080 C 
ATOM     14  C   UNL     1      21.538  30.309  33.877  1.00  0.00     0.039 C 
ATOM     15  C   UNL     1      24.139  30.120  33.888  1.00  0.00     0.039 C 
ENDBRANCH  11  12
ENDBRANCH   1  11
TORSDOF 4
ENDMDL
MODEL 9
REMARK VINA RESULT:    -6.312      2.557      3.609
REMARK INTER + INTRA:          -8.556
REMARK INTER:                  -7.871
REMARK INTRA:                  -0.685
REMARK UNBOUND:                -0.768
REMARK SMILES CC(C)=CCC[C@H](C)c1ccc(C)cc1
REMARK SMILES IDX 6 1 7 2 8 3 9 4 13 5 12 6 11 7 14 8 10 9 15 10 5 11 4 12
REMARK SMILES IDX 2 13 1 14 3 15
REMARK H PARENT
REMARK Flexibility Score: inf
ROOT
ATOM      1  C   UNL     1      22.424  25.521  34.575  1.00  0.00     0.012 C 
ENDROOT
BRANCH   1   2
ATOM      2  C   UNL     1      21.303  26.406  33.989  1.00  0.00     0.016 C 
ATOM      3  C   UNL     1      21.839  27.797  33.629  1.00  0.00     0.013 C 
BRANCH   2   4
ATOM      4  C   UNL     1      20.118  26.520  34.935  1.00  0.00    -0.045 A 
ATOM      5  C   UNL     1      16.818  26.903  37.695  1.00  0.00     0.044 C 
ATOM      6  C   UNL     1      17.950  26.744  36.723  1.00  0.00    -0.051 A 
ATOM      7  C   UNL     1      17.922  27.414  35.492  1.00  0.00     0.004 A 
ATOM      8  C   UNL     1      19.074  25.981  37.067  1.00  0.00     0.004 A 
ATOM      9  C   UNL     1      18.993  27.298  34.602  1.00  0.00     0.004 A 
ATOM     10  C   UNL     1      20.147  25.865  36.179  1.00  0.00     0.004 A 
ENDBRANCH   2   4
ENDBRANCH   1   2
BRANCH   1  11
ATOM     11  C   UNL     1      22.614  24.224  33.774  1.00  0.00     0.028 C 
BRANCH  11  12
ATOM     12  C   UNL     1      23.604  23.314  34.458  1.00  0.00    -0.028 C 
ATOM     13  C   UNL     1      23.270  22.385  35.381  1.00  0.00    -0.080 C 
ATOM     14  C   UNL     1      21.835  22.131  35.781  1.00  0.00     0.039 C 
ATOM     15  C   UNL     1      24.372  21.570  36.010  1.00  0.00     0.039 C 
ENDBRANCH  11  12
ENDBRANCH   1  11
TORSDOF 4
ENDMDL
