MODEL 1
REMARK VINA RESULT:     4.194      0.000      0.000
REMARK INTER + INTRA:           5.255
REMARK INTER:                   5.175
REMARK INTRA:                   0.080
REMARK UNBOUND:                 0.080
REMARK SMILES COc1cc(-c2oc3cc(O)cc(O)c3c(=O)c2O)ccc1O
REMARK SMILES IDX 6 1 18 2 16 3 17 4 15 5 13 6 12 7 10 8 9 9 8 10 7 11 5 12
REMARK SMILES IDX 3 13 22 14 4 15 21 16 20 17 2 18 1 19 23 20 19 22 14 24
REMARK SMILES IDX 11 26
REMARK H PARENT 23 21 19 23 14 25 11 27
REMARK Flexibility Score: inf
ROOT
ATOM      1  C   UNL     1    -117.053 -98.852  37.784  1.00  0.00     0.180 A 
ATOM      2  C   UNL     1    -118.106 -99.506  37.119  1.00  0.00     0.208 A 
ATOM      3  C   UNL     1    -118.136 -99.496  35.716  1.00  0.00     0.238 A 
ATOM      4  O   UNL     1    -119.110-100.036  35.128  1.00  0.00    -0.285 OA
ATOM      5  C   UNL     1    -117.108 -98.845  34.994  1.00  0.00     0.111 A 
ATOM      6  C   UNL     1    -117.016 -98.806  33.569  1.00  0.00     0.134 A 
ATOM      7  C   UNL     1    -116.027 -98.024  32.962  1.00  0.00     0.093 A 
ATOM      8  C   UNL     1    -115.085 -97.331  33.727  1.00  0.00     0.123 A 
ATOM      9  C   UNL     1    -115.129 -97.411  35.117  1.00  0.00     0.094 A 
ATOM     10  C   UNL     1    -116.126 -98.155  35.753  1.00  0.00     0.146 A 
ATOM     11  O   UNL     1    -116.139 -98.196  37.080  1.00  0.00    -0.452 OA
ENDROOT
BRANCH   1  12
ATOM     12  C   UNL     1    -116.940 -98.842  39.260  1.00  0.00     0.025 A 
ATOM     13  C   UNL     1    -117.533 -97.918  41.446  1.00  0.00     0.161 A 
ATOM     14  C   UNL     1    -116.741 -98.895  42.065  1.00  0.00     0.157 A 
ATOM     15  C   UNL     1    -117.635 -97.900  40.040  1.00  0.00     0.062 A 
ATOM     16  C   UNL     1    -116.067 -99.847  41.291  1.00  0.00     0.051 A 
ATOM     17  C   UNL     1    -116.172 -99.827  39.899  1.00  0.00     0.016 A 
BRANCH  13  18
ATOM     18  O   UNL     1    -118.202 -96.987  42.256  1.00  0.00    -0.493 OA
ATOM     19  C   UNL     1    -119.037 -97.331  43.357  1.00  0.00     0.278 C 
ENDBRANCH  13  18
BRANCH  14  20
ATOM     20  O   UNL     1    -116.633 -98.915  43.455  1.00  0.00    -0.504 OA
ATOM     21  H   UNL     1    -116.169 -98.170  43.962  1.00  0.00     0.293 HD
ENDBRANCH  14  20
ENDBRANCH   1  12
BRANCH   2  22
ATOM     22  O   UNL     1    -119.124-100.124  37.853  1.00  0.00    -0.502 OA
ATOM     23  H   UNL     1    -119.399-101.086  37.697  1.00  0.00     0.293 HD
ENDBRANCH   2  22
BRANCH   6  24
ATOM     24  O   UNL     1    -117.849 -99.534  32.714  1.00  0.00    -0.507 OA
ATOM     25  H   UNL     1    -118.639-100.086  33.013  1.00  0.00     0.293 HD
ENDBRANCH   6  24
BRANCH   8  26
ATOM     26  O   UNL     1    -114.095 -96.567  33.114  1.00  0.00    -0.508 OA
ATOM     27  H   UNL     1    -113.337 -96.997  32.597  1.00  0.00     0.293 HD
ENDBRANCH   8  26
TORSDOF 6
ENDMDL
MODEL 2
REMARK VINA RESULT:     6.788      1.944      3.135
REMARK INTER + INTRA:           8.456
REMARK INTER:                   8.036
REMARK INTRA:                   0.419
REMARK UNBOUND:                 0.080
REMARK SMILES COc1cc(-c2oc3cc(O)cc(O)c3c(=O)c2O)ccc1O
REMARK SMILES IDX 6 1 18 2 16 3 17 4 15 5 13 6 12 7 10 8 9 9 8 10 7 11 5 12
REMARK SMILES IDX 3 13 22 14 4 15 21 16 20 17 2 18 1 19 23 20 19 22 14 24
REMARK SMILES IDX 11 26
REMARK H PARENT 23 21 19 23 14 25 11 27
REMARK Flexibility Score: inf
ROOT
ATOM      1  C   UNL     1    -116.937 -99.016  36.147  1.00  0.00     0.180 A 
ATOM      2  C   UNL     1    -115.664 -99.407  35.699  1.00  0.00     0.208 A 
ATOM      3  C   UNL     1    -115.280 -99.100  34.384  1.00  0.00     0.238 A 
ATOM      4  O   UNL     1    -114.159 -99.502  33.972  1.00  0.00    -0.285 OA
ATOM      5  C   UNL     1    -116.167 -98.394  33.538  1.00  0.00     0.111 A 
ATOM      6  C   UNL     1    -115.867 -97.994  32.201  1.00  0.00     0.134 A 
ATOM      7  C   UNL     1    -116.868 -97.413  31.412  1.00  0.00     0.093 A 
ATOM      8  C   UNL     1    -118.138 -97.157  31.934  1.00  0.00     0.123 A 
ATOM      9  C   UNL     1    -118.422 -97.488  33.257  1.00  0.00     0.094 A 
ATOM     10  C   UNL     1    -117.455 -98.102  34.058  1.00  0.00     0.146 A 
ATOM     11  O   UNL     1    -117.771 -98.411  35.310  1.00  0.00    -0.452 OA
ENDROOT
BRANCH   1  12
ATOM     12  C   UNL     1    -117.402 -99.281  37.527  1.00  0.00     0.025 A 
ATOM     13  C   UNL     1    -117.109 -99.132  39.951  1.00  0.00     0.161 A 
ATOM     14  C   UNL     1    -118.351 -99.755  40.132  1.00  0.00     0.157 A 
ATOM     15  C   UNL     1    -116.641 -98.890  38.643  1.00  0.00     0.062 A 
ATOM     16  C   UNL     1    -119.121-100.125  39.022  1.00  0.00     0.051 A 
ATOM     17  C   UNL     1    -118.654 -99.882  37.729  1.00  0.00     0.016 A 
BRANCH  13  18
ATOM     18  O   UNL     1    -116.372 -98.767  41.089  1.00  0.00    -0.493 OA
ATOM     19  C   UNL     1    -116.912 -98.078  42.212  1.00  0.00     0.278 C 
ENDBRANCH  13  18
BRANCH  14  20
ATOM     20  O   UNL     1    -118.817-100.000  41.423  1.00  0.00    -0.504 OA
ATOM     21  H   UNL     1    -119.568-100.658  41.600  1.00  0.00     0.293 HD
ENDBRANCH  14  20
ENDBRANCH   1  12
BRANCH   2  22
ATOM     22  O   UNL     1    -114.812-100.125  36.544  1.00  0.00    -0.502 OA
ATOM     23  H   UNL     1    -115.040-100.316  37.512  1.00  0.00     0.293 HD
ENDBRANCH   2  22
BRANCH   6  24
ATOM     24  O   UNL     1    -114.605 -98.121  31.613  1.00  0.00    -0.507 OA
ATOM     25  H   UNL     1    -114.124 -98.995  31.467  1.00  0.00     0.293 HD
ENDBRANCH   6  24
BRANCH   8  26
ATOM     26  O   UNL     1    -119.124 -96.564  31.147  1.00  0.00    -0.508 OA
ATOM     27  H   UNL     1    -120.109 -96.699  31.341  1.00  0.00     0.293 HD
ENDBRANCH   8  26
TORSDOF 6
ENDMDL
