MODEL 1
REMARK VINA RESULT:    -6.408      0.000      0.000
REMARK INTER + INTRA:         -11.304
REMARK INTER:                  -9.780
REMARK INTRA:                  -1.525
REMARK UNBOUND:                -1.525
REMARK SMILES CC(=O)CCC=C(C)CCC=C(C)CCC=C(C)C
REMARK SMILES IDX 10 1 11 2 12 3 13 4 14 5 15 6 16 7 18 8 17 9 19 10 9 11 7 12
REMARK SMILES IDX 6 13 8 14 5 15 4 16 2 17 3 18 1 19
REMARK H PARENT
REMARK Flexibility Score: inf
ROOT
ATOM      1  C   UNL     1      25.575 -14.734  31.153  1.00  0.00     0.032 C 
ENDROOT
BRANCH   1   2
ATOM      2  C   UNL     1      26.000 -14.389  29.745  1.00  0.00    -0.028 C 
ATOM      3  C   UNL     1      25.308 -14.718  28.629  1.00  0.00    -0.077 C 
ATOM      4  C   UNL     1      23.984 -15.444  28.695  1.00  0.00     0.039 C 
BRANCH   3   5
ATOM      5  C   UNL     1      25.863 -14.324  27.278  1.00  0.00     0.034 C 
BRANCH   5   6
ATOM      6  C   UNL     1      27.395 -14.333  27.299  1.00  0.00     0.032 C 
BRANCH   6   7
ATOM      7  C   UNL     1      27.964 -13.287  26.371  1.00  0.00    -0.028 C 
ATOM      8  C   UNL     1      27.759 -11.506  28.108  1.00  0.00     0.039 C 
ATOM      9  C   UNL     1      28.135 -11.998  26.732  1.00  0.00    -0.080 C 
ATOM     10  C   UNL     1      28.708 -11.034  25.724  1.00  0.00     0.039 C 
ENDBRANCH   6   7
ENDBRANCH   5   6
ENDBRANCH   3   5
ENDBRANCH   1   2
BRANCH   1  11
ATOM     11  C   UNL     1      26.777 -14.834  32.104  1.00  0.00     0.034 C 
BRANCH  11  12
ATOM     12  C   UNL     1      27.680 -13.620  32.012  1.00  0.00    -0.077 C 
ATOM     13  C   UNL     1      28.923 -13.764  31.496  1.00  0.00    -0.028 C 
ATOM     14  C   UNL     1      27.171 -12.285  32.501  1.00  0.00     0.039 C 
BRANCH  13  15
ATOM     15  C   UNL     1      29.904 -12.633  31.307  1.00  0.00     0.035 C 
BRANCH  15  16
ATOM     16  C   UNL     1      31.215 -13.148  30.711  1.00  0.00     0.079 C 
BRANCH  16  17
ATOM     17  C   UNL     1      31.220 -12.985  29.216  1.00  0.00     0.130 C 
ATOM     18  O   UNL     1      30.894 -11.917  28.721  1.00  0.00    -0.300 OA
ATOM     19  C   UNL     1      31.626 -14.122  28.327  1.00  0.00     0.087 C 
ENDBRANCH  16  17
ENDBRANCH  15  16
ENDBRANCH  13  15
ENDBRANCH  11  12
ENDBRANCH   1  11
TORSDOF 9
ENDMDL
MODEL 2
REMARK VINA RESULT:    -6.319      3.370      5.358
REMARK INTER + INTRA:         -11.168
REMARK INTER:                 -10.226
REMARK INTRA:                  -0.943
REMARK UNBOUND:                -1.525
REMARK SMILES CC(=O)CCC=C(C)CCC=C(C)CCC=C(C)C
REMARK SMILES IDX 10 1 11 2 12 3 13 4 14 5 15 6 16 7 18 8 17 9 19 10 9 11 7 12
REMARK SMILES IDX 6 13 8 14 5 15 4 16 2 17 3 18 1 19
REMARK H PARENT
REMARK Flexibility Score: inf
ROOT
ATOM      1  C   UNL     1      26.022 -14.731  31.185  1.00  0.00     0.032 C 
ENDROOT
BRANCH   1   2
ATOM      2  C   UNL     1      26.587 -13.972  30.007  1.00  0.00    -0.028 C 
ATOM      3  C   UNL     1      26.078 -14.004  28.754  1.00  0.00    -0.077 C 
ATOM      4  C   UNL     1      24.832 -14.789  28.418  1.00  0.00     0.039 C 
BRANCH   3   5
ATOM      5  C   UNL     1      26.760 -13.207  27.664  1.00  0.00     0.034 C 
BRANCH   5   6
ATOM      6  C   UNL     1      27.964 -12.443  28.225  1.00  0.00     0.032 C 
BRANCH   6   7
ATOM      7  C   UNL     1      29.264 -13.112  27.851  1.00  0.00    -0.028 C 
ATOM      8  C   UNL     1      30.160 -12.864  30.168  1.00  0.00     0.039 C 
ATOM      9  C   UNL     1      30.269 -13.310  28.730  1.00  0.00    -0.080 C 
ATOM     10  C   UNL     1      31.528 -13.986  28.249  1.00  0.00     0.039 C 
ENDBRANCH   6   7
ENDBRANCH   5   6
ENDBRANCH   3   5
ENDBRANCH   1   2
BRANCH   1  11
ATOM     11  C   UNL     1      26.908 -14.595  32.431  1.00  0.00     0.034 C 
BRANCH  11  12
ATOM     12  C   UNL     1      26.728 -13.255  33.117  1.00  0.00    -0.077 C 
ATOM     13  C   UNL     1      26.053 -13.202  34.289  1.00  0.00    -0.028 C 
ATOM     14  C   UNL     1      27.301 -12.016  32.472  1.00  0.00     0.039 C 
BRANCH  13  15
ATOM     15  C   UNL     1      25.843 -11.944  35.095  1.00  0.00     0.035 C 
BRANCH  15  16
ATOM     16  C   UNL     1      24.560 -12.042  35.923  1.00  0.00     0.079 C 
BRANCH  16  17
ATOM     17  C   UNL     1      23.971 -10.678  36.156  1.00  0.00     0.130 C 
ATOM     18  O   UNL     1      24.563  -9.875  36.862  1.00  0.00    -0.300 OA
ATOM     19  C   UNL     1      22.666 -10.294  35.527  1.00  0.00     0.087 C 
ENDBRANCH  16  17
ENDBRANCH  15  16
ENDBRANCH  13  15
ENDBRANCH  11  12
ENDBRANCH   1  11
TORSDOF 9
ENDMDL
MODEL 3
REMARK VINA RESULT:    -6.232      2.179      6.096
REMARK INTER + INTRA:         -11.035
REMARK INTER:                  -9.345
REMARK INTRA:                  -1.691
REMARK UNBOUND:                -1.525
REMARK SMILES CC(=O)CCC=C(C)CCC=C(C)CCC=C(C)C
REMARK SMILES IDX 10 1 11 2 12 3 13 4 14 5 15 6 16 7 18 8 17 9 19 10 9 11 7 12
REMARK SMILES IDX 6 13 8 14 5 15 4 16 2 17 3 18 1 19
REMARK H PARENT
REMARK Flexibility Score: inf
ROOT
ATOM      1  C   UNL     1      29.750 -11.983  27.288  1.00  0.00     0.032 C 
ENDROOT
BRANCH   1   2
ATOM      2  C   UNL     1      30.300 -12.092  28.691  1.00  0.00    -0.028 C 
ATOM      3  C   UNL     1      31.135 -13.068  29.117  1.00  0.00    -0.077 C 
ATOM      4  C   UNL     1      31.646 -14.144  28.187  1.00  0.00     0.039 C 
BRANCH   3   5
ATOM      5  C   UNL     1      31.593 -13.065  30.558  1.00  0.00     0.034 C 
BRANCH   5   6
ATOM      6  C   UNL     1      30.495 -12.513  31.474  1.00  0.00     0.032 C 
BRANCH   6   7
ATOM      7  C   UNL     1      29.359 -13.497  31.625  1.00  0.00    -0.028 C 
ATOM      8  C   UNL     1      27.679 -11.662  31.822  1.00  0.00     0.039 C 
ATOM      9  C   UNL     1      28.074 -13.117  31.783  1.00  0.00    -0.080 C 
ATOM     10  C   UNL     1      27.018 -14.184  31.929  1.00  0.00     0.039 C 
ENDBRANCH   6   7
ENDBRANCH   5   6
ENDBRANCH   3   5
ENDBRANCH   1   2
BRANCH   1  11
ATOM     11  C   UNL     1      28.512 -11.077  27.228  1.00  0.00     0.034 C 
BRANCH  11  12
ATOM     12  C   UNL     1      27.339 -11.662  27.989  1.00  0.00    -0.077 C 
ATOM     13  C   UNL     1      27.069 -12.983  27.868  1.00  0.00    -0.028 C 
ATOM     14  C   UNL     1      26.500 -10.755  28.858  1.00  0.00     0.039 C 
BRANCH  13  15
ATOM     15  C   UNL     1      25.963 -13.698  28.603  1.00  0.00     0.035 C 
BRANCH  15  16
ATOM     16  C   UNL     1      25.292 -14.731  27.696  1.00  0.00     0.079 C 
BRANCH  16  17
ATOM     17  C   UNL     1      24.299 -15.554  28.469  1.00  0.00     0.130 C 
ATOM     18  O   UNL     1      23.131 -15.199  28.525  1.00  0.00    -0.300 OA
ATOM     19  C   UNL     1      24.728 -16.808  29.168  1.00  0.00     0.087 C 
ENDBRANCH  16  17
ENDBRANCH  15  16
ENDBRANCH  13  15
ENDBRANCH  11  12
ENDBRANCH   1  11
TORSDOF 9
ENDMDL
MODEL 4
REMARK VINA RESULT:    -6.205      1.465      4.060
REMARK INTER + INTRA:         -10.993
REMARK INTER:                  -9.235
REMARK INTRA:                  -1.759
REMARK UNBOUND:                -1.525
REMARK SMILES CC(=O)CCC=C(C)CCC=C(C)CCC=C(C)C
REMARK SMILES IDX 10 1 11 2 12 3 13 4 14 5 15 6 16 7 18 8 17 9 19 10 9 11 7 12
REMARK SMILES IDX 6 13 8 14 5 15 4 16 2 17 3 18 1 19
REMARK H PARENT
REMARK Flexibility Score: inf
ROOT
ATOM      1  C   UNL     1      26.372 -14.060  26.817  1.00  0.00     0.032 C 
ENDROOT
BRANCH   1   2
ATOM      2  C   UNL     1      26.598 -13.951  28.307  1.00  0.00    -0.028 C 
ATOM      3  C   UNL     1      25.768 -14.453  29.250  1.00  0.00    -0.077 C 
ATOM      4  C   UNL     1      24.524 -15.232  28.888  1.00  0.00     0.039 C 
BRANCH   3   5
ATOM      5  C   UNL     1      26.109 -14.253  30.710  1.00  0.00     0.034 C 
BRANCH   5   6
ATOM      6  C   UNL     1      27.501 -13.630  30.860  1.00  0.00     0.032 C 
BRANCH   6   7
ATOM      7  C   UNL     1      27.461 -12.393  31.724  1.00  0.00    -0.028 C 
ATOM      8  C   UNL     1      27.372 -10.895  29.729  1.00  0.00     0.039 C 
ATOM      9  C   UNL     1      27.400 -11.144  31.218  1.00  0.00    -0.080 C 
ATOM     10  C   UNL     1      27.368  -9.977  32.172  1.00  0.00     0.039 C 
ENDBRANCH   6   7
ENDBRANCH   5   6
ENDBRANCH   3   5
ENDBRANCH   1   2
BRANCH   1  11
ATOM     11  C   UNL     1      27.674 -13.871  26.026  1.00  0.00     0.034 C 
BRANCH  11  12
ATOM     12  C   UNL     1      28.612 -12.887  26.698  1.00  0.00    -0.077 C 
ATOM     13  C   UNL     1      29.435 -13.327  27.678  1.00  0.00    -0.028 C 
ATOM     14  C   UNL     1      28.600 -11.442  26.258  1.00  0.00     0.039 C 
BRANCH  13  15
ATOM     15  C   UNL     1      30.446 -12.466  28.394  1.00  0.00     0.035 C 
BRANCH  15  16
ATOM     16  C   UNL     1      30.988 -13.185  29.631  1.00  0.00     0.079 C 
BRANCH  16  17
ATOM     17  C   UNL     1      31.180 -12.219  30.767  1.00  0.00     0.130 C 
ATOM     18  O   UNL     1      31.694 -12.601  31.807  1.00  0.00    -0.300 OA
ATOM     19  C   UNL     1      30.748 -10.790  30.633  1.00  0.00     0.087 C 
ENDBRANCH  16  17
ENDBRANCH  15  16
ENDBRANCH  13  15
ENDBRANCH  11  12
ENDBRANCH   1  11
TORSDOF 9
ENDMDL
MODEL 5
REMARK VINA RESULT:    -6.170      2.268      5.179
REMARK INTER + INTRA:         -10.941
REMARK INTER:                  -9.319
REMARK INTRA:                  -1.622
REMARK UNBOUND:                -1.525
REMARK SMILES CC(=O)CCC=C(C)CCC=C(C)CCC=C(C)C
REMARK SMILES IDX 10 1 11 2 12 3 13 4 14 5 15 6 16 7 18 8 17 9 19 10 9 11 7 12
REMARK SMILES IDX 6 13 8 14 5 15 4 16 2 17 3 18 1 19
REMARK H PARENT
REMARK Flexibility Score: inf
ROOT
ATOM      1  C   UNL     1      30.984 -12.909  28.753  1.00  0.00     0.032 C 
ENDROOT
BRANCH   1   2
ATOM      2  C   UNL     1      29.661 -13.389  28.203  1.00  0.00    -0.028 C 
ATOM      3  C   UNL     1      28.870 -12.674  27.369  1.00  0.00    -0.077 C 
ATOM      4  C   UNL     1      29.271 -11.309  26.861  1.00  0.00     0.039 C 
BRANCH   3   5
ATOM      5  C   UNL     1      27.558 -13.272  26.910  1.00  0.00     0.034 C 
BRANCH   5   6
ATOM      6  C   UNL     1      26.511 -13.200  28.026  1.00  0.00     0.032 C 
BRANCH   6   7
ATOM      7  C   UNL     1      25.514 -14.329  27.919  1.00  0.00    -0.028 C 
ATOM      8  C   UNL     1      25.671 -14.817  30.362  1.00  0.00     0.039 C 
ATOM      9  C   UNL     1      25.125 -15.069  28.978  1.00  0.00    -0.080 C 
ATOM     10  C   UNL     1      24.126 -16.177  28.758  1.00  0.00     0.039 C 
ENDBRANCH   6   7
ENDBRANCH   5   6
ENDBRANCH   3   5
ENDBRANCH   1   2
BRANCH   1  11
ATOM     11  C   UNL     1      30.946 -12.759  30.281  1.00  0.00     0.034 C 
BRANCH  11  12
ATOM     12  C   UNL     1      29.760 -11.937  30.744  1.00  0.00    -0.077 C 
ATOM     13  C   UNL     1      28.753 -12.552  31.407  1.00  0.00    -0.028 C 
ATOM     14  C   UNL     1      29.732 -10.456  30.452  1.00  0.00     0.039 C 
BRANCH  13  15
ATOM     15  C   UNL     1      27.540 -11.846  31.960  1.00  0.00     0.035 C 
BRANCH  15  16
ATOM     16  C   UNL     1      26.870 -12.693  33.044  1.00  0.00     0.079 C 
BRANCH  16  17
ATOM     17  C   UNL     1      26.369 -11.825  34.165  1.00  0.00     0.130 C 
ATOM     18  O   UNL     1      25.979 -12.340  35.202  1.00  0.00    -0.300 OA
ATOM     19  C   UNL     1      26.347 -10.333  34.022  1.00  0.00     0.087 C 
ENDBRANCH  16  17
ENDBRANCH  15  16
ENDBRANCH  13  15
ENDBRANCH  11  12
ENDBRANCH   1  11
TORSDOF 9
ENDMDL
MODEL 6
REMARK VINA RESULT:    -6.153      1.972      5.003
REMARK INTER + INTRA:         -10.915
REMARK INTER:                  -9.667
REMARK INTRA:                  -1.248
REMARK UNBOUND:                -1.525
REMARK SMILES CC(=O)CCC=C(C)CCC=C(C)CCC=C(C)C
REMARK SMILES IDX 10 1 11 2 12 3 13 4 14 5 15 6 16 7 18 8 17 9 19 10 9 11 7 12
REMARK SMILES IDX 6 13 8 14 5 15 4 16 2 17 3 18 1 19
REMARK H PARENT
REMARK Flexibility Score: inf
ROOT
ATOM      1  C   UNL     1      26.741 -13.600  27.577  1.00  0.00     0.032 C 
ENDROOT
BRANCH   1   2
ATOM      2  C   UNL     1      27.113 -12.369  28.370  1.00  0.00    -0.028 C 
ATOM      3  C   UNL     1      27.933 -11.387  27.929  1.00  0.00    -0.077 C 
ATOM      4  C   UNL     1      28.533 -11.410  26.542  1.00  0.00     0.039 C 
BRANCH   3   5
ATOM      5  C   UNL     1      28.235 -10.218  28.840  1.00  0.00     0.034 C 
BRANCH   5   6
ATOM      6  C   UNL     1      29.724 -10.182  29.197  1.00  0.00     0.032 C 
BRANCH   6   7
ATOM      7  C   UNL     1      30.036 -11.100  30.354  1.00  0.00    -0.028 C 
ATOM      8  C   UNL     1      31.096 -12.784  28.847  1.00  0.00     0.039 C 
ATOM      9  C   UNL     1      30.661 -12.286  30.204  1.00  0.00    -0.080 C 
ATOM     10  C   UNL     1      30.920 -13.128  31.428  1.00  0.00     0.039 C 
ENDBRANCH   6   7
ENDBRANCH   5   6
ENDBRANCH   3   5
ENDBRANCH   1   2
BRANCH   1  11
ATOM     11  C   UNL     1      25.346 -14.121  27.951  1.00  0.00     0.034 C 
BRANCH  11  12
ATOM     12  C   UNL     1      25.370 -14.959  29.214  1.00  0.00    -0.077 C 
ATOM     13  C   UNL     1      25.965 -14.460  30.323  1.00  0.00    -0.028 C 
ATOM     14  C   UNL     1      24.733 -16.328  29.201  1.00  0.00     0.039 C 
BRANCH  13  15
ATOM     15  C   UNL     1      26.019 -15.168  31.654  1.00  0.00     0.035 C 
BRANCH  15  16
ATOM     16  C   UNL     1      27.186 -14.647  32.496  1.00  0.00     0.079 C 
BRANCH  16  17
ATOM     17  C   UNL     1      26.905 -13.256  32.992  1.00  0.00     0.130 C 
ATOM     18  O   UNL     1      26.278 -13.097  34.029  1.00  0.00    -0.300 OA
ATOM     19  C   UNL     1      27.391 -12.062  32.228  1.00  0.00     0.087 C 
ENDBRANCH  16  17
ENDBRANCH  15  16
ENDBRANCH  13  15
ENDBRANCH  11  12
ENDBRANCH   1  11
TORSDOF 9
ENDMDL
MODEL 7
REMARK VINA RESULT:    -6.097      1.707      4.498
REMARK INTER + INTRA:         -10.829
REMARK INTER:                  -9.761
REMARK INTRA:                  -1.068
REMARK UNBOUND:                -1.525
REMARK SMILES CC(=O)CCC=C(C)CCC=C(C)CCC=C(C)C
REMARK SMILES IDX 10 1 11 2 12 3 13 4 14 5 15 6 16 7 18 8 17 9 19 10 9 11 7 12
REMARK SMILES IDX 6 13 8 14 5 15 4 16 2 17 3 18 1 19
REMARK H PARENT
REMARK Flexibility Score: inf
ROOT
ATOM      1  C   UNL     1      27.122 -12.961  32.621  1.00  0.00     0.032 C 
ENDROOT
BRANCH   1   2
ATOM      2  C   UNL     1      27.906 -12.055  31.700  1.00  0.00    -0.028 C 
ATOM      3  C   UNL     1      27.785 -10.708  31.659  1.00  0.00    -0.077 C 
ATOM      4  C   UNL     1      26.860  -9.960  32.590  1.00  0.00     0.039 C 
BRANCH   3   5
ATOM      5  C   UNL     1      28.622  -9.926  30.670  1.00  0.00     0.034 C 
BRANCH   5   6
ATOM      6  C   UNL     1      30.059 -10.456  30.640  1.00  0.00     0.032 C 
BRANCH   6   7
ATOM      7  C   UNL     1      30.281 -11.376  29.464  1.00  0.00    -0.028 C 
ATOM      8  C   UNL     1      31.216 -13.168  30.929  1.00  0.00     0.039 C 
ATOM      9  C   UNL     1      30.806 -12.613  29.587  1.00  0.00    -0.080 C 
ATOM     10  C   UNL     1      30.989 -13.448  28.345  1.00  0.00     0.039 C 
ENDBRANCH   6   7
ENDBRANCH   5   6
ENDBRANCH   3   5
ENDBRANCH   1   2
BRANCH   1  11
ATOM     11  C   UNL     1      26.919 -14.356  32.013  1.00  0.00     0.034 C 
BRANCH  11  12
ATOM     12  C   UNL     1      26.424 -14.289  30.582  1.00  0.00    -0.077 C 
ATOM     13  C   UNL     1      27.058 -13.478  29.704  1.00  0.00    -0.028 C 
ATOM     14  C   UNL     1      25.234 -15.126  30.175  1.00  0.00     0.039 C 
BRANCH  13  15
ATOM     15  C   UNL     1      26.697 -13.352  28.245  1.00  0.00     0.035 C 
BRANCH  15  16
ATOM     16  C   UNL     1      27.279 -12.067  27.653  1.00  0.00     0.079 C 
BRANCH  16  17
ATOM     17  C   UNL     1      28.103 -12.368  26.432  1.00  0.00     0.130 C 
ATOM     18  O   UNL     1      28.161 -13.511  26.006  1.00  0.00    -0.300 OA
ATOM     19  C   UNL     1      28.851 -11.275  25.729  1.00  0.00     0.087 C 
ENDBRANCH  16  17
ENDBRANCH  15  16
ENDBRANCH  13  15
ENDBRANCH  11  12
ENDBRANCH   1  11
TORSDOF 9
ENDMDL
MODEL 8
REMARK VINA RESULT:    -6.032      1.568      4.184
REMARK INTER + INTRA:         -10.730
REMARK INTER:                  -9.582
REMARK INTRA:                  -1.148
REMARK UNBOUND:                -1.525
REMARK SMILES CC(=O)CCC=C(C)CCC=C(C)CCC=C(C)C
REMARK SMILES IDX 10 1 11 2 12 3 13 4 14 5 15 6 16 7 18 8 17 9 19 10 9 11 7 12
REMARK SMILES IDX 6 13 8 14 5 15 4 16 2 17 3 18 1 19
REMARK H PARENT
REMARK Flexibility Score: inf
ROOT
ATOM      1  C   UNL     1      27.508 -10.716  32.157  1.00  0.00     0.032 C 
ENDROOT
BRANCH   1   2
ATOM      2  C   UNL     1      27.477 -12.209  31.932  1.00  0.00    -0.028 C 
ATOM      3  C   UNL     1      26.976 -13.110  32.808  1.00  0.00    -0.077 C 
ATOM      4  C   UNL     1      26.340 -12.687  34.112  1.00  0.00     0.039 C 
BRANCH   3   5
ATOM      5  C   UNL     1      27.029 -14.581  32.460  1.00  0.00     0.034 C 
BRANCH   5   6
ATOM      6  C   UNL     1      25.985 -14.921  31.390  1.00  0.00     0.032 C 
BRANCH   6   7
ATOM      7  C   UNL     1      26.310 -14.257  30.074  1.00  0.00    -0.028 C 
ATOM      8  C   UNL     1      24.471 -15.475  28.905  1.00  0.00     0.039 C 
ATOM      9  C   UNL     1      25.624 -14.502  28.938  1.00  0.00    -0.080 C 
ATOM     10  C   UNL     1      26.036 -13.786  27.676  1.00  0.00     0.039 C 
ENDBRANCH   6   7
ENDBRANCH   5   6
ENDBRANCH   3   5
ENDBRANCH   1   2
BRANCH   1  11
ATOM     11  C   UNL     1      27.555  -9.939  30.833  1.00  0.00     0.034 C 
BRANCH  11  12
ATOM     12  C   UNL     1      28.687 -10.402  29.939  1.00  0.00    -0.077 C 
ATOM     13  C   UNL     1      28.420 -11.271  28.936  1.00  0.00    -0.028 C 
ATOM     14  C   UNL     1      30.084  -9.886  30.193  1.00  0.00     0.039 C 
BRANCH  13  15
ATOM     15  C   UNL     1      29.444 -11.774  27.949  1.00  0.00     0.035 C 
BRANCH  15  16
ATOM     16  C   UNL     1      29.669 -13.278  28.124  1.00  0.00     0.079 C 
BRANCH  16  17
ATOM     17  C   UNL     1      31.027 -13.548  28.710  1.00  0.00     0.130 C 
ATOM     18  O   UNL     1      31.886 -14.083  28.026  1.00  0.00    -0.300 OA
ATOM     19  C   UNL     1      31.337 -13.163  30.125  1.00  0.00     0.087 C 
ENDBRANCH  16  17
ENDBRANCH  15  16
ENDBRANCH  13  15
ENDBRANCH  11  12
ENDBRANCH   1  11
TORSDOF 9
ENDMDL
MODEL 9
REMARK VINA RESULT:    -5.988      2.023      4.893
REMARK INTER + INTRA:         -10.664
REMARK INTER:                  -9.677
REMARK INTRA:                  -0.987
REMARK UNBOUND:                -1.525
REMARK SMILES CC(=O)CCC=C(C)CCC=C(C)CCC=C(C)C
REMARK SMILES IDX 10 1 11 2 12 3 13 4 14 5 15 6 16 7 18 8 17 9 19 10 9 11 7 12
REMARK SMILES IDX 6 13 8 14 5 15 4 16 2 17 3 18 1 19
REMARK H PARENT
REMARK Flexibility Score: inf
ROOT
ATOM      1  C   UNL     1      29.763 -10.225  30.898  1.00  0.00     0.032 C 
ENDROOT
BRANCH   1   2
ATOM      2  C   UNL     1      30.199 -11.240  29.867  1.00  0.00    -0.028 C 
ATOM      3  C   UNL     1      31.041 -12.271  30.110  1.00  0.00    -0.077 C 
ATOM      4  C   UNL     1      31.603 -12.537  31.487  1.00  0.00     0.039 C 
BRANCH   3   5
ATOM      5  C   UNL     1      31.408 -13.202  28.975  1.00  0.00     0.034 C 
BRANCH   5   6
ATOM      6  C   UNL     1      30.168 -13.569  28.154  1.00  0.00     0.032 C 
BRANCH   6   7
ATOM      7  C   UNL     1      29.769 -12.446  27.227  1.00  0.00    -0.028 C 
ATOM      8  C   UNL     1      27.797 -13.723  26.384  1.00  0.00     0.039 C 
ATOM      9  C   UNL     1      28.690 -12.507  26.419  1.00  0.00    -0.080 C 
ATOM     10  C   UNL     1      28.385 -11.329  25.529  1.00  0.00     0.039 C 
ENDBRANCH   6   7
ENDBRANCH   5   6
ENDBRANCH   3   5
ENDBRANCH   1   2
BRANCH   1  11
ATOM     11  C   UNL     1      28.234 -10.110  30.975  1.00  0.00     0.034 C 
BRANCH  11  12
ATOM     12  C   UNL     1      27.538 -11.205  30.192  1.00  0.00    -0.077 C 
ATOM     13  C   UNL     1      27.590 -12.477  30.652  1.00  0.00    -0.028 C 
ATOM     14  C   UNL     1      26.810 -10.850  28.918  1.00  0.00     0.039 C 
BRANCH  13  15
ATOM     15  C   UNL     1      26.906 -13.650  29.996  1.00  0.00     0.035 C 
BRANCH  15  16
ATOM     16  C   UNL     1      26.059 -14.419  31.012  1.00  0.00     0.079 C 
BRANCH  16  17
ATOM     17  C   UNL     1      26.756 -14.488  32.343  1.00  0.00     0.130 C 
ATOM     18  O   UNL     1      27.719 -15.225  32.485  1.00  0.00    -0.300 OA
ATOM     19  C   UNL     1      26.281 -13.656  33.495  1.00  0.00     0.087 C 
ENDBRANCH  16  17
ENDBRANCH  15  16
ENDBRANCH  13  15
ENDBRANCH  11  12
ENDBRANCH   1  11
TORSDOF 9
ENDMDL
