MODEL 1
REMARK VINA RESULT:    -3.965      0.000      0.000
REMARK INTER + INTRA:          -5.172
REMARK INTER:                  -4.893
REMARK INTRA:                  -0.279
REMARK UNBOUND:                -0.279
REMARK SMILES Oc1cc(O)c2cc(O)c(-c3cc(O)c(O)c(O)c3)[o+]c2c1
REMARK SMILES IDX 10 1 20 2 21 3 22 4 2 5 3 6 4 7 6 8 7 9 8 10 11 11 12 12
REMARK SMILES IDX 13 13 19 14 15 15 17 16 14 17 16 19 18 21 9 23 1 25 5 27
REMARK H PARENT 14 18 16 20 18 22 9 24 1 26 5 28
REMARK Flexibility Score: inf
ROOT
ATOM      1  C   UNL     1      13.126 -32.761 -32.504  1.00  0.00     0.402 A 
ATOM      2  O   UNL     1      12.099 -32.515 -33.314  1.00  0.00    -0.202 OA
ATOM      3  C   UNL     1      12.125 -31.587 -34.265  1.00  0.00     0.368 A 
ATOM      4  C   UNL     1      10.996 -31.406 -35.068  1.00  0.00     0.162 A 
ATOM      5  C   UNL     1      10.997 -30.438 -36.078  1.00  0.00     0.128 A 
ATOM      6  C   UNL     1      12.132 -29.651 -36.285  1.00  0.00     0.093 A 
ATOM      7  C   UNL     1      13.275 -29.814 -35.494  1.00  0.00     0.136 A 
ATOM      8  C   UNL     1      13.278 -30.793 -34.466  1.00  0.00     0.125 A 
ATOM      9  C   UNL     1      14.374 -31.017 -33.616  1.00  0.00     0.078 A 
ATOM     10  C   UNL     1      14.301 -31.997 -32.622  1.00  0.00     0.223 A 
ENDROOT
BRANCH   1  11
ATOM     11  C   UNL     1      12.978 -33.828 -31.489  1.00  0.00     0.091 A 
ATOM     12  C   UNL     1      12.874 -33.528 -30.121  1.00  0.00     0.068 A 
ATOM     13  C   UNL     1      12.759 -34.546 -29.168  1.00  0.00     0.162 A 
ATOM     14  C   UNL     1      13.000 -35.171 -31.892  1.00  0.00     0.068 A 
ATOM     15  C   UNL     1      12.755 -35.899 -29.585  1.00  0.00     0.200 A 
ATOM     16  C   UNL     1      12.881 -36.199 -30.948  1.00  0.00     0.162 A 
BRANCH  13  17
ATOM     17  O   UNL     1      12.658 -34.172 -27.826  1.00  0.00    -0.504 OA
ATOM     18  H   UNL     1      11.880 -33.657 -27.439  1.00  0.00     0.293 HD
ENDBRANCH  13  17
BRANCH  15  19
ATOM     19  O   UNL     1      12.631 -36.961 -28.687  1.00  0.00    -0.502 OA
ATOM     20  H   UNL     1      13.183 -37.806 -28.730  1.00  0.00     0.293 HD
ENDBRANCH  15  19
BRANCH  16  21
ATOM     21  O   UNL     1      12.888 -37.531 -31.361  1.00  0.00    -0.504 OA
ATOM     22  H   UNL     1      13.749 -38.060 -31.436  1.00  0.00     0.293 HD
ENDBRANCH  16  21
ENDBRANCH   1  11
BRANCH  10  23
ATOM     23  O   UNL     1      15.370 -32.186 -31.746  1.00  0.00    -0.500 OA
ATOM     24  H   UNL     1      15.946 -33.019 -31.780  1.00  0.00     0.294 HD
ENDBRANCH  10  23
BRANCH   5  25
ATOM     25  O   UNL     1       9.875 -30.251 -36.883  1.00  0.00    -0.507 OA
ATOM     26  H   UNL     1       9.097 -29.677 -36.580  1.00  0.00     0.293 HD
ENDBRANCH   5  25
BRANCH   7  27
ATOM     27  O   UNL     1      14.370 -28.990 -35.767  1.00  0.00    -0.507 OA
ATOM     28  H   UNL     1      14.729 -28.289 -35.135  1.00  0.00     0.293 HD
ENDBRANCH   7  27
TORSDOF 7
ENDMDL
MODEL 2
REMARK VINA RESULT:    -2.643      1.146      2.582
REMARK INTER + INTRA:          -3.541
REMARK INTER:                  -3.216
REMARK INTRA:                  -0.324
REMARK UNBOUND:                -0.279
REMARK SMILES Oc1cc(O)c2cc(O)c(-c3cc(O)c(O)c(O)c3)[o+]c2c1
REMARK SMILES IDX 10 1 20 2 21 3 22 4 2 5 3 6 4 7 6 8 7 9 8 10 11 11 12 12
REMARK SMILES IDX 13 13 19 14 15 15 17 16 14 17 16 19 18 21 9 23 1 25 5 27
REMARK H PARENT 14 18 16 20 18 22 9 24 1 26 5 28
REMARK Flexibility Score: inf
ROOT
ATOM      1  C   UNL     1      12.077 -33.262 -32.307  1.00  0.00     0.402 A 
ATOM      2  O   UNL     1      12.950 -32.401 -32.824  1.00  0.00    -0.202 OA
ATOM      3  C   UNL     1      12.666 -31.596 -33.844  1.00  0.00     0.368 A 
ATOM      4  C   UNL     1      13.650 -30.724 -34.315  1.00  0.00     0.162 A 
ATOM      5  C   UNL     1      13.376 -29.864 -35.385  1.00  0.00     0.128 A 
ATOM      6  C   UNL     1      12.114 -29.879 -35.983  1.00  0.00     0.093 A 
ATOM      7  C   UNL     1      11.112 -30.745 -35.528  1.00  0.00     0.136 A 
ATOM      8  C   UNL     1      11.385 -31.620 -34.445  1.00  0.00     0.125 A 
ATOM      9  C   UNL     1      10.446 -32.530 -33.932  1.00  0.00     0.078 A 
ATOM     10  C   UNL     1      10.790 -33.365 -32.865  1.00  0.00     0.223 A 
ENDROOT
BRANCH   1  11
ATOM     11  C   UNL     1      12.511 -34.098 -31.165  1.00  0.00     0.091 A 
ATOM     12  C   UNL     1      12.634 -33.563 -29.872  1.00  0.00     0.068 A 
ATOM     13  C   UNL     1      13.068 -34.356 -28.803  1.00  0.00     0.162 A 
ATOM     14  C   UNL     1      12.863 -35.436 -31.385  1.00  0.00     0.068 A 
ATOM     15  C   UNL     1      13.395 -35.715 -29.029  1.00  0.00     0.200 A 
ATOM     16  C   UNL     1      13.294 -36.243 -30.323  1.00  0.00     0.162 A 
BRANCH  13  17
ATOM     17  O   UNL     1      13.164 -33.757 -27.546  1.00  0.00    -0.504 OA
ATOM     18  H   UNL     1      14.036 -33.510 -27.101  1.00  0.00     0.293 HD
ENDBRANCH  13  17
BRANCH  15  19
ATOM     19  O   UNL     1      13.823 -36.564 -28.005  1.00  0.00    -0.502 OA
ATOM     20  H   UNL     1      14.670 -36.428 -27.474  1.00  0.00     0.293 HD
ENDBRANCH  15  19
BRANCH  16  21
ATOM     21  O   UNL     1      13.626 -37.578 -30.549  1.00  0.00    -0.504 OA
ATOM     22  H   UNL     1      13.332 -38.064 -31.389  1.00  0.00     0.293 HD
ENDBRANCH  16  21
ENDBRANCH   1  11
BRANCH  10  23
ATOM     23  O   UNL     1       9.875 -34.304 -32.387  1.00  0.00    -0.500 OA
ATOM     24  H   UNL     1       9.242 -34.091 -31.625  1.00  0.00     0.294 HD
ENDBRANCH  10  23
BRANCH   5  25
ATOM     25  O   UNL     1      14.352 -28.991 -35.861  1.00  0.00    -0.507 OA
ATOM     26  H   UNL     1      14.171 -28.370 -36.641  1.00  0.00     0.293 HD
ENDBRANCH   5  25
BRANCH   7  27
ATOM     27  O   UNL     1       9.876 -30.695 -36.178  1.00  0.00    -0.507 OA
ATOM     28  H   UNL     1       9.699 -30.184 -37.031  1.00  0.00     0.293 HD
ENDBRANCH   7  27
TORSDOF 7
ENDMDL
MODEL 3
REMARK VINA RESULT:    -1.794      1.314      7.086
REMARK INTER + INTRA:          -2.492
REMARK INTER:                  -2.403
REMARK INTRA:                  -0.090
REMARK UNBOUND:                -0.279
REMARK SMILES Oc1cc(O)c2cc(O)c(-c3cc(O)c(O)c(O)c3)[o+]c2c1
REMARK SMILES IDX 10 1 20 2 21 3 22 4 2 5 3 6 4 7 6 8 7 9 8 10 11 11 12 12
REMARK SMILES IDX 13 13 19 14 15 15 17 16 14 17 16 19 18 21 9 23 1 25 5 27
REMARK H PARENT 14 18 16 20 18 22 9 24 1 26 5 28
REMARK Flexibility Score: inf
ROOT
ATOM      1  C   UNL     1      12.734 -33.106 -32.242  1.00  0.00     0.402 A 
ATOM      2  O   UNL     1      12.502 -34.394 -32.483  1.00  0.00    -0.202 OA
ATOM      3  C   UNL     1      12.653 -35.347 -31.568  1.00  0.00     0.368 A 
ATOM      4  C   UNL     1      12.382 -36.672 -31.916  1.00  0.00     0.162 A 
ATOM      5  C   UNL     1      12.530 -37.694 -30.972  1.00  0.00     0.128 A 
ATOM      6  C   UNL     1      12.951 -37.386 -29.676  1.00  0.00     0.093 A 
ATOM      7  C   UNL     1      13.229 -36.066 -29.303  1.00  0.00     0.136 A 
ATOM      8  C   UNL     1      13.082 -35.026 -30.258  1.00  0.00     0.125 A 
ATOM      9  C   UNL     1      13.351 -33.676 -29.977  1.00  0.00     0.078 A 
ATOM     10  C   UNL     1      13.188 -32.708 -30.972  1.00  0.00     0.223 A 
ENDROOT
BRANCH   1  11
ATOM     11  C   UNL     1      12.520 -32.139 -33.342  1.00  0.00     0.091 A 
ATOM     12  C   UNL     1      11.299 -32.077 -34.035  1.00  0.00     0.068 A 
ATOM     13  C   UNL     1      11.116 -31.175 -35.089  1.00  0.00     0.162 A 
ATOM     14  C   UNL     1      13.573 -31.304 -33.741  1.00  0.00     0.068 A 
ATOM     15  C   UNL     1      12.176 -30.317 -35.468  1.00  0.00     0.200 A 
ATOM     16  C   UNL     1      13.400 -30.394 -34.792  1.00  0.00     0.162 A 
BRANCH  13  17
ATOM     17  O   UNL     1       9.875 -31.169 -35.731  1.00  0.00    -0.504 OA
ATOM     18  H   UNL     1       9.569 -30.446 -36.365  1.00  0.00     0.293 HD
ENDBRANCH  13  17
BRANCH  15  19
ATOM     19  O   UNL     1      12.054 -29.386 -36.503  1.00  0.00    -0.502 OA
ATOM     20  H   UNL     1      12.771 -28.721 -36.753  1.00  0.00     0.293 HD
ENDBRANCH  15  19
BRANCH  16  21
ATOM     21  O   UNL     1      14.449 -29.557 -35.171  1.00  0.00    -0.504 OA
ATOM     22  H   UNL     1      14.281 -28.632 -35.550  1.00  0.00     0.293 HD
ENDBRANCH  16  21
ENDBRANCH   1  11
BRANCH  10  23
ATOM     23  O   UNL     1      13.502 -31.374 -30.708  1.00  0.00    -0.500 OA
ATOM     24  H   UNL     1      13.550 -31.015 -29.762  1.00  0.00     0.294 HD
ENDBRANCH  10  23
BRANCH   5  25
ATOM     25  O   UNL     1      12.262 -39.018 -31.311  1.00  0.00    -0.507 OA
ATOM     26  H   UNL     1      12.901 -39.558 -31.883  1.00  0.00     0.293 HD
ENDBRANCH   5  25
BRANCH   7  27
ATOM     27  O   UNL     1      13.641 -35.842 -27.986  1.00  0.00    -0.507 OA
ATOM     28  H   UNL     1      14.575 -36.014 -27.643  1.00  0.00     0.293 HD
ENDBRANCH   7  27
TORSDOF 7
ENDMDL
MODEL 4
REMARK VINA RESULT:    -1.477      2.802      7.774
REMARK INTER + INTRA:          -2.101
REMARK INTER:                  -2.424
REMARK INTRA:                   0.322
REMARK UNBOUND:                -0.279
REMARK SMILES Oc1cc(O)c2cc(O)c(-c3cc(O)c(O)c(O)c3)[o+]c2c1
REMARK SMILES IDX 10 1 20 2 21 3 22 4 2 5 3 6 4 7 6 8 7 9 8 10 11 11 12 12
REMARK SMILES IDX 13 13 19 14 15 15 17 16 14 17 16 19 18 21 9 23 1 25 5 27
REMARK H PARENT 14 18 16 20 18 22 9 24 1 26 5 28
REMARK Flexibility Score: inf
ROOT
ATOM      1  C   UNL     1      10.348 -32.436 -33.382  1.00  0.00     0.402 A 
ATOM      2  O   UNL     1      10.599 -32.046 -32.135  1.00  0.00    -0.202 OA
ATOM      3  C   UNL     1      10.751 -32.893 -31.122  1.00  0.00     0.368 A 
ATOM      4  C   UNL     1      11.016 -32.386 -29.847  1.00  0.00     0.162 A 
ATOM      5  C   UNL     1      11.182 -33.255 -28.763  1.00  0.00     0.128 A 
ATOM      6  C   UNL     1      11.083 -34.634 -28.957  1.00  0.00     0.093 A 
ATOM      7  C   UNL     1      10.818 -35.166 -30.224  1.00  0.00     0.136 A 
ATOM      8  C   UNL     1      10.646 -34.289 -31.327  1.00  0.00     0.125 A 
ATOM      9  C   UNL     1      10.365 -34.732 -32.630  1.00  0.00     0.078 A 
ATOM     10  C   UNL     1      10.204 -33.807 -33.665  1.00  0.00     0.223 A 
ENDROOT
BRANCH   1  11
ATOM     11  C   UNL     1      10.210 -31.397 -34.427  1.00  0.00     0.091 A 
ATOM     12  C   UNL     1      10.239 -31.724 -35.793  1.00  0.00     0.068 A 
ATOM     13  C   UNL     1      10.132 -30.730 -36.773  1.00  0.00     0.162 A 
ATOM     14  C   UNL     1      10.106 -30.050 -34.051  1.00  0.00     0.068 A 
ATOM     15  C   UNL     1      10.001 -29.375 -36.384  1.00  0.00     0.200 A 
ATOM     16  C   UNL     1       9.994 -29.047 -35.022  1.00  0.00     0.162 A 
BRANCH  13  17
ATOM     17  O   UNL     1      10.167 -31.130 -38.110  1.00  0.00    -0.504 OA
ATOM     18  H   UNL     1      10.519 -32.023 -38.426  1.00  0.00     0.293 HD
ENDBRANCH  13  17
BRANCH  15  19
ATOM     19  O   UNL     1       9.877 -28.337 -37.311  1.00  0.00    -0.502 OA
ATOM     20  H   UNL     1       9.029 -27.812 -37.462  1.00  0.00     0.293 HD
ENDBRANCH  15  19
BRANCH  16  21
ATOM     21  O   UNL     1       9.875 -27.712 -34.637  1.00  0.00    -0.504 OA
ATOM     22  H   UNL     1      10.101 -27.407 -33.697  1.00  0.00     0.293 HD
ENDBRANCH  16  21
ENDBRANCH   1  11
BRANCH  10  23
ATOM     23  O   UNL     1       9.875 -34.243 -34.949  1.00  0.00    -0.500 OA
ATOM     24  H   UNL     1       9.681 -35.218 -35.147  1.00  0.00     0.294 HD
ENDBRANCH  10  23
BRANCH   5  25
ATOM     25  O   UNL     1      11.447 -32.757 -27.489  1.00  0.00    -0.507 OA
ATOM     26  H   UNL     1      12.133 -33.191 -26.883  1.00  0.00     0.293 HD
ENDBRANCH   5  25
BRANCH   7  27
ATOM     27  O   UNL     1      10.738 -36.557 -30.334  1.00  0.00    -0.507 OA
ATOM     28  H   UNL     1      10.032 -37.048 -30.863  1.00  0.00     0.293 HD
ENDBRANCH   7  27
TORSDOF 7
ENDMDL
MODEL 5
REMARK VINA RESULT:    -1.042      2.504      7.488
REMARK INTER + INTRA:          -1.565
REMARK INTER:                  -1.916
REMARK INTRA:                   0.351
REMARK UNBOUND:                -0.279
REMARK SMILES Oc1cc(O)c2cc(O)c(-c3cc(O)c(O)c(O)c3)[o+]c2c1
REMARK SMILES IDX 10 1 20 2 21 3 22 4 2 5 3 6 4 7 6 8 7 9 8 10 11 11 12 12
REMARK SMILES IDX 13 13 19 14 15 15 17 16 14 17 16 19 18 21 9 23 1 25 5 27
REMARK H PARENT 14 18 16 20 18 22 9 24 1 26 5 28
REMARK Flexibility Score: inf
ROOT
ATOM      1  C   UNL     1      10.664 -32.391 -33.398  1.00  0.00     0.402 A 
ATOM      2  O   UNL     1      11.093 -32.021 -32.194  1.00  0.00    -0.202 OA
ATOM      3  C   UNL     1      11.305 -32.878 -31.200  1.00  0.00     0.368 A 
ATOM      4  C   UNL     1      11.759 -32.393 -29.971  1.00  0.00     0.162 A 
ATOM      5  C   UNL     1      11.993 -33.272 -28.909  1.00  0.00     0.128 A 
ATOM      6  C   UNL     1      11.772 -34.641 -29.079  1.00  0.00     0.093 A 
ATOM      7  C   UNL     1      11.318 -35.151 -30.300  1.00  0.00     0.136 A 
ATOM      8  C   UNL     1      11.076 -34.262 -31.380  1.00  0.00     0.125 A 
ATOM      9  C   UNL     1      10.607 -34.683 -32.636  1.00  0.00     0.078 A 
ATOM     10  C   UNL     1      10.388 -33.747 -33.651  1.00  0.00     0.223 A 
ENDROOT
BRANCH   1  11
ATOM     11  C   UNL     1      10.475 -31.343 -34.427  1.00  0.00     0.091 A 
ATOM     12  C   UNL     1      10.286 -29.997 -34.073  1.00  0.00     0.068 A 
ATOM     13  C   UNL     1      10.084 -29.017 -35.053  1.00  0.00     0.162 A 
ATOM     14  C   UNL     1      10.425 -31.706 -35.779  1.00  0.00     0.068 A 
ATOM     15  C   UNL     1      10.061 -29.388 -36.419  1.00  0.00     0.200 A 
ATOM     16  C   UNL     1      10.227 -30.735 -36.770  1.00  0.00     0.162 A 
BRANCH  13  17
ATOM     17  O   UNL     1       9.905 -27.699 -34.627  1.00  0.00    -0.504 OA
ATOM     18  H   UNL     1       9.762 -27.429 -33.665  1.00  0.00     0.293 HD
ENDBRANCH  13  17
BRANCH  15  19
ATOM     19  O   UNL     1       9.876 -28.460 -37.446  1.00  0.00    -0.502 OA
ATOM     20  H   UNL     1       8.983 -28.061 -37.694  1.00  0.00     0.293 HD
ENDBRANCH  15  19
BRANCH  16  21
ATOM     21  O   UNL     1      10.195 -31.104 -38.114  1.00  0.00    -0.504 OA
ATOM     22  H   UNL     1      10.886 -30.767 -38.775  1.00  0.00     0.293 HD
ENDBRANCH  16  21
ENDBRANCH   1  11
BRANCH  10  23
ATOM     23  O   UNL     1       9.875 -34.157 -34.882  1.00  0.00    -0.500 OA
ATOM     24  H   UNL     1       9.346 -35.016 -34.979  1.00  0.00     0.294 HD
ENDBRANCH  10  23
BRANCH   5  25
ATOM     25  O   UNL     1      12.446 -32.797 -27.680  1.00  0.00    -0.507 OA
ATOM     26  H   UNL     1      12.833 -33.420 -26.981  1.00  0.00     0.293 HD
ENDBRANCH   5  25
BRANCH   7  27
ATOM     27  O   UNL     1      11.125 -36.532 -30.389  1.00  0.00    -0.507 OA
ATOM     28  H   UNL     1      10.269 -37.007 -30.143  1.00  0.00     0.293 HD
ENDBRANCH   7  27
TORSDOF 7
ENDMDL
