MODEL 1
REMARK VINA RESULT:    -4.090      0.000      0.000
REMARK INTER + INTRA:          -4.090
REMARK INTER:                  -4.090
REMARK INTRA:                   0.000
REMARK UNBOUND:                 0.000
REMARK SMILES O=c1ccc2ccccc2o1
REMARK SMILES IDX 7 1 8 2 9 3 10 4 5 5 6 6 4 7 3 8 2 9 1 10 11 11
REMARK H PARENT
REMARK Flexibility Score: inf
ROOT
ATOM      1  C   UNL     1      27.531  38.898  -0.873  1.00  0.00     0.001 A 
ATOM      2  C   UNL     1      26.233  39.114  -1.348  1.00  0.00     0.004 A 
ATOM      3  C   UNL     1      25.261  39.674  -0.513  1.00  0.00     0.048 A 
ATOM      4  C   UNL     1      25.585  40.021   0.803  1.00  0.00     0.138 A 
ATOM      5  C   UNL     1      26.896  39.804   1.284  1.00  0.00     0.018 A 
ATOM      6  C   UNL     1      27.866  39.242   0.441  1.00  0.00     0.012 A 
ATOM      7  C   UNL     1      27.190  40.161   2.603  1.00  0.00     0.019 A 
ATOM      8  C   UNL     1      26.190  40.716   3.401  1.00  0.00     0.094 A 
ATOM      9  C   UNL     1      24.914  40.903   2.857  1.00  0.00     0.336 A 
ATOM     10  O   UNL     1      23.998  41.404   3.562  1.00  0.00    -0.246 OA
ATOM     11  O   UNL     1      24.660  40.554   1.598  1.00  0.00    -0.423 OA
ENDROOT
TORSDOF 0
ENDMDL
MODEL 2
REMARK VINA RESULT:    -4.083      2.302      2.904
REMARK INTER + INTRA:          -4.083
REMARK INTER:                  -4.083
REMARK INTRA:                   0.000
REMARK UNBOUND:                 0.000
REMARK SMILES O=c1ccc2ccccc2o1
REMARK SMILES IDX 7 1 8 2 9 3 10 4 5 5 6 6 4 7 3 8 2 9 1 10 11 11
REMARK H PARENT
REMARK Flexibility Score: inf
ROOT
ATOM      1  C   UNL     1      27.059  39.918  -1.927  1.00  0.00     0.001 A 
ATOM      2  C   UNL     1      28.051  39.223  -1.229  1.00  0.00     0.004 A 
ATOM      3  C   UNL     1      27.742  38.566  -0.033  1.00  0.00     0.048 A 
ATOM      4  C   UNL     1      26.436  38.604   0.469  1.00  0.00     0.138 A 
ATOM      5  C   UNL     1      25.433  39.306  -0.236  1.00  0.00     0.018 A 
ATOM      6  C   UNL     1      25.750  39.963  -1.434  1.00  0.00     0.012 A 
ATOM      7  C   UNL     1      24.138  39.326   0.290  1.00  0.00     0.019 A 
ATOM      8  C   UNL     1      23.875  38.659   1.486  1.00  0.00     0.094 A 
ATOM      9  C   UNL     1      24.918  37.982   2.129  1.00  0.00     0.336 A 
ATOM     10  O   UNL     1      24.700  37.373   3.209  1.00  0.00    -0.246 OA
ATOM     11  O   UNL     1      26.142  37.979   1.607  1.00  0.00    -0.423 OA
ENDROOT
TORSDOF 0
ENDMDL
MODEL 3
REMARK VINA RESULT:    -4.082      1.899      4.343
REMARK INTER + INTRA:          -4.082
REMARK INTER:                  -4.082
REMARK INTRA:                   0.000
REMARK UNBOUND:                 0.000
REMARK SMILES O=c1ccc2ccccc2o1
REMARK SMILES IDX 7 1 8 2 9 3 10 4 5 5 6 6 4 7 3 8 2 9 1 10 11 11
REMARK H PARENT
REMARK Flexibility Score: inf
ROOT
ATOM      1  C   UNL     1      24.265  40.750   2.959  1.00  0.00     0.001 A 
ATOM      2  C   UNL     1      25.539  40.768   3.537  1.00  0.00     0.004 A 
ATOM      3  C   UNL     1      26.658  40.389   2.788  1.00  0.00     0.048 A 
ATOM      4  C   UNL     1      26.505  39.990   1.456  1.00  0.00     0.138 A 
ATOM      5  C   UNL     1      25.219  39.972   0.871  1.00  0.00     0.018 A 
ATOM      6  C   UNL     1      24.102  40.353   1.628  1.00  0.00     0.012 A 
ATOM      7  C   UNL     1      25.099  39.568  -0.462  1.00  0.00     0.019 A 
ATOM      8  C   UNL     1      26.241  39.198  -1.171  1.00  0.00     0.094 A 
ATOM      9  C   UNL     1      27.483  39.242  -0.526  1.00  0.00     0.336 A 
ATOM     10  O   UNL     1      28.526  38.911  -1.150  1.00  0.00    -0.246 OA
ATOM     11  O   UNL     1      27.570  39.629   0.744  1.00  0.00    -0.423 OA
ENDROOT
TORSDOF 0
ENDMDL
MODEL 4
REMARK VINA RESULT:    -4.048     16.345     17.870
REMARK INTER + INTRA:          -4.048
REMARK INTER:                  -4.048
REMARK INTRA:                   0.000
REMARK UNBOUND:                 0.000
REMARK SMILES O=c1ccc2ccccc2o1
REMARK SMILES IDX 7 1 8 2 9 3 10 4 5 5 6 6 4 7 3 8 2 9 1 10 11 11
REMARK H PARENT
REMARK Flexibility Score: inf
ROOT
ATOM      1  C   UNL     1      43.772  31.722   3.154  1.00  0.00     0.001 A 
ATOM      2  C   UNL     1      42.505  31.765   3.744  1.00  0.00     0.004 A 
ATOM      3  C   UNL     1      41.391  32.157   2.995  1.00  0.00     0.048 A 
ATOM      4  C   UNL     1      41.542  32.510   1.650  1.00  0.00     0.138 A 
ATOM      5  C   UNL     1      42.822  32.467   1.051  1.00  0.00     0.018 A 
ATOM      6  C   UNL     1      43.934  32.072   1.809  1.00  0.00     0.012 A 
ATOM      7  C   UNL     1      42.941  32.824  -0.294  1.00  0.00     0.019 A 
ATOM      8  C   UNL     1      41.804  33.210  -1.003  1.00  0.00     0.094 A 
ATOM      9  C   UNL     1      40.568  33.228  -0.346  1.00  0.00     0.336 A 
ATOM     10  O   UNL     1      39.530  33.573  -0.970  1.00  0.00    -0.246 OA
ATOM     11  O   UNL     1      40.482  32.883   0.936  1.00  0.00    -0.423 OA
ENDROOT
TORSDOF 0
ENDMDL
MODEL 5
REMARK VINA RESULT:    -3.974     16.438     17.715
REMARK INTER + INTRA:          -3.974
REMARK INTER:                  -3.974
REMARK INTRA:                   0.000
REMARK UNBOUND:                 0.000
REMARK SMILES O=c1ccc2ccccc2o1
REMARK SMILES IDX 7 1 8 2 9 3 10 4 5 5 6 6 4 7 3 8 2 9 1 10 11 11
REMARK H PARENT
REMARK Flexibility Score: inf
ROOT
ATOM      1  C   UNL     1      40.323  33.379  -1.184  1.00  0.00     0.001 A 
ATOM      2  C   UNL     1      41.570  32.963  -1.662  1.00  0.00     0.004 A 
ATOM      3  C   UNL     1      42.557  32.530  -0.770  1.00  0.00     0.048 A 
ATOM      4  C   UNL     1      42.299  32.513   0.605  1.00  0.00     0.138 A 
ATOM      5  C   UNL     1      41.040  32.934   1.089  1.00  0.00     0.018 A 
ATOM      6  C   UNL     1      40.055  33.366   0.189  1.00  0.00     0.012 A 
ATOM      7  C   UNL     1      40.812  32.906   2.467  1.00  0.00     0.019 A 
ATOM      8  C   UNL     1      41.825  32.467   3.319  1.00  0.00     0.094 A 
ATOM      9  C   UNL     1      43.048  32.064   2.769  1.00  0.00     0.336 A 
ATOM     10  O   UNL     1      43.974  31.665   3.523  1.00  0.00    -0.246 OA
ATOM     11  O   UNL     1      43.238  32.101   1.453  1.00  0.00    -0.423 OA
ENDROOT
TORSDOF 0
ENDMDL
MODEL 6
REMARK VINA RESULT:    -3.971      1.157      2.132
REMARK INTER + INTRA:          -3.971
REMARK INTER:                  -3.971
REMARK INTRA:                   0.000
REMARK UNBOUND:                 0.000
REMARK SMILES O=c1ccc2ccccc2o1
REMARK SMILES IDX 7 1 8 2 9 3 10 4 5 5 6 6 4 7 3 8 2 9 1 10 11 11
REMARK H PARENT
REMARK Flexibility Score: inf
ROOT
ATOM      1  C   UNL     1      26.161  39.244  -1.282  1.00  0.00     0.001 A 
ATOM      2  C   UNL     1      27.422  39.117  -0.691  1.00  0.00     0.004 A 
ATOM      3  C   UNL     1      27.595  39.395   0.669  1.00  0.00     0.048 A 
ATOM      4  C   UNL     1      26.503  39.802   1.443  1.00  0.00     0.138 A 
ATOM      5  C   UNL     1      25.227  39.930   0.848  1.00  0.00     0.018 A 
ATOM      6  C   UNL     1      25.062  39.650  -0.516  1.00  0.00     0.012 A 
ATOM      7  C   UNL     1      24.156  40.339   1.647  1.00  0.00     0.019 A 
ATOM      8  C   UNL     1      24.373  40.606   2.998  1.00  0.00     0.094 A 
ATOM      9  C   UNL     1      25.664  40.457   3.521  1.00  0.00     0.336 A 
ATOM     10  O   UNL     1      25.879  40.693   4.739  1.00  0.00    -0.246 OA
ATOM     11  O   UNL     1      26.666  40.067   2.738  1.00  0.00    -0.423 OA
ENDROOT
TORSDOF 0
ENDMDL
MODEL 7
REMARK VINA RESULT:    -3.916     16.503     17.796
REMARK INTER + INTRA:          -3.916
REMARK INTER:                  -3.916
REMARK INTRA:                   0.000
REMARK UNBOUND:                 0.000
REMARK SMILES O=c1ccc2ccccc2o1
REMARK SMILES IDX 7 1 8 2 9 3 10 4 5 5 6 6 4 7 3 8 2 9 1 10 11 11
REMARK H PARENT
REMARK Flexibility Score: inf
ROOT
ATOM      1  C   UNL     1      41.601  33.074  -1.309  1.00  0.00     0.001 A 
ATOM      2  C   UNL     1      40.389  33.266  -0.638  1.00  0.00     0.004 A 
ATOM      3  C   UNL     1      40.320  33.111   0.751  1.00  0.00     0.048 A 
ATOM      4  C   UNL     1      41.466  32.763   1.473  1.00  0.00     0.138 A 
ATOM      5  C   UNL     1      42.691  32.569   0.797  1.00  0.00     0.018 A 
ATOM      6  C   UNL     1      42.753  32.726  -0.595  1.00  0.00     0.012 A 
ATOM      7  C   UNL     1      43.819  32.222   1.546  1.00  0.00     0.019 A 
ATOM      8  C   UNL     1      43.704  32.077   2.928  1.00  0.00     0.094 A 
ATOM      9  C   UNL     1      42.458  32.286   3.531  1.00  0.00     0.336 A 
ATOM     10  O   UNL     1      42.335  32.161   4.778  1.00  0.00    -0.246 OA
ATOM     11  O   UNL     1      41.400  32.616   2.795  1.00  0.00    -0.423 OA
ENDROOT
TORSDOF 0
ENDMDL
MODEL 8
REMARK VINA RESULT:    -3.872      1.412      3.801
REMARK INTER + INTRA:          -3.872
REMARK INTER:                  -3.872
REMARK INTRA:                   0.000
REMARK UNBOUND:                 0.000
REMARK SMILES O=c1ccc2ccccc2o1
REMARK SMILES IDX 7 1 8 2 9 3 10 4 5 5 6 6 4 7 3 8 2 9 1 10 11 11
REMARK H PARENT
REMARK Flexibility Score: inf
ROOT
ATOM      1  C   UNL     1      25.704  40.756   4.289  1.00  0.00     0.001 A 
ATOM      2  C   UNL     1      24.439  41.028   3.759  1.00  0.00     0.004 A 
ATOM      3  C   UNL     1      24.181  40.806   2.401  1.00  0.00     0.048 A 
ATOM      4  C   UNL     1      25.191  40.311   1.570  1.00  0.00     0.138 A 
ATOM      5  C   UNL     1      26.470  40.035   2.105  1.00  0.00     0.018 A 
ATOM      6  C   UNL     1      26.721  40.261   3.466  1.00  0.00     0.012 A 
ATOM      7  C   UNL     1      27.458  39.541   1.249  1.00  0.00     0.019 A 
ATOM      8  C   UNL     1      27.157  39.335  -0.097  1.00  0.00     0.094 A 
ATOM      9  C   UNL     1      25.868  39.629  -0.557  1.00  0.00     0.336 A 
ATOM     10  O   UNL     1      25.578  39.449  -1.769  1.00  0.00    -0.246 OA
ATOM     11  O   UNL     1      24.946  40.099   0.279  1.00  0.00    -0.423 OA
ENDROOT
TORSDOF 0
ENDMDL
MODEL 9
REMARK VINA RESULT:    -3.856      3.509      5.282
REMARK INTER + INTRA:          -3.856
REMARK INTER:                  -3.856
REMARK INTRA:                   0.000
REMARK UNBOUND:                 0.000
REMARK SMILES O=c1ccc2ccccc2o1
REMARK SMILES IDX 7 1 8 2 9 3 10 4 5 5 6 6 4 7 3 8 2 9 1 10 11 11
REMARK H PARENT
REMARK Flexibility Score: inf
ROOT
ATOM      1  C   UNL     1      24.435  40.600   3.629  1.00  0.00     0.001 A 
ATOM      2  C   UNL     1      25.586  41.042   2.967  1.00  0.00     0.004 A 
ATOM      3  C   UNL     1      26.185  42.254   3.327  1.00  0.00     0.048 A 
ATOM      4  C   UNL     1      25.633  43.029   4.353  1.00  0.00     0.138 A 
ATOM      5  C   UNL     1      24.470  42.584   5.022  1.00  0.00     0.018 A 
ATOM      6  C   UNL     1      23.875  41.368   4.655  1.00  0.00     0.012 A 
ATOM      7  C   UNL     1      23.942  43.381   6.042  1.00  0.00     0.019 A 
ATOM      8  C   UNL     1      24.571  44.582   6.368  1.00  0.00     0.094 A 
ATOM      9  C   UNL     1      25.720  44.959   5.663  1.00  0.00     0.336 A 
ATOM     10  O   UNL     1      26.303  46.039   5.943  1.00  0.00    -0.246 OA
ATOM     11  O   UNL     1      26.202  44.182   4.696  1.00  0.00    -0.423 OA
ENDROOT
TORSDOF 0
ENDMDL
