MODEL 1
REMARK VINA RESULT:    -5.990      0.000      0.000
REMARK INTER + INTRA:         -11.309
REMARK INTER:                 -10.542
REMARK INTRA:                  -0.766
REMARK UNBOUND:                -0.766
REMARK SMILES CCCCCCCCCCCCCCC(=O)[O-]
REMARK SMILES IDX 9 1 10 2 11 3 12 4 13 5 14 6 15 7 16 8 17 9 8 10 7 11 6 12
REMARK SMILES IDX 5 13 4 14 3 15 2 16 1 17
REMARK H PARENT
REMARK Flexibility Score: inf
ROOT
ATOM      1  C   UNL     1     -11.432  -0.446 -10.443  1.00  0.00     0.000 C 
ENDROOT
BRANCH   1   2
ATOM      2  C   UNL     1     -12.832  -1.082 -10.494  1.00  0.00     0.000 C 
BRANCH   2   3
ATOM      3  C   UNL     1     -13.959  -0.040 -10.622  1.00  0.00     0.000 C 
BRANCH   3   4
ATOM      4  C   UNL     1     -14.276   0.751  -9.338  1.00  0.00     0.000 C 
BRANCH   4   5
ATOM      5  C   UNL     1     -14.083   2.277  -9.437  1.00  0.00     0.006 C 
BRANCH   5   6
ATOM      6  C   UNL     1     -12.608   2.717  -9.516  1.00  0.00     0.053 C 
BRANCH   6   7
ATOM      7  C   UNL     1     -12.296   3.857  -8.594  1.00  0.00     0.041 C 
ATOM      8  O   UNL     1     -13.151   4.759  -8.388  1.00  0.00    -0.550 OA
ATOM      9  O   UNL     1     -11.049   3.943  -7.990  1.00  0.00    -0.550 OA
ENDBRANCH   6   7
ENDBRANCH   5   6
ENDBRANCH   4   5
ENDBRANCH   3   4
ENDBRANCH   2   3
ENDBRANCH   1   2
BRANCH   1  10
ATOM     10  C   UNL     1     -10.557  -1.038  -9.326  1.00  0.00     0.000 C 
BRANCH  10  11
ATOM     11  C   UNL     1     -10.555  -2.577  -9.325  1.00  0.00    -0.000 C 
BRANCH  11  12
ATOM     12  C   UNL     1      -9.136  -3.163  -9.388  1.00  0.00    -0.000 C 
BRANCH  12  13
ATOM     13  C   UNL     1      -8.718  -3.840  -8.071  1.00  0.00    -0.000 C 
BRANCH  13  14
ATOM     14  C   UNL     1      -9.879  -3.950  -7.070  1.00  0.00    -0.000 C 
BRANCH  14  15
ATOM     15  C   UNL     1     -10.356  -5.397  -6.874  1.00  0.00    -0.000 C 
BRANCH  15  16
ATOM     16  C   UNL     1     -11.008  -5.578  -5.499  1.00  0.00    -0.003 C 
ATOM     17  C   UNL     1     -12.443  -6.078  -5.630  1.00  0.00     0.004 C 
ENDBRANCH  15  16
ENDBRANCH  14  15
ENDBRANCH  13  14
ENDBRANCH  12  13
ENDBRANCH  11  12
ENDBRANCH  10  11
ENDBRANCH   1  10
TORSDOF 13
ENDMDL
MODEL 2
REMARK VINA RESULT:    -5.795      3.793      7.971
REMARK INTER + INTRA:         -10.964
REMARK INTER:                 -10.247
REMARK INTRA:                  -0.717
REMARK UNBOUND:                -0.766
REMARK SMILES CCCCCCCCCCCCCCC(=O)[O-]
REMARK SMILES IDX 9 1 10 2 11 3 12 4 13 5 14 6 15 7 16 8 17 9 8 10 7 11 6 12
REMARK SMILES IDX 5 13 4 14 3 15 2 16 1 17
REMARK H PARENT
REMARK Flexibility Score: inf
ROOT
ATOM      1  C   UNL     1     -10.637  -1.045  -9.576  1.00  0.00     0.000 C 
ENDROOT
BRANCH   1   2
ATOM      2  C   UNL     1     -10.617  -2.575  -9.417  1.00  0.00     0.000 C 
BRANCH   2   3
ATOM      3  C   UNL     1      -9.193  -3.160  -9.426  1.00  0.00     0.000 C 
BRANCH   3   4
ATOM      4  C   UNL     1      -8.758  -3.856  -8.122  1.00  0.00     0.000 C 
BRANCH   4   5
ATOM      5  C   UNL     1      -9.622  -5.058  -7.693  1.00  0.00     0.006 C 
BRANCH   5   6
ATOM      6  C   UNL     1     -10.238  -4.915  -6.288  1.00  0.00     0.053 C 
BRANCH   6   7
ATOM      7  C   UNL     1     -10.927  -6.164  -5.830  1.00  0.00     0.041 C 
ATOM      8  O   UNL     1     -10.297  -7.253  -5.776  1.00  0.00    -0.550 OA
ATOM      9  O   UNL     1     -12.274  -6.135  -5.495  1.00  0.00    -0.550 OA
ENDBRANCH   6   7
ENDBRANCH   5   6
ENDBRANCH   4   5
ENDBRANCH   3   4
ENDBRANCH   2   3
ENDBRANCH   1   2
BRANCH   1  10
ATOM     10  C   UNL     1     -11.607  -0.579 -10.674  1.00  0.00     0.000 C 
BRANCH  10  11
ATOM     11  C   UNL     1     -13.021  -1.166 -10.506  1.00  0.00    -0.000 C 
BRANCH  11  12
ATOM     12  C   UNL     1     -14.118  -0.097 -10.617  1.00  0.00    -0.000 C 
BRANCH  12  13
ATOM     13  C   UNL     1     -14.260   0.739  -9.333  1.00  0.00    -0.000 C 
BRANCH  13  14
ATOM     14  C   UNL     1     -13.865   2.209  -9.538  1.00  0.00    -0.000 C 
BRANCH  14  15
ATOM     15  C   UNL     1     -12.362   2.452  -9.333  1.00  0.00    -0.000 C 
BRANCH  15  16
ATOM     16  C   UNL     1     -12.088   3.915  -8.968  1.00  0.00    -0.003 C 
ATOM     17  C   UNL     1     -13.141   4.449  -8.002  1.00  0.00     0.004 C 
ENDBRANCH  15  16
ENDBRANCH  14  15
ENDBRANCH  13  14
ENDBRANCH  12  13
ENDBRANCH  11  12
ENDBRANCH  10  11
ENDBRANCH   1  10
TORSDOF 13
ENDMDL
MODEL 3
REMARK VINA RESULT:    -5.513      1.049      1.914
REMARK INTER + INTRA:         -10.470
REMARK INTER:                  -9.603
REMARK INTRA:                  -0.867
REMARK UNBOUND:                -0.766
REMARK SMILES CCCCCCCCCCCCCCC(=O)[O-]
REMARK SMILES IDX 9 1 10 2 11 3 12 4 13 5 14 6 15 7 16 8 17 9 8 10 7 11 6 12
REMARK SMILES IDX 5 13 4 14 3 15 2 16 1 17
REMARK H PARENT
REMARK Flexibility Score: inf
ROOT
ATOM      1  C   UNL     1     -10.245  -2.074  -9.129  1.00  0.00     0.000 C 
ENDROOT
BRANCH   1   2
ATOM      2  C   UNL     1     -10.686  -0.784  -9.841  1.00  0.00     0.000 C 
BRANCH   2   3
ATOM      3  C   UNL     1     -12.117  -0.867 -10.403  1.00  0.00     0.000 C 
BRANCH   3   4
ATOM      4  C   UNL     1     -13.048   0.296 -10.012  1.00  0.00     0.000 C 
BRANCH   4   5
ATOM      5  C   UNL     1     -12.342   1.560  -9.481  1.00  0.00     0.006 C 
BRANCH   5   6
ATOM      6  C   UNL     1     -13.292   2.744  -9.223  1.00  0.00     0.053 C 
BRANCH   6   7
ATOM      7  C   UNL     1     -12.597   3.917  -8.600  1.00  0.00     0.041 C 
ATOM      8  O   UNL     1     -13.213   5.002  -8.428  1.00  0.00    -0.550 OA
ATOM      9  O   UNL     1     -11.259   3.824  -8.241  1.00  0.00    -0.550 OA
ENDBRANCH   6   7
ENDBRANCH   5   6
ENDBRANCH   4   5
ENDBRANCH   3   4
ENDBRANCH   2   3
ENDBRANCH   1   2
BRANCH   1  10
ATOM     10  C   UNL     1     -10.804  -3.339  -9.802  1.00  0.00     0.000 C 
BRANCH  10  11
ATOM     11  C   UNL     1     -10.963  -4.513  -8.820  1.00  0.00    -0.000 C 
BRANCH  11  12
ATOM     12  C   UNL     1      -9.625  -4.952  -8.206  1.00  0.00    -0.000 C 
BRANCH  12  13
ATOM     13  C   UNL     1      -9.808  -5.819  -6.948  1.00  0.00    -0.000 C 
BRANCH  13  14
ATOM     14  C   UNL     1     -10.983  -5.351  -6.074  1.00  0.00    -0.000 C 
BRANCH  14  15
ATOM     15  C   UNL     1     -11.814  -6.520  -5.524  1.00  0.00    -0.000 C 
BRANCH  15  16
ATOM     16  C   UNL     1     -13.298  -6.345  -5.863  1.00  0.00    -0.003 C 
ATOM     17  C   UNL     1     -13.550  -6.543  -7.355  1.00  0.00     0.004 C 
ENDBRANCH  15  16
ENDBRANCH  14  15
ENDBRANCH  13  14
ENDBRANCH  12  13
ENDBRANCH  11  12
ENDBRANCH  10  11
ENDBRANCH   1  10
TORSDOF 13
ENDMDL
MODEL 4
REMARK VINA RESULT:    -5.416      1.532      2.511
REMARK INTER + INTRA:         -10.298
REMARK INTER:                  -9.149
REMARK INTRA:                  -1.149
REMARK UNBOUND:                -0.766
REMARK SMILES CCCCCCCCCCCCCCC(=O)[O-]
REMARK SMILES IDX 9 1 10 2 11 3 12 4 13 5 14 6 15 7 16 8 17 9 8 10 7 11 6 12
REMARK SMILES IDX 5 13 4 14 3 15 2 16 1 17
REMARK H PARENT
REMARK Flexibility Score: inf
ROOT
ATOM      1  C   UNL     1     -12.321  -2.376 -10.137  1.00  0.00     0.000 C 
ENDROOT
BRANCH   1   2
ATOM      2  C   UNL     1     -12.414  -0.906 -10.582  1.00  0.00     0.000 C 
BRANCH   2   3
ATOM      3  C   UNL     1     -13.835  -0.328 -10.452  1.00  0.00     0.000 C 
BRANCH   3   4
ATOM      4  C   UNL     1     -13.916   1.097  -9.872  1.00  0.00     0.000 C 
BRANCH   4   5
ATOM      5  C   UNL     1     -12.605   1.646  -9.276  1.00  0.00     0.006 C 
BRANCH   5   6
ATOM      6  C   UNL     1     -12.386   3.150  -9.526  1.00  0.00     0.053 C 
BRANCH   6   7
ATOM      7  C   UNL     1     -11.870   3.868  -8.315  1.00  0.00     0.041 C 
ATOM      8  O   UNL     1     -12.664   4.483  -7.556  1.00  0.00    -0.550 OA
ATOM      9  O   UNL     1     -10.508   3.886  -8.044  1.00  0.00    -0.550 OA
ENDBRANCH   6   7
ENDBRANCH   5   6
ENDBRANCH   4   5
ENDBRANCH   3   4
ENDBRANCH   2   3
ENDBRANCH   1   2
BRANCH   1  10
ATOM     10  C   UNL     1     -13.703  -3.027  -9.964  1.00  0.00     0.000 C 
BRANCH  10  11
ATOM     11  C   UNL     1     -13.618  -4.467  -9.425  1.00  0.00    -0.000 C 
BRANCH  11  12
ATOM     12  C   UNL     1     -12.169  -4.921  -9.188  1.00  0.00    -0.000 C 
BRANCH  12  13
ATOM     13  C   UNL     1     -11.967  -5.545  -7.796  1.00  0.00    -0.000 C 
BRANCH  13  14
ATOM     14  C   UNL     1     -10.599  -5.201  -7.188  1.00  0.00    -0.000 C 
BRANCH  14  15
ATOM     15  C   UNL     1      -9.502  -5.041  -8.251  1.00  0.00    -0.000 C 
BRANCH  15  16
ATOM     16  C   UNL     1      -8.707  -3.750  -8.028  1.00  0.00    -0.003 C 
ATOM     17  C   UNL     1      -9.630  -2.586  -7.680  1.00  0.00     0.004 C 
ENDBRANCH  15  16
ENDBRANCH  14  15
ENDBRANCH  13  14
ENDBRANCH  12  13
ENDBRANCH  11  12
ENDBRANCH  10  11
ENDBRANCH   1  10
TORSDOF 13
ENDMDL
MODEL 5
REMARK VINA RESULT:    -5.234     15.681     18.011
REMARK INTER + INTRA:          -9.977
REMARK INTER:                  -8.905
REMARK INTRA:                  -1.072
REMARK UNBOUND:                -0.766
REMARK SMILES CCCCCCCCCCCCCCC(=O)[O-]
REMARK SMILES IDX 9 1 10 2 11 3 12 4 13 5 14 6 15 7 16 8 17 9 8 10 7 11 6 12
REMARK SMILES IDX 5 13 4 14 3 15 2 16 1 17
REMARK H PARENT
REMARK Flexibility Score: inf
ROOT
ATOM      1  C   UNL     1      -9.549   6.502   7.851  1.00  0.00     0.000 C 
ENDROOT
BRANCH   1   2
ATOM      2  C   UNL     1     -10.419   5.484   8.607  1.00  0.00     0.000 C 
BRANCH   2   3
ATOM      3  C   UNL     1     -10.756   4.240   7.764  1.00  0.00     0.000 C 
BRANCH   3   4
ATOM      4  C   UNL     1     -12.216   4.146   7.283  1.00  0.00     0.000 C 
BRANCH   4   5
ATOM      5  C   UNL     1     -12.740   5.373   6.510  1.00  0.00     0.006 C 
BRANCH   5   6
ATOM      6  C   UNL     1     -12.438   5.335   5.000  1.00  0.00     0.053 C 
BRANCH   6   7
ATOM      7  C   UNL     1     -13.581   5.838   4.170  1.00  0.00     0.041 C 
ATOM      8  O   UNL     1     -13.574   5.684   2.920  1.00  0.00    -0.550 OA
ATOM      9  O   UNL     1     -14.638   6.508   4.772  1.00  0.00    -0.550 OA
ENDBRANCH   6   7
ENDBRANCH   5   6
ENDBRANCH   4   5
ENDBRANCH   3   4
ENDBRANCH   2   3
ENDBRANCH   1   2
BRANCH   1  10
ATOM     10  C   UNL     1      -9.091   5.983   6.478  1.00  0.00     0.000 C 
BRANCH  10  11
ATOM     11  C   UNL     1      -9.096   7.078   5.396  1.00  0.00    -0.000 C 
BRANCH  11  12
ATOM     12  C   UNL     1      -8.509   8.405   5.900  1.00  0.00    -0.000 C 
BRANCH  12  13
ATOM     13  C   UNL     1      -7.944   9.271   4.761  1.00  0.00    -0.000 C 
BRANCH  13  14
ATOM     14  C   UNL     1      -7.154  10.484   5.277  1.00  0.00    -0.000 C 
BRANCH  14  15
ATOM     15  C   UNL     1      -6.623  10.280   6.703  1.00  0.00    -0.000 C 
BRANCH  15  16
ATOM     16  C   UNL     1      -5.448  11.222   6.990  1.00  0.00    -0.003 C 
ATOM     17  C   UNL     1      -4.193  10.782   6.242  1.00  0.00     0.004 C 
ENDBRANCH  15  16
ENDBRANCH  14  15
ENDBRANCH  13  14
ENDBRANCH  12  13
ENDBRANCH  11  12
ENDBRANCH  10  11
ENDBRANCH   1  10
TORSDOF 13
ENDMDL
MODEL 6
REMARK VINA RESULT:    -5.200     15.645     17.618
REMARK INTER + INTRA:          -9.918
REMARK INTER:                  -8.559
REMARK INTRA:                  -1.359
REMARK UNBOUND:                -0.766
REMARK SMILES CCCCCCCCCCCCCCC(=O)[O-]
REMARK SMILES IDX 9 1 10 2 11 3 12 4 13 5 14 6 15 7 16 8 17 9 8 10 7 11 6 12
REMARK SMILES IDX 5 13 4 14 3 15 2 16 1 17
REMARK H PARENT
REMARK Flexibility Score: inf
ROOT
ATOM      1  C   UNL     1      -8.888   6.148   6.693  1.00  0.00     0.000 C 
ENDROOT
BRANCH   1   2
ATOM      2  C   UNL     1      -9.330   7.016   5.501  1.00  0.00     0.000 C 
BRANCH   2   3
ATOM      3  C   UNL     1     -10.023   8.321   5.935  1.00  0.00     0.000 C 
BRANCH   3   4
ATOM      4  C   UNL     1      -9.198   9.606   5.729  1.00  0.00     0.000 C 
BRANCH   4   5
ATOM      5  C   UNL     1      -7.796   9.402   5.120  1.00  0.00     0.006 C 
BRANCH   5   6
ATOM      6  C   UNL     1      -6.871  10.626   5.259  1.00  0.00     0.053 C 
BRANCH   6   7
ATOM      7  C   UNL     1      -6.011  10.563   6.486  1.00  0.00     0.041 C 
ATOM      8  O   UNL     1      -4.805  10.211   6.397  1.00  0.00    -0.550 OA
ATOM      9  O   UNL     1      -6.549  10.860   7.730  1.00  0.00    -0.550 OA
ENDBRANCH   6   7
ENDBRANCH   5   6
ENDBRANCH   4   5
ENDBRANCH   3   4
ENDBRANCH   2   3
ENDBRANCH   1   2
BRANCH   1  10
ATOM     10  C   UNL     1      -9.635   6.501   7.989  1.00  0.00     0.000 C 
BRANCH  10  11
ATOM     11  C   UNL     1     -10.852   5.593   8.241  1.00  0.00    -0.000 C 
BRANCH  11  12
ATOM     12  C   UNL     1     -10.654   4.177   7.678  1.00  0.00    -0.000 C 
BRANCH  12  13
ATOM     13  C   UNL     1     -11.664   3.837   6.568  1.00  0.00    -0.000 C 
BRANCH  13  14
ATOM     14  C   UNL     1     -12.599   5.012   6.240  1.00  0.00    -0.000 C 
BRANCH  14  15
ATOM     15  C   UNL     1     -12.538   5.421   4.761  1.00  0.00    -0.000 C 
BRANCH  15  16
ATOM     16  C   UNL     1     -13.828   6.131   4.335  1.00  0.00    -0.003 C 
ATOM     17  C   UNL     1     -14.019   6.069   2.823  1.00  0.00     0.004 C 
ENDBRANCH  15  16
ENDBRANCH  14  15
ENDBRANCH  13  14
ENDBRANCH  12  13
ENDBRANCH  11  12
ENDBRANCH  10  11
ENDBRANCH   1  10
TORSDOF 13
ENDMDL
MODEL 7
REMARK VINA RESULT:    -5.187      3.792      8.216
REMARK INTER + INTRA:          -9.896
REMARK INTER:                  -9.218
REMARK INTRA:                  -0.678
REMARK UNBOUND:                -0.766
REMARK SMILES CCCCCCCCCCCCCCC(=O)[O-]
REMARK SMILES IDX 9 1 10 2 11 3 12 4 13 5 14 6 15 7 16 8 17 9 8 10 7 11 6 12
REMARK SMILES IDX 5 13 4 14 3 15 2 16 1 17
REMARK H PARENT
REMARK Flexibility Score: inf
ROOT
ATOM      1  C   UNL     1     -10.157  -3.614  -9.731  1.00  0.00     0.000 C 
ENDROOT
BRANCH   1   2
ATOM      2  C   UNL     1     -10.540  -4.593  -8.607  1.00  0.00     0.000 C 
BRANCH   2   3
ATOM      3  C   UNL     1     -10.055  -6.030  -8.873  1.00  0.00     0.000 C 
BRANCH   3   4
ATOM      4  C   UNL     1     -10.893  -7.142  -8.213  1.00  0.00     0.000 C 
BRANCH   4   5
ATOM      5  C   UNL     1     -10.274  -7.779  -6.953  1.00  0.00     0.006 C 
BRANCH   5   6
ATOM      6  C   UNL     1     -11.221  -7.809  -5.739  1.00  0.00     0.053 C 
BRANCH   6   7
ATOM      7  C   UNL     1     -11.963  -6.520  -5.553  1.00  0.00     0.041 C 
ATOM      8  O   UNL     1     -11.358  -5.493  -5.144  1.00  0.00    -0.550 OA
ATOM      9  O   UNL     1     -13.328  -6.459  -5.797  1.00  0.00    -0.550 OA
ENDBRANCH   6   7
ENDBRANCH   5   6
ENDBRANCH   4   5
ENDBRANCH   3   4
ENDBRANCH   2   3
ENDBRANCH   1   2
BRANCH   1  10
ATOM     10  C   UNL     1     -10.766  -2.218  -9.528  1.00  0.00     0.000 C 
BRANCH  10  11
ATOM     11  C   UNL     1     -12.197  -2.107 -10.084  1.00  0.00    -0.000 C 
BRANCH  11  12
ATOM     12  C   UNL     1     -12.476  -0.737 -10.721  1.00  0.00    -0.000 C 
BRANCH  12  13
ATOM     13  C   UNL     1     -13.915  -0.252 -10.470  1.00  0.00    -0.000 C 
BRANCH  13  14
ATOM     14  C   UNL     1     -13.968   1.014  -9.600  1.00  0.00    -0.000 C 
BRANCH  14  15
ATOM     15  C   UNL     1     -12.625   1.757  -9.554  1.00  0.00    -0.000 C 
BRANCH  15  16
ATOM     16  C   UNL     1     -12.830   3.239  -9.224  1.00  0.00    -0.003 C 
ATOM     17  C   UNL     1     -11.629   3.809  -8.476  1.00  0.00     0.004 C 
ENDBRANCH  15  16
ENDBRANCH  14  15
ENDBRANCH  13  14
ENDBRANCH  12  13
ENDBRANCH  11  12
ENDBRANCH  10  11
ENDBRANCH   1  10
TORSDOF 13
ENDMDL
MODEL 8
REMARK VINA RESULT:    -5.180      1.828      3.415
REMARK INTER + INTRA:          -9.883
REMARK INTER:                  -8.414
REMARK INTRA:                  -1.469
REMARK UNBOUND:                -0.766
REMARK SMILES CCCCCCCCCCCCCCC(=O)[O-]
REMARK SMILES IDX 9 1 10 2 11 3 12 4 13 5 14 6 15 7 16 8 17 9 8 10 7 11 6 12
REMARK SMILES IDX 5 13 4 14 3 15 2 16 1 17
REMARK H PARENT
REMARK Flexibility Score: inf
ROOT
ATOM      1  C   UNL     1      -9.791  -2.429  -8.263  1.00  0.00     0.000 C 
ENDROOT
BRANCH   1   2
ATOM      2  C   UNL     1     -10.540  -2.316  -9.603  1.00  0.00     0.000 C 
BRANCH   2   3
ATOM      3  C   UNL     1     -11.814  -3.180  -9.652  1.00  0.00     0.000 C 
BRANCH   3   4
ATOM      4  C   UNL     1     -13.047  -2.502 -10.279  1.00  0.00     0.000 C 
BRANCH   4   5
ATOM      5  C   UNL     1     -12.823  -1.066 -10.793  1.00  0.00     0.006 C 
BRANCH   5   6
ATOM      6  C   UNL     1     -13.982  -0.101 -10.480  1.00  0.00     0.053 C 
BRANCH   6   7
ATOM      7  C   UNL     1     -13.541   1.094  -9.690  1.00  0.00     0.041 C 
ATOM      8  O   UNL     1     -14.392   1.907  -9.242  1.00  0.00    -0.550 OA
ATOM      9  O   UNL     1     -12.190   1.330  -9.478  1.00  0.00    -0.550 OA
ENDBRANCH   6   7
ENDBRANCH   5   6
ENDBRANCH   4   5
ENDBRANCH   3   4
ENDBRANCH   2   3
ENDBRANCH   1   2
BRANCH   1  10
ATOM     10  C   UNL     1      -8.748  -3.557  -8.264  1.00  0.00     0.000 C 
BRANCH  10  11
ATOM     11  C   UNL     1      -9.273  -4.853  -7.618  1.00  0.00    -0.000 C 
BRANCH  11  12
ATOM     12  C   UNL     1     -10.282  -4.580  -6.492  1.00  0.00    -0.000 C 
BRANCH  12  13
ATOM     13  C   UNL     1     -10.749  -5.870  -5.794  1.00  0.00    -0.000 C 
BRANCH  13  14
ATOM     14  C   UNL     1     -11.508  -6.812  -6.741  1.00  0.00    -0.000 C 
BRANCH  14  15
ATOM     15  C   UNL     1     -12.813  -6.196  -7.269  1.00  0.00    -0.000 C 
BRANCH  15  16
ATOM     16  C   UNL     1     -13.010  -6.520  -8.754  1.00  0.00    -0.003 C 
ATOM     17  C   UNL     1     -11.709  -6.994  -9.393  1.00  0.00     0.004 C 
ENDBRANCH  15  16
ENDBRANCH  14  15
ENDBRANCH  13  14
ENDBRANCH  12  13
ENDBRANCH  11  12
ENDBRANCH  10  11
ENDBRANCH   1  10
TORSDOF 13
ENDMDL
MODEL 9
REMARK VINA RESULT:    -5.116      4.307      7.893
REMARK INTER + INTRA:          -9.771
REMARK INTER:                  -8.638
REMARK INTRA:                  -1.133
REMARK UNBOUND:                -0.766
REMARK SMILES CCCCCCCCCCCCCCC(=O)[O-]
REMARK SMILES IDX 9 1 10 2 11 3 12 4 13 5 14 6 15 7 16 8 17 9 8 10 7 11 6 12
REMARK SMILES IDX 5 13 4 14 3 15 2 16 1 17
REMARK H PARENT
REMARK Flexibility Score: inf
ROOT
ATOM      1  C   UNL     1     -10.371  -4.262  -7.899  1.00  0.00     0.000 C 
ENDROOT
BRANCH   1   2
ATOM      2  C   UNL     1     -10.775  -4.941  -9.219  1.00  0.00     0.000 C 
BRANCH   2   3
ATOM      3  C   UNL     1     -12.192  -5.542  -9.175  1.00  0.00     0.000 C 
BRANCH   3   4
ATOM      4  C   UNL     1     -12.737  -5.841  -7.766  1.00  0.00     0.000 C 
BRANCH   4   5
ATOM      5  C   UNL     1     -12.881  -7.336  -7.415  1.00  0.00     0.006 C 
BRANCH   5   6
ATOM      6  C   UNL     1     -11.539  -8.052  -7.173  1.00  0.00     0.053 C 
BRANCH   6   7
ATOM      7  C   UNL     1     -10.867  -7.609  -5.908  1.00  0.00     0.041 C 
ATOM      8  O   UNL     1     -11.467  -7.705  -4.804  1.00  0.00    -0.550 OA
ATOM      9  O   UNL     1      -9.594  -7.058  -5.951  1.00  0.00    -0.550 OA
ENDBRANCH   6   7
ENDBRANCH   5   6
ENDBRANCH   4   5
ENDBRANCH   3   4
ENDBRANCH   2   3
ENDBRANCH   1   2
BRANCH   1  10
ATOM     10  C   UNL     1      -9.769  -2.864  -8.115  1.00  0.00     0.000 C 
BRANCH  10  11
ATOM     11  C   UNL     1     -10.240  -2.211  -9.427  1.00  0.00    -0.000 C 
BRANCH  11  12
ATOM     12  C   UNL     1     -10.635  -0.738  -9.241  1.00  0.00    -0.000 C 
BRANCH  12  13
ATOM     13  C   UNL     1     -11.470  -0.199 -10.416  1.00  0.00    -0.000 C 
BRANCH  13  14
ATOM     14  C   UNL     1     -12.696  -1.074 -10.720  1.00  0.00    -0.000 C 
BRANCH  14  15
ATOM     15  C   UNL     1     -14.003  -0.268 -10.763  1.00  0.00    -0.000 C 
BRANCH  15  16
ATOM     16  C   UNL     1     -14.216   0.501  -9.456  1.00  0.00    -0.003 C 
ATOM     17  C   UNL     1     -14.341   2.000  -9.711  1.00  0.00     0.004 C 
ENDBRANCH  15  16
ENDBRANCH  14  15
ENDBRANCH  13  14
ENDBRANCH  12  13
ENDBRANCH  11  12
ENDBRANCH  10  11
ENDBRANCH   1  10
TORSDOF 13
ENDMDL
