MODEL 1
REMARK VINA RESULT:    -4.008      0.000      0.000
REMARK INTER + INTRA:          -8.909
REMARK INTER:                  -7.054
REMARK INTRA:                  -1.855
REMARK UNBOUND:                -1.855
REMARK SMILES CCCCCCCCCCCCCCC(=O)[O-]
REMARK SMILES IDX 9 1 10 2 11 3 12 4 13 5 14 6 15 7 16 8 17 9 8 10 7 11 6 12
REMARK SMILES IDX 5 13 4 14 3 15 2 16 1 17
REMARK H PARENT
REMARK Flexibility Score: inf
ROOT
ATOM      1  C   UNL     1      33.600   8.732  29.275  1.00  0.00     0.000 C 
ENDROOT
BRANCH   1   2
ATOM      2  C   UNL     1      32.226   8.881  28.596  1.00  0.00     0.000 C 
BRANCH   2   3
ATOM      3  C   UNL     1      31.266   7.727  28.932  1.00  0.00     0.000 C 
BRANCH   3   4
ATOM      4  C   UNL     1      30.217   8.108  29.993  1.00  0.00     0.000 C 
BRANCH   4   5
ATOM      5  C   UNL     1      30.171   9.603  30.362  1.00  0.00     0.006 C 
BRANCH   5   6
ATOM      6  C   UNL     1      28.954  10.329  29.774  1.00  0.00     0.053 C 
BRANCH   6   7
ATOM      7  C   UNL     1      29.378  11.263  28.686  1.00  0.00     0.041 C 
ATOM      8  O   UNL     1      28.680  11.380  27.643  1.00  0.00    -0.550 OA
ATOM      9  O   UNL     1      30.517  12.042  28.843  1.00  0.00    -0.550 OA
ENDBRANCH   6   7
ENDBRANCH   5   6
ENDBRANCH   4   5
ENDBRANCH   3   4
ENDBRANCH   2   3
ENDBRANCH   1   2
BRANCH   1  10
ATOM     10  C   UNL     1      33.894   9.744  30.401  1.00  0.00     0.000 C 
BRANCH  10  11
ATOM     11  C   UNL     1      33.598   9.243  31.829  1.00  0.00    -0.000 C 
BRANCH  11  12
ATOM     12  C   UNL     1      33.693   7.718  32.014  1.00  0.00    -0.000 C 
BRANCH  12  13
ATOM     13  C   UNL     1      35.038   7.217  32.572  1.00  0.00    -0.000 C 
BRANCH  13  14
ATOM     14  C   UNL     1      36.117   6.997  31.488  1.00  0.00    -0.000 C 
BRANCH  14  15
ATOM     15  C   UNL     1      37.260   8.021  31.583  1.00  0.00    -0.000 C 
BRANCH  15  16
ATOM     16  C   UNL     1      37.492   8.771  30.263  1.00  0.00    -0.003 C 
ATOM     17  C   UNL     1      37.524  10.288  30.441  1.00  0.00     0.004 C 
ENDBRANCH  15  16
ENDBRANCH  14  15
ENDBRANCH  13  14
ENDBRANCH  12  13
ENDBRANCH  11  12
ENDBRANCH  10  11
ENDBRANCH   1  10
TORSDOF 13
ENDMDL
MODEL 2
REMARK VINA RESULT:    -3.992      1.361      2.525
REMARK INTER + INTRA:          -8.882
REMARK INTER:                  -7.123
REMARK INTRA:                  -1.759
REMARK UNBOUND:                -1.855
REMARK SMILES CCCCCCCCCCCCCCC(=O)[O-]
REMARK SMILES IDX 9 1 10 2 11 3 12 4 13 5 14 6 15 7 16 8 17 9 8 10 7 11 6 12
REMARK SMILES IDX 5 13 4 14 3 15 2 16 1 17
REMARK H PARENT
REMARK Flexibility Score: inf
ROOT
ATOM      1  C   UNL     1      31.039   7.584  31.696  1.00  0.00     0.000 C 
ENDROOT
BRANCH   1   2
ATOM      2  C   UNL     1      30.620   6.660  30.538  1.00  0.00     0.000 C 
BRANCH   2   3
ATOM      3  C   UNL     1      30.168   7.436  29.289  1.00  0.00     0.000 C 
BRANCH   3   4
ATOM      4  C   UNL     1      31.344   8.022  28.487  1.00  0.00     0.000 C 
BRANCH   4   5
ATOM      5  C   UNL     1      31.059   9.366  27.791  1.00  0.00     0.006 C 
BRANCH   5   6
ATOM      6  C   UNL     1      30.420  10.402  28.726  1.00  0.00     0.053 C 
BRANCH   6   7
ATOM      7  C   UNL     1      29.131  10.898  28.153  1.00  0.00     0.041 C 
ATOM      8  O   UNL     1      29.008  11.054  26.909  1.00  0.00    -0.550 OA
ATOM      9  O   UNL     1      28.048  11.143  28.987  1.00  0.00    -0.550 OA
ENDBRANCH   6   7
ENDBRANCH   5   6
ENDBRANCH   4   5
ENDBRANCH   3   4
ENDBRANCH   2   3
ENDBRANCH   1   2
BRANCH   1  10
ATOM     10  C   UNL     1      32.558   7.691  31.940  1.00  0.00     0.000 C 
BRANCH  10  11
ATOM     11  C   UNL     1      33.094   9.124  32.131  1.00  0.00    -0.000 C 
BRANCH  11  12
ATOM     12  C   UNL     1      33.450   9.863  30.827  1.00  0.00    -0.000 C 
BRANCH  12  13
ATOM     13  C   UNL     1      34.512   9.164  29.959  1.00  0.00    -0.000 C 
BRANCH  13  14
ATOM     14  C   UNL     1      35.868   8.970  30.672  1.00  0.00    -0.000 C 
BRANCH  14  15
ATOM     15  C   UNL     1      36.244   7.486  30.822  1.00  0.00    -0.000 C 
BRANCH  15  16
ATOM     16  C   UNL     1      36.959   7.189  32.148  1.00  0.00    -0.003 C 
ATOM     17  C   UNL     1      35.997   7.080  33.330  1.00  0.00     0.004 C 
ENDBRANCH  15  16
ENDBRANCH  14  15
ENDBRANCH  13  14
ENDBRANCH  12  13
ENDBRANCH  11  12
ENDBRANCH  10  11
ENDBRANCH   1  10
TORSDOF 13
ENDMDL
MODEL 3
REMARK VINA RESULT:    -3.976      2.998      6.366
REMARK INTER + INTRA:          -8.853
REMARK INTER:                  -6.543
REMARK INTRA:                  -2.310
REMARK UNBOUND:                -1.855
REMARK SMILES CCCCCCCCCCCCCCC(=O)[O-]
REMARK SMILES IDX 9 1 10 2 11 3 12 4 13 5 14 6 15 7 16 8 17 9 8 10 7 11 6 12
REMARK SMILES IDX 5 13 4 14 3 15 2 16 1 17
REMARK H PARENT
REMARK Flexibility Score: inf
ROOT
ATOM      1  C   UNL     1      30.964   6.689  31.150  1.00  0.00     0.000 C 
ENDROOT
BRANCH   1   2
ATOM      2  C   UNL     1      31.352   7.652  32.288  1.00  0.00     0.000 C 
BRANCH   2   3
ATOM      3  C   UNL     1      32.810   8.130  32.193  1.00  0.00     0.000 C 
BRANCH   3   4
ATOM      4  C   UNL     1      32.937   9.569  31.659  1.00  0.00     0.000 C 
BRANCH   4   5
ATOM      5  C   UNL     1      33.997   9.769  30.560  1.00  0.00     0.006 C 
BRANCH   5   6
ATOM      6  C   UNL     1      34.708   8.467  30.169  1.00  0.00     0.053 C 
BRANCH   6   7
ATOM      7  C   UNL     1      36.155   8.530  30.542  1.00  0.00     0.041 C 
ATOM      8  O   UNL     1      36.823   9.575  30.320  1.00  0.00    -0.550 OA
ATOM      9  O   UNL     1      36.756   7.453  31.181  1.00  0.00    -0.550 OA
ENDBRANCH   6   7
ENDBRANCH   5   6
ENDBRANCH   4   5
ENDBRANCH   3   4
ENDBRANCH   2   3
ENDBRANCH   1   2
BRANCH   1  10
ATOM     10  C   UNL     1      29.826   7.178  30.231  1.00  0.00     0.000 C 
BRANCH  10  11
ATOM     11  C   UNL     1      30.195   7.306  28.739  1.00  0.00    -0.000 C 
BRANCH  11  12
ATOM     12  C   UNL     1      31.471   8.119  28.454  1.00  0.00    -0.000 C 
BRANCH  12  13
ATOM     13  C   UNL     1      31.230   9.494  27.804  1.00  0.00    -0.000 C 
BRANCH  13  14
ATOM     14  C   UNL     1      30.887  10.608  28.817  1.00  0.00    -0.000 C 
BRANCH  14  15
ATOM     15  C   UNL     1      29.414  11.042  28.734  1.00  0.00    -0.000 C 
BRANCH  15  16
ATOM     16  C   UNL     1      28.628  10.714  30.013  1.00  0.00    -0.003 C 
ATOM     17  C   UNL     1      29.491  10.779  31.272  1.00  0.00     0.004 C 
ENDBRANCH  15  16
ENDBRANCH  14  15
ENDBRANCH  13  14
ENDBRANCH  12  13
ENDBRANCH  11  12
ENDBRANCH  10  11
ENDBRANCH   1  10
TORSDOF 13
ENDMDL
MODEL 4
REMARK VINA RESULT:    -3.950     10.532     13.894
REMARK INTER + INTRA:          -8.807
REMARK INTER:                  -6.789
REMARK INTRA:                  -2.018
REMARK UNBOUND:                -1.855
REMARK SMILES CCCCCCCCCCCCCCC(=O)[O-]
REMARK SMILES IDX 9 1 10 2 11 3 12 4 13 5 14 6 15 7 16 8 17 9 8 10 7 11 6 12
REMARK SMILES IDX 5 13 4 14 3 15 2 16 1 17
REMARK H PARENT
REMARK Flexibility Score: inf
ROOT
ATOM      1  C   UNL     1      23.094   0.782  24.718  1.00  0.00     0.000 C 
ENDROOT
BRANCH   1   2
ATOM      2  C   UNL     1      22.403   0.381  26.035  1.00  0.00     0.000 C 
BRANCH   2   3
ATOM      3  C   UNL     1      22.700   1.357  27.186  1.00  0.00     0.000 C 
BRANCH   3   4
ATOM      4  C   UNL     1      24.155   1.863  27.183  1.00  0.00     0.000 C 
BRANCH   4   5
ATOM      5  C   UNL     1      24.320   3.385  27.353  1.00  0.00     0.006 C 
BRANCH   5   6
ATOM      6  C   UNL     1      23.880   3.885  28.735  1.00  0.00     0.053 C 
BRANCH   6   7
ATOM      7  C   UNL     1      24.792   3.357  29.796  1.00  0.00     0.041 C 
ATOM      8  O   UNL     1      26.005   3.696  29.816  1.00  0.00    -0.550 OA
ATOM      9  O   UNL     1      24.293   2.529  30.793  1.00  0.00    -0.550 OA
ENDBRANCH   6   7
ENDBRANCH   5   6
ENDBRANCH   4   5
ENDBRANCH   3   4
ENDBRANCH   2   3
ENDBRANCH   1   2
BRANCH   1  10
ATOM     10  C   UNL     1      22.197   1.507  23.695  1.00  0.00     0.000 C 
BRANCH  10  11
ATOM     11  C   UNL     1      22.385   3.036  23.621  1.00  0.00    -0.000 C 
BRANCH  11  12
ATOM     12  C   UNL     1      21.622   3.835  24.694  1.00  0.00    -0.000 C 
BRANCH  12  13
ATOM     13  C   UNL     1      20.228   3.281  25.043  1.00  0.00    -0.000 C 
BRANCH  13  14
ATOM     14  C   UNL     1      19.690   3.767  26.406  1.00  0.00    -0.000 C 
BRANCH  14  15
ATOM     15  C   UNL     1      20.723   4.601  27.181  1.00  0.00    -0.000 C 
BRANCH  15  16
ATOM     16  C   UNL     1      20.190   5.095  28.534  1.00  0.00    -0.003 C 
ATOM     17  C   UNL     1      19.148   6.203  28.393  1.00  0.00     0.004 C 
ENDBRANCH  15  16
ENDBRANCH  14  15
ENDBRANCH  13  14
ENDBRANCH  12  13
ENDBRANCH  11  12
ENDBRANCH  10  11
ENDBRANCH   1  10
TORSDOF 13
ENDMDL
MODEL 5
REMARK VINA RESULT:    -3.913      1.468      3.443
REMARK INTER + INTRA:          -8.742
REMARK INTER:                  -6.674
REMARK INTRA:                  -2.068
REMARK UNBOUND:                -1.855
REMARK SMILES CCCCCCCCCCCCCCC(=O)[O-]
REMARK SMILES IDX 9 1 10 2 11 3 12 4 13 5 14 6 15 7 16 8 17 9 8 10 7 11 6 12
REMARK SMILES IDX 5 13 4 14 3 15 2 16 1 17
REMARK H PARENT
REMARK Flexibility Score: inf
ROOT
ATOM      1  C   UNL     1      30.269   9.125  31.170  1.00  0.00     0.000 C 
ENDROOT
BRANCH   1   2
ATOM      2  C   UNL     1      30.979   9.795  32.361  1.00  0.00     0.000 C 
BRANCH   2   3
ATOM      3  C   UNL     1      30.703  11.306  32.447  1.00  0.00     0.000 C 
BRANCH   3   4
ATOM      4  C   UNL     1      31.288  12.091  31.259  1.00  0.00     0.000 C 
BRANCH   4   5
ATOM      5  C   UNL     1      30.250  12.663  30.275  1.00  0.00     0.006 C 
BRANCH   5   6
ATOM      6  C   UNL     1      30.266  11.962  28.911  1.00  0.00     0.053 C 
BRANCH   6   7
ATOM      7  C   UNL     1      28.899  11.470  28.560  1.00  0.00     0.041 C 
ATOM      8  O   UNL     1      28.636  11.115  27.380  1.00  0.00    -0.550 OA
ATOM      9  O   UNL     1      27.926  11.355  29.544  1.00  0.00    -0.550 OA
ENDBRANCH   6   7
ENDBRANCH   5   6
ENDBRANCH   4   5
ENDBRANCH   3   4
ENDBRANCH   2   3
ENDBRANCH   1   2
BRANCH   1  10
ATOM     10  C   UNL     1      30.946   7.849  30.630  1.00  0.00     0.000 C 
BRANCH  10  11
ATOM     11  C   UNL     1      31.290   7.872  29.127  1.00  0.00    -0.000 C 
BRANCH  11  12
ATOM     12  C   UNL     1      32.354   8.909  28.722  1.00  0.00    -0.000 C 
BRANCH  12  13
ATOM     13  C   UNL     1      33.747   8.679  29.337  1.00  0.00    -0.000 C 
BRANCH  13  14
ATOM     14  C   UNL     1      34.169   9.770  30.345  1.00  0.00    -0.000 C 
BRANCH  14  15
ATOM     15  C   UNL     1      34.563   9.185  31.711  1.00  0.00    -0.000 C 
BRANCH  15  16
ATOM     16  C   UNL     1      34.540   7.649  31.725  1.00  0.00    -0.003 C 
ATOM     17  C   UNL     1      35.939   7.035  31.709  1.00  0.00     0.004 C 
ENDBRANCH  15  16
ENDBRANCH  14  15
ENDBRANCH  13  14
ENDBRANCH  12  13
ENDBRANCH  11  12
ENDBRANCH  10  11
ENDBRANCH   1  10
TORSDOF 13
ENDMDL
MODEL 6
REMARK VINA RESULT:    -3.903      1.884      3.087
REMARK INTER + INTRA:          -8.724
REMARK INTER:                  -6.712
REMARK INTRA:                  -2.012
REMARK UNBOUND:                -1.855
REMARK SMILES CCCCCCCCCCCCCCC(=O)[O-]
REMARK SMILES IDX 9 1 10 2 11 3 12 4 13 5 14 6 15 7 16 8 17 9 8 10 7 11 6 12
REMARK SMILES IDX 5 13 4 14 3 15 2 16 1 17
REMARK H PARENT
REMARK Flexibility Score: inf
ROOT
ATOM      1  C   UNL     1      30.183   7.849  30.082  1.00  0.00     0.000 C 
ENDROOT
BRANCH   1   2
ATOM      2  C   UNL     1      30.518   7.811  28.579  1.00  0.00     0.000 C 
BRANCH   2   3
ATOM      3  C   UNL     1      31.140   9.123  28.073  1.00  0.00     0.000 C 
BRANCH   3   4
ATOM      4  C   UNL     1      30.641  10.360  28.842  1.00  0.00     0.000 C 
BRANCH   4   5
ATOM      5  C   UNL     1      29.451  11.097  28.198  1.00  0.00     0.006 C 
BRANCH   5   6
ATOM      6  C   UNL     1      28.211  11.137  29.100  1.00  0.00     0.053 C 
BRANCH   6   7
ATOM      7  C   UNL     1      28.436  12.058  30.257  1.00  0.00     0.041 C 
ATOM      8  O   UNL     1      28.339  13.305  30.103  1.00  0.00    -0.550 OA
ATOM      9  O   UNL     1      28.705  11.539  31.517  1.00  0.00    -0.550 OA
ENDBRANCH   6   7
ENDBRANCH   5   6
ENDBRANCH   4   5
ENDBRANCH   3   4
ENDBRANCH   2   3
ENDBRANCH   1   2
BRANCH   1  10
ATOM     10  C   UNL     1      31.077   6.970  30.980  1.00  0.00     0.000 C 
BRANCH  10  11
ATOM     11  C   UNL     1      31.729   7.698  32.173  1.00  0.00    -0.000 C 
BRANCH  11  12
ATOM     12  C   UNL     1      31.390   9.196  32.282  1.00  0.00    -0.000 C 
BRANCH  12  13
ATOM     13  C   UNL     1      32.605  10.119  32.491  1.00  0.00    -0.000 C 
BRANCH  13  14
ATOM     14  C   UNL     1      33.094  10.805  31.197  1.00  0.00    -0.000 C 
BRANCH  14  15
ATOM     15  C   UNL     1      34.483  10.310  30.760  1.00  0.00    -0.000 C 
BRANCH  15  16
ATOM     16  C   UNL     1      34.420   8.996  29.968  1.00  0.00    -0.003 C 
ATOM     17  C   UNL     1      35.225   7.872  30.620  1.00  0.00     0.004 C 
ENDBRANCH  15  16
ENDBRANCH  14  15
ENDBRANCH  13  14
ENDBRANCH  12  13
ENDBRANCH  11  12
ENDBRANCH  10  11
ENDBRANCH   1  10
TORSDOF 13
ENDMDL
MODEL 7
REMARK VINA RESULT:    -3.901      3.047      5.771
REMARK INTER + INTRA:          -8.720
REMARK INTER:                  -6.908
REMARK INTRA:                  -1.813
REMARK UNBOUND:                -1.855
REMARK SMILES CCCCCCCCCCCCCCC(=O)[O-]
REMARK SMILES IDX 9 1 10 2 11 3 12 4 13 5 14 6 15 7 16 8 17 9 8 10 7 11 6 12
REMARK SMILES IDX 5 13 4 14 3 15 2 16 1 17
REMARK H PARENT
REMARK Flexibility Score: inf
ROOT
ATOM      1  C   UNL     1      33.093   9.992  31.263  1.00  0.00     0.000 C 
ENDROOT
BRANCH   1   2
ATOM      2  C   UNL     1      34.040   9.567  30.126  1.00  0.00     0.000 C 
BRANCH   2   3
ATOM      3  C   UNL     1      33.425   8.500  29.204  1.00  0.00     0.000 C 
BRANCH   3   4
ATOM      4  C   UNL     1      32.110   8.961  28.548  1.00  0.00     0.000 C 
BRANCH   4   5
ATOM      5  C   UNL     1      30.974   7.921  28.555  1.00  0.00     0.006 C 
BRANCH   5   6
ATOM      6  C   UNL     1      30.203   7.885  29.881  1.00  0.00     0.053 C 
BRANCH   6   7
ATOM      7  C   UNL     1      30.591   6.682  30.679  1.00  0.00     0.041 C 
ATOM      8  O   UNL     1      31.319   6.806  31.700  1.00  0.00    -0.550 OA
ATOM      9  O   UNL     1      30.111   5.427  30.326  1.00  0.00    -0.550 OA
ENDBRANCH   6   7
ENDBRANCH   5   6
ENDBRANCH   4   5
ENDBRANCH   3   4
ENDBRANCH   2   3
ENDBRANCH   1   2
BRANCH   1  10
ATOM     10  C   UNL     1      33.150  11.485  31.646  1.00  0.00     0.000 C 
BRANCH  10  11
ATOM     11  C   UNL     1      31.783  12.194  31.736  1.00  0.00    -0.000 C 
BRANCH  11  12
ATOM     12  C   UNL     1      30.811  11.597  32.770  1.00  0.00    -0.000 C 
BRANCH  12  13
ATOM     13  C   UNL     1      29.460  11.133  32.195  1.00  0.00    -0.000 C 
BRANCH  13  14
ATOM     14  C   UNL     1      28.963  11.989  31.009  1.00  0.00    -0.000 C 
BRANCH  14  15
ATOM     15  C   UNL     1      28.617  11.137  29.776  1.00  0.00    -0.000 C 
BRANCH  15  16
ATOM     16  C   UNL     1      29.486  11.481  28.558  1.00  0.00    -0.003 C 
ATOM     17  C   UNL     1      28.885  10.987  27.242  1.00  0.00     0.004 C 
ENDBRANCH  15  16
ENDBRANCH  14  15
ENDBRANCH  13  14
ENDBRANCH  12  13
ENDBRANCH  11  12
ENDBRANCH  10  11
ENDBRANCH   1  10
TORSDOF 13
ENDMDL
MODEL 8
REMARK VINA RESULT:    -3.901      2.213      4.635
REMARK INTER + INTRA:          -8.720
REMARK INTER:                  -6.520
REMARK INTRA:                  -2.201
REMARK UNBOUND:                -1.855
REMARK SMILES CCCCCCCCCCCCCCC(=O)[O-]
REMARK SMILES IDX 9 1 10 2 11 3 12 4 13 5 14 6 15 7 16 8 17 9 8 10 7 11 6 12
REMARK SMILES IDX 5 13 4 14 3 15 2 16 1 17
REMARK H PARENT
REMARK Flexibility Score: inf
ROOT
ATOM      1  C   UNL     1      32.516   9.647  32.838  1.00  0.00     0.000 C 
ENDROOT
BRANCH   1   2
ATOM      2  C   UNL     1      30.993   9.714  32.618  1.00  0.00     0.000 C 
BRANCH   2   3
ATOM      3  C   UNL     1      30.398  11.087  32.975  1.00  0.00     0.000 C 
BRANCH   3   4
ATOM      4  C   UNL     1      31.064  12.246  32.211  1.00  0.00     0.000 C 
BRANCH   4   5
ATOM      5  C   UNL     1      30.893  12.207  30.681  1.00  0.00     0.006 C 
BRANCH   5   6
ATOM      6  C   UNL     1      29.695  13.030  30.190  1.00  0.00     0.053 C 
BRANCH   6   7
ATOM      7  C   UNL     1      28.605  12.128  29.705  1.00  0.00     0.041 C 
ATOM      8  O   UNL     1      28.512  11.847  28.480  1.00  0.00    -0.550 OA
ATOM      9  O   UNL     1      27.720  11.556  30.610  1.00  0.00    -0.550 OA
ENDBRANCH   6   7
ENDBRANCH   5   6
ENDBRANCH   4   5
ENDBRANCH   3   4
ENDBRANCH   2   3
ENDBRANCH   1   2
BRANCH   1  10
ATOM     10  C   UNL     1      33.301   8.843  31.781  1.00  0.00     0.000 C 
BRANCH  10  11
ATOM     11  C   UNL     1      33.527   9.566  30.438  1.00  0.00    -0.000 C 
BRANCH  11  12
ATOM     12  C   UNL     1      33.758   8.637  29.233  1.00  0.00    -0.000 C 
BRANCH  12  13
ATOM     13  C   UNL     1      32.540   8.466  28.306  1.00  0.00    -0.000 C 
BRANCH  13  14
ATOM     14  C   UNL     1      31.379   9.436  28.620  1.00  0.00    -0.000 C 
BRANCH  14  15
ATOM     15  C   UNL     1      30.151   8.713  29.196  1.00  0.00    -0.000 C 
BRANCH  15  16
ATOM     16  C   UNL     1      30.329   7.188  29.241  1.00  0.00    -0.003 C 
ATOM     17  C   UNL     1      30.459   6.648  30.665  1.00  0.00     0.004 C 
ENDBRANCH  15  16
ENDBRANCH  14  15
ENDBRANCH  13  14
ENDBRANCH  12  13
ENDBRANCH  11  12
ENDBRANCH  10  11
ENDBRANCH   1  10
TORSDOF 13
ENDMDL
MODEL 9
REMARK VINA RESULT:    -3.813      3.176      6.431
REMARK INTER + INTRA:          -8.566
REMARK INTER:                  -6.463
REMARK INTRA:                  -2.103
REMARK UNBOUND:                -1.855
REMARK SMILES CCCCCCCCCCCCCCC(=O)[O-]
REMARK SMILES IDX 9 1 10 2 11 3 12 4 13 5 14 6 15 7 16 8 17 9 8 10 7 11 6 12
REMARK SMILES IDX 5 13 4 14 3 15 2 16 1 17
REMARK H PARENT
REMARK Flexibility Score: inf
ROOT
ATOM      1  C   UNL     1      29.870  10.741  31.730  1.00  0.00     0.000 C 
ENDROOT
BRANCH   1   2
ATOM      2  C   UNL     1      31.349  10.426  32.021  1.00  0.00     0.000 C 
BRANCH   2   3
ATOM      3  C   UNL     1      32.300  10.979  30.945  1.00  0.00     0.000 C 
BRANCH   3   4
ATOM      4  C   UNL     1      33.786  10.764  31.290  1.00  0.00     0.000 C 
BRANCH   4   5
ATOM      5  C   UNL     1      34.523   9.742  30.404  1.00  0.00     0.006 C 
BRANCH   5   6
ATOM      6  C   UNL     1      34.716   8.384  31.091  1.00  0.00     0.053 C 
BRANCH   6   7
ATOM      7  C   UNL     1      36.139   7.938  30.975  1.00  0.00     0.041 C 
ATOM      8  O   UNL     1      36.983   8.657  30.378  1.00  0.00    -0.550 OA
ATOM      9  O   UNL     1      36.546   6.751  31.571  1.00  0.00    -0.550 OA
ENDBRANCH   6   7
ENDBRANCH   5   6
ENDBRANCH   4   5
ENDBRANCH   3   4
ENDBRANCH   2   3
ENDBRANCH   1   2
BRANCH   1  10
ATOM     10  C   UNL     1      29.623  11.775  30.612  1.00  0.00     0.000 C 
BRANCH  10  11
ATOM     11  C   UNL     1      28.797  11.263  29.414  1.00  0.00    -0.000 C 
BRANCH  11  12
ATOM     12  C   UNL     1      29.585  11.115  28.100  1.00  0.00    -0.000 C 
BRANCH  12  13
ATOM     13  C   UNL     1      29.889   9.662  27.689  1.00  0.00    -0.000 C 
BRANCH  13  14
ATOM     14  C   UNL     1      31.376   9.272  27.836  1.00  0.00    -0.000 C 
BRANCH  14  15
ATOM     15  C   UNL     1      31.582   8.104  28.815  1.00  0.00    -0.000 C 
BRANCH  15  16
ATOM     16  C   UNL     1      30.288   7.703  29.538  1.00  0.00    -0.003 C 
ATOM     17  C   UNL     1      30.524   6.696  30.662  1.00  0.00     0.004 C 
ENDBRANCH  15  16
ENDBRANCH  14  15
ENDBRANCH  13  14
ENDBRANCH  12  13
ENDBRANCH  11  12
ENDBRANCH  10  11
ENDBRANCH   1  10
TORSDOF 13
ENDMDL
