MODEL 1
REMARK VINA RESULT:     4.379      0.000      0.000
REMARK INTER + INTRA:           6.872
REMARK INTER:                   6.683
REMARK INTRA:                   0.189
REMARK UNBOUND:                 0.189
REMARK SMILES CC1=CCC[C@@H](C)C(=O)C[C@H](C(C)C)C(=O)C1
REMARK SMILES IDX 8 1 9 2 6 3 7 4 5 5 4 6 3 7 2 8 1 9 10 11 11 12 15 13 16 14
REMARK SMILES IDX 17 15 12 17 13 18 14 19
REMARK H PARENT
REMARK Flexibility Score: 70.00
ROOT
ATOM      1  C   UNL     1      13.520  37.626 -14.948  1.00  0.00     0.136 C 
ATOM      2  O   UNL     1      14.539  38.071 -14.438  1.00  0.00    -0.299 OA
ENDROOT
BRANCH   1   3
ATOM      3  C   UNL     1      13.428  36.145 -15.284  1.00  0.00     0.053 C 
ATOM      4  C   UNL     1      13.620  35.250 -14.046  1.00  0.00     0.016 C 
BRANCH   3   5
ATOM      5  C   UNL     1      14.375  35.714 -16.433  1.00  0.00     0.015 C 
BRANCH   5   6
ATOM      6  C   UNL     1      14.429  36.685 -17.634  1.00  0.00     0.028 C 
BRANCH   6   7
ATOM      7  C   UNL     1      13.475  36.273 -18.734  1.00  0.00    -0.028 C 
ATOM      8  C   UNL     1      12.148  36.541 -18.802  1.00  0.00    -0.070 CG0
ATOM      9  C   UNL     1      11.408  36.092 -20.037  1.00  0.00     0.039 C 
ATOM     10  G   UNL     1      11.393  37.360 -17.773  1.00  0.00     0.000 G0
ENDBRANCH   6   7
ENDBRANCH   5   6
ENDBRANCH   3   5
ENDBRANCH   1   3
BRANCH   1  11
ATOM     11  C   UNL     1      12.303  38.515 -15.084  1.00  0.00     0.087 C 
BRANCH  11  12
ATOM     12  C   UNL     1      12.318  39.451 -16.327  1.00  0.00     0.066 C 
BRANCH  12  13
ATOM     13  C   UNL     1      11.832  38.799 -17.630  1.00  0.00     0.140 C 
ATOM     14  O   UNL     1      11.890  39.454 -18.661  1.00  0.00    -0.299 OA
BRANCH  13  15
ATOM     15  C   UNL     1      11.372  37.358 -17.757  1.00  0.00     0.106 CG0
ATOM     16  G   UNL     1      12.155  36.574 -18.793  1.00  0.00     0.000 G0
ENDBRANCH  13  15
ENDBRANCH  12  13
BRANCH  12  17
ATOM     17  C   UNL     1      11.571  40.788 -15.996  1.00  0.00    -0.006 C 
ATOM     18  C   UNL     1      12.443  41.807 -15.246  1.00  0.00     0.008 C 
ATOM     19  C   UNL     1      10.250  40.561 -15.241  1.00  0.00     0.008 C 
ENDBRANCH  12  17
ENDBRANCH  11  12
ENDBRANCH   1  11
TORSDOF 1
ENDMDL
MODEL 2
REMARK VINA RESULT:     4.781      1.588      4.729
REMARK INTER + INTRA:           7.486
REMARK INTER:                   6.557
REMARK INTRA:                   0.929
REMARK UNBOUND:                 0.189
REMARK SMILES CC1=CCC[C@@H](C)C(=O)C[C@H](C(C)C)C(=O)C1
REMARK SMILES IDX 8 1 9 2 6 3 7 4 5 5 4 6 3 7 2 8 1 9 10 11 11 12 15 13 16 14
REMARK SMILES IDX 17 15 12 17 13 18 14 19
REMARK H PARENT
REMARK Flexibility Score: 70.00
ROOT
ATOM      1  C   UNL     1      11.919  39.217 -17.348  1.00  0.00     0.136 C 
ATOM      2  O   UNL     1      12.496  40.101 -17.968  1.00  0.00    -0.299 OA
ENDROOT
BRANCH   1   3
ATOM      3  C   UNL     1      11.591  39.417 -15.876  1.00  0.00     0.053 C 
ATOM      4  C   UNL     1      10.653  40.617 -15.643  1.00  0.00     0.016 C 
BRANCH   3   5
ATOM      5  C   UNL     1      12.846  39.510 -14.972  1.00  0.00     0.015 C 
BRANCH   5   6
ATOM      6  C   UNL     1      13.992  38.541 -15.344  1.00  0.00     0.028 C 
BRANCH   6   7
ATOM      7  C   UNL     1      13.973  37.293 -14.489  1.00  0.00    -0.028 C 
ATOM      8  C   UNL     1      13.308  36.141 -14.747  1.00  0.00    -0.070 CG0
ATOM      9  C   UNL     1      13.498  34.995 -13.785  1.00  0.00     0.039 C 
ATOM     10  G   UNL     1      12.484  35.897 -15.997  1.00  0.00     0.000 G0
ENDBRANCH   6   7
ENDBRANCH   5   6
ENDBRANCH   3   5
ENDBRANCH   1   3
BRANCH   1  11
ATOM     11  C   UNL     1      11.391  38.008 -18.090  1.00  0.00     0.087 C 
BRANCH  11  12
ATOM     12  C   UNL     1      12.472  36.957 -18.472  1.00  0.00     0.066 C 
BRANCH  12  13
ATOM     13  C   UNL     1      13.165  36.281 -17.279  1.00  0.00     0.140 C 
ATOM     14  O   UNL     1      14.376  36.121 -17.329  1.00  0.00    -0.299 OA
BRANCH  13  15
ATOM     15  C   UNL     1      12.472  35.882 -15.990  1.00  0.00     0.106 CG0
ATOM     16  G   UNL     1      13.316  36.141 -14.757  1.00  0.00     0.000 G0
ENDBRANCH  13  15
ENDBRANCH  12  13
BRANCH  12  17
ATOM     17  C   UNL     1      11.878  35.931 -19.496  1.00  0.00    -0.006 C 
ATOM     18  C   UNL     1      12.949  35.104 -20.225  1.00  0.00     0.008 C 
ATOM     19  C   UNL     1      10.928  36.586 -20.514  1.00  0.00     0.008 C 
ENDBRANCH  12  17
ENDBRANCH  11  12
ENDBRANCH   1  11
TORSDOF 1
ENDMDL
MODEL 3
REMARK VINA RESULT:     5.155      1.680      4.136
REMARK INTER + INTRA:           8.056
REMARK INTER:                   7.380
REMARK INTRA:                   0.676
REMARK UNBOUND:                 0.189
REMARK SMILES CC1=CCC[C@@H](C)C(=O)C[C@H](C(C)C)C(=O)C1
REMARK SMILES IDX 8 1 9 2 6 3 7 4 5 5 4 6 3 7 2 8 1 9 10 11 11 12 15 13 16 14
REMARK SMILES IDX 17 15 12 17 13 18 14 19
REMARK H PARENT
REMARK Flexibility Score: 70.00
ROOT
ATOM      1  C   UNL     1      12.759  35.941 -15.938  1.00  0.00     0.136 C 
ATOM      2  O   UNL     1      11.611  35.534 -15.811  1.00  0.00    -0.299 OA
ENDROOT
BRANCH   1   3
ATOM      3  C   UNL     1      13.732  35.829 -14.774  1.00  0.00     0.053 C 
ATOM      4  C   UNL     1      13.230  34.868 -13.680  1.00  0.00     0.016 C 
BRANCH   3   5
ATOM      5  C   UNL     1      14.130  37.200 -14.170  1.00  0.00     0.015 C 
BRANCH   5   6
ATOM      6  C   UNL     1      14.082  38.388 -15.157  1.00  0.00     0.028 C 
BRANCH   6   7
ATOM      7  C   UNL     1      12.730  39.066 -15.158  1.00  0.00    -0.028 C 
ATOM      8  C   UNL     1      12.037  39.497 -16.240  1.00  0.00    -0.070 CG0
ATOM      9  C   UNL     1      10.667  40.080 -16.005  1.00  0.00     0.039 C 
ATOM     10  G   UNL     1      12.505  39.323 -17.673  1.00  0.00     0.000 G0
ENDBRANCH   6   7
ENDBRANCH   5   6
ENDBRANCH   3   5
ENDBRANCH   1   3
BRANCH   1  11
ATOM     11  C   UNL     1      13.244  36.395 -17.298  1.00  0.00     0.087 C 
BRANCH  11  12
ATOM     12  C   UNL     1      12.114  36.729 -18.312  1.00  0.00     0.066 C 
BRANCH  12  13
ATOM     13  C   UNL     1      11.781  38.224 -18.438  1.00  0.00     0.140 C 
ATOM     14  O   UNL     1      10.823  38.547 -19.125  1.00  0.00    -0.299 OA
BRANCH  13  15
ATOM     15  C   UNL     1      12.496  39.334 -17.689  1.00  0.00     0.106 CG0
ATOM     16  G   UNL     1      12.035  39.472 -16.251  1.00  0.00     0.000 G0
ENDBRANCH  13  15
ENDBRANCH  12  13
BRANCH  12  17
ATOM     17  C   UNL     1      12.420  36.053 -19.692  1.00  0.00    -0.006 C 
ATOM     18  C   UNL     1      11.371  35.010 -20.109  1.00  0.00     0.008 C 
ATOM     19  C   UNL     1      13.831  35.444 -19.757  1.00  0.00     0.008 C 
ENDBRANCH  12  17
ENDBRANCH  11  12
ENDBRANCH   1  11
TORSDOF 1
ENDMDL
MODEL 4
REMARK VINA RESULT:     6.462      1.768      4.699
REMARK INTER + INTRA:          10.051
REMARK INTER:                   9.314
REMARK INTRA:                   0.737
REMARK UNBOUND:                 0.189
REMARK SMILES CC1=CCC[C@@H](C)C(=O)C[C@H](C(C)C)C(=O)C1
REMARK SMILES IDX 8 1 9 2 6 3 7 4 5 5 4 6 3 7 2 8 1 9 10 11 11 12 15 13 16 14
REMARK SMILES IDX 17 15 12 17 13 18 14 19
REMARK H PARENT
REMARK Flexibility Score: 70.00
ROOT
ATOM      1  C   UNL     1      12.635  36.391 -17.988  1.00  0.00     0.136 C 
ATOM      2  O   UNL     1      13.688  36.113 -18.546  1.00  0.00    -0.299 OA
ENDROOT
BRANCH   1   3
ATOM      3  C   UNL     1      11.444  36.858 -18.811  1.00  0.00     0.053 C 
ATOM      4  C   UNL     1      11.483  36.322 -20.254  1.00  0.00     0.016 C 
BRANCH   3   5
ATOM      5  C   UNL     1      11.248  38.395 -18.795  1.00  0.00     0.015 C 
BRANCH   5   6
ATOM      6  C   UNL     1      12.457  39.202 -18.268  1.00  0.00     0.028 C 
BRANCH   6   7
ATOM      7  C   UNL     1      12.031  40.296 -17.315  1.00  0.00    -0.028 C 
ATOM      8  C   UNL     1      11.715  40.155 -16.004  1.00  0.00    -0.070 CG0
ATOM      9  C   UNL     1      11.389  41.405 -15.227  1.00  0.00     0.039 C 
ATOM     10  G   UNL     1      11.785  38.841 -15.250  1.00  0.00     0.000 G0
ENDBRANCH   6   7
ENDBRANCH   5   6
ENDBRANCH   3   5
ENDBRANCH   1   3
BRANCH   1  11
ATOM     11  C   UNL     1      12.477  36.108 -16.510  1.00  0.00     0.087 C 
BRANCH  11  12
ATOM     12  C   UNL     1      13.522  36.812 -15.598  1.00  0.00     0.066 C 
BRANCH  12  13
ATOM     13  C   UNL     1      13.156  38.247 -15.186  1.00  0.00     0.140 C 
ATOM     14  O   UNL     1      14.057  38.996 -14.838  1.00  0.00    -0.299 OA
BRANCH  13  15
ATOM     15  C   UNL     1      11.763  38.842 -15.272  1.00  0.00     0.106 CG0
ATOM     16  G   UNL     1      11.727  40.164 -16.013  1.00  0.00     0.000 G0
ENDBRANCH  13  15
ENDBRANCH  12  13
BRANCH  12  17
ATOM     17  C   UNL     1      13.867  35.895 -14.376  1.00  0.00    -0.006 C 
ATOM     18  C   UNL     1      12.890  34.723 -14.195  1.00  0.00     0.008 C 
ATOM     19  C   UNL     1      14.002  36.681 -13.060  1.00  0.00     0.008 C 
ENDBRANCH  12  17
ENDBRANCH  11  12
ENDBRANCH   1  11
TORSDOF 1
ENDMDL
MODEL 5
REMARK VINA RESULT:     6.571      1.526      3.972
REMARK INTER + INTRA:          10.217
REMARK INTER:                   9.522
REMARK INTRA:                   0.695
REMARK UNBOUND:                 0.189
REMARK SMILES CC1=CCC[C@@H](C)C(=O)C[C@H](C(C)C)C(=O)C1
REMARK SMILES IDX 8 1 9 2 6 3 7 4 5 5 4 6 3 7 2 8 1 9 10 11 11 12 15 13 16 14
REMARK SMILES IDX 17 15 12 17 13 18 14 19
REMARK H PARENT
REMARK Flexibility Score: 70.00
ROOT
ATOM      1  C   UNL     1      11.655  38.172 -18.436  1.00  0.00     0.136 C 
ATOM      2  O   UNL     1      10.570  38.599 -18.810  1.00  0.00    -0.299 OA
ENDROOT
BRANCH   1   3
ATOM      3  C   UNL     1      12.199  36.877 -19.020  1.00  0.00     0.053 C 
ATOM      4  C   UNL     1      11.358  36.370 -20.207  1.00  0.00     0.016 C 
BRANCH   3   5
ATOM      5  C   UNL     1      12.397  35.761 -17.964  1.00  0.00     0.015 C 
BRANCH   5   6
ATOM      6  C   UNL     1      11.361  35.754 -16.818  1.00  0.00     0.028 C 
BRANCH   6   7
ATOM      7  C   UNL     1      11.960  35.259 -15.520  1.00  0.00    -0.028 C 
ATOM      8  C   UNL     1      13.137  35.644 -14.969  1.00  0.00    -0.070 CG0
ATOM      9  C   UNL     1      13.499  35.069 -13.623  1.00  0.00     0.039 C 
ATOM     10  G   UNL     1      14.050  36.698 -15.566  1.00  0.00     0.000 G0
ENDBRANCH   6   7
ENDBRANCH   5   6
ENDBRANCH   3   5
ENDBRANCH   1   3
BRANCH   1  11
ATOM     11  C   UNL     1      12.517  39.020 -17.526  1.00  0.00     0.087 C 
BRANCH  11  12
ATOM     12  C   UNL     1      12.327  38.741 -16.007  1.00  0.00     0.066 C 
BRANCH  12  13
ATOM     13  C   UNL     1      13.542  38.109 -15.311  1.00  0.00     0.140 C 
ATOM     14  O   UNL     1      14.108  38.752 -14.439  1.00  0.00    -0.299 OA
BRANCH  13  15
ATOM     15  C   UNL     1      14.040  36.696 -15.555  1.00  0.00     0.106 CG0
ATOM     16  G   UNL     1      13.127  35.636 -14.971  1.00  0.00     0.000 G0
ENDBRANCH  13  15
ENDBRANCH  12  13
BRANCH  12  17
ATOM     17  C   UNL     1      11.815  40.035 -15.288  1.00  0.00    -0.006 C 
ATOM     18  C   UNL     1      10.286  40.179 -15.302  1.00  0.00     0.008 C 
ATOM     19  C   UNL     1      12.475  41.316 -15.826  1.00  0.00     0.008 C 
ENDBRANCH  12  17
ENDBRANCH  11  12
ENDBRANCH   1  11
TORSDOF 1
ENDMDL
MODEL 6
REMARK VINA RESULT:     7.085      1.644      3.915
REMARK INTER + INTRA:          11.002
REMARK INTER:                  10.828
REMARK INTRA:                   0.173
REMARK UNBOUND:                 0.189
REMARK SMILES CC1=CCC[C@@H](C)C(=O)C[C@H](C(C)C)C(=O)C1
REMARK SMILES IDX 8 1 9 2 6 3 7 4 5 5 4 6 3 7 2 8 1 9 10 11 11 12 15 13 16 14
REMARK SMILES IDX 17 15 12 17 13 18 14 19
REMARK H PARENT
REMARK Flexibility Score: 70.00
ROOT
ATOM      1  C   UNL     1      12.421  39.380 -15.403  1.00  0.00     0.136 C 
ATOM      2  O   UNL     1      11.571  39.456 -14.527  1.00  0.00    -0.299 OA
ENDROOT
BRANCH   1   3
ATOM      3  C   UNL     1      12.484  40.445 -16.489  1.00  0.00     0.053 C 
ATOM      4  C   UNL     1      11.643  41.687 -16.141  1.00  0.00     0.016 C 
BRANCH   3   5
ATOM      5  C   UNL     1      12.126  39.909 -17.898  1.00  0.00     0.015 C 
BRANCH   5   6
ATOM      6  C   UNL     1      11.112  38.744 -17.916  1.00  0.00     0.028 C 
BRANCH   6   7
ATOM      7  C   UNL     1      11.342  37.815 -19.088  1.00  0.00    -0.028 C 
ATOM      8  C   UNL     1      11.740  36.520 -19.033  1.00  0.00    -0.070 CG0
ATOM      9  C   UNL     1      11.831  35.763 -20.334  1.00  0.00     0.039 C 
ATOM     10  G   UNL     1      11.984  35.760 -17.743  1.00  0.00     0.000 G0
ENDBRANCH   6   7
ENDBRANCH   5   6
ENDBRANCH   3   5
ENDBRANCH   1   3
BRANCH   1  11
ATOM     11  C   UNL     1      13.503  38.327 -15.305  1.00  0.00     0.087 C 
BRANCH  11  12
ATOM     12  C   UNL     1      13.006  36.866 -15.501  1.00  0.00     0.066 C 
BRANCH  12  13
ATOM     13  C   UNL     1      13.123  36.332 -16.937  1.00  0.00     0.140 C 
ATOM     14  O   UNL     1      14.234  36.275 -17.443  1.00  0.00    -0.299 OA
BRANCH  13  15
ATOM     15  C   UNL     1      11.968  35.773 -17.748  1.00  0.00     0.106 CG0
ATOM     16  G   UNL     1      11.725  36.534 -19.037  1.00  0.00     0.000 G0
ENDBRANCH  13  15
ENDBRANCH  12  13
BRANCH  12  17
ATOM     17  C   UNL     1      13.682  35.927 -14.444  1.00  0.00    -0.006 C 
ATOM     18  C   UNL     1      12.867  34.660 -14.141  1.00  0.00     0.008 C 
ATOM     19  C   UNL     1      14.033  36.658 -13.136  1.00  0.00     0.008 C 
ENDBRANCH  12  17
ENDBRANCH  11  12
ENDBRANCH   1  11
TORSDOF 1
ENDMDL
