MODEL 1
REMARK VINA RESULT:    -3.141      0.000      0.000
REMARK INTER + INTRA:         -10.629
REMARK INTER:                  -7.182
REMARK INTRA:                  -3.447
REMARK UNBOUND:                -3.447
REMARK SMILES CCCCCCCCCCCCCCCCCCCCCCCC(=O)[O-]
REMARK SMILES IDX 13 1 14 2 15 3 16 4 17 5 18 6 19 7 20 8 21 9 22 10 23 11
REMARK SMILES IDX 24 12 25 13 26 14 12 15 11 16 10 17 9 18 8 19 7 20 6 21 5 22
REMARK SMILES IDX 4 23 3 24 2 25 1 26
REMARK H PARENT
REMARK Flexibility Score: inf
ROOT
ATOM      1  C   UNL     1       8.213 -20.020   4.450  1.00  0.00     0.000 C 
ENDROOT
BRANCH   1   2
ATOM      2  C   UNL     1       7.763 -19.104   3.295  1.00  0.00     0.000 C 
BRANCH   2   3
ATOM      3  C   UNL     1       8.730 -17.955   2.959  1.00  0.00     0.000 C 
BRANCH   3   4
ATOM      4  C   UNL     1       9.380 -17.335   4.205  1.00  0.00     0.000 C 
BRANCH   4   5
ATOM      5  C   UNL     1      10.890 -17.603   4.221  1.00  0.00     0.000 C 
BRANCH   5   6
ATOM      6  C   UNL     1      11.657 -16.426   4.835  1.00  0.00     0.000 C 
BRANCH   6   7
ATOM      7  C   UNL     1      10.687 -15.393   5.428  1.00  0.00     0.000 C 
BRANCH   7   8
ATOM      8  C   UNL     1      10.942 -15.120   6.921  1.00  0.00     0.000 C 
BRANCH   8   9
ATOM      9  C   UNL     1       9.681 -14.828   7.758  1.00  0.00     0.000 C 
BRANCH   9  10
ATOM     10  C   UNL     1       8.374 -15.415   7.196  1.00  0.00     0.006 C 
BRANCH  10  11
ATOM     11  C   UNL     1       8.069 -16.817   7.735  1.00  0.00     0.053 C 
BRANCH  11  12
ATOM     12  C   UNL     1       6.632 -16.929   8.138  1.00  0.00     0.041 C 
ATOM     13  O   UNL     1       5.902 -15.903   8.168  1.00  0.00    -0.550 OA
ATOM     14  O   UNL     1       6.101 -18.164   8.494  1.00  0.00    -0.550 OA
ENDBRANCH  11  12
ENDBRANCH  10  11
ENDBRANCH   9  10
ENDBRANCH   8   9
ENDBRANCH   7   8
ENDBRANCH   6   7
ENDBRANCH   5   6
ENDBRANCH   4   5
ENDBRANCH   3   4
ENDBRANCH   2   3
ENDBRANCH   1   2
BRANCH   1  15
ATOM     15  C   UNL     1       7.245 -20.086   5.648  1.00  0.00     0.000 C 
BRANCH  15  16
ATOM     16  C   UNL     1       5.751 -20.143   5.276  1.00  0.00     0.000 C 
BRANCH  16  17
ATOM     17  C   UNL     1       5.184 -21.565   5.089  1.00  0.00     0.000 C 
BRANCH  17  18
ATOM     18  C   UNL     1       4.182 -21.724   3.928  1.00  0.00    -0.000 C 
BRANCH  18  19
ATOM     19  C   UNL     1       4.647 -21.157   2.575  1.00  0.00    -0.000 C 
BRANCH  19  20
ATOM     20  C   UNL     1       3.482 -20.838   1.623  1.00  0.00    -0.000 C 
BRANCH  20  21
ATOM     21  C   UNL     1       3.491 -19.378   1.135  1.00  0.00    -0.000 C 
BRANCH  21  22
ATOM     22  C   UNL     1       3.722 -18.323   2.233  1.00  0.00    -0.000 C 
BRANCH  22  23
ATOM     23  C   UNL     1       2.480 -18.084   3.103  1.00  0.00    -0.000 C 
BRANCH  23  24
ATOM     24  C   UNL     1       2.795 -18.318   4.587  1.00  0.00    -0.000 C 
BRANCH  24  25
ATOM     25  C   UNL     1       1.774 -19.268   5.223  1.00  0.00    -0.003 C 
ATOM     26  C   UNL     1       0.906 -19.934   4.160  1.00  0.00     0.004 C 
ENDBRANCH  24  25
ENDBRANCH  23  24
ENDBRANCH  22  23
ENDBRANCH  21  22
ENDBRANCH  20  21
ENDBRANCH  19  20
ENDBRANCH  18  19
ENDBRANCH  17  18
ENDBRANCH  16  17
ENDBRANCH  15  16
ENDBRANCH   1  15
TORSDOF 22
ENDMDL
MODEL 2
REMARK VINA RESULT:    -3.099      1.741      6.191
REMARK INTER + INTRA:         -10.532
REMARK INTER:                  -7.005
REMARK INTRA:                  -3.526
REMARK UNBOUND:                -3.447
REMARK SMILES CCCCCCCCCCCCCCCCCCCCCCCC(=O)[O-]
REMARK SMILES IDX 13 1 14 2 15 3 16 4 17 5 18 6 19 7 20 8 21 9 22 10 23 11
REMARK SMILES IDX 24 12 25 13 26 14 12 15 11 16 10 17 9 18 8 19 7 20 6 21 5 22
REMARK SMILES IDX 4 23 3 24 2 25 1 26
REMARK H PARENT
REMARK Flexibility Score: inf
ROOT
ATOM      1  C   UNL     1       6.199 -19.217   3.358  1.00  0.00     0.000 C 
ENDROOT
BRANCH   1   2
ATOM      2  C   UNL     1       4.738 -19.620   3.076  1.00  0.00     0.000 C 
BRANCH   2   3
ATOM      3  C   UNL     1       3.893 -18.549   2.365  1.00  0.00     0.000 C 
BRANCH   3   4
ATOM      4  C   UNL     1       2.780 -17.976   3.254  1.00  0.00     0.000 C 
BRANCH   4   5
ATOM      5  C   UNL     1       2.740 -18.696   4.608  1.00  0.00     0.000 C 
BRANCH   5   6
ATOM      6  C   UNL     1       2.821 -17.699   5.770  1.00  0.00     0.000 C 
BRANCH   6   7
ATOM      7  C   UNL     1       3.447 -18.356   7.009  1.00  0.00     0.000 C 
BRANCH   7   8
ATOM      8  C   UNL     1       4.031 -19.750   6.717  1.00  0.00     0.000 C 
BRANCH   8   9
ATOM      9  C   UNL     1       5.539 -19.899   6.997  1.00  0.00     0.000 C 
BRANCH   9  10
ATOM     10  C   UNL     1       6.305 -18.577   7.175  1.00  0.00     0.006 C 
BRANCH  10  11
ATOM     11  C   UNL     1       7.301 -18.615   8.340  1.00  0.00     0.053 C 
BRANCH  11  12
ATOM     12  C   UNL     1       6.766 -17.863   9.519  1.00  0.00     0.041 C 
ATOM     13  O   UNL     1       5.532 -17.624   9.610  1.00  0.00    -0.550 OA
ATOM     14  O   UNL     1       7.631 -17.413  10.510  1.00  0.00    -0.550 OA
ENDBRANCH  11  12
ENDBRANCH  10  11
ENDBRANCH   9  10
ENDBRANCH   8   9
ENDBRANCH   7   8
ENDBRANCH   6   7
ENDBRANCH   5   6
ENDBRANCH   4   5
ENDBRANCH   3   4
ENDBRANCH   2   3
ENDBRANCH   1   2
BRANCH   1  15
ATOM     15  C   UNL     1       7.140 -20.381   3.727  1.00  0.00     0.000 C 
BRANCH  15  16
ATOM     16  C   UNL     1       8.625 -20.150   3.388  1.00  0.00     0.000 C 
BRANCH  16  17
ATOM     17  C   UNL     1       9.023 -18.673   3.193  1.00  0.00     0.000 C 
BRANCH  17  18
ATOM     18  C   UNL     1       9.586 -17.975   4.447  1.00  0.00    -0.000 C 
BRANCH  18  19
ATOM     19  C   UNL     1      10.342 -16.659   4.185  1.00  0.00    -0.000 C 
BRANCH  19  20
ATOM     20  C   UNL     1      10.021 -15.564   5.216  1.00  0.00    -0.000 C 
BRANCH  20  21
ATOM     21  C   UNL     1       9.057 -16.044   6.316  1.00  0.00    -0.000 C 
BRANCH  21  22
ATOM     22  C   UNL     1       8.777 -15.019   7.431  1.00  0.00    -0.000 C 
BRANCH  22  23
ATOM     23  C   UNL     1       7.277 -14.784   7.664  1.00  0.00    -0.000 C 
BRANCH  23  24
ATOM     24  C   UNL     1       6.763 -13.622   6.804  1.00  0.00    -0.000 C 
BRANCH  24  25
ATOM     25  C   UNL     1       5.232 -13.544   6.844  1.00  0.00    -0.003 C 
ATOM     26  C   UNL     1       4.638 -14.755   7.557  1.00  0.00     0.004 C 
ENDBRANCH  24  25
ENDBRANCH  23  24
ENDBRANCH  22  23
ENDBRANCH  21  22
ENDBRANCH  20  21
ENDBRANCH  19  20
ENDBRANCH  18  19
ENDBRANCH  17  18
ENDBRANCH  16  17
ENDBRANCH  15  16
ENDBRANCH   1  15
TORSDOF 22
ENDMDL
MODEL 3
REMARK VINA RESULT:    -3.033      2.229      3.533
REMARK INTER + INTRA:         -10.381
REMARK INTER:                  -6.824
REMARK INTRA:                  -3.557
REMARK UNBOUND:                -3.447
REMARK SMILES CCCCCCCCCCCCCCCCCCCCCCCC(=O)[O-]
REMARK SMILES IDX 13 1 14 2 15 3 16 4 17 5 18 6 19 7 20 8 21 9 22 10 23 11
REMARK SMILES IDX 24 12 25 13 26 14 12 15 11 16 10 17 9 18 8 19 7 20 6 21 5 22
REMARK SMILES IDX 4 23 3 24 2 25 1 26
REMARK H PARENT
REMARK Flexibility Score: inf
ROOT
ATOM      1  C   UNL     1       8.764 -18.976   5.788  1.00  0.00     0.000 C 
ENDROOT
BRANCH   1   2
ATOM      2  C   UNL     1       9.225 -17.727   5.013  1.00  0.00     0.000 C 
BRANCH   2   3
ATOM      3  C   UNL     1      10.130 -16.765   5.804  1.00  0.00     0.000 C 
BRANCH   3   4
ATOM      4  C   UNL     1       9.590 -15.328   5.841  1.00  0.00     0.000 C 
BRANCH   4   5
ATOM      5  C   UNL     1       8.569 -15.160   6.972  1.00  0.00     0.000 C 
BRANCH   5   6
ATOM      6  C   UNL     1       9.096 -15.744   8.289  1.00  0.00     0.000 C 
BRANCH   6   7
ATOM      7  C   UNL     1       8.092 -16.742   8.884  1.00  0.00     0.000 C 
BRANCH   7   8
ATOM      8  C   UNL     1       6.721 -16.702   8.184  1.00  0.00     0.000 C 
BRANCH   8   9
ATOM      9  C   UNL     1       5.505 -16.644   9.129  1.00  0.00     0.000 C 
BRANCH   9  10
ATOM     10  C   UNL     1       5.752 -17.191  10.546  1.00  0.00     0.006 C 
BRANCH  10  11
ATOM     11  C   UNL     1       5.105 -16.332  11.639  1.00  0.00     0.053 C 
BRANCH  11  12
ATOM     12  C   UNL     1       6.134 -15.845  12.610  1.00  0.00     0.041 C 
ATOM     13  O   UNL     1       7.263 -16.402  12.667  1.00  0.00    -0.550 OA
ATOM     14  O   UNL     1       5.843 -14.787  13.463  1.00  0.00    -0.550 OA
ENDBRANCH  11  12
ENDBRANCH  10  11
ENDBRANCH   9  10
ENDBRANCH   8   9
ENDBRANCH   7   8
ENDBRANCH   6   7
ENDBRANCH   5   6
ENDBRANCH   4   5
ENDBRANCH   3   4
ENDBRANCH   2   3
ENDBRANCH   1   2
BRANCH   1  15
ATOM     15  C   UNL     1       7.252 -19.269   5.719  1.00  0.00     0.000 C 
BRANCH  15  16
ATOM     16  C   UNL     1       6.886 -20.709   5.311  1.00  0.00     0.000 C 
BRANCH  16  17
ATOM     17  C   UNL     1       6.087 -20.828   3.997  1.00  0.00     0.000 C 
BRANCH  17  18
ATOM     18  C   UNL     1       5.640 -19.488   3.378  1.00  0.00    -0.000 C 
BRANCH  18  19
ATOM     19  C   UNL     1       4.378 -19.559   2.498  1.00  0.00    -0.000 C 
BRANCH  19  20
ATOM     20  C   UNL     1       3.563 -18.255   2.509  1.00  0.00    -0.000 C 
BRANCH  20  21
ATOM     21  C   UNL     1       2.080 -18.480   2.856  1.00  0.00    -0.000 C 
BRANCH  21  22
ATOM     22  C   UNL     1       1.783 -19.765   3.651  1.00  0.00    -0.000 C 
BRANCH  22  23
ATOM     23  C   UNL     1       1.645 -19.518   5.160  1.00  0.00    -0.000 C 
BRANCH  23  24
ATOM     24  C   UNL     1       2.882 -20.020   5.914  1.00  0.00    -0.000 C 
BRANCH  24  25
ATOM     25  C   UNL     1       3.706 -18.849   6.462  1.00  0.00    -0.003 C 
ATOM     26  C   UNL     1       2.921 -17.543   6.388  1.00  0.00     0.004 C 
ENDBRANCH  24  25
ENDBRANCH  23  24
ENDBRANCH  22  23
ENDBRANCH  21  22
ENDBRANCH  20  21
ENDBRANCH  19  20
ENDBRANCH  18  19
ENDBRANCH  17  18
ENDBRANCH  16  17
ENDBRANCH  15  16
ENDBRANCH   1  15
TORSDOF 22
ENDMDL
MODEL 4
REMARK VINA RESULT:    -3.009      1.624      6.858
REMARK INTER + INTRA:         -10.325
REMARK INTER:                  -6.533
REMARK INTRA:                  -3.792
REMARK UNBOUND:                -3.447
REMARK SMILES CCCCCCCCCCCCCCCCCCCCCCCC(=O)[O-]
REMARK SMILES IDX 13 1 14 2 15 3 16 4 17 5 18 6 19 7 20 8 21 9 22 10 23 11
REMARK SMILES IDX 24 12 25 13 26 14 12 15 11 16 10 17 9 18 8 19 7 20 6 21 5 22
REMARK SMILES IDX 4 23 3 24 2 25 1 26
REMARK H PARENT
REMARK Flexibility Score: inf
ROOT
ATOM      1  C   UNL     1       8.007 -20.082   3.811  1.00  0.00     0.000 C 
ENDROOT
BRANCH   1   2
ATOM      2  C   UNL     1       6.846 -21.093   3.731  1.00  0.00     0.000 C 
BRANCH   2   3
ATOM      3  C   UNL     1       5.439 -20.470   3.720  1.00  0.00     0.000 C 
BRANCH   3   4
ATOM      4  C   UNL     1       4.526 -21.069   2.640  1.00  0.00     0.000 C 
BRANCH   4   5
ATOM      5  C   UNL     1       3.728 -19.968   1.931  1.00  0.00     0.000 C 
BRANCH   5   6
ATOM      6  C   UNL     1       4.102 -18.580   2.464  1.00  0.00     0.000 C 
BRANCH   6   7
ATOM      7  C   UNL     1       2.855 -17.835   2.965  1.00  0.00     0.000 C 
BRANCH   7   8
ATOM      8  C   UNL     1       1.778 -18.781   3.526  1.00  0.00     0.000 C 
BRANCH   8   9
ATOM      9  C   UNL     1       2.031 -19.285   4.960  1.00  0.00     0.000 C 
BRANCH   9  10
ATOM     10  C   UNL     1       2.655 -18.252   5.915  1.00  0.00     0.006 C 
BRANCH  10  11
ATOM     11  C   UNL     1       4.002 -18.709   6.490  1.00  0.00     0.053 C 
BRANCH  11  12
ATOM     12  C   UNL     1       3.835 -19.216   7.889  1.00  0.00     0.041 C 
ATOM     13  O   UNL     1       4.390 -18.618   8.849  1.00  0.00    -0.550 OA
ATOM     14  O   UNL     1       3.081 -20.358   8.131  1.00  0.00    -0.550 OA
ENDBRANCH  11  12
ENDBRANCH  10  11
ENDBRANCH   9  10
ENDBRANCH   8   9
ENDBRANCH   7   8
ENDBRANCH   6   7
ENDBRANCH   5   6
ENDBRANCH   4   5
ENDBRANCH   3   4
ENDBRANCH   2   3
ENDBRANCH   1   2
BRANCH   1  15
ATOM     15  C   UNL     1       7.748 -18.731   3.116  1.00  0.00     0.000 C 
BRANCH  15  16
ATOM     16  C   UNL     1       8.946 -17.762   3.111  1.00  0.00     0.000 C 
BRANCH  16  17
ATOM     17  C   UNL     1       9.891 -17.893   4.322  1.00  0.00     0.000 C 
BRANCH  17  18
ATOM     18  C   UNL     1      10.782 -16.665   4.596  1.00  0.00    -0.000 C 
BRANCH  18  19
ATOM     19  C   UNL     1      10.606 -16.020   5.983  1.00  0.00    -0.000 C 
BRANCH  19  20
ATOM     20  C   UNL     1       9.310 -15.203   6.108  1.00  0.00    -0.000 C 
BRANCH  20  21
ATOM     21  C   UNL     1       8.745 -15.193   7.540  1.00  0.00    -0.000 C 
BRANCH  21  22
ATOM     22  C   UNL     1       7.449 -16.002   7.737  1.00  0.00    -0.000 C 
BRANCH  22  23
ATOM     23  C   UNL     1       7.703 -17.420   8.268  1.00  0.00    -0.000 C 
BRANCH  23  24
ATOM     24  C   UNL     1       7.605 -18.455   7.139  1.00  0.00    -0.000 C 
BRANCH  24  25
ATOM     25  C   UNL     1       8.550 -19.635   7.392  1.00  0.00    -0.003 C 
ATOM     26  C   UNL     1       9.909 -19.155   7.892  1.00  0.00     0.004 C 
ENDBRANCH  24  25
ENDBRANCH  23  24
ENDBRANCH  22  23
ENDBRANCH  21  22
ENDBRANCH  20  21
ENDBRANCH  19  20
ENDBRANCH  18  19
ENDBRANCH  17  18
ENDBRANCH  16  17
ENDBRANCH  15  16
ENDBRANCH   1  15
TORSDOF 22
ENDMDL
MODEL 5
REMARK VINA RESULT:    -3.008      2.926      7.462
REMARK INTER + INTRA:         -10.324
REMARK INTER:                  -6.755
REMARK INTRA:                  -3.570
REMARK UNBOUND:                -3.447
REMARK SMILES CCCCCCCCCCCCCCCCCCCCCCCC(=O)[O-]
REMARK SMILES IDX 13 1 14 2 15 3 16 4 17 5 18 6 19 7 20 8 21 9 22 10 23 11
REMARK SMILES IDX 24 12 25 13 26 14 12 15 11 16 10 17 9 18 8 19 7 20 6 21 5 22
REMARK SMILES IDX 4 23 3 24 2 25 1 26
REMARK H PARENT
REMARK Flexibility Score: inf
ROOT
ATOM      1  C   UNL     1       6.473 -17.149  10.233  1.00  0.00     0.000 C 
ENDROOT
BRANCH   1   2
ATOM      2  C   UNL     1       6.619 -17.653   8.784  1.00  0.00     0.000 C 
BRANCH   2   3
ATOM      3  C   UNL     1       7.244 -19.052   8.640  1.00  0.00     0.000 C 
BRANCH   3   4
ATOM      4  C   UNL     1       7.449 -19.469   7.176  1.00  0.00     0.000 C 
BRANCH   4   5
ATOM      5  C   UNL     1       6.111 -19.503   6.428  1.00  0.00     0.000 C 
BRANCH   5   6
ATOM      6  C   UNL     1       5.144 -20.511   7.064  1.00  0.00     0.000 C 
BRANCH   6   7
ATOM      7  C   UNL     1       3.814 -19.834   7.428  1.00  0.00     0.000 C 
BRANCH   7   8
ATOM      8  C   UNL     1       3.628 -18.470   6.740  1.00  0.00     0.000 C 
BRANCH   8   9
ATOM      9  C   UNL     1       2.500 -18.415   5.690  1.00  0.00     0.000 C 
BRANCH   9  10
ATOM     10  C   UNL     1       2.969 -18.436   4.225  1.00  0.00     0.006 C 
BRANCH  10  11
ATOM     11  C   UNL     1       3.406 -19.830   3.758  1.00  0.00     0.053 C 
BRANCH  11  12
ATOM     12  C   UNL     1       4.380 -19.728   2.627  1.00  0.00     0.041 C 
ATOM     13  O   UNL     1       5.510 -19.202   2.810  1.00  0.00    -0.550 OA
ATOM     14  O   UNL     1       4.036 -20.201   1.365  1.00  0.00    -0.550 OA
ENDBRANCH  11  12
ENDBRANCH  10  11
ENDBRANCH   9  10
ENDBRANCH   8   9
ENDBRANCH   7   8
ENDBRANCH   6   7
ENDBRANCH   5   6
ENDBRANCH   4   5
ENDBRANCH   3   4
ENDBRANCH   2   3
ENDBRANCH   1   2
BRANCH   1  15
ATOM     15  C   UNL     1       7.347 -17.879  11.272  1.00  0.00     0.000 C 
BRANCH  15  16
ATOM     16  C   UNL     1       8.481 -17.031  11.880  1.00  0.00     0.000 C 
BRANCH  16  17
ATOM     17  C   UNL     1       9.189 -16.087  10.886  1.00  0.00     0.000 C 
BRANCH  17  18
ATOM     18  C   UNL     1      10.098 -16.784   9.854  1.00  0.00    -0.000 C 
BRANCH  18  19
ATOM     19  C   UNL     1      10.422 -15.957   8.597  1.00  0.00    -0.000 C 
BRANCH  19  20
ATOM     20  C   UNL     1      10.284 -16.762   7.294  1.00  0.00    -0.000 C 
BRANCH  20  21
ATOM     21  C   UNL     1       9.134 -16.262   6.401  1.00  0.00    -0.000 C 
BRANCH  21  22
ATOM     22  C   UNL     1       8.691 -14.809   6.659  1.00  0.00    -0.000 C 
BRANCH  22  23
ATOM     23  C   UNL     1       7.259 -14.708   7.204  1.00  0.00    -0.000 C 
BRANCH  23  24
ATOM     24  C   UNL     1       6.560 -13.446   6.681  1.00  0.00    -0.000 C 
BRANCH  24  25
ATOM     25  C   UNL     1       5.071 -13.451   7.046  1.00  0.00    -0.003 C 
ATOM     26  C   UNL     1       4.604 -14.852   7.430  1.00  0.00     0.004 C 
ENDBRANCH  24  25
ENDBRANCH  23  24
ENDBRANCH  22  23
ENDBRANCH  21  22
ENDBRANCH  20  21
ENDBRANCH  19  20
ENDBRANCH  18  19
ENDBRANCH  17  18
ENDBRANCH  16  17
ENDBRANCH  15  16
ENDBRANCH   1  15
TORSDOF 22
ENDMDL
MODEL 6
REMARK VINA RESULT:    -3.004      1.928      2.984
REMARK INTER + INTRA:         -10.314
REMARK INTER:                  -6.158
REMARK INTRA:                  -4.156
REMARK UNBOUND:                -3.447
REMARK SMILES CCCCCCCCCCCCCCCCCCCCCCCC(=O)[O-]
REMARK SMILES IDX 13 1 14 2 15 3 16 4 17 5 18 6 19 7 20 8 21 9 22 10 23 11
REMARK SMILES IDX 24 12 25 13 26 14 12 15 11 16 10 17 9 18 8 19 7 20 6 21 5 22
REMARK SMILES IDX 4 23 3 24 2 25 1 26
REMARK H PARENT
REMARK Flexibility Score: inf
ROOT
ATOM      1  C   UNL     1       8.049 -20.806   3.342  1.00  0.00     0.000 C 
ENDROOT
BRANCH   1   2
ATOM      2  C   UNL     1       9.177 -19.797   3.050  1.00  0.00     0.000 C 
BRANCH   2   3
ATOM      3  C   UNL     1       8.729 -18.328   2.952  1.00  0.00     0.000 C 
BRANCH   3   4
ATOM      4  C   UNL     1       9.169 -17.485   4.157  1.00  0.00     0.000 C 
BRANCH   4   5
ATOM      5  C   UNL     1      10.653 -17.713   4.467  1.00  0.00     0.000 C 
BRANCH   5   6
ATOM      6  C   UNL     1      10.879 -17.941   5.967  1.00  0.00     0.000 C 
BRANCH   6   7
ATOM      7  C   UNL     1       9.933 -19.027   6.501  1.00  0.00     0.000 C 
BRANCH   7   8
ATOM      8  C   UNL     1       9.113 -18.562   7.718  1.00  0.00     0.000 C 
BRANCH   8   9
ATOM      9  C   UNL     1       7.710 -18.013   7.391  1.00  0.00     0.000 C 
BRANCH   9  10
ATOM     10  C   UNL     1       7.393 -16.633   7.992  1.00  0.00     0.006 C 
BRANCH  10  11
ATOM     11  C   UNL     1       8.646 -15.883   8.460  1.00  0.00     0.053 C 
BRANCH  11  12
ATOM     12  C   UNL     1       9.171 -14.998   7.374  1.00  0.00     0.041 C 
ATOM     13  O   UNL     1       8.398 -14.577   6.472  1.00  0.00    -0.550 OA
ATOM     14  O   UNL     1      10.516 -14.649   7.347  1.00  0.00    -0.550 OA
ENDBRANCH  11  12
ENDBRANCH  10  11
ENDBRANCH   9  10
ENDBRANCH   8   9
ENDBRANCH   7   8
ENDBRANCH   6   7
ENDBRANCH   5   6
ENDBRANCH   4   5
ENDBRANCH   3   4
ENDBRANCH   2   3
ENDBRANCH   1   2
BRANCH   1  15
ATOM     15  C   UNL     1       7.452 -20.728   4.761  1.00  0.00     0.000 C 
BRANCH  15  16
ATOM     16  C   UNL     1       6.044 -20.107   4.842  1.00  0.00     0.000 C 
BRANCH  16  17
ATOM     17  C   UNL     1       5.204 -20.236   3.554  1.00  0.00     0.000 C 
BRANCH  17  18
ATOM     18  C   UNL     1       4.980 -18.920   2.783  1.00  0.00    -0.000 C 
BRANCH  18  19
ATOM     19  C   UNL     1       3.566 -18.731   2.203  1.00  0.00    -0.000 C 
BRANCH  19  20
ATOM     20  C   UNL     1       2.591 -18.072   3.193  1.00  0.00    -0.000 C 
BRANCH  20  21
ATOM     21  C   UNL     1       1.811 -19.098   4.035  1.00  0.00    -0.000 C 
BRANCH  21  22
ATOM     22  C   UNL     1       2.078 -19.039   5.550  1.00  0.00    -0.000 C 
BRANCH  22  23
ATOM     23  C   UNL     1       2.961 -17.850   5.957  1.00  0.00    -0.000 C 
BRANCH  23  24
ATOM     24  C   UNL     1       3.870 -18.219   7.136  1.00  0.00    -0.000 C 
BRANCH  24  25
ATOM     25  C   UNL     1       3.685 -19.688   7.534  1.00  0.00    -0.003 C 
ATOM     26  C   UNL     1       4.809 -20.155   8.453  1.00  0.00     0.004 C 
ENDBRANCH  24  25
ENDBRANCH  23  24
ENDBRANCH  22  23
ENDBRANCH  21  22
ENDBRANCH  20  21
ENDBRANCH  19  20
ENDBRANCH  18  19
ENDBRANCH  17  18
ENDBRANCH  16  17
ENDBRANCH  15  16
ENDBRANCH   1  15
TORSDOF 22
ENDMDL
MODEL 7
REMARK VINA RESULT:    -2.962      2.375      5.236
REMARK INTER + INTRA:         -10.218
REMARK INTER:                  -6.595
REMARK INTRA:                  -3.623
REMARK UNBOUND:                -3.447
REMARK SMILES CCCCCCCCCCCCCCCCCCCCCCCC(=O)[O-]
REMARK SMILES IDX 13 1 14 2 15 3 16 4 17 5 18 6 19 7 20 8 21 9 22 10 23 11
REMARK SMILES IDX 24 12 25 13 26 14 12 15 11 16 10 17 9 18 8 19 7 20 6 21 5 22
REMARK SMILES IDX 4 23 3 24 2 25 1 26
REMARK H PARENT
REMARK Flexibility Score: inf
ROOT
ATOM      1  C   UNL     1       9.633 -16.619   9.940  1.00  0.00     0.000 C 
ENDROOT
BRANCH   1   2
ATOM      2  C   UNL     1      10.395 -15.289   9.781  1.00  0.00     0.000 C 
BRANCH   2   3
ATOM      3  C   UNL     1      10.394 -14.703   8.358  1.00  0.00     0.000 C 
BRANCH   3   4
ATOM      4  C   UNL     1       8.980 -14.498   7.795  1.00  0.00     0.000 C 
BRANCH   4   5
ATOM      5  C   UNL     1       8.871 -15.072   6.377  1.00  0.00     0.000 C 
BRANCH   5   6
ATOM      6  C   UNL     1      10.239 -15.529   5.855  1.00  0.00     0.000 C 
BRANCH   6   7
ATOM      7  C   UNL     1      10.184 -16.991   5.389  1.00  0.00     0.000 C 
BRANCH   7   8
ATOM      8  C   UNL     1      10.322 -17.995   6.548  1.00  0.00     0.000 C 
BRANCH   8   9
ATOM      9  C   UNL     1       9.130 -18.957   6.726  1.00  0.00     0.000 C 
BRANCH   9  10
ATOM     10  C   UNL     1       7.992 -18.782   5.705  1.00  0.00     0.006 C 
BRANCH  10  11
ATOM     11  C   UNL     1       7.466 -20.117   5.163  1.00  0.00     0.053 C 
BRANCH  11  12
ATOM     12  C   UNL     1       7.288 -20.052   3.678  1.00  0.00     0.041 C 
ATOM     13  O   UNL     1       7.029 -21.098   3.026  1.00  0.00    -0.550 OA
ATOM     14  O   UNL     1       7.424 -18.840   3.011  1.00  0.00    -0.550 OA
ENDBRANCH  11  12
ENDBRANCH  10  11
ENDBRANCH   9  10
ENDBRANCH   8   9
ENDBRANCH   7   8
ENDBRANCH   6   7
ENDBRANCH   5   6
ENDBRANCH   4   5
ENDBRANCH   3   4
ENDBRANCH   2   3
ENDBRANCH   1   2
BRANCH   1  15
ATOM     15  C   UNL     1       8.616 -16.658  11.098  1.00  0.00     0.000 C 
BRANCH  15  16
ATOM     16  C   UNL     1       7.165 -16.963  10.680  1.00  0.00     0.000 C 
BRANCH  16  17
ATOM     17  C   UNL     1       6.988 -17.374   9.204  1.00  0.00     0.000 C 
BRANCH  17  18
ATOM     18  C   UNL     1       6.051 -16.469   8.378  1.00  0.00    -0.000 C 
BRANCH  18  19
ATOM     19  C   UNL     1       4.828 -17.174   7.765  1.00  0.00    -0.000 C 
BRANCH  19  20
ATOM     20  C   UNL     1       4.675 -18.631   8.232  1.00  0.00    -0.000 C 
BRANCH  20  21
ATOM     21  C   UNL     1       4.474 -19.615   7.065  1.00  0.00    -0.000 C 
BRANCH  21  22
ATOM     22  C   UNL     1       3.840 -19.008   5.800  1.00  0.00    -0.000 C 
BRANCH  22  23
ATOM     23  C   UNL     1       2.768 -19.912   5.174  1.00  0.00    -0.000 C 
BRANCH  23  24
ATOM     24  C   UNL     1       2.054 -19.199   4.018  1.00  0.00    -0.000 C 
BRANCH  24  25
ATOM     25  C   UNL     1       2.880 -18.011   3.511  1.00  0.00    -0.003 C 
ATOM     26  C   UNL     1       3.709 -18.398   2.291  1.00  0.00     0.004 C 
ENDBRANCH  24  25
ENDBRANCH  23  24
ENDBRANCH  22  23
ENDBRANCH  21  22
ENDBRANCH  20  21
ENDBRANCH  19  20
ENDBRANCH  18  19
ENDBRANCH  17  18
ENDBRANCH  16  17
ENDBRANCH  15  16
ENDBRANCH   1  15
TORSDOF 22
ENDMDL
MODEL 8
REMARK VINA RESULT:    -2.949      1.884      6.998
REMARK INTER + INTRA:         -10.188
REMARK INTER:                  -6.476
REMARK INTRA:                  -3.712
REMARK UNBOUND:                -3.447
REMARK SMILES CCCCCCCCCCCCCCCCCCCCCCCC(=O)[O-]
REMARK SMILES IDX 13 1 14 2 15 3 16 4 17 5 18 6 19 7 20 8 21 9 22 10 23 11
REMARK SMILES IDX 24 12 25 13 26 14 12 15 11 16 10 17 9 18 8 19 7 20 6 21 5 22
REMARK SMILES IDX 4 23 3 24 2 25 1 26
REMARK H PARENT
REMARK Flexibility Score: inf
ROOT
ATOM      1  C   UNL     1       7.364 -20.540   5.283  1.00  0.00     0.000 C 
ENDROOT
BRANCH   1   2
ATOM      2  C   UNL     1       6.014 -19.914   4.882  1.00  0.00     0.000 C 
BRANCH   2   3
ATOM      3  C   UNL     1       5.837 -19.654   3.375  1.00  0.00     0.000 C 
BRANCH   3   4
ATOM      4  C   UNL     1       4.379 -19.790   2.910  1.00  0.00     0.000 C 
BRANCH   4   5
ATOM      5  C   UNL     1       3.897 -18.494   2.248  1.00  0.00     0.000 C 
BRANCH   5   6
ATOM      6  C   UNL     1       2.836 -17.793   3.105  1.00  0.00     0.000 C 
BRANCH   6   7
ATOM      7  C   UNL     1       2.423 -18.677   4.291  1.00  0.00     0.000 C 
BRANCH   7   8
ATOM      8  C   UNL     1       2.798 -18.065   5.653  1.00  0.00     0.000 C 
BRANCH   8   9
ATOM      9  C   UNL     1       2.991 -19.082   6.796  1.00  0.00     0.000 C 
BRANCH   9  10
ATOM     10  C   UNL     1       4.113 -18.740   7.792  1.00  0.00     0.006 C 
BRANCH  10  11
ATOM     11  C   UNL     1       4.694 -19.978   8.485  1.00  0.00     0.053 C 
BRANCH  11  12
ATOM     12  C   UNL     1       4.279 -20.025   9.922  1.00  0.00     0.041 C 
ATOM     13  O   UNL     1       5.035 -20.551  10.782  1.00  0.00    -0.550 OA
ATOM     14  O   UNL     1       3.052 -19.501  10.311  1.00  0.00    -0.550 OA
ENDBRANCH  11  12
ENDBRANCH  10  11
ENDBRANCH   9  10
ENDBRANCH   8   9
ENDBRANCH   7   8
ENDBRANCH   6   7
ENDBRANCH   5   6
ENDBRANCH   4   5
ENDBRANCH   3   4
ENDBRANCH   2   3
ENDBRANCH   1   2
BRANCH   1  15
ATOM     15  C   UNL     1       7.918 -20.084   6.647  1.00  0.00     0.000 C 
BRANCH  15  16
ATOM     16  C   UNL     1       7.861 -18.564   6.897  1.00  0.00     0.000 C 
BRANCH  16  17
ATOM     17  C   UNL     1       7.960 -18.148   8.379  1.00  0.00     0.000 C 
BRANCH  17  18
ATOM     18  C   UNL     1       8.013 -16.628   8.631  1.00  0.00    -0.000 C 
BRANCH  18  19
ATOM     19  C   UNL     1       7.512 -15.750   7.470  1.00  0.00    -0.000 C 
BRANCH  19  20
ATOM     20  C   UNL     1       8.504 -14.641   7.081  1.00  0.00    -0.000 C 
BRANCH  20  21
ATOM     21  C   UNL     1       9.878 -14.805   7.756  1.00  0.00    -0.000 C 
BRANCH  21  22
ATOM     22  C   UNL     1      11.037 -15.154   6.804  1.00  0.00    -0.000 C 
BRANCH  22  23
ATOM     23  C   UNL     1      11.039 -16.629   6.378  1.00  0.00    -0.000 C 
BRANCH  23  24
ATOM     24  C   UNL     1      11.047 -16.760   4.849  1.00  0.00    -0.000 C 
BRANCH  24  25
ATOM     25  C   UNL     1       9.619 -16.846   4.298  1.00  0.00    -0.003 C 
ATOM     26  C   UNL     1       9.444 -18.077   3.414  1.00  0.00     0.004 C 
ENDBRANCH  24  25
ENDBRANCH  23  24
ENDBRANCH  22  23
ENDBRANCH  21  22
ENDBRANCH  20  21
ENDBRANCH  19  20
ENDBRANCH  18  19
ENDBRANCH  17  18
ENDBRANCH  16  17
ENDBRANCH  15  16
ENDBRANCH   1  15
TORSDOF 22
ENDMDL
MODEL 9
REMARK VINA RESULT:    -2.930      2.168      6.351
REMARK INTER + INTRA:         -10.146
REMARK INTER:                  -6.422
REMARK INTRA:                  -3.724
REMARK UNBOUND:                -3.447
REMARK SMILES CCCCCCCCCCCCCCCCCCCCCCCC(=O)[O-]
REMARK SMILES IDX 13 1 14 2 15 3 16 4 17 5 18 6 19 7 20 8 21 9 22 10 23 11
REMARK SMILES IDX 24 12 25 13 26 14 12 15 11 16 10 17 9 18 8 19 7 20 6 21 5 22
REMARK SMILES IDX 4 23 3 24 2 25 1 26
REMARK H PARENT
REMARK Flexibility Score: inf
ROOT
ATOM      1  C   UNL     1       9.176 -14.626   7.829  1.00  0.00     0.000 C 
ENDROOT
BRANCH   1   2
ATOM      2  C   UNL     1       9.307 -15.126   6.377  1.00  0.00     0.000 C 
BRANCH   2   3
ATOM      3  C   UNL     1      10.708 -15.627   5.983  1.00  0.00     0.000 C 
BRANCH   3   4
ATOM      4  C   UNL     1      10.691 -17.032   5.364  1.00  0.00     0.000 C 
BRANCH   4   5
ATOM      5  C   UNL     1       9.307 -17.356   4.788  1.00  0.00     0.000 C 
BRANCH   5   6
ATOM      6  C   UNL     1       9.393 -17.711   3.299  1.00  0.00     0.000 C 
BRANCH   6   7
ATOM      7  C   UNL     1       8.476 -18.897   2.968  1.00  0.00     0.000 C 
BRANCH   7   8
ATOM      8  C   UNL     1       7.698 -19.413   4.192  1.00  0.00     0.000 C 
BRANCH   8   9
ATOM      9  C   UNL     1       6.242 -19.835   3.912  1.00  0.00     0.000 C 
BRANCH   9  10
ATOM     10  C   UNL     1       5.415 -20.194   5.158  1.00  0.00     0.006 C 
BRANCH  10  11
ATOM     11  C   UNL     1       3.933 -20.431   4.843  1.00  0.00     0.053 C 
BRANCH  11  12
ATOM     12  C   UNL     1       3.078 -19.393   5.500  1.00  0.00     0.041 C 
ATOM     13  O   UNL     1       3.554 -18.668   6.415  1.00  0.00    -0.550 OA
ATOM     14  O   UNL     1       1.752 -19.235   5.114  1.00  0.00    -0.550 OA
ENDBRANCH  11  12
ENDBRANCH  10  11
ENDBRANCH   9  10
ENDBRANCH   8   9
ENDBRANCH   7   8
ENDBRANCH   6   7
ENDBRANCH   5   6
ENDBRANCH   4   5
ENDBRANCH   3   4
ENDBRANCH   2   3
ENDBRANCH   1   2
BRANCH   1  15
ATOM     15  C   UNL     1      10.448 -14.768   8.687  1.00  0.00     0.000 C 
BRANCH  15  16
ATOM     16  C   UNL     1      10.239 -15.452  10.052  1.00  0.00     0.000 C 
BRANCH  16  17
ATOM     17  C   UNL     1      10.713 -16.917  10.122  1.00  0.00     0.000 C 
BRANCH  17  18
ATOM     18  C   UNL     1      10.222 -17.822   8.974  1.00  0.00    -0.000 C 
BRANCH  18  19
ATOM     19  C   UNL     1       8.845 -18.475   9.193  1.00  0.00    -0.000 C 
BRANCH  19  20
ATOM     20  C   UNL     1       8.099 -18.761   7.880  1.00  0.00    -0.000 C 
BRANCH  20  21
ATOM     21  C   UNL     1       6.949 -17.771   7.618  1.00  0.00    -0.000 C 
BRANCH  21  22
ATOM     22  C   UNL     1       6.014 -17.523   8.816  1.00  0.00    -0.000 C 
BRANCH  22  23
ATOM     23  C   UNL     1       5.493 -16.080   8.880  1.00  0.00    -0.000 C 
BRANCH  23  24
ATOM     24  C   UNL     1       4.895 -15.652   7.533  1.00  0.00    -0.000 C 
BRANCH  24  25
ATOM     25  C   UNL     1       4.720 -14.130   7.469  1.00  0.00    -0.003 C 
ATOM     26  C   UNL     1       5.900 -13.470   6.763  1.00  0.00     0.004 C 
ENDBRANCH  24  25
ENDBRANCH  23  24
ENDBRANCH  22  23
ENDBRANCH  21  22
ENDBRANCH  20  21
ENDBRANCH  19  20
ENDBRANCH  18  19
ENDBRANCH  17  18
ENDBRANCH  16  17
ENDBRANCH  15  16
ENDBRANCH   1  15
TORSDOF 22
ENDMDL
