MODEL 1
REMARK VINA RESULT:    -5.055      0.000      0.000
REMARK INTER + INTRA:          -6.845
REMARK INTER:                  -6.237
REMARK INTRA:                  -0.608
REMARK UNBOUND:                -0.608
REMARK SMILES COc1ccc(-c2cc3cc(O)c(OC)cc3o2)c(O)c1
REMARK SMILES IDX 7 1 8 2 9 3 10 4 11 5 13 6 16 7 17 8 18 9 6 10 3 11 21 12
REMARK SMILES IDX 4 13 19 14 5 15 2 16 1 17 20 18 12 20 14 22 15 23
REMARK H PARENT 20 19 12 21
REMARK Flexibility Score: inf
ROOT
ATOM      1  C   UNL     1    -104.647  22.870  14.654  1.00  0.00     0.139 A 
ATOM      2  C   UNL     1    -104.224  23.335  15.902  1.00  0.00     0.060 A 
ATOM      3  C   UNL     1    -104.180  24.703  15.761  1.00  0.00     0.025 A 
ATOM      4  C   UNL     1    -103.838  25.700  16.667  1.00  0.00     0.062 A 
ATOM      5  C   UNL     1    -103.896  27.040  16.229  1.00  0.00     0.158 A 
ATOM      6  C   UNL     1    -104.295  27.346  14.903  1.00  0.00     0.164 A 
ATOM      7  C   UNL     1    -104.639  26.297  14.013  1.00  0.00     0.098 A 
ATOM      8  C   UNL     1    -104.568  24.989  14.484  1.00  0.00     0.138 A 
ATOM      9  O   UNL     1    -104.848  23.888  13.832  1.00  0.00    -0.456 OA
ENDROOT
BRANCH   1  10
ATOM     10  C   UNL     1    -104.885  21.460  14.262  1.00  0.00     0.059 A 
ATOM     11  C   UNL     1    -105.372  18.752  13.624  1.00  0.00     0.122 A 
ATOM     12  C   UNL     1    -104.754  19.603  12.689  1.00  0.00     0.093 A 
ATOM     13  C   UNL     1    -105.753  19.267  14.865  1.00  0.00     0.047 A 
ATOM     14  C   UNL     1    -104.519  20.951  12.996  1.00  0.00     0.130 A 
ATOM     15  C   UNL     1    -105.517  20.606  15.182  1.00  0.00     0.020 A 
BRANCH  11  16
ATOM     16  O   UNL     1    -105.627  17.399  13.357  1.00  0.00    -0.497 OA
ATOM     17  C   UNL     1    -106.480  16.571  14.141  1.00  0.00     0.278 C 
ENDBRANCH  11  16
BRANCH  14  18
ATOM     18  O   UNL     1    -103.947  21.783  12.033  1.00  0.00    -0.507 OA
ATOM     19  H   UNL     1    -103.430  21.410  11.246  1.00  0.00     0.293 HD
ENDBRANCH  14  18
ENDBRANCH   1  10
BRANCH   5  20
ATOM     20  O   UNL     1    -103.561  28.074  17.099  1.00  0.00    -0.504 OA
ATOM     21  H   UNL     1    -103.030  28.880  16.785  1.00  0.00     0.293 HD
ENDBRANCH   5  20
BRANCH   6  22
ATOM     22  O   UNL     1    -104.336  28.694  14.513  1.00  0.00    -0.493 OA
ATOM     23  C   UNL     1    -104.323  29.139  13.161  1.00  0.00     0.278 C 
ENDBRANCH   6  22
TORSDOF 5
ENDMDL
MODEL 2
REMARK VINA RESULT:    -5.019      2.632      4.566
REMARK INTER + INTRA:          -6.800
REMARK INTER:                  -6.206
REMARK INTRA:                  -0.594
REMARK UNBOUND:                -0.608
REMARK SMILES COc1ccc(-c2cc3cc(O)c(OC)cc3o2)c(O)c1
REMARK SMILES IDX 7 1 8 2 9 3 10 4 11 5 13 6 16 7 17 8 18 9 6 10 3 11 21 12
REMARK SMILES IDX 4 13 19 14 5 15 2 16 1 17 20 18 12 20 14 22 15 23
REMARK H PARENT 20 19 12 21
REMARK Flexibility Score: inf
ROOT
ATOM      1  C   UNL     1    -104.732  19.251  14.475  1.00  0.00     0.139 A 
ATOM      2  C   UNL     1    -104.785  19.795  13.189  1.00  0.00     0.060 A 
ATOM      3  C   UNL     1    -104.296  21.072  13.336  1.00  0.00     0.025 A 
ATOM      4  C   UNL     1    -104.103  22.085  12.404  1.00  0.00     0.062 A 
ATOM      5  C   UNL     1    -103.568  23.309  12.859  1.00  0.00     0.158 A 
ATOM      6  C   UNL     1    -103.238  23.484  14.227  1.00  0.00     0.164 A 
ATOM      7  C   UNL     1    -103.448  22.422  15.143  1.00  0.00     0.098 A 
ATOM      8  C   UNL     1    -103.979  21.233  14.655  1.00  0.00     0.138 A 
ATOM      9  O   UNL     1    -104.240  20.138  15.325  1.00  0.00    -0.456 OA
ENDROOT
BRANCH   1  10
ATOM     10  C   UNL     1    -105.125  17.879  14.880  1.00  0.00     0.059 A 
ATOM     11  C   UNL     1    -105.960  15.273  15.576  1.00  0.00     0.122 A 
ATOM     12  C   UNL     1    -104.920  15.900  16.287  1.00  0.00     0.093 A 
ATOM     13  C   UNL     1    -106.564  15.950  14.514  1.00  0.00     0.047 A 
ATOM     14  C   UNL     1    -104.494  17.190  15.939  1.00  0.00     0.130 A 
ATOM     15  C   UNL     1    -106.150  17.237  14.166  1.00  0.00     0.020 A 
BRANCH  11  16
ATOM     16  O   UNL     1    -106.416  13.984  15.889  1.00  0.00    -0.497 OA
ATOM     17  C   UNL     1    -106.146  12.823  15.110  1.00  0.00     0.278 C 
ENDBRANCH  11  16
BRANCH  14  18
ATOM     18  O   UNL     1    -103.430  17.769  16.631  1.00  0.00    -0.507 OA
ATOM     19  H   UNL     1    -102.590  18.078  16.156  1.00  0.00     0.293 HD
ENDBRANCH  14  18
ENDBRANCH   1  10
BRANCH   5  20
ATOM     20  O   UNL     1    -103.358  24.355  11.964  1.00  0.00    -0.504 OA
ATOM     21  H   UNL     1    -104.100  25.002  11.723  1.00  0.00     0.293 HD
ENDBRANCH   5  20
BRANCH   6  22
ATOM     22  O   UNL     1    -102.709  24.720  14.632  1.00  0.00    -0.493 OA
ATOM     23  C   UNL     1    -102.115  24.961  15.903  1.00  0.00     0.278 C 
ENDBRANCH   6  22
TORSDOF 5
ENDMDL
MODEL 3
REMARK VINA RESULT:    -5.008      3.799      9.598
REMARK INTER + INTRA:          -6.788
REMARK INTER:                  -6.202
REMARK INTRA:                  -0.586
REMARK UNBOUND:                -0.608
REMARK SMILES COc1ccc(-c2cc3cc(O)c(OC)cc3o2)c(O)c1
REMARK SMILES IDX 7 1 8 2 9 3 10 4 11 5 13 6 16 7 17 8 18 9 6 10 3 11 21 12
REMARK SMILES IDX 4 13 19 14 5 15 2 16 1 17 20 18 12 20 14 22 15 23
REMARK H PARENT 20 19 12 21
REMARK Flexibility Score: inf
ROOT
ATOM      1  C   UNL     1    -104.765  17.408  15.528  1.00  0.00     0.139 A 
ATOM      2  C   UNL     1    -103.883  16.999  16.531  1.00  0.00     0.060 A 
ATOM      3  C   UNL     1    -104.356  15.769  16.925  1.00  0.00     0.025 A 
ATOM      4  C   UNL     1    -103.887  14.877  17.882  1.00  0.00     0.062 A 
ATOM      5  C   UNL     1    -104.591  13.667  18.060  1.00  0.00     0.158 A 
ATOM      6  C   UNL     1    -105.739  13.382  17.278  1.00  0.00     0.164 A 
ATOM      7  C   UNL     1    -106.181  14.320  16.310  1.00  0.00     0.098 A 
ATOM      8  C   UNL     1    -105.460  15.501  16.166  1.00  0.00     0.138 A 
ATOM      9  O   UNL     1    -105.693  16.484  15.333  1.00  0.00    -0.456 OA
ENDROOT
BRANCH   1  10
ATOM     10  C   UNL     1    -104.701  18.664  14.742  1.00  0.00     0.059 A 
ATOM     11  C   UNL     1    -104.593  21.115  13.343  1.00  0.00     0.122 A 
ATOM     12  C   UNL     1    -104.622  19.896  12.641  1.00  0.00     0.093 A 
ATOM     13  C   UNL     1    -104.605  21.096  14.740  1.00  0.00     0.047 A 
ATOM     14  C   UNL     1    -104.665  18.675  13.330  1.00  0.00     0.130 A 
ATOM     15  C   UNL     1    -104.655  19.886  15.433  1.00  0.00     0.020 A 
BRANCH  11  16
ATOM     16  O   UNL     1    -104.548  22.357  12.694  1.00  0.00    -0.497 OA
ATOM     17  C   UNL     1    -103.470  22.799  11.875  1.00  0.00     0.278 C 
ENDBRANCH  11  16
BRANCH  14  18
ATOM     18  O   UNL     1    -104.646  17.481  12.609  1.00  0.00    -0.507 OA
ATOM     19  H   UNL     1    -103.777  17.040  12.332  1.00  0.00     0.293 HD
ENDBRANCH  14  18
ENDBRANCH   1  10
BRANCH   5  20
ATOM     20  O   UNL     1    -104.161  12.743  19.008  1.00  0.00    -0.504 OA
ATOM     21  H   UNL     1    -104.563  11.814  19.063  1.00  0.00     0.293 HD
ENDBRANCH   5  20
BRANCH   6  22
ATOM     22  O   UNL     1    -106.407  12.166  17.493  1.00  0.00    -0.493 OA
ATOM     23  C   UNL     1    -107.769  12.058  17.892  1.00  0.00     0.278 C 
ENDBRANCH   6  22
TORSDOF 5
ENDMDL
MODEL 4
REMARK VINA RESULT:    -5.007      1.668      7.915
REMARK INTER + INTRA:          -6.786
REMARK INTER:                  -6.172
REMARK INTRA:                  -0.614
REMARK UNBOUND:                -0.608
REMARK SMILES COc1ccc(-c2cc3cc(O)c(OC)cc3o2)c(O)c1
REMARK SMILES IDX 7 1 8 2 9 3 10 4 11 5 13 6 16 7 17 8 18 9 6 10 3 11 21 12
REMARK SMILES IDX 4 13 19 14 5 15 2 16 1 17 20 18 12 20 14 22 15 23
REMARK H PARENT 20 19 12 21
REMARK Flexibility Score: inf
ROOT
ATOM      1  C   UNL     1    -104.456  23.285  13.736  1.00  0.00     0.139 A 
ATOM      2  C   UNL     1    -104.574  22.483  12.598  1.00  0.00     0.060 A 
ATOM      3  C   UNL     1    -104.566  21.196  13.084  1.00  0.00     0.025 A 
ATOM      4  C   UNL     1    -104.660  19.975  12.427  1.00  0.00     0.062 A 
ATOM      5  C   UNL     1    -104.630  18.799  13.207  1.00  0.00     0.158 A 
ATOM      6  C   UNL     1    -104.509  18.877  14.618  1.00  0.00     0.164 A 
ATOM      7  C   UNL     1    -104.418  20.144  15.247  1.00  0.00     0.098 A 
ATOM      8  C   UNL     1    -104.451  21.279  14.442  1.00  0.00     0.138 A 
ATOM      9  O   UNL     1    -104.390  22.531  14.821  1.00  0.00    -0.456 OA
ENDROOT
BRANCH   1  10
ATOM     10  C   UNL     1    -104.436  24.767  13.783  1.00  0.00     0.059 A 
ATOM     11  C   UNL     1    -104.338  27.590  13.774  1.00  0.00     0.122 A 
ATOM     12  C   UNL     1    -104.866  26.900  14.881  1.00  0.00     0.093 A 
ATOM     13  C   UNL     1    -103.877  26.861  12.675  1.00  0.00     0.047 A 
ATOM     14  C   UNL     1    -104.927  25.499  14.887  1.00  0.00     0.130 A 
ATOM     15  C   UNL     1    -103.928  25.466  12.675  1.00  0.00     0.020 A 
BRANCH  11  16
ATOM     16  O   UNL     1    -104.260  28.990  13.725  1.00  0.00    -0.497 OA
ATOM     17  C   UNL     1    -103.517  29.721  12.756  1.00  0.00     0.278 C 
ENDBRANCH  11  16
BRANCH  14  18
ATOM     18  O   UNL     1    -105.498  24.844  15.978  1.00  0.00    -0.507 OA
ATOM     19  H   UNL     1    -105.426  23.840  16.094  1.00  0.00     0.293 HD
ENDBRANCH  14  18
ENDBRANCH   1  10
BRANCH   5  20
ATOM     20  O   UNL     1    -104.719  17.552  12.594  1.00  0.00    -0.504 OA
ATOM     21  H   UNL     1    -105.021  16.731  13.106  1.00  0.00     0.293 HD
ENDBRANCH   5  20
BRANCH   6  22
ATOM     22  O   UNL     1    -104.481  17.680  15.351  1.00  0.00    -0.493 OA
ATOM     23  C   UNL     1    -103.311  17.129  15.945  1.00  0.00     0.278 C 
ENDBRANCH   6  22
TORSDOF 5
ENDMDL
MODEL 5
REMARK VINA RESULT:    -4.997      2.034      8.293
REMARK INTER + INTRA:          -6.774
REMARK INTER:                  -6.184
REMARK INTRA:                  -0.590
REMARK UNBOUND:                -0.608
REMARK SMILES COc1ccc(-c2cc3cc(O)c(OC)cc3o2)c(O)c1
REMARK SMILES IDX 7 1 8 2 9 3 10 4 11 5 13 6 16 7 17 8 18 9 6 10 3 11 21 12
REMARK SMILES IDX 4 13 19 14 5 15 2 16 1 17 20 18 12 20 14 22 15 23
REMARK H PARENT 20 19 12 21
REMARK Flexibility Score: inf
ROOT
ATOM      1  C   UNL     1    -104.913  21.244  15.214  1.00  0.00     0.139 A 
ATOM      2  C   UNL     1    -104.556  20.555  14.052  1.00  0.00     0.060 A 
ATOM      3  C   UNL     1    -105.211  19.349  14.153  1.00  0.00     0.025 A 
ATOM      4  C   UNL     1    -105.243  18.257  13.294  1.00  0.00     0.062 A 
ATOM      5  C   UNL     1    -106.024  17.143  13.670  1.00  0.00     0.158 A 
ATOM      6  C   UNL     1    -106.750  17.153  14.888  1.00  0.00     0.164 A 
ATOM      7  C   UNL     1    -106.691  18.290  15.733  1.00  0.00     0.098 A 
ATOM      8  C   UNL     1    -105.909  19.367  15.327  1.00  0.00     0.138 A 
ATOM      9  O   UNL     1    -105.727  20.505  15.950  1.00  0.00    -0.456 OA
ENDROOT
BRANCH   1  10
ATOM     10  C   UNL     1    -104.498  22.614  15.601  1.00  0.00     0.059 A 
ATOM     11  C   UNL     1    -103.616  25.212  16.270  1.00  0.00     0.122 A 
ATOM     12  C   UNL     1    -104.721  24.645  16.930  1.00  0.00     0.093 A 
ATOM     13  C   UNL     1    -102.970  24.479  15.271  1.00  0.00     0.047 A 
ATOM     14  C   UNL     1    -105.171  23.359  16.595  1.00  0.00     0.130 A 
ATOM     15  C   UNL     1    -103.406  23.197  14.936  1.00  0.00     0.020 A 
BRANCH  11  16
ATOM     16  O   UNL     1    -103.134  26.495  16.572  1.00  0.00    -0.497 OA
ATOM     17  C   UNL     1    -103.873  27.697  16.382  1.00  0.00     0.278 C 
ENDBRANCH  11  16
BRANCH  14  18
ATOM     18  O   UNL     1    -106.297  22.841  17.233  1.00  0.00    -0.507 OA
ATOM     19  H   UNL     1    -107.102  23.418  17.445  1.00  0.00     0.293 HD
ENDBRANCH  14  18
ENDBRANCH   1  10
BRANCH   5  20
ATOM     20  O   UNL     1    -106.087  16.024  12.844  1.00  0.00    -0.504 OA
ATOM     21  H   UNL     1    -105.347  15.809  12.185  1.00  0.00     0.293 HD
ENDBRANCH   5  20
BRANCH   6  22
ATOM     22  O   UNL     1    -107.512  16.021  15.220  1.00  0.00    -0.493 OA
ATOM     23  C   UNL     1    -107.187  15.114  16.268  1.00  0.00     0.278 C 
ENDBRANCH   6  22
TORSDOF 5
ENDMDL
MODEL 6
REMARK VINA RESULT:    -4.929      2.215      7.993
REMARK INTER + INTRA:          -6.690
REMARK INTER:                  -6.089
REMARK INTRA:                  -0.601
REMARK UNBOUND:                -0.608
REMARK SMILES COc1ccc(-c2cc3cc(O)c(OC)cc3o2)c(O)c1
REMARK SMILES IDX 7 1 8 2 9 3 10 4 11 5 13 6 16 7 17 8 18 9 6 10 3 11 21 12
REMARK SMILES IDX 4 13 19 14 5 15 2 16 1 17 20 18 12 20 14 22 15 23
REMARK H PARENT 20 19 12 21
REMARK Flexibility Score: inf
ROOT
ATOM      1  C   UNL     1    -104.269  21.301  13.733  1.00  0.00     0.139 A 
ATOM      2  C   UNL     1    -104.669  20.287  12.859  1.00  0.00     0.060 A 
ATOM      3  C   UNL     1    -104.976  19.227  13.680  1.00  0.00     0.025 A 
ATOM      4  C   UNL     1    -105.436  17.949  13.382  1.00  0.00     0.062 A 
ATOM      5  C   UNL     1    -105.673  17.065  14.456  1.00  0.00     0.158 A 
ATOM      6  C   UNL     1    -105.446  17.481  15.793  1.00  0.00     0.164 A 
ATOM      7  C   UNL     1    -104.979  18.795  16.051  1.00  0.00     0.098 A 
ATOM      8  C   UNL     1    -104.757  19.636  14.964  1.00  0.00     0.138 A 
ATOM      9  O   UNL     1    -104.338  20.877  14.985  1.00  0.00    -0.456 OA
ENDROOT
BRANCH   1  10
ATOM     10  C   UNL     1    -103.849  22.676  13.371  1.00  0.00     0.059 A 
ATOM     11  C   UNL     1    -102.978  25.250  12.602  1.00  0.00     0.122 A 
ATOM     12  C   UNL     1    -103.827  25.089  13.712  1.00  0.00     0.093 A 
ATOM     13  C   UNL     1    -102.583  24.123  11.877  1.00  0.00     0.047 A 
ATOM     14  C   UNL     1    -104.271  23.814  14.092  1.00  0.00     0.130 A 
ATOM     15  C   UNL     1    -103.015  22.850  12.253  1.00  0.00     0.020 A 
BRANCH  11  16
ATOM     16  O   UNL     1    -102.512  26.506  12.186  1.00  0.00    -0.497 OA
ATOM     17  C   UNL     1    -103.341  27.647  11.987  1.00  0.00     0.278 C 
ENDBRANCH  11  16
BRANCH  14  18
ATOM     18  O   UNL     1    -105.150  23.689  15.169  1.00  0.00    -0.507 OA
ATOM     19  H   UNL     1    -104.903  23.164  16.000  1.00  0.00     0.293 HD
ENDBRANCH  14  18
ENDBRANCH   1  10
BRANCH   5  20
ATOM     20  O   UNL     1    -106.133  15.774  14.209  1.00  0.00    -0.504 OA
ATOM     21  H   UNL     1    -107.108  15.589  14.004  1.00  0.00     0.293 HD
ENDBRANCH   5  20
BRANCH   6  22
ATOM     22  O   UNL     1    -105.694  16.565  16.828  1.00  0.00    -0.493 OA
ATOM     23  C   UNL     1    -105.016  16.565  18.079  1.00  0.00     0.278 C 
ENDBRANCH   6  22
TORSDOF 5
ENDMDL
MODEL 7
REMARK VINA RESULT:    -4.781      5.565      9.185
REMARK INTER + INTRA:          -6.507
REMARK INTER:                  -5.916
REMARK INTRA:                  -0.591
REMARK UNBOUND:                -0.608
REMARK SMILES COc1ccc(-c2cc3cc(O)c(OC)cc3o2)c(O)c1
REMARK SMILES IDX 7 1 8 2 9 3 10 4 11 5 13 6 16 7 17 8 18 9 6 10 3 11 21 12
REMARK SMILES IDX 4 13 19 14 5 15 2 16 1 17 20 18 12 20 14 22 15 23
REMARK H PARENT 20 19 12 21
REMARK Flexibility Score: inf
ROOT
ATOM      1  C   UNL     1    -107.516  15.978  18.021  1.00  0.00     0.139 A 
ATOM      2  C   UNL     1    -106.274  15.342  17.945  1.00  0.00     0.060 A 
ATOM      3  C   UNL     1    -105.473  16.233  17.271  1.00  0.00     0.025 A 
ATOM      4  C   UNL     1    -104.134  16.156  16.905  1.00  0.00     0.062 A 
ATOM      5  C   UNL     1    -103.573  17.251  16.214  1.00  0.00     0.158 A 
ATOM      6  C   UNL     1    -104.362  18.389  15.910  1.00  0.00     0.164 A 
ATOM      7  C   UNL     1    -105.724  18.427  16.305  1.00  0.00     0.098 A 
ATOM      8  C   UNL     1    -106.238  17.327  16.984  1.00  0.00     0.138 A 
ATOM      9  O   UNL     1    -107.456  17.165  17.440  1.00  0.00    -0.456 OA
ENDROOT
BRANCH   1  10
ATOM     10  C   UNL     1    -108.744  15.461  18.671  1.00  0.00     0.059 A 
ATOM     11  C   UNL     1    -111.078  14.385  19.841  1.00  0.00     0.122 A 
ATOM     12  C   UNL     1    -110.642  15.677  20.185  1.00  0.00     0.093 A 
ATOM     13  C   UNL     1    -110.335  13.637  18.925  1.00  0.00     0.047 A 
ATOM     14  C   UNL     1    -109.478  16.213  19.615  1.00  0.00     0.130 A 
ATOM     15  C   UNL     1    -109.179  14.165  18.349  1.00  0.00     0.020 A 
BRANCH  11  16
ATOM     16  O   UNL     1    -112.235  13.810  20.388  1.00  0.00    -0.497 OA
ATOM     17  C   UNL     1    -112.235  12.756  21.346  1.00  0.00     0.278 C 
ENDBRANCH  11  16
BRANCH  14  18
ATOM     18  O   UNL     1    -109.044  17.479  20.009  1.00  0.00    -0.507 OA
ATOM     19  H   UNL     1    -109.585  18.313  19.814  1.00  0.00     0.293 HD
ENDBRANCH  14  18
ENDBRANCH   1  10
BRANCH   5  20
ATOM     20  O   UNL     1    -102.236  17.220  15.824  1.00  0.00    -0.504 OA
ATOM     21  H   UNL     1    -101.529  16.770  16.394  1.00  0.00     0.293 HD
ENDBRANCH   5  20
BRANCH   6  22
ATOM     22  O   UNL     1    -103.760  19.453  15.220  1.00  0.00    -0.493 OA
ATOM     23  C   UNL     1    -104.375  20.718  14.999  1.00  0.00     0.278 C 
ENDBRANCH   6  22
TORSDOF 5
ENDMDL
MODEL 8
REMARK VINA RESULT:    -4.739      2.612      4.286
REMARK INTER + INTRA:          -6.455
REMARK INTER:                  -5.895
REMARK INTRA:                  -0.560
REMARK UNBOUND:                -0.608
REMARK SMILES COc1ccc(-c2cc3cc(O)c(OC)cc3o2)c(O)c1
REMARK SMILES IDX 7 1 8 2 9 3 10 4 11 5 13 6 16 7 17 8 18 9 6 10 3 11 21 12
REMARK SMILES IDX 4 13 19 14 5 15 2 16 1 17 20 18 12 20 14 22 15 23
REMARK H PARENT 20 19 12 21
REMARK Flexibility Score: inf
ROOT
ATOM      1  C   UNL     1    -105.386  19.948  13.786  1.00  0.00     0.139 A 
ATOM      2  C   UNL     1    -104.928  20.412  12.550  1.00  0.00     0.060 A 
ATOM      3  C   UNL     1    -104.174  21.521  12.858  1.00  0.00     0.025 A 
ATOM      4  C   UNL     1    -103.462  22.392  12.042  1.00  0.00     0.062 A 
ATOM      5  C   UNL     1    -102.767  23.455  12.657  1.00  0.00     0.158 A 
ATOM      6  C   UNL     1    -102.800  23.616  14.066  1.00  0.00     0.164 A 
ATOM      7  C   UNL     1    -103.537  22.701  14.860  1.00  0.00     0.098 A 
ATOM      8  C   UNL     1    -104.209  21.667  14.215  1.00  0.00     0.138 A 
ATOM      9  O   UNL     1    -104.933  20.721  14.760  1.00  0.00    -0.456 OA
ENDROOT
BRANCH   1  10
ATOM     10  C   UNL     1    -106.231  18.754  14.032  1.00  0.00     0.059 A 
ATOM     11  C   UNL     1    -107.764  16.418  14.442  1.00  0.00     0.122 A 
ATOM     12  C   UNL     1    -108.254  17.671  14.852  1.00  0.00     0.093 A 
ATOM     13  C   UNL     1    -106.505  16.343  13.842  1.00  0.00     0.047 A 
ATOM     14  C   UNL     1    -107.493  18.834  14.661  1.00  0.00     0.130 A 
ATOM     15  C   UNL     1    -105.743  17.496  13.642  1.00  0.00     0.020 A 
BRANCH  11  16
ATOM     16  O   UNL     1    -108.491  15.231  14.615  1.00  0.00    -0.497 OA
ATOM     17  C   UNL     1    -108.106  14.171  15.485  1.00  0.00     0.278 C 
ENDBRANCH  11  16
BRANCH  14  18
ATOM     18  O   UNL     1    -107.984  20.056  15.120  1.00  0.00    -0.507 OA
ATOM     19  H   UNL     1    -108.897  20.400  14.847  1.00  0.00     0.293 HD
ENDBRANCH  14  18
ENDBRANCH   1  10
BRANCH   5  20
ATOM     20  O   UNL     1    -102.041  24.355  11.882  1.00  0.00    -0.504 OA
ATOM     21  H   UNL     1    -102.314  25.329  11.805  1.00  0.00     0.293 HD
ENDBRANCH   5  20
BRANCH   6  22
ATOM     22  O   UNL     1    -102.094  24.689  14.631  1.00  0.00    -0.493 OA
ATOM     23  C   UNL     1    -102.410  25.287  15.883  1.00  0.00     0.278 C 
ENDBRANCH   6  22
TORSDOF 5
ENDMDL
MODEL 9
REMARK VINA RESULT:    -4.729      1.778      2.631
REMARK INTER + INTRA:          -6.443
REMARK INTER:                  -6.023
REMARK INTRA:                  -0.420
REMARK UNBOUND:                -0.608
REMARK SMILES COc1ccc(-c2cc3cc(O)c(OC)cc3o2)c(O)c1
REMARK SMILES IDX 7 1 8 2 9 3 10 4 11 5 13 6 16 7 17 8 18 9 6 10 3 11 21 12
REMARK SMILES IDX 4 13 19 14 5 15 2 16 1 17 20 18 12 20 14 22 15 23
REMARK H PARENT 20 19 12 21
REMARK Flexibility Score: inf
ROOT
ATOM      1  C   UNL     1    -104.630  21.499  14.328  1.00  0.00     0.139 A 
ATOM      2  C   UNL     1    -103.805  22.020  13.328  1.00  0.00     0.060 A 
ATOM      3  C   UNL     1    -103.773  23.372  13.580  1.00  0.00     0.025 A 
ATOM      4  C   UNL     1    -103.111  24.404  12.925  1.00  0.00     0.062 A 
ATOM      5  C   UNL     1    -103.265  25.713  13.428  1.00  0.00     0.158 A 
ATOM      6  C   UNL     1    -104.072  25.954  14.570  1.00  0.00     0.164 A 
ATOM      7  C   UNL     1    -104.726  24.870  15.210  1.00  0.00     0.098 A 
ATOM      8  C   UNL     1    -104.549  23.595  14.681  1.00  0.00     0.138 A 
ATOM      9  O   UNL     1    -105.053  22.469  15.122  1.00  0.00    -0.456 OA
ENDROOT
BRANCH   1  10
ATOM     10  C   UNL     1    -104.987  20.074  14.536  1.00  0.00     0.059 A 
ATOM     11  C   UNL     1    -105.563  17.345  14.977  1.00  0.00     0.122 A 
ATOM     12  C   UNL     1    -106.468  18.157  14.270  1.00  0.00     0.093 A 
ATOM     13  C   UNL     1    -104.384  17.909  15.470  1.00  0.00     0.047 A 
ATOM     14  C   UNL     1    -106.192  19.516  14.056  1.00  0.00     0.130 A 
ATOM     15  C   UNL     1    -104.099  19.259  15.256  1.00  0.00     0.020 A 
BRANCH  11  16
ATOM     16  O   UNL     1    -105.800  15.983  15.215  1.00  0.00    -0.497 OA
ATOM     17  C   UNL     1    -105.309  15.265  16.342  1.00  0.00     0.278 C 
ENDBRANCH  11  16
BRANCH  14  18
ATOM     18  O   UNL     1    -107.129  20.308  13.392  1.00  0.00    -0.507 OA
ATOM     19  H   UNL     1    -108.118  20.088  13.406  1.00  0.00     0.293 HD
ENDBRANCH  14  18
ENDBRANCH   1  10
BRANCH   5  20
ATOM     20  O   UNL     1    -102.624  26.781  12.806  1.00  0.00    -0.504 OA
ATOM     21  H   UNL     1    -101.629  26.939  12.917  1.00  0.00     0.293 HD
ENDBRANCH   5  20
BRANCH   6  22
ATOM     22  O   UNL     1    -104.196  27.273  15.033  1.00  0.00    -0.493 OA
ATOM     23  C   UNL     1    -103.914  27.686  16.366  1.00  0.00     0.278 C 
ENDBRANCH   6  22
TORSDOF 5
ENDMDL
