MODEL 1
REMARK VINA RESULT:    -3.623      0.000      0.000
REMARK INTER + INTRA:          -4.296
REMARK INTER:                  -4.258
REMARK INTRA:                  -0.038
REMARK UNBOUND:                -0.038
REMARK SMILES CCCCC(=O)[O-]
REMARK SMILES IDX 4 1 5 2 6 3 7 4 3 5 2 6 1 7
REMARK H PARENT
REMARK Flexibility Score: inf
ROOT
ATOM      1  C   UNL     1      48.889  31.459  16.733  1.00  0.00     0.053 C 
ENDROOT
BRANCH   1   2
ATOM      2  C   UNL     1      47.931  30.535  17.416  1.00  0.00     0.041 C 
ATOM      3  O   UNL     1      47.405  29.583  16.781  1.00  0.00    -0.550 OA
ATOM      4  O   UNL     1      47.578  30.756  18.741  1.00  0.00    -0.550 OA
ENDBRANCH   1   2
BRANCH   1   5
ATOM      5  C   UNL     1      49.350  32.560  17.696  1.00  0.00     0.006 C 
BRANCH   5   6
ATOM      6  C   UNL     1      48.824  33.948  17.299  1.00  0.00    -0.003 C 
ATOM      7  C   UNL     1      47.716  33.883  16.248  1.00  0.00     0.004 C 
ENDBRANCH   5   6
ENDBRANCH   1   5
TORSDOF 3
ENDMDL
MODEL 2
REMARK VINA RESULT:    -3.620      2.353      3.469
REMARK INTER + INTRA:          -4.293
REMARK INTER:                  -4.153
REMARK INTRA:                  -0.140
REMARK UNBOUND:                -0.038
REMARK SMILES CCCCC(=O)[O-]
REMARK SMILES IDX 4 1 5 2 6 3 7 4 3 5 2 6 1 7
REMARK H PARENT
REMARK Flexibility Score: inf
ROOT
ATOM      1  C   UNL     1      48.851  33.867  17.355  1.00  0.00     0.053 C 
ENDROOT
BRANCH   1   2
ATOM      2  C   UNL     1      47.824  33.900  16.267  1.00  0.00     0.041 C 
ATOM      3  O   UNL     1      46.698  34.424  16.474  1.00  0.00    -0.550 OA
ATOM      4  O   UNL     1      48.092  33.308  15.040  1.00  0.00    -0.550 OA
ENDBRANCH   1   2
BRANCH   1   5
ATOM      5  C   UNL     1      49.269  32.420  17.651  1.00  0.00     0.006 C 
BRANCH   5   6
ATOM      6  C   UNL     1      48.131  31.593  18.268  1.00  0.00    -0.003 C 
ATOM      7  C   UNL     1      47.788  30.351  17.444  1.00  0.00     0.004 C 
ENDBRANCH   5   6
ENDBRANCH   1   5
TORSDOF 3
ENDMDL
MODEL 3
REMARK VINA RESULT:    -3.618      0.201      1.240
REMARK INTER + INTRA:          -4.290
REMARK INTER:                  -4.233
REMARK INTRA:                  -0.057
REMARK UNBOUND:                -0.038
REMARK SMILES CCCCC(=O)[O-]
REMARK SMILES IDX 4 1 5 2 6 3 7 4 3 5 2 6 1 7
REMARK H PARENT
REMARK Flexibility Score: inf
ROOT
ATOM      1  C   UNL     1      48.965  31.408  16.764  1.00  0.00     0.053 C 
ENDROOT
BRANCH   1   2
ATOM      2  C   UNL     1      47.916  30.540  17.383  1.00  0.00     0.041 C 
ATOM      3  O   UNL     1      47.574  30.714  18.583  1.00  0.00    -0.550 OA
ATOM      4  O   UNL     1      47.349  29.504  16.651  1.00  0.00    -0.550 OA
ENDBRANCH   1   2
BRANCH   1   5
ATOM      5  C   UNL     1      49.394  32.508  17.743  1.00  0.00     0.006 C 
BRANCH   5   6
ATOM      6  C   UNL     1      48.844  33.889  17.356  1.00  0.00    -0.003 C 
ATOM      7  C   UNL     1      48.105  33.878  16.017  1.00  0.00     0.004 C 
ENDBRANCH   5   6
ENDBRANCH   1   5
TORSDOF 3
ENDMDL
MODEL 4
REMARK VINA RESULT:    -3.533      2.565      3.485
REMARK INTER + INTRA:          -4.191
REMARK INTER:                  -4.125
REMARK INTRA:                  -0.066
REMARK UNBOUND:                -0.038
REMARK SMILES CCCCC(=O)[O-]
REMARK SMILES IDX 4 1 5 2 6 3 7 4 3 5 2 6 1 7
REMARK H PARENT
REMARK Flexibility Score: inf
ROOT
ATOM      1  C   UNL     1      47.644  33.748  16.251  1.00  0.00     0.053 C 
ENDROOT
BRANCH   1   2
ATOM      2  C   UNL     1      48.133  33.365  14.890  1.00  0.00     0.041 C 
ATOM      3  O   UNL     1      48.341  34.249  14.018  1.00  0.00    -0.550 OA
ATOM      4  O   UNL     1      48.310  32.025  14.567  1.00  0.00    -0.550 OA
ENDBRANCH   1   2
BRANCH   1   5
ATOM      5  C   UNL     1      48.825  33.908  17.217  1.00  0.00     0.006 C 
BRANCH   5   6
ATOM      6  C   UNL     1      49.335  32.561  17.752  1.00  0.00    -0.003 C 
ATOM      7  C   UNL     1      48.201  31.612  18.143  1.00  0.00     0.004 C 
ENDBRANCH   5   6
ENDBRANCH   1   5
TORSDOF 3
ENDMDL
MODEL 5
REMARK VINA RESULT:    -3.496      1.826      2.767
REMARK INTER + INTRA:          -4.147
REMARK INTER:                  -4.068
REMARK INTRA:                  -0.079
REMARK UNBOUND:                -0.038
REMARK SMILES CCCCC(=O)[O-]
REMARK SMILES IDX 4 1 5 2 6 3 7 4 3 5 2 6 1 7
REMARK H PARENT
REMARK Flexibility Score: inf
ROOT
ATOM      1  C   UNL     1      48.490  33.970  17.050  1.00  0.00     0.053 C 
ENDROOT
BRANCH   1   2
ATOM      2  C   UNL     1      48.815  32.619  17.603  1.00  0.00     0.041 C 
ATOM      3  O   UNL     1      50.009  32.304  17.848  1.00  0.00    -0.550 OA
ATOM      4  O   UNL     1      47.803  31.688  17.802  1.00  0.00    -0.550 OA
ENDBRANCH   1   2
BRANCH   1   5
ATOM      5  C   UNL     1      47.554  33.842  15.841  1.00  0.00     0.006 C 
BRANCH   5   6
ATOM      6  C   UNL     1      48.256  33.241  14.614  1.00  0.00    -0.003 C 
ATOM      7  C   UNL     1      48.316  34.210  13.432  1.00  0.00     0.004 C 
ENDBRANCH   5   6
ENDBRANCH   1   5
TORSDOF 3
ENDMDL
MODEL 6
REMARK VINA RESULT:    -3.493      4.536      5.505
REMARK INTER + INTRA:          -4.143
REMARK INTER:                  -4.065
REMARK INTRA:                  -0.078
REMARK UNBOUND:                -0.038
REMARK SMILES CCCCC(=O)[O-]
REMARK SMILES IDX 4 1 5 2 6 3 7 4 3 5 2 6 1 7
REMARK H PARENT
REMARK Flexibility Score: inf
ROOT
ATOM      1  C   UNL     1      48.414  34.378  12.881  1.00  0.00     0.053 C 
ENDROOT
BRANCH   1   2
ATOM      2  C   UNL     1      48.213  33.396  13.992  1.00  0.00     0.041 C 
ATOM      3  O   UNL     1      47.847  33.791  15.130  1.00  0.00    -0.550 OA
ATOM      4  O   UNL     1      48.480  32.048  13.785  1.00  0.00    -0.550 OA
ENDBRANCH   1   2
BRANCH   1   5
ATOM      5  C   UNL     1      47.820  33.835  11.574  1.00  0.00     0.006 C 
BRANCH   5   6
ATOM      6  C   UNL     1      48.901  33.420  10.564  1.00  0.00    -0.003 C 
ATOM      7  C   UNL     1      50.317  33.721  11.055  1.00  0.00     0.004 C 
ENDBRANCH   5   6
ENDBRANCH   1   5
TORSDOF 3
ENDMDL
MODEL 7
REMARK VINA RESULT:    -3.466      1.106      1.345
REMARK INTER + INTRA:          -4.112
REMARK INTER:                  -4.012
REMARK INTRA:                  -0.100
REMARK UNBOUND:                -0.038
REMARK SMILES CCCCC(=O)[O-]
REMARK SMILES IDX 4 1 5 2 6 3 7 4 3 5 2 6 1 7
REMARK H PARENT
REMARK Flexibility Score: inf
ROOT
ATOM      1  C   UNL     1      48.138  31.406  18.106  1.00  0.00     0.053 C 
ENDROOT
BRANCH   1   2
ATOM      2  C   UNL     1      47.999  30.231  17.191  1.00  0.00     0.041 C 
ATOM      3  O   UNL     1      48.568  29.142  17.466  1.00  0.00    -0.550 OA
ATOM      4  O   UNL     1      47.283  30.352  16.006  1.00  0.00    -0.550 OA
ENDBRANCH   1   2
BRANCH   1   5
ATOM      5  C   UNL     1      49.263  32.330  17.621  1.00  0.00     0.006 C 
BRANCH   5   6
ATOM      6  C   UNL     1      48.762  33.745  17.293  1.00  0.00    -0.003 C 
ATOM      7  C   UNL     1      48.047  33.823  15.944  1.00  0.00     0.004 C 
ENDBRANCH   5   6
ENDBRANCH   1   5
TORSDOF 3
ENDMDL
MODEL 8
REMARK VINA RESULT:    -3.431      1.868      2.602
REMARK INTER + INTRA:          -4.070
REMARK INTER:                  -4.051
REMARK INTRA:                  -0.019
REMARK UNBOUND:                -0.038
REMARK SMILES CCCCC(=O)[O-]
REMARK SMILES IDX 4 1 5 2 6 3 7 4 3 5 2 6 1 7
REMARK H PARENT
REMARK Flexibility Score: inf
ROOT
ATOM      1  C   UNL     1      48.087  32.950  16.318  1.00  0.00     0.053 C 
ENDROOT
BRANCH   1   2
ATOM      2  C   UNL     1      48.608  32.210  17.509  1.00  0.00     0.041 C 
ATOM      3  O   UNL     1      47.875  31.384  18.113  1.00  0.00    -0.550 OA
ATOM      4  O   UNL     1      49.888  32.470  17.984  1.00  0.00    -0.550 OA
ENDBRANCH   1   2
BRANCH   1   5
ATOM      5  C   UNL     1      47.258  34.162  16.762  1.00  0.00     0.006 C 
BRANCH   5   6
ATOM      6  C   UNL     1      46.168  34.535  15.746  1.00  0.00    -0.003 C 
ATOM      7  C   UNL     1      45.028  35.341  16.370  1.00  0.00     0.004 C 
ENDBRANCH   5   6
ENDBRANCH   1   5
TORSDOF 3
ENDMDL
MODEL 9
REMARK VINA RESULT:    -3.292     11.355     12.030
REMARK INTER + INTRA:          -3.907
REMARK INTER:                  -3.808
REMARK INTRA:                  -0.099
REMARK UNBOUND:                -0.038
REMARK SMILES CCCCC(=O)[O-]
REMARK SMILES IDX 4 1 5 2 6 3 7 4 3 5 2 6 1 7
REMARK H PARENT
REMARK Flexibility Score: inf
ROOT
ATOM      1  C   UNL     1      40.225  36.600  24.142  1.00  0.00     0.053 C 
ENDROOT
BRANCH   1   2
ATOM      2  C   UNL     1      38.937  37.360  24.159  1.00  0.00     0.041 C 
ATOM      3  O   UNL     1      38.900  38.536  24.610  1.00  0.00    -0.550 OA
ATOM      4  O   UNL     1      37.765  36.753  23.725  1.00  0.00    -0.550 OA
ENDBRANCH   1   2
BRANCH   1   5
ATOM      5  C   UNL     1      41.417  37.566  24.161  1.00  0.00     0.006 C 
BRANCH   5   6
ATOM      6  C   UNL     1      42.126  37.654  22.801  1.00  0.00    -0.003 C 
ATOM      7  C   UNL     1      41.739  38.905  22.012  1.00  0.00     0.004 C 
ENDBRANCH   5   6
ENDBRANCH   1   5
TORSDOF 3
ENDMDL
