MODEL 1
REMARK VINA RESULT:    -8.310      0.000      0.000
REMARK INTER + INTRA:         -10.294
REMARK INTER:                 -10.253
REMARK INTRA:                  -0.041
REMARK UNBOUND:                -0.041
REMARK SMILES O=c1c(O)c(-c2cc(O)c(O)c(O)c2)oc2cc(O)cc(O)c12
REMARK SMILES IDX 5 1 3 2 2 3 1 4 23 5 21 6 20 7 18 8 17 9 16 10 15 11 6 12
REMARK SMILES IDX 7 13 8 14 14 15 10 16 12 17 9 18 11 20 13 22 4 24 22 26
REMARK SMILES IDX 19 28
REMARK H PARENT 9 19 11 21 13 23 4 25 22 27 19 29
REMARK Flexibility Score: inf
ROOT
ATOM      1  C   UNL     1      21.500   3.479  27.273  1.00  0.00     0.180 A 
ATOM      2  C   UNL     1      21.451   3.903  25.934  1.00  0.00     0.208 A 
ATOM      3  C   UNL     1      20.722   3.142  25.006  1.00  0.00     0.238 A 
ATOM      4  O   UNL     1      20.727   3.495  23.797  1.00  0.00    -0.285 OA
ATOM      5  C   UNL     1      20.039   1.977  25.431  1.00  0.00     0.111 A 
ATOM      6  C   UNL     1      19.237   1.153  24.585  1.00  0.00     0.134 A 
ATOM      7  C   UNL     1      18.715  -0.047  25.083  1.00  0.00     0.093 A 
ATOM      8  C   UNL     1      18.908  -0.420  26.413  1.00  0.00     0.123 A 
ATOM      9  C   UNL     1      19.640   0.409  27.265  1.00  0.00     0.094 A 
ATOM     10  C   UNL     1      20.205   1.593  26.787  1.00  0.00     0.146 A 
ATOM     11  O   UNL     1      20.903   2.347  27.628  1.00  0.00    -0.452 OA
ENDROOT
BRANCH   1  12
ATOM     12  C   UNL     1      22.227   4.242  28.314  1.00  0.00     0.029 A 
ATOM     13  C   UNL     1      22.042   5.626  28.469  1.00  0.00     0.062 A 
ATOM     14  C   UNL     1      22.721   6.327  29.476  1.00  0.00     0.162 A 
ATOM     15  C   UNL     1      23.073   3.562  29.203  1.00  0.00     0.062 A 
ATOM     16  C   UNL     1      23.582   5.645  30.344  1.00  0.00     0.200 A 
ATOM     17  C   UNL     1      23.756   4.258  30.211  1.00  0.00     0.162 A 
BRANCH  14  18
ATOM     18  O   UNL     1      22.540   7.701  29.621  1.00  0.00    -0.504 OA
ATOM     19  H   UNL     1      22.001   8.088  30.387  1.00  0.00     0.293 HD
ENDBRANCH  14  18
BRANCH  16  20
ATOM     20  O   UNL     1      24.253   6.360  31.338  1.00  0.00    -0.502 OA
ATOM     21  H   UNL     1      24.933   5.924  31.949  1.00  0.00     0.293 HD
ENDBRANCH  16  20
BRANCH  17  22
ATOM     22  O   UNL     1      24.607   3.575  31.079  1.00  0.00    -0.504 OA
ATOM     23  H   UNL     1      25.242   4.067  31.696  1.00  0.00     0.293 HD
ENDBRANCH  17  22
ENDBRANCH   1  12
BRANCH   2  24
ATOM     24  O   UNL     1      22.150   5.043  25.532  1.00  0.00    -0.502 OA
ATOM     25  H   UNL     1      22.347   5.246  24.559  1.00  0.00     0.293 HD
ENDBRANCH   2  24
BRANCH   6  26
ATOM     26  O   UNL     1      18.905   1.477  23.266  1.00  0.00    -0.507 OA
ATOM     27  H   UNL     1      18.824   0.810  22.514  1.00  0.00     0.293 HD
ENDBRANCH   6  26
BRANCH   8  28
ATOM     28  O   UNL     1      18.360  -1.613  26.879  1.00  0.00    -0.508 OA
ATOM     29  H   UNL     1      18.535  -2.495  26.411  1.00  0.00     0.293 HD
ENDBRANCH   8  28
TORSDOF 7
ENDMDL
MODEL 2
REMARK VINA RESULT:    -7.898      1.795      2.581
REMARK INTER + INTRA:          -9.786
REMARK INTER:                  -9.583
REMARK INTRA:                  -0.203
REMARK UNBOUND:                -0.041
REMARK SMILES O=c1c(O)c(-c2cc(O)c(O)c(O)c2)oc2cc(O)cc(O)c12
REMARK SMILES IDX 5 1 3 2 2 3 1 4 23 5 21 6 20 7 18 8 17 9 16 10 15 11 6 12
REMARK SMILES IDX 7 13 8 14 14 15 10 16 12 17 9 18 11 20 13 22 4 24 22 26
REMARK SMILES IDX 19 28
REMARK H PARENT 9 19 11 21 13 23 4 25 22 27 19 29
REMARK Flexibility Score: inf
ROOT
ATOM      1  C   UNL     1      21.751   2.168  27.339  1.00  0.00     0.180 A 
ATOM      2  C   UNL     1      22.576   1.479  26.433  1.00  0.00     0.208 A 
ATOM      3  C   UNL     1      22.004   0.510  25.594  1.00  0.00     0.238 A 
ATOM      4  O   UNL     1      22.756  -0.143  24.823  1.00  0.00    -0.285 OA
ATOM      5  C   UNL     1      20.613   0.253  25.660  1.00  0.00     0.111 A 
ATOM      6  C   UNL     1      19.920  -0.678  24.828  1.00  0.00     0.134 A 
ATOM      7  C   UNL     1      18.567  -0.945  25.069  1.00  0.00     0.093 A 
ATOM      8  C   UNL     1      17.866  -0.268  26.066  1.00  0.00     0.123 A 
ATOM      9  C   UNL     1      18.519   0.688  26.845  1.00  0.00     0.094 A 
ATOM     10  C   UNL     1      19.877   0.949  26.653  1.00  0.00     0.146 A 
ATOM     11  O   UNL     1      20.462   1.859  27.423  1.00  0.00    -0.452 OA
ENDROOT
BRANCH   1  12
ATOM     12  C   UNL     1      22.277   3.221  28.239  1.00  0.00     0.029 A 
ATOM     13  C   UNL     1      23.197   2.920  29.257  1.00  0.00     0.062 A 
ATOM     14  C   UNL     1      23.702   3.934  30.083  1.00  0.00     0.162 A 
ATOM     15  C   UNL     1      21.897   4.556  28.035  1.00  0.00     0.062 A 
ATOM     16  C   UNL     1      23.299   5.261  29.889  1.00  0.00     0.200 A 
ATOM     17  C   UNL     1      22.396   5.574  28.858  1.00  0.00     0.162 A 
BRANCH  14  18
ATOM     18  O   UNL     1      24.608   3.630  31.097  1.00  0.00    -0.504 OA
ATOM     19  H   UNL     1      25.524   4.061  31.138  1.00  0.00     0.293 HD
ENDBRANCH  14  18
BRANCH  16  20
ATOM     20  O   UNL     1      23.809   6.256  30.723  1.00  0.00    -0.502 OA
ATOM     21  H   UNL     1      24.408   6.996  30.376  1.00  0.00     0.293 HD
ENDBRANCH  16  20
BRANCH  17  22
ATOM     22  O   UNL     1      22.000   6.895  28.656  1.00  0.00    -0.504 OA
ATOM     23  H   UNL     1      21.077   7.125  28.308  1.00  0.00     0.293 HD
ENDBRANCH  17  22
ENDBRANCH   1  12
BRANCH   2  24
ATOM     24  O   UNL     1      23.949   1.732  26.401  1.00  0.00    -0.502 OA
ATOM     25  H   UNL     1      24.350   2.492  25.865  1.00  0.00     0.293 HD
ENDBRANCH   2  24
BRANCH   6  26
ATOM     26  O   UNL     1      20.504  -1.341  23.745  1.00  0.00    -0.507 OA
ATOM     27  H   UNL     1      21.063  -0.896  23.033  1.00  0.00     0.293 HD
ENDBRANCH   6  26
BRANCH   8  28
ATOM     28  O   UNL     1      16.515  -0.548  26.268  1.00  0.00    -0.508 OA
ATOM     29  H   UNL     1      15.951  -0.003  26.909  1.00  0.00     0.293 HD
ENDBRANCH   8  28
TORSDOF 7
ENDMDL
MODEL 3
REMARK VINA RESULT:    -7.636      2.201      2.760
REMARK INTER + INTRA:          -9.462
REMARK INTER:                  -9.361
REMARK INTRA:                  -0.101
REMARK UNBOUND:                -0.041
REMARK SMILES O=c1c(O)c(-c2cc(O)c(O)c(O)c2)oc2cc(O)cc(O)c12
REMARK SMILES IDX 5 1 3 2 2 3 1 4 23 5 21 6 20 7 18 8 17 9 16 10 15 11 6 12
REMARK SMILES IDX 7 13 8 14 14 15 10 16 12 17 9 18 11 20 13 22 4 24 22 26
REMARK SMILES IDX 19 28
REMARK H PARENT 9 19 11 21 13 23 4 25 22 27 19 29
REMARK Flexibility Score: inf
ROOT
ATOM      1  C   UNL     1      21.692   2.238  27.462  1.00  0.00     0.180 A 
ATOM      2  C   UNL     1      20.306   2.014  27.401  1.00  0.00     0.208 A 
ATOM      3  C   UNL     1      19.822   0.958  26.613  1.00  0.00     0.238 A 
ATOM      4  O   UNL     1      18.576   0.796  26.518  1.00  0.00    -0.285 OA
ATOM      5  C   UNL     1      20.729   0.130  25.910  1.00  0.00     0.111 A 
ATOM      6  C   UNL     1      20.351  -0.995  25.115  1.00  0.00     0.134 A 
ATOM      7  C   UNL     1      21.322  -1.664  24.359  1.00  0.00     0.093 A 
ATOM      8  C   UNL     1      22.665  -1.293  24.422  1.00  0.00     0.123 A 
ATOM      9  C   UNL     1      23.053  -0.233  25.242  1.00  0.00     0.094 A 
ATOM     10  C   UNL     1      22.103   0.477  25.979  1.00  0.00     0.146 A 
ATOM     11  O   UNL     1      22.514   1.484  26.740  1.00  0.00    -0.452 OA
ENDROOT
BRANCH   1  12
ATOM     12  C   UNL     1      22.280   3.316  28.290  1.00  0.00     0.029 A 
ATOM     13  C   UNL     1      21.907   4.659  28.114  1.00  0.00     0.062 A 
ATOM     14  C   UNL     1      22.456   5.663  28.924  1.00  0.00     0.162 A 
ATOM     15  C   UNL     1      23.184   2.987  29.312  1.00  0.00     0.062 A 
ATOM     16  C   UNL     1      23.376   5.329  29.926  1.00  0.00     0.200 A 
ATOM     17  C   UNL     1      23.738   3.986  30.124  1.00  0.00     0.162 A 
BRANCH  14  18
ATOM     18  O   UNL     1      22.089   6.995  28.741  1.00  0.00    -0.504 OA
ATOM     19  H   UNL     1      21.389   7.437  29.324  1.00  0.00     0.293 HD
ENDBRANCH  14  18
BRANCH  16  20
ATOM     20  O   UNL     1      23.916   6.341  30.720  1.00  0.00    -0.502 OA
ATOM     21  H   UNL     1      24.753   6.846  30.454  1.00  0.00     0.293 HD
ENDBRANCH  16  20
BRANCH  17  22
ATOM     22  O   UNL     1      24.647   3.649  31.126  1.00  0.00    -0.504 OA
ATOM     23  H   UNL     1      24.931   4.318  31.832  1.00  0.00     0.293 HD
ENDBRANCH  17  22
ENDBRANCH   1  12
BRANCH   2  24
ATOM     24  O   UNL     1      19.427   2.858  28.085  1.00  0.00    -0.502 OA
ATOM     25  H   UNL     1      18.475   3.015  27.778  1.00  0.00     0.293 HD
ENDBRANCH   2  24
BRANCH   6  26
ATOM     26  O   UNL     1      19.052  -1.506  25.053  1.00  0.00    -0.507 OA
ATOM     27  H   UNL     1      18.214  -0.964  25.206  1.00  0.00     0.293 HD
ENDBRANCH   6  26
BRANCH   8  28
ATOM     28  O   UNL     1      23.606  -1.991  23.668  1.00  0.00    -0.508 OA
ATOM     29  H   UNL     1      24.598  -1.921  23.863  1.00  0.00     0.293 HD
ENDBRANCH   8  28
TORSDOF 7
ENDMDL
MODEL 4
REMARK VINA RESULT:    -7.631      1.467      2.788
REMARK INTER + INTRA:          -9.457
REMARK INTER:                  -9.101
REMARK INTRA:                  -0.356
REMARK UNBOUND:                -0.041
REMARK SMILES O=c1c(O)c(-c2cc(O)c(O)c(O)c2)oc2cc(O)cc(O)c12
REMARK SMILES IDX 5 1 3 2 2 3 1 4 23 5 21 6 20 7 18 8 17 9 16 10 15 11 6 12
REMARK SMILES IDX 7 13 8 14 14 15 10 16 12 17 9 18 11 20 13 22 4 24 22 26
REMARK SMILES IDX 19 28
REMARK H PARENT 9 19 11 21 13 23 4 25 22 27 19 29
REMARK Flexibility Score: inf
ROOT
ATOM      1  C   UNL     1      21.437   3.421  27.097  1.00  0.00     0.180 A 
ATOM      2  C   UNL     1      20.168   2.856  27.310  1.00  0.00     0.208 A 
ATOM      3  C   UNL     1      19.562   2.132  26.271  1.00  0.00     0.238 A 
ATOM      4  O   UNL     1      18.402   1.675  26.448  1.00  0.00    -0.285 OA
ATOM      5  C   UNL     1      20.239   1.968  25.038  1.00  0.00     0.111 A 
ATOM      6  C   UNL     1      19.737   1.219  23.931  1.00  0.00     0.134 A 
ATOM      7  C   UNL     1      20.432   1.232  22.716  1.00  0.00     0.093 A 
ATOM      8  C   UNL     1      21.644   1.911  22.587  1.00  0.00     0.123 A 
ATOM      9  C   UNL     1      22.173   2.597  23.681  1.00  0.00     0.094 A 
ATOM     10  C   UNL     1      21.484   2.632  24.896  1.00  0.00     0.146 A 
ATOM     11  O   UNL     1      22.018   3.304  25.908  1.00  0.00    -0.452 OA
ENDROOT
BRANCH   1  12
ATOM     12  C   UNL     1      22.150   4.176  28.153  1.00  0.00     0.029 A 
ATOM     13  C   UNL     1      22.001   5.567  28.284  1.00  0.00     0.062 A 
ATOM     14  C   UNL     1      22.665   6.261  29.304  1.00  0.00     0.162 A 
ATOM     15  C   UNL     1      22.945   3.484  29.079  1.00  0.00     0.062 A 
ATOM     16  C   UNL     1      23.476   5.567  30.211  1.00  0.00     0.200 A 
ATOM     17  C   UNL     1      23.614   4.173  30.100  1.00  0.00     0.162 A 
BRANCH  14  18
ATOM     18  O   UNL     1      22.520   7.642  29.426  1.00  0.00    -0.504 OA
ATOM     19  H   UNL     1      22.013   8.185  28.738  1.00  0.00     0.293 HD
ENDBRANCH  14  18
BRANCH  16  20
ATOM     20  O   UNL     1      24.133   6.275  31.218  1.00  0.00    -0.502 OA
ATOM     21  H   UNL     1      24.577   5.811  32.001  1.00  0.00     0.293 HD
ENDBRANCH  16  20
BRANCH  17  22
ATOM     22  O   UNL     1      24.413   3.477  31.006  1.00  0.00    -0.504 OA
ATOM     23  H   UNL     1      25.293   3.061  30.726  1.00  0.00     0.293 HD
ENDBRANCH  17  22
ENDBRANCH   1  12
BRANCH   2  24
ATOM     24  O   UNL     1      19.508   3.049  28.526  1.00  0.00    -0.502 OA
ATOM     25  H   UNL     1      18.505   2.942  28.624  1.00  0.00     0.293 HD
ENDBRANCH   2  24
BRANCH   6  26
ATOM     26  O   UNL     1      18.583   0.431  23.980  1.00  0.00    -0.507 OA
ATOM     27  H   UNL     1      18.196   0.031  24.823  1.00  0.00     0.293 HD
ENDBRANCH   6  26
BRANCH   8  28
ATOM     28  O   UNL     1      22.317   1.891  21.367  1.00  0.00    -0.508 OA
ATOM     29  H   UNL     1      23.328   1.945  21.319  1.00  0.00     0.293 HD
ENDBRANCH   8  28
TORSDOF 7
ENDMDL
MODEL 5
REMARK VINA RESULT:    -7.593      1.503      3.323
REMARK INTER + INTRA:          -9.409
REMARK INTER:                  -9.046
REMARK INTRA:                  -0.363
REMARK UNBOUND:                -0.041
REMARK SMILES O=c1c(O)c(-c2cc(O)c(O)c(O)c2)oc2cc(O)cc(O)c12
REMARK SMILES IDX 5 1 3 2 2 3 1 4 23 5 21 6 20 7 18 8 17 9 16 10 15 11 6 12
REMARK SMILES IDX 7 13 8 14 14 15 10 16 12 17 9 18 11 20 13 22 4 24 22 26
REMARK SMILES IDX 19 28
REMARK H PARENT 9 19 11 21 13 23 4 25 22 27 19 29
REMARK Flexibility Score: inf
ROOT
ATOM      1  C   UNL     1      21.518   3.447  27.100  1.00  0.00     0.180 A 
ATOM      2  C   UNL     1      20.224   2.915  27.238  1.00  0.00     0.208 A 
ATOM      3  C   UNL     1      19.654   2.223  26.158  1.00  0.00     0.238 A 
ATOM      4  O   UNL     1      18.474   1.798  26.267  1.00  0.00    -0.285 OA
ATOM      5  C   UNL     1      20.389   2.058  24.959  1.00  0.00     0.111 A 
ATOM      6  C   UNL     1      19.925   1.339  23.816  1.00  0.00     0.134 A 
ATOM      7  C   UNL     1      20.683   1.350  22.639  1.00  0.00     0.093 A 
ATOM      8  C   UNL     1      21.918   1.996  22.584  1.00  0.00     0.123 A 
ATOM      9  C   UNL     1      22.409   2.651  23.714  1.00  0.00     0.094 A 
ATOM     10  C   UNL     1      21.658   2.689  24.892  1.00  0.00     0.146 A 
ATOM     11  O   UNL     1      22.157   3.331  25.941  1.00  0.00    -0.452 OA
ENDROOT
BRANCH   1  12
ATOM     12  C   UNL     1      22.195   4.167  28.203  1.00  0.00     0.029 A 
ATOM     13  C   UNL     1      23.022   3.493  29.116  1.00  0.00     0.062 A 
ATOM     14  C   UNL     1      23.674   4.196  30.139  1.00  0.00     0.162 A 
ATOM     15  C   UNL     1      22.057   5.560  28.305  1.00  0.00     0.062 A 
ATOM     16  C   UNL     1      23.512   5.582  30.249  1.00  0.00     0.200 A 
ATOM     17  C   UNL     1      22.704   6.268  29.327  1.00  0.00     0.162 A 
BRANCH  14  18
ATOM     18  O   UNL     1      24.488   3.522  31.048  1.00  0.00    -0.504 OA
ATOM     19  H   UNL     1      25.495   3.633  31.043  1.00  0.00     0.293 HD
ENDBRANCH  14  18
BRANCH  16  20
ATOM     20  O   UNL     1      24.165   6.264  31.276  1.00  0.00    -0.502 OA
ATOM     21  H   UNL     1      25.054   6.730  31.135  1.00  0.00     0.293 HD
ENDBRANCH  16  20
BRANCH  17  22
ATOM     22  O   UNL     1      22.547   7.649  29.429  1.00  0.00    -0.504 OA
ATOM     23  H   UNL     1      21.668   8.064  29.714  1.00  0.00     0.293 HD
ENDBRANCH  17  22
ENDBRANCH   1  12
BRANCH   2  24
ATOM     24  O   UNL     1      19.507   3.110  28.421  1.00  0.00    -0.502 OA
ATOM     25  H   UNL     1      19.771   3.805  29.109  1.00  0.00     0.293 HD
ENDBRANCH   2  24
BRANCH   6  26
ATOM     26  O   UNL     1      18.749   0.584  23.793  1.00  0.00    -0.507 OA
ATOM     27  H   UNL     1      17.931   0.778  24.351  1.00  0.00     0.293 HD
ENDBRANCH   6  26
BRANCH   8  28
ATOM     28  O   UNL     1      22.654   1.974  21.400  1.00  0.00    -0.508 OA
ATOM     29  H   UNL     1      23.667   2.000  21.405  1.00  0.00     0.293 HD
ENDBRANCH   8  28
TORSDOF 7
ENDMDL
MODEL 6
REMARK VINA RESULT:    -7.455      3.733      8.098
REMARK INTER + INTRA:          -9.239
REMARK INTER:                  -9.363
REMARK INTRA:                   0.125
REMARK UNBOUND:                -0.041
REMARK SMILES O=c1c(O)c(-c2cc(O)c(O)c(O)c2)oc2cc(O)cc(O)c12
REMARK SMILES IDX 5 1 3 2 2 3 1 4 23 5 21 6 20 7 18 8 17 9 16 10 15 11 6 12
REMARK SMILES IDX 7 13 8 14 14 15 10 16 12 17 9 18 11 20 13 22 4 24 22 26
REMARK SMILES IDX 19 28
REMARK H PARENT 9 19 11 21 13 23 4 25 22 27 19 29
REMARK Flexibility Score: inf
ROOT
ATOM      1  C   UNL     1      16.834  -0.407  26.949  1.00  0.00     0.180 A 
ATOM      2  C   UNL     1      17.136  -1.187  25.819  1.00  0.00     0.208 A 
ATOM      3  C   UNL     1      18.233  -0.831  25.019  1.00  0.00     0.238 A 
ATOM      4  O   UNL     1      18.465  -1.500  23.978  1.00  0.00    -0.285 OA
ATOM      5  C   UNL     1      19.023   0.291  25.367  1.00  0.00     0.111 A 
ATOM      6  C   UNL     1      20.182   0.719  24.650  1.00  0.00     0.134 A 
ATOM      7  C   UNL     1      20.811   1.918  25.008  1.00  0.00     0.093 A 
ATOM      8  C   UNL     1      20.365   2.669  26.095  1.00  0.00     0.123 A 
ATOM      9  C   UNL     1      19.269   2.228  26.839  1.00  0.00     0.094 A 
ATOM     10  C   UNL     1      18.599   1.055  26.484  1.00  0.00     0.146 A 
ATOM     11  O   UNL     1      17.555   0.677  27.212  1.00  0.00    -0.452 OA
ENDROOT
BRANCH   1  12
ATOM     12  C   UNL     1      15.709  -0.735  27.855  1.00  0.00     0.029 A 
ATOM     13  C   UNL     1      15.381  -2.066  28.161  1.00  0.00     0.062 A 
ATOM     14  C   UNL     1      14.328  -2.356  29.039  1.00  0.00     0.162 A 
ATOM     15  C   UNL     1      14.991   0.304  28.467  1.00  0.00     0.062 A 
ATOM     16  C   UNL     1      13.600  -1.314  29.628  1.00  0.00     0.200 A 
ATOM     17  C   UNL     1      13.935   0.020  29.345  1.00  0.00     0.162 A 
BRANCH  14  18
ATOM     18  O   UNL     1      14.001  -3.678  29.334  1.00  0.00    -0.504 OA
ATOM     19  H   UNL     1      14.705  -4.347  29.623  1.00  0.00     0.293 HD
ENDBRANCH  14  18
BRANCH  16  20
ATOM     20  O   UNL     1      12.552  -1.622  30.497  1.00  0.00    -0.502 OA
ATOM     21  H   UNL     1      12.236  -0.975  31.210  1.00  0.00     0.293 HD
ENDBRANCH  16  20
BRANCH  17  22
ATOM     22  O   UNL     1      13.219   1.060  29.936  1.00  0.00    -0.504 OA
ATOM     23  H   UNL     1      12.454   0.880  30.576  1.00  0.00     0.293 HD
ENDBRANCH  17  22
ENDBRANCH   1  12
BRANCH   2  24
ATOM     24  O   UNL     1      16.329  -2.277  25.482  1.00  0.00    -0.502 OA
ATOM     25  H   UNL     1      16.583  -3.232  25.706  1.00  0.00     0.293 HD
ENDBRANCH   2  24
BRANCH   6  26
ATOM     26  O   UNL     1      20.766  -0.003  23.606  1.00  0.00    -0.507 OA
ATOM     27  H   UNL     1      20.253  -0.448  22.859  1.00  0.00     0.293 HD
ENDBRANCH   6  26
BRANCH   8  28
ATOM     28  O   UNL     1      21.024   3.850  26.432  1.00  0.00    -0.508 OA
ATOM     29  H   UNL     1      20.527   4.728  26.519  1.00  0.00     0.293 HD
ENDBRANCH   8  28
TORSDOF 7
ENDMDL
MODEL 7
REMARK VINA RESULT:    -7.321      3.721      7.923
REMARK INTER + INTRA:          -9.074
REMARK INTER:                  -9.301
REMARK INTRA:                   0.226
REMARK UNBOUND:                -0.041
REMARK SMILES O=c1c(O)c(-c2cc(O)c(O)c(O)c2)oc2cc(O)cc(O)c12
REMARK SMILES IDX 5 1 3 2 2 3 1 4 23 5 21 6 20 7 18 8 17 9 16 10 15 11 6 12
REMARK SMILES IDX 7 13 8 14 14 15 10 16 12 17 9 18 11 20 13 22 4 24 22 26
REMARK SMILES IDX 19 28
REMARK H PARENT 9 19 11 21 13 23 4 25 22 27 19 29
REMARK Flexibility Score: inf
ROOT
ATOM      1  C   UNL     1      16.861  -0.392  26.955  1.00  0.00     0.180 A 
ATOM      2  C   UNL     1      17.134  -1.202  25.840  1.00  0.00     0.208 A 
ATOM      3  C   UNL     1      18.216  -0.873  25.008  1.00  0.00     0.238 A 
ATOM      4  O   UNL     1      18.421  -1.570  23.979  1.00  0.00    -0.285 OA
ATOM      5  C   UNL     1      19.020   0.252  25.310  1.00  0.00     0.111 A 
ATOM      6  C   UNL     1      20.166   0.654  24.559  1.00  0.00     0.134 A 
ATOM      7  C   UNL     1      20.809   1.858  24.872  1.00  0.00     0.093 A 
ATOM      8  C   UNL     1      20.391   2.639  25.950  1.00  0.00     0.123 A 
ATOM      9  C   UNL     1      19.309   2.224  26.727  1.00  0.00     0.094 A 
ATOM     10  C   UNL     1      18.624   1.047  26.416  1.00  0.00     0.146 A 
ATOM     11  O   UNL     1      17.595   0.694  27.176  1.00  0.00    -0.452 OA
ENDROOT
BRANCH   1  12
ATOM     12  C   UNL     1      15.754  -0.690  27.893  1.00  0.00     0.029 A 
ATOM     13  C   UNL     1      15.000   0.338  28.483  1.00  0.00     0.062 A 
ATOM     14  C   UNL     1      13.939   0.036  29.349  1.00  0.00     0.162 A 
ATOM     15  C   UNL     1      15.410  -2.025  28.153  1.00  0.00     0.062 A 
ATOM     16  C   UNL     1      13.618  -1.299  29.623  1.00  0.00     0.200 A 
ATOM     17  C   UNL     1      14.353  -2.334  29.020  1.00  0.00     0.162 A 
BRANCH  14  18
ATOM     18  O   UNL     1      13.199   1.059  29.939  1.00  0.00    -0.504 OA
ATOM     19  H   UNL     1      12.378   0.864  30.500  1.00  0.00     0.293 HD
ENDBRANCH  14  18
BRANCH  16  20
ATOM     20  O   UNL     1      12.562  -1.581  30.491  1.00  0.00    -0.502 OA
ATOM     21  H   UNL     1      12.097  -0.858  31.027  1.00  0.00     0.293 HD
ENDBRANCH  16  20
BRANCH  17  22
ATOM     22  O   UNL     1      14.029  -3.664  29.283  1.00  0.00    -0.504 OA
ATOM     23  H   UNL     1      13.939  -4.346  28.539  1.00  0.00     0.293 HD
ENDBRANCH  17  22
ENDBRANCH   1  12
BRANCH   2  24
ATOM     24  O   UNL     1      16.313  -2.295  25.548  1.00  0.00    -0.502 OA
ATOM     25  H   UNL     1      15.921  -2.889  26.268  1.00  0.00     0.293 HD
ENDBRANCH   2  24
BRANCH   6  26
ATOM     26  O   UNL     1      20.723  -0.098  23.521  1.00  0.00    -0.507 OA
ATOM     27  H   UNL     1      21.709  -0.279  23.408  1.00  0.00     0.293 HD
ENDBRANCH   6  26
BRANCH   8  28
ATOM     28  O   UNL     1      21.065   3.823  26.243  1.00  0.00    -0.508 OA
ATOM     29  H   UNL     1      20.566   4.666  26.501  1.00  0.00     0.293 HD
ENDBRANCH   8  28
TORSDOF 7
ENDMDL
MODEL 8
REMARK VINA RESULT:    -7.295     13.313     15.720
REMARK INTER + INTRA:          -9.042
REMARK INTER:                  -8.778
REMARK INTRA:                  -0.264
REMARK UNBOUND:                -0.041
REMARK SMILES O=c1c(O)c(-c2cc(O)c(O)c(O)c2)oc2cc(O)cc(O)c12
REMARK SMILES IDX 5 1 3 2 2 3 1 4 23 5 21 6 20 7 18 8 17 9 16 10 15 11 6 12
REMARK SMILES IDX 7 13 8 14 14 15 10 16 12 17 9 18 11 20 13 22 4 24 22 26
REMARK SMILES IDX 19 28
REMARK H PARENT 9 19 11 21 13 23 4 25 22 27 19 29
REMARK Flexibility Score: inf
ROOT
ATOM      1  C   UNL     1       6.920   3.484  28.816  1.00  0.00     0.180 A 
ATOM      2  C   UNL     1       8.245   3.944  28.903  1.00  0.00     0.208 A 
ATOM      3  C   UNL     1       8.654   5.001  28.074  1.00  0.00     0.238 A 
ATOM      4  O   UNL     1       9.857   5.372  28.117  1.00  0.00    -0.285 OA
ATOM      5  C   UNL     1       7.730   5.593  27.180  1.00  0.00     0.111 A 
ATOM      6  C   UNL     1       8.026   6.697  26.323  1.00  0.00     0.134 A 
ATOM      7  C   UNL     1       7.073   7.118  25.386  1.00  0.00     0.093 A 
ATOM      8  C   UNL     1       5.815   6.521  25.321  1.00  0.00     0.123 A 
ATOM      9  C   UNL     1       5.495   5.481  26.195  1.00  0.00     0.094 A 
ATOM     10  C   UNL     1       6.437   5.015  27.115  1.00  0.00     0.146 A 
ATOM     11  O   UNL     1       6.095   4.017  27.922  1.00  0.00    -0.452 OA
ENDROOT
BRANCH   1  12
ATOM     12  C   UNL     1       6.408   2.391  29.675  1.00  0.00     0.029 A 
ATOM     13  C   UNL     1       6.232   2.569  31.057  1.00  0.00     0.062 A 
ATOM     14  C   UNL     1       5.723   1.531  31.849  1.00  0.00     0.162 A 
ATOM     15  C   UNL     1       6.035   1.171  29.090  1.00  0.00     0.062 A 
ATOM     16  C   UNL     1       5.376   0.308  31.263  1.00  0.00     0.200 A 
ATOM     17  C   UNL     1       5.528   0.128  29.878  1.00  0.00     0.162 A 
BRANCH  14  18
ATOM     18  O   UNL     1       5.556   1.710  33.222  1.00  0.00    -0.504 OA
ATOM     19  H   UNL     1       4.679   2.030  33.612  1.00  0.00     0.293 HD
ENDBRANCH  14  18
BRANCH  16  20
ATOM     20  O   UNL     1       4.875  -0.716  32.068  1.00  0.00    -0.502 OA
ATOM     21  H   UNL     1       5.336  -1.614  32.147  1.00  0.00     0.293 HD
ENDBRANCH  16  20
BRANCH  17  22
ATOM     22  O   UNL     1       5.175  -1.085  29.289  1.00  0.00    -0.504 OA
ATOM     23  H   UNL     1       4.418  -1.651  29.653  1.00  0.00     0.293 HD
ENDBRANCH  17  22
ENDBRANCH   1  12
BRANCH   2  24
ATOM     24  O   UNL     1       9.146   3.330  29.776  1.00  0.00    -0.502 OA
ATOM     25  H   UNL     1      10.131   3.228  29.559  1.00  0.00     0.293 HD
ENDBRANCH   2  24
BRANCH   6  26
ATOM     26  O   UNL     1       9.218   7.424  26.368  1.00  0.00    -0.507 OA
ATOM     27  H   UNL     1       9.287   8.423  26.245  1.00  0.00     0.293 HD
ENDBRANCH   6  26
BRANCH   8  28
ATOM     28  O   UNL     1       4.886   6.976  24.387  1.00  0.00    -0.508 OA
ATOM     29  H   UNL     1       4.802   6.549  23.472  1.00  0.00     0.293 HD
ENDBRANCH   8  28
TORSDOF 7
ENDMDL
