MODEL 1
REMARK VINA RESULT:    -4.386      0.000      0.000
REMARK INTER + INTRA:         -10.454
REMARK INTER:                  -7.975
REMARK INTRA:                  -2.479
REMARK UNBOUND:                -2.479
REMARK SMILES CCCCCCCCCCCCCC[C@H](C)C(=O)[O-]
REMARK SMILES IDX 9 1 10 2 11 3 12 4 13 5 14 6 15 7 16 8 17 9 18 10 19 11 8 12
REMARK SMILES IDX 7 13 6 14 5 15 4 16 3 17 2 18 1 19
REMARK H PARENT
REMARK Flexibility Score: inf
ROOT
ATOM      1  C   UNL     1      16.048  73.765  18.830  1.00  0.00     0.000 C 
ENDROOT
BRANCH   1   2
ATOM      2  C   UNL     1      16.265  73.075  17.474  1.00  0.00     0.000 C 
BRANCH   2   3
ATOM      3  C   UNL     1      17.497  73.616  16.727  1.00  0.00     0.000 C 
BRANCH   3   4
ATOM      4  C   UNL     1      17.275  75.032  16.174  1.00  0.00     0.000 C 
BRANCH   4   5
ATOM      5  C   UNL     1      18.245  76.061  16.783  1.00  0.00     0.001 C 
BRANCH   5   6
ATOM      6  C   UNL     1      19.291  75.416  17.714  1.00  0.00     0.009 C 
BRANCH   6   7
ATOM      7  C   UNL     1      19.288  75.973  19.155  1.00  0.00     0.032 C 
ATOM      8  C   UNL     1      18.811  77.430  19.165  1.00  0.00     0.014 C 
BRANCH   7   9
ATOM      9  C   UNL     1      20.649  75.876  19.792  1.00  0.00     0.044 C 
ATOM     10  O   UNL     1      20.836  75.135  20.794  1.00  0.00    -0.550 OA
ATOM     11  O   UNL     1      21.708  76.613  19.277  1.00  0.00    -0.550 OA
ENDBRANCH   7   9
ENDBRANCH   6   7
ENDBRANCH   5   6
ENDBRANCH   4   5
ENDBRANCH   3   4
ENDBRANCH   2   3
ENDBRANCH   1   2
BRANCH   1  12
ATOM     12  C   UNL     1      16.421  72.864  20.021  1.00  0.00     0.000 C 
BRANCH  12  13
ATOM     13  C   UNL     1      17.939  72.761  20.234  1.00  0.00    -0.000 C 
BRANCH  13  14
ATOM     14  C   UNL     1      18.436  71.304  20.237  1.00  0.00    -0.000 C 
BRANCH  14  15
ATOM     15  C   UNL     1      18.983  70.864  18.870  1.00  0.00    -0.000 C 
BRANCH  15  16
ATOM     16  C   UNL     1      18.216  69.664  18.286  1.00  0.00    -0.000 C 
BRANCH  16  17
ATOM     17  C   UNL     1      16.985  69.285  19.126  1.00  0.00    -0.000 C 
BRANCH  17  18
ATOM     18  C   UNL     1      15.692  69.248  18.299  1.00  0.00    -0.003 C 
ATOM     19  C   UNL     1      15.992  69.352  16.806  1.00  0.00     0.004 C 
ENDBRANCH  17  18
ENDBRANCH  16  17
ENDBRANCH  15  16
ENDBRANCH  14  15
ENDBRANCH  13  14
ENDBRANCH  12  13
ENDBRANCH   1  12
TORSDOF 14
ENDMDL
MODEL 2
REMARK VINA RESULT:    -4.343      2.748      6.473
REMARK INTER + INTRA:         -10.376
REMARK INTER:                  -8.482
REMARK INTRA:                  -1.894
REMARK UNBOUND:                -2.479
REMARK SMILES CCCCCCCCCCCCCC[C@H](C)C(=O)[O-]
REMARK SMILES IDX 9 1 10 2 11 3 12 4 13 5 14 6 15 7 16 8 17 9 18 10 19 11 8 12
REMARK SMILES IDX 7 13 6 14 5 15 4 16 3 17 2 18 1 19
REMARK H PARENT
REMARK Flexibility Score: inf
ROOT
ATOM      1  C   UNL     1      16.865  75.308  17.894  1.00  0.00     0.000 C 
ENDROOT
BRANCH   1   2
ATOM      2  C   UNL     1      16.304  73.881  17.993  1.00  0.00     0.000 C 
BRANCH   2   3
ATOM      3  C   UNL     1      16.816  73.130  19.235  1.00  0.00     0.000 C 
BRANCH   3   4
ATOM      4  C   UNL     1      18.349  73.021  19.266  1.00  0.00     0.000 C 
BRANCH   4   5
ATOM      5  C   UNL     1      18.888  72.008  18.240  1.00  0.00     0.001 C 
BRANCH   5   6
ATOM      6  C   UNL     1      19.106  70.606  18.843  1.00  0.00     0.009 C 
BRANCH   6   7
ATOM      7  C   UNL     1      18.055  69.559  18.411  1.00  0.00     0.032 C 
ATOM      8  C   UNL     1      17.341  70.013  17.132  1.00  0.00     0.014 C 
BRANCH   7   9
ATOM      9  C   UNL     1      17.045  69.302  19.497  1.00  0.00     0.044 C 
ATOM     10  O   UNL     1      17.305  69.596  20.695  1.00  0.00    -0.550 OA
ATOM     11  O   UNL     1      15.819  68.732  19.182  1.00  0.00    -0.550 OA
ENDBRANCH   7   9
ENDBRANCH   6   7
ENDBRANCH   5   6
ENDBRANCH   4   5
ENDBRANCH   3   4
ENDBRANCH   2   3
ENDBRANCH   1   2
BRANCH   1  12
ATOM     12  C   UNL     1      17.109  75.750  16.439  1.00  0.00     0.000 C 
BRANCH  12  13
ATOM     13  C   UNL     1      18.580  75.613  16.017  1.00  0.00    -0.000 C 
BRANCH  13  14
ATOM     14  C   UNL     1      19.305  76.969  15.958  1.00  0.00    -0.000 C 
BRANCH  14  15
ATOM     15  C   UNL     1      20.835  76.824  16.005  1.00  0.00    -0.000 C 
BRANCH  15  16
ATOM     16  C   UNL     1      21.342  76.369  17.385  1.00  0.00    -0.000 C 
BRANCH  16  17
ATOM     17  C   UNL     1      20.788  77.231  18.531  1.00  0.00    -0.000 C 
BRANCH  17  18
ATOM     18  C   UNL     1      19.897  76.435  19.495  1.00  0.00    -0.003 C 
ATOM     19  C   UNL     1      20.738  75.595  20.453  1.00  0.00     0.004 C 
ENDBRANCH  17  18
ENDBRANCH  16  17
ENDBRANCH  15  16
ENDBRANCH  14  15
ENDBRANCH  13  14
ENDBRANCH  12  13
ENDBRANCH   1  12
TORSDOF 14
ENDMDL
MODEL 3
REMARK VINA RESULT:    -4.330      3.203      6.929
REMARK INTER + INTRA:         -10.352
REMARK INTER:                  -8.239
REMARK INTRA:                  -2.114
REMARK UNBOUND:                -2.479
REMARK SMILES CCCCCCCCCCCCCC[C@H](C)C(=O)[O-]
REMARK SMILES IDX 9 1 10 2 11 3 12 4 13 5 14 6 15 7 16 8 17 9 18 10 19 11 8 12
REMARK SMILES IDX 7 13 6 14 5 15 4 16 3 17 2 18 1 19
REMARK H PARENT
REMARK Flexibility Score: inf
ROOT
ATOM      1  C   UNL     1      19.175  74.233  19.840  1.00  0.00     0.000 C 
ENDROOT
BRANCH   1   2
ATOM      2  C   UNL     1      17.896  73.670  19.200  1.00  0.00     0.000 C 
BRANCH   2   3
ATOM      3  C   UNL     1      17.342  72.452  19.959  1.00  0.00     0.000 C 
BRANCH   3   4
ATOM      4  C   UNL     1      18.397  71.350  20.155  1.00  0.00     0.000 C 
BRANCH   4   5
ATOM      5  C   UNL     1      18.937  70.810  18.819  1.00  0.00     0.001 C 
BRANCH   5   6
ATOM      6  C   UNL     1      18.334  69.442  18.440  1.00  0.00     0.009 C 
BRANCH   6   7
ATOM      7  C   UNL     1      17.156  69.522  17.444  1.00  0.00     0.032 C 
ATOM      8  C   UNL     1      17.257  70.796  16.596  1.00  0.00     0.014 C 
BRANCH   7   9
ATOM      9  C   UNL     1      15.827  69.481  18.149  1.00  0.00     0.044 C 
ATOM     10  O   UNL     1      14.850  70.148  17.714  1.00  0.00    -0.550 OA
ATOM     11  O   UNL     1      15.674  68.708  19.293  1.00  0.00    -0.550 OA
ENDBRANCH   7   9
ENDBRANCH   6   7
ENDBRANCH   5   6
ENDBRANCH   4   5
ENDBRANCH   3   4
ENDBRANCH   2   3
ENDBRANCH   1   2
BRANCH   1  12
ATOM     12  C   UNL     1      20.241  74.616  18.797  1.00  0.00     0.000 C 
BRANCH  12  13
ATOM     13  C   UNL     1      19.860  74.181  17.373  1.00  0.00    -0.000 C 
BRANCH  13  14
ATOM     14  C   UNL     1      20.053  75.307  16.341  1.00  0.00    -0.000 C 
BRANCH  14  15
ATOM     15  C   UNL     1      18.725  75.959  15.922  1.00  0.00    -0.000 C 
BRANCH  15  16
ATOM     16  C   UNL     1      18.597  77.409  16.418  1.00  0.00    -0.000 C 
BRANCH  16  17
ATOM     17  C   UNL     1      19.944  78.001  16.866  1.00  0.00    -0.000 C 
BRANCH  17  18
ATOM     18  C   UNL     1      19.901  78.559  18.296  1.00  0.00    -0.003 C 
ATOM     19  C   UNL     1      18.834  77.854  19.128  1.00  0.00     0.004 C 
ENDBRANCH  17  18
ENDBRANCH  16  17
ENDBRANCH  15  16
ENDBRANCH  14  15
ENDBRANCH  13  14
ENDBRANCH  12  13
ENDBRANCH   1  12
TORSDOF 14
ENDMDL
MODEL 4
REMARK VINA RESULT:    -4.315      1.470      2.466
REMARK INTER + INTRA:         -10.326
REMARK INTER:                  -7.805
REMARK INTRA:                  -2.521
REMARK UNBOUND:                -2.479
REMARK SMILES CCCCCCCCCCCCCC[C@H](C)C(=O)[O-]
REMARK SMILES IDX 9 1 10 2 11 3 12 4 13 5 14 6 15 7 16 8 17 9 18 10 19 11 8 12
REMARK SMILES IDX 7 13 6 14 5 15 4 16 3 17 2 18 1 19
REMARK H PARENT
REMARK Flexibility Score: inf
ROOT
ATOM      1  C   UNL     1      18.820  73.300  19.749  1.00  0.00     0.000 C 
ENDROOT
BRANCH   1   2
ATOM      2  C   UNL     1      19.187  73.238  18.257  1.00  0.00     0.000 C 
BRANCH   2   3
ATOM      3  C   UNL     1      18.168  73.971  17.368  1.00  0.00     0.000 C 
BRANCH   3   4
ATOM      4  C   UNL     1      17.321  74.985  18.154  1.00  0.00     0.000 C 
BRANCH   4   5
ATOM      5  C   UNL     1      17.678  76.442  17.809  1.00  0.00     0.001 C 
BRANCH   5   6
ATOM      6  C   UNL     1      18.468  77.145  18.931  1.00  0.00     0.009 C 
BRANCH   6   7
ATOM      7  C   UNL     1      19.867  77.645  18.507  1.00  0.00     0.032 C 
ATOM      8  C   UNL     1      19.836  78.159  17.062  1.00  0.00     0.014 C 
BRANCH   7   9
ATOM      9  C   UNL     1      20.908  76.566  18.643  1.00  0.00     0.044 C 
ATOM     10  O   UNL     1      21.533  76.147  17.632  1.00  0.00    -0.550 OA
ATOM     11  O   UNL     1      21.182  76.022  19.891  1.00  0.00    -0.550 OA
ENDBRANCH   7   9
ENDBRANCH   6   7
ENDBRANCH   5   6
ENDBRANCH   4   5
ENDBRANCH   3   4
ENDBRANCH   2   3
ENDBRANCH   1   2
BRANCH   1  12
ATOM     12  C   UNL     1      18.287  71.959  20.286  1.00  0.00     0.000 C 
BRANCH  12  13
ATOM     13  C   UNL     1      18.888  70.748  19.555  1.00  0.00    -0.000 C 
BRANCH  13  14
ATOM     14  C   UNL     1      17.810  69.816  18.973  1.00  0.00    -0.000 C 
BRANCH  14  15
ATOM     15  C   UNL     1      17.727  69.894  17.440  1.00  0.00    -0.000 C 
BRANCH  15  16
ATOM     16  C   UNL     1      16.453  70.605  16.953  1.00  0.00    -0.000 C 
BRANCH  16  17
ATOM     17  C   UNL     1      15.521  71.005  18.109  1.00  0.00    -0.000 C 
BRANCH  17  18
ATOM     18  C   UNL     1      14.786  72.327  17.847  1.00  0.00    -0.003 C 
ATOM     19  C   UNL     1      14.149  72.864  19.127  1.00  0.00     0.004 C 
ENDBRANCH  17  18
ENDBRANCH  16  17
ENDBRANCH  15  16
ENDBRANCH  14  15
ENDBRANCH  13  14
ENDBRANCH  12  13
ENDBRANCH   1  12
TORSDOF 14
ENDMDL
MODEL 5
REMARK VINA RESULT:    -4.315      1.496      2.845
REMARK INTER + INTRA:         -10.324
REMARK INTER:                  -8.512
REMARK INTRA:                  -1.813
REMARK UNBOUND:                -2.479
REMARK SMILES CCCCCCCCCCCCCC[C@H](C)C(=O)[O-]
REMARK SMILES IDX 9 1 10 2 11 3 12 4 13 5 14 6 15 7 16 8 17 9 18 10 19 11 8 12
REMARK SMILES IDX 7 13 6 14 5 15 4 16 3 17 2 18 1 19
REMARK H PARENT
REMARK Flexibility Score: inf
ROOT
ATOM      1  C   UNL     1      18.409  72.444  19.943  1.00  0.00     0.000 C 
ENDROOT
BRANCH   1   2
ATOM      2  C   UNL     1      16.969  72.727  19.487  1.00  0.00     0.000 C 
BRANCH   2   3
ATOM      3  C   UNL     1      16.813  74.121  18.854  1.00  0.00     0.000 C 
BRANCH   3   4
ATOM      4  C   UNL     1      18.155  74.852  18.701  1.00  0.00     0.000 C 
BRANCH   4   5
ATOM      5  C   UNL     1      17.980  76.318  18.264  1.00  0.00     0.001 C 
BRANCH   5   6
ATOM      6  C   UNL     1      18.809  77.298  19.118  1.00  0.00     0.009 C 
BRANCH   6   7
ATOM      7  C   UNL     1      20.026  77.907  18.385  1.00  0.00     0.032 C 
ATOM      8  C   UNL     1      19.632  78.355  16.973  1.00  0.00     0.014 C 
BRANCH   7   9
ATOM      9  C   UNL     1      21.174  76.935  18.312  1.00  0.00     0.044 C 
ATOM     10  O   UNL     1      21.349  76.227  17.284  1.00  0.00    -0.550 OA
ATOM     11  O   UNL     1      22.045  76.811  19.386  1.00  0.00    -0.550 OA
ENDBRANCH   7   9
ENDBRANCH   6   7
ENDBRANCH   5   6
ENDBRANCH   4   5
ENDBRANCH   3   4
ENDBRANCH   2   3
ENDBRANCH   1   2
BRANCH   1  12
ATOM     12  C   UNL     1      18.980  71.149  19.337  1.00  0.00     0.000 C 
BRANCH  12  13
ATOM     13  C   UNL     1      18.370  70.818  17.965  1.00  0.00    -0.000 C 
BRANCH  13  14
ATOM     14  C   UNL     1      17.755  69.408  17.919  1.00  0.00    -0.000 C 
BRANCH  14  15
ATOM     15  C   UNL     1      16.227  69.435  17.749  1.00  0.00    -0.000 C 
BRANCH  15  16
ATOM     16  C   UNL     1      15.489  68.815  18.948  1.00  0.00    -0.000 C 
BRANCH  16  17
ATOM     17  C   UNL     1      16.407  68.605  20.163  1.00  0.00    -0.000 C 
BRANCH  17  18
ATOM     18  C   UNL     1      16.163  69.635  21.276  1.00  0.00    -0.003 C 
ATOM     19  C   UNL     1      17.263  69.573  22.332  1.00  0.00     0.004 C 
ENDBRANCH  17  18
ENDBRANCH  16  17
ENDBRANCH  15  16
ENDBRANCH  14  15
ENDBRANCH  13  14
ENDBRANCH  12  13
ENDBRANCH   1  12
TORSDOF 14
ENDMDL
MODEL 6
REMARK VINA RESULT:    -4.311      2.917      6.645
REMARK INTER + INTRA:         -10.318
REMARK INTER:                  -8.209
REMARK INTRA:                  -2.108
REMARK UNBOUND:                -2.479
REMARK SMILES CCCCCCCCCCCCCC[C@H](C)C(=O)[O-]
REMARK SMILES IDX 9 1 10 2 11 3 12 4 13 5 14 6 15 7 16 8 17 9 18 10 19 11 8 12
REMARK SMILES IDX 7 13 6 14 5 15 4 16 3 17 2 18 1 19
REMARK H PARENT
REMARK Flexibility Score: inf
ROOT
ATOM      1  C   UNL     1      17.158  74.512  18.320  1.00  0.00     0.000 C 
ENDROOT
BRANCH   1   2
ATOM      2  C   UNL     1      17.934  73.650  17.310  1.00  0.00     0.000 C 
BRANCH   2   3
ATOM      3  C   UNL     1      19.148  72.948  17.942  1.00  0.00     0.000 C 
BRANCH   3   4
ATOM      4  C   UNL     1      18.761  72.066  19.140  1.00  0.00     0.000 C 
BRANCH   4   5
ATOM      5  C   UNL     1      19.152  70.591  18.935  1.00  0.00     0.001 C 
BRANCH   5   6
ATOM      6  C   UNL     1      17.955  69.706  18.536  1.00  0.00     0.009 C 
BRANCH   6   7
ATOM      7  C   UNL     1      16.676  69.954  19.368  1.00  0.00     0.032 C 
ATOM      8  C   UNL     1      16.428  68.786  20.330  1.00  0.00     0.014 C 
BRANCH   7   9
ATOM      9  C   UNL     1      15.471  70.157  18.488  1.00  0.00     0.044 C 
ATOM     10  O   UNL     1      14.870  69.169  17.988  1.00  0.00    -0.550 OA
ATOM     11  O   UNL     1      15.020  71.442  18.219  1.00  0.00    -0.550 OA
ENDBRANCH   7   9
ENDBRANCH   6   7
ENDBRANCH   5   6
ENDBRANCH   4   5
ENDBRANCH   3   4
ENDBRANCH   2   3
ENDBRANCH   1   2
BRANCH   1  12
ATOM     12  C   UNL     1      17.166  76.007  17.953  1.00  0.00     0.000 C 
BRANCH  12  13
ATOM     13  C   UNL     1      17.620  76.261  16.507  1.00  0.00    -0.000 C 
BRANCH  13  14
ATOM     14  C   UNL     1      18.739  77.313  16.416  1.00  0.00    -0.000 C 
BRANCH  14  15
ATOM     15  C   UNL     1      19.476  77.508  17.751  1.00  0.00    -0.000 C 
BRANCH  15  16
ATOM     16  C   UNL     1      20.861  76.838  17.763  1.00  0.00    -0.000 C 
BRANCH  16  17
ATOM     17  C   UNL     1      21.292  76.397  19.172  1.00  0.00    -0.000 C 
BRANCH  17  18
ATOM     18  C   UNL     1      20.111  75.926  20.032  1.00  0.00    -0.003 C 
ATOM     19  C   UNL     1      20.548  74.850  21.023  1.00  0.00     0.004 C 
ENDBRANCH  17  18
ENDBRANCH  16  17
ENDBRANCH  15  16
ENDBRANCH  14  15
ENDBRANCH  13  14
ENDBRANCH  12  13
ENDBRANCH   1  12
TORSDOF 14
ENDMDL
MODEL 7
REMARK VINA RESULT:    -4.304      2.529      6.688
REMARK INTER + INTRA:         -10.305
REMARK INTER:                  -8.392
REMARK INTRA:                  -1.913
REMARK UNBOUND:                -2.479
REMARK SMILES CCCCCCCCCCCCCC[C@H](C)C(=O)[O-]
REMARK SMILES IDX 9 1 10 2 11 3 12 4 13 5 14 6 15 7 16 8 17 9 18 10 19 11 8 12
REMARK SMILES IDX 7 13 6 14 5 15 4 16 3 17 2 18 1 19
REMARK H PARENT
REMARK Flexibility Score: inf
ROOT
ATOM      1  C   UNL     1      17.338  74.204  18.927  1.00  0.00     0.000 C 
ENDROOT
BRANCH   1   2
ATOM      2  C   UNL     1      18.641  73.558  19.423  1.00  0.00     0.000 C 
BRANCH   2   3
ATOM      3  C   UNL     1      19.130  72.429  18.498  1.00  0.00     0.000 C 
BRANCH   3   4
ATOM      4  C   UNL     1      18.121  72.100  17.386  1.00  0.00     0.000 C 
BRANCH   4   5
ATOM      5  C   UNL     1      17.630  70.643  17.450  1.00  0.00     0.001 C 
BRANCH   5   6
ATOM      6  C   UNL     1      18.277  69.845  18.599  1.00  0.00     0.009 C 
BRANCH   6   7
ATOM      7  C   UNL     1      17.267  69.259  19.612  1.00  0.00     0.032 C 
ATOM      8  C   UNL     1      15.847  69.294  19.035  1.00  0.00     0.014 C 
BRANCH   7   9
ATOM      9  C   UNL     1      17.305  69.998  20.924  1.00  0.00     0.044 C 
ATOM     10  O   UNL     1      16.266  70.100  21.631  1.00  0.00    -0.550 OA
ATOM     11  O   UNL     1      18.489  70.577  21.359  1.00  0.00    -0.550 OA
ENDBRANCH   7   9
ENDBRANCH   6   7
ENDBRANCH   5   6
ENDBRANCH   4   5
ENDBRANCH   3   4
ENDBRANCH   2   3
ENDBRANCH   1   2
BRANCH   1  12
ATOM     12  C   UNL     1      17.539  75.652  18.445  1.00  0.00     0.000 C 
BRANCH  12  13
ATOM     13  C   UNL     1      17.154  75.846  16.970  1.00  0.00    -0.000 C 
BRANCH  13  14
ATOM     14  C   UNL     1      18.371  76.146  16.077  1.00  0.00    -0.000 C 
BRANCH  14  15
ATOM     15  C   UNL     1      19.704  75.802  16.761  1.00  0.00    -0.000 C 
BRANCH  15  16
ATOM     16  C   UNL     1      20.643  77.017  16.868  1.00  0.00    -0.000 C 
BRANCH  16  17
ATOM     17  C   UNL     1      20.595  77.680  18.254  1.00  0.00    -0.000 C 
BRANCH  17  18
ATOM     18  C   UNL     1      19.821  79.005  18.252  1.00  0.00    -0.003 C 
ATOM     19  C   UNL     1      20.142  79.827  17.007  1.00  0.00     0.004 C 
ENDBRANCH  17  18
ENDBRANCH  16  17
ENDBRANCH  15  16
ENDBRANCH  14  15
ENDBRANCH  13  14
ENDBRANCH  12  13
ENDBRANCH   1  12
TORSDOF 14
ENDMDL
MODEL 8
REMARK VINA RESULT:    -4.297      3.554      7.074
REMARK INTER + INTRA:         -10.293
REMARK INTER:                  -8.254
REMARK INTRA:                  -2.039
REMARK UNBOUND:                -2.479
REMARK SMILES CCCCCCCCCCCCCC[C@H](C)C(=O)[O-]
REMARK SMILES IDX 9 1 10 2 11 3 12 4 13 5 14 6 15 7 16 8 17 9 18 10 19 11 8 12
REMARK SMILES IDX 7 13 6 14 5 15 4 16 3 17 2 18 1 19
REMARK H PARENT
REMARK Flexibility Score: inf
ROOT
ATOM      1  C   UNL     1      16.799  73.056  20.041  1.00  0.00     0.000 C 
ENDROOT
BRANCH   1   2
ATOM      2  C   UNL     1      18.240  72.576  20.277  1.00  0.00     0.000 C 
BRANCH   2   3
ATOM      3  C   UNL     1      18.367  71.044  20.228  1.00  0.00     0.000 C 
BRANCH   3   4
ATOM      4  C   UNL     1      19.002  70.546  18.920  1.00  0.00     0.000 C 
BRANCH   4   5
ATOM      5  C   UNL     1      18.135  69.492  18.209  1.00  0.00     0.001 C 
BRANCH   5   6
ATOM      6  C   UNL     1      16.798  69.232  18.932  1.00  0.00     0.009 C 
BRANCH   6   7
ATOM      7  C   UNL     1      15.561  69.250  18.007  1.00  0.00     0.032 C 
ATOM      8  C   UNL     1      14.963  70.660  17.940  1.00  0.00     0.014 C 
BRANCH   7   9
ATOM      9  C   UNL     1      14.512  68.271  18.462  1.00  0.00     0.044 C 
ATOM     10  O   UNL     1      13.435  68.141  17.819  1.00  0.00    -0.550 OA
ATOM     11  O   UNL     1      14.725  67.508  19.602  1.00  0.00    -0.550 OA
ENDBRANCH   7   9
ENDBRANCH   6   7
ENDBRANCH   5   6
ENDBRANCH   4   5
ENDBRANCH   3   4
ENDBRANCH   2   3
ENDBRANCH   1   2
BRANCH   1  12
ATOM     12  C   UNL     1      16.683  74.025  18.851  1.00  0.00     0.000 C 
BRANCH  12  13
ATOM     13  C   UNL     1      17.788  73.812  17.803  1.00  0.00    -0.000 C 
BRANCH  13  14
ATOM     14  C   UNL     1      17.799  74.911  16.726  1.00  0.00    -0.000 C 
BRANCH  14  15
ATOM     15  C   UNL     1      19.008  75.852  16.853  1.00  0.00    -0.000 C 
BRANCH  15  16
ATOM     16  C   UNL     1      18.674  77.142  17.621  1.00  0.00    -0.000 C 
BRANCH  16  17
ATOM     17  C   UNL     1      19.086  77.072  19.101  1.00  0.00    -0.000 C 
BRANCH  17  18
ATOM     18  C   UNL     1      20.460  76.417  19.303  1.00  0.00    -0.003 C 
ATOM     19  C   UNL     1      20.424  75.405  20.445  1.00  0.00     0.004 C 
ENDBRANCH  17  18
ENDBRANCH  16  17
ENDBRANCH  15  16
ENDBRANCH  14  15
ENDBRANCH  13  14
ENDBRANCH  12  13
ENDBRANCH   1  12
TORSDOF 14
ENDMDL
MODEL 9
REMARK VINA RESULT:    -4.196      2.587      6.177
REMARK INTER + INTRA:         -10.109
REMARK INTER:                  -7.790
REMARK INTRA:                  -2.319
REMARK UNBOUND:                -2.479
REMARK SMILES CCCCCCCCCCCCCC[C@H](C)C(=O)[O-]
REMARK SMILES IDX 9 1 10 2 11 3 12 4 13 5 14 6 15 7 16 8 17 9 18 10 19 11 8 12
REMARK SMILES IDX 7 13 6 14 5 15 4 16 3 17 2 18 1 19
REMARK H PARENT
REMARK Flexibility Score: inf
ROOT
ATOM      1  C   UNL     1      17.234  76.004  16.557  1.00  0.00     0.000 C 
ENDROOT
BRANCH   1   2
ATOM      2  C   UNL     1      17.005  75.625  18.029  1.00  0.00     0.000 C 
BRANCH   2   3
ATOM      3  C   UNL     1      15.686  74.863  18.244  1.00  0.00     0.000 C 
BRANCH   3   4
ATOM      4  C   UNL     1      15.575  73.614  17.354  1.00  0.00     0.000 C 
BRANCH   4   5
ATOM      5  C   UNL     1      15.803  72.310  18.139  1.00  0.00     0.001 C 
BRANCH   5   6
ATOM      6  C   UNL     1      17.288  72.069  18.477  1.00  0.00     0.009 C 
BRANCH   6   7
ATOM      7  C   UNL     1      17.610  72.111  19.988  1.00  0.00     0.032 C 
ATOM      8  C   UNL     1      18.713  73.137  20.272  1.00  0.00     0.014 C 
BRANCH   7   9
ATOM      9  C   UNL     1      18.023  70.759  20.507  1.00  0.00     0.044 C 
ATOM     10  O   UNL     1      17.604  69.706  19.955  1.00  0.00    -0.550 OA
ATOM     11  O   UNL     1      18.867  70.668  21.605  1.00  0.00    -0.550 OA
ENDBRANCH   7   9
ENDBRANCH   6   7
ENDBRANCH   5   6
ENDBRANCH   4   5
ENDBRANCH   3   4
ENDBRANCH   2   3
ENDBRANCH   1   2
BRANCH   1  12
ATOM     12  C   UNL     1      18.440  75.274  15.937  1.00  0.00     0.000 C 
BRANCH  12  13
ATOM     13  C   UNL     1      19.412  74.729  16.996  1.00  0.00    -0.000 C 
BRANCH  13  14
ATOM     14  C   UNL     1      20.883  75.034  16.659  1.00  0.00    -0.000 C 
BRANCH  14  15
ATOM     15  C   UNL     1      21.384  76.328  17.319  1.00  0.00    -0.000 C 
BRANCH  15  16
ATOM     16  C   UNL     1      20.666  76.630  18.646  1.00  0.00    -0.000 C 
BRANCH  16  17
ATOM     17  C   UNL     1      19.819  77.912  18.580  1.00  0.00    -0.000 C 
BRANCH  17  18
ATOM     18  C   UNL     1      19.951  78.641  17.235  1.00  0.00    -0.003 C 
ATOM     19  C   UNL     1      20.356  80.099  17.438  1.00  0.00     0.004 C 
ENDBRANCH  17  18
ENDBRANCH  16  17
ENDBRANCH  15  16
ENDBRANCH  14  15
ENDBRANCH  13  14
ENDBRANCH  12  13
ENDBRANCH   1  12
TORSDOF 14
ENDMDL
