MODEL 1
REMARK VINA RESULT:    -4.175      0.000      0.000
REMARK INTER + INTRA:          -5.253
REMARK INTER:                  -5.029
REMARK INTRA:                  -0.223
REMARK UNBOUND:                -0.223
REMARK SMILES OCC(O)CO
REMARK SMILES IDX 3 1 5 2 6 3 2 5 1 6 4 8
REMARK H PARENT 6 4 1 7 4 9
REMARK Flexibility Score: inf
ROOT
ATOM      1  C   UNL     1     -32.985   9.782 -20.351  1.00  0.00     0.165 C 
ENDROOT
BRANCH   1   2
ATOM      2  C   UNL     1     -33.129  11.218 -19.830  1.00  0.00     0.190 C 
BRANCH   2   3
ATOM      3  O   UNL     1     -34.325  11.360 -19.115  1.00  0.00    -0.394 OA
ATOM      4  H   UNL     1     -34.210  12.162 -18.542  1.00  0.00     0.210 HD
ENDBRANCH   2   3
ENDBRANCH   1   2
BRANCH   1   5
ATOM      5  C   UNL     1     -34.350   9.079 -20.477  1.00  0.00     0.190 C 
BRANCH   5   6
ATOM      6  O   UNL     1     -35.164   9.717 -21.424  1.00  0.00    -0.394 OA
ATOM      7  H   UNL     1     -35.450  10.577 -21.019  1.00  0.00     0.210 HD
ENDBRANCH   5   6
ENDBRANCH   1   5
BRANCH   1   8
ATOM      8  O   UNL     1     -32.171   9.063 -19.462  1.00  0.00    -0.388 OA
ATOM      9  H   UNL     1     -32.726   8.325 -19.095  1.00  0.00     0.211 HD
ENDBRANCH   1   8
TORSDOF 5
ENDMDL
MODEL 2
REMARK VINA RESULT:    -4.047      0.470      2.299
REMARK INTER + INTRA:          -5.099
REMARK INTER:                  -4.883
REMARK INTRA:                  -0.216
REMARK UNBOUND:                -0.223
REMARK SMILES OCC(O)CO
REMARK SMILES IDX 3 1 5 2 6 3 2 5 1 6 4 8
REMARK H PARENT 6 4 1 7 4 9
REMARK Flexibility Score: inf
ROOT
ATOM      1  C   UNL     1     -33.359   9.553 -19.572  1.00  0.00     0.165 C 
ENDROOT
BRANCH   1   2
ATOM      2  C   UNL     1     -34.239   8.753 -20.540  1.00  0.00     0.190 C 
BRANCH   2   3
ATOM      3  O   UNL     1     -35.011   9.617 -21.327  1.00  0.00    -0.394 OA
ATOM      4  H   UNL     1     -35.912   9.637 -20.913  1.00  0.00     0.210 HD
ENDBRANCH   2   3
ENDBRANCH   1   2
BRANCH   1   5
ATOM      5  C   UNL     1     -33.469  11.070 -19.818  1.00  0.00     0.190 C 
BRANCH   5   6
ATOM      6  O   UNL     1     -34.540  11.624 -19.101  1.00  0.00    -0.394 OA
ATOM      7  H   UNL     1     -34.368  12.600 -19.045  1.00  0.00     0.210 HD
ENDBRANCH   5   6
ENDBRANCH   1   5
BRANCH   1   8
ATOM      8  O   UNL     1     -32.025   9.150 -19.742  1.00  0.00    -0.388 OA
ATOM      9  H   UNL     1     -31.602   9.804 -20.359  1.00  0.00     0.211 HD
ENDBRANCH   1   8
TORSDOF 5
ENDMDL
MODEL 3
REMARK VINA RESULT:    -3.890      0.825      2.105
REMARK INTER + INTRA:          -4.909
REMARK INTER:                  -4.907
REMARK INTRA:                  -0.002
REMARK UNBOUND:                -0.223
REMARK SMILES OCC(O)CO
REMARK SMILES IDX 3 1 5 2 6 3 2 5 1 6 4 8
REMARK H PARENT 6 4 1 7 4 9
REMARK Flexibility Score: inf
ROOT
ATOM      1  C   UNL     1     -33.804   9.865 -19.789  1.00  0.00     0.165 C 
ENDROOT
BRANCH   1   2
ATOM      2  C   UNL     1     -32.302   9.991 -20.074  1.00  0.00     0.190 C 
BRANCH   2   3
ATOM      3  O   UNL     1     -31.617   8.870 -19.588  1.00  0.00    -0.394 OA
ATOM      4  H   UNL     1     -32.293   8.317 -19.116  1.00  0.00     0.210 HD
ENDBRANCH   2   3
ENDBRANCH   1   2
BRANCH   1   5
ATOM      5  C   UNL     1     -34.568   9.278 -20.991  1.00  0.00     0.190 C 
BRANCH   5   6
ATOM      6  O   UNL     1     -35.487  10.203 -21.509  1.00  0.00    -0.394 OA
ATOM      7  H   UNL     1     -35.079  10.576 -22.333  1.00  0.00     0.210 HD
ENDBRANCH   5   6
ENDBRANCH   1   5
BRANCH   1   8
ATOM      8  O   UNL     1     -34.312  11.140 -19.494  1.00  0.00    -0.388 OA
ATOM      9  H   UNL     1     -34.511  11.154 -18.520  1.00  0.00     0.211 HD
ENDBRANCH   1   8
TORSDOF 5
ENDMDL
MODEL 4
REMARK VINA RESULT:    -3.797      1.425      2.555
REMARK INTER + INTRA:          -4.797
REMARK INTER:                  -4.795
REMARK INTRA:                  -0.002
REMARK UNBOUND:                -0.223
REMARK SMILES OCC(O)CO
REMARK SMILES IDX 3 1 5 2 6 3 2 5 1 6 4 8
REMARK H PARENT 6 4 1 7 4 9
REMARK Flexibility Score: inf
ROOT
ATOM      1  C   UNL     1     -34.098  10.006 -19.803  1.00  0.00     0.165 C 
ENDROOT
BRANCH   1   2
ATOM      2  C   UNL     1     -34.912  11.043 -20.587  1.00  0.00     0.190 C 
BRANCH   2   3
ATOM      3  O   UNL     1     -35.625  10.423 -21.622  1.00  0.00    -0.394 OA
ATOM      4  H   UNL     1     -35.062   9.666 -21.930  1.00  0.00     0.210 HD
ENDBRANCH   2   3
ENDBRANCH   1   2
BRANCH   1   5
ATOM      5  C   UNL     1     -32.599  10.071 -20.152  1.00  0.00     0.190 C 
BRANCH   5   6
ATOM      6  O   UNL     1     -31.908   8.972 -19.623  1.00  0.00    -0.394 OA
ATOM      7  H   UNL     1     -31.082   8.869 -20.165  1.00  0.00     0.210 HD
ENDBRANCH   5   6
ENDBRANCH   1   5
BRANCH   1   8
ATOM      8  O   UNL     1     -34.591   8.727 -20.107  1.00  0.00    -0.388 OA
ATOM      9  H   UNL     1     -33.814   8.109 -20.102  1.00  0.00     0.211 HD
ENDBRANCH   1   8
TORSDOF 5
ENDMDL
MODEL 5
REMARK VINA RESULT:    -3.710      1.106      2.450
REMARK INTER + INTRA:          -4.692
REMARK INTER:                  -4.664
REMARK INTRA:                  -0.028
REMARK UNBOUND:                -0.223
REMARK SMILES OCC(O)CO
REMARK SMILES IDX 3 1 5 2 6 3 2 5 1 6 4 8
REMARK H PARENT 6 4 1 7 4 9
REMARK Flexibility Score: inf
ROOT
ATOM      1  C   UNL     1     -34.133   9.895 -20.675  1.00  0.00     0.165 C 
ENDROOT
BRANCH   1   2
ATOM      2  C   UNL     1     -32.685   9.942 -20.170  1.00  0.00     0.190 C 
BRANCH   2   3
ATOM      3  O   UNL     1     -32.355   8.745 -19.522  1.00  0.00    -0.394 OA
ATOM      4  H   UNL     1     -31.539   8.404 -19.971  1.00  0.00     0.210 HD
ENDBRANCH   2   3
ENDBRANCH   1   2
BRANCH   1   5
ATOM      5  C   UNL     1     -34.915  11.166 -20.290  1.00  0.00     0.190 C 
BRANCH   5   6
ATOM      6  O   UNL     1     -34.550  11.619 -19.015  1.00  0.00    -0.394 OA
ATOM      7  H   UNL     1     -34.614  10.837 -18.407  1.00  0.00     0.210 HD
ENDBRANCH   5   6
ENDBRANCH   1   5
BRANCH   1   8
ATOM      8  O   UNL     1     -34.766   8.774 -20.115  1.00  0.00    -0.388 OA
ATOM      9  H   UNL     1     -34.684   8.857 -19.129  1.00  0.00     0.211 HD
ENDBRANCH   1   8
TORSDOF 5
ENDMDL
MODEL 6
REMARK VINA RESULT:    -3.189     12.328     13.394
REMARK INTER + INTRA:          -4.065
REMARK INTER:                  -3.876
REMARK INTRA:                  -0.189
REMARK UNBOUND:                -0.223
REMARK SMILES OCC(O)CO
REMARK SMILES IDX 3 1 5 2 6 3 2 5 1 6 4 8
REMARK H PARENT 6 4 1 7 4 9
REMARK Flexibility Score: inf
ROOT
ATOM      1  C   UNL     1     -24.712   5.906 -10.666  1.00  0.00     0.165 C 
ENDROOT
BRANCH   1   2
ATOM      2  C   UNL     1     -26.227   5.929 -10.905  1.00  0.00     0.190 C 
BRANCH   2   3
ATOM      3  O   UNL     1     -26.672   7.245 -11.090  1.00  0.00    -0.394 OA
ATOM      4  H   UNL     1     -26.425   7.738 -10.266  1.00  0.00     0.210 HD
ENDBRANCH   2   3
ENDBRANCH   1   2
BRANCH   1   5
ATOM      5  C   UNL     1     -24.287   6.920  -9.586  1.00  0.00     0.190 C 
BRANCH   5   6
ATOM      6  O   UNL     1     -24.350   8.234 -10.072  1.00  0.00    -0.394 OA
ATOM      7  H   UNL     1     -25.063   8.247 -10.762  1.00  0.00     0.210 HD
ENDBRANCH   5   6
ENDBRANCH   1   5
BRANCH   1   8
ATOM      8  O   UNL     1     -24.064   6.214 -11.873  1.00  0.00    -0.388 OA
ATOM      9  H   UNL     1     -24.707   6.018 -12.604  1.00  0.00     0.211 HD
ENDBRANCH   1   8
TORSDOF 5
ENDMDL
MODEL 7
REMARK VINA RESULT:    -3.177     11.638     12.578
REMARK INTER + INTRA:          -4.050
REMARK INTER:                  -3.827
REMARK INTRA:                  -0.224
REMARK UNBOUND:                -0.223
REMARK SMILES OCC(O)CO
REMARK SMILES IDX 3 1 5 2 6 3 2 5 1 6 4 8
REMARK H PARENT 6 4 1 7 4 9
REMARK Flexibility Score: inf
ROOT
ATOM      1  C   UNL     1     -25.287   6.487 -11.802  1.00  0.00     0.165 C 
ENDROOT
BRANCH   1   2
ATOM      2  C   UNL     1     -24.449   6.768 -10.548  1.00  0.00     0.190 C 
BRANCH   2   3
ATOM      3  O   UNL     1     -24.614   8.097 -10.138  1.00  0.00    -0.394 OA
ATOM      4  H   UNL     1     -24.164   8.172  -9.257  1.00  0.00     0.210 HD
ENDBRANCH   2   3
ENDBRANCH   1   2
BRANCH   1   5
ATOM      5  C   UNL     1     -26.776   6.289 -11.462  1.00  0.00     0.190 C 
BRANCH   5   6
ATOM      6  O   UNL     1     -27.353   7.478 -10.994  1.00  0.00    -0.394 OA
ATOM      7  H   UNL     1     -26.724   7.854 -10.324  1.00  0.00     0.210 HD
ENDBRANCH   5   6
ENDBRANCH   1   5
BRANCH   1   8
ATOM      8  O   UNL     1     -24.793   5.328 -12.420  1.00  0.00    -0.388 OA
ATOM      9  H   UNL     1     -24.796   5.498 -13.398  1.00  0.00     0.211 HD
ENDBRANCH   1   8
TORSDOF 5
ENDMDL
MODEL 8
REMARK VINA RESULT:    -3.057     14.805     15.584
REMARK INTER + INTRA:          -3.905
REMARK INTER:                  -3.716
REMARK INTRA:                  -0.189
REMARK UNBOUND:                -0.223
REMARK SMILES OCC(O)CO
REMARK SMILES IDX 3 1 5 2 6 3 2 5 1 6 4 8
REMARK H PARENT 6 4 1 7 4 9
REMARK Flexibility Score: inf
ROOT
ATOM      1  C   UNL     1     -38.145  11.802  -6.320  1.00  0.00     0.165 C 
ENDROOT
BRANCH   1   2
ATOM      2  C   UNL     1     -39.575  12.334  -6.159  1.00  0.00     0.190 C 
BRANCH   2   3
ATOM      3  O   UNL     1     -39.619  13.326  -5.171  1.00  0.00    -0.394 OA
ATOM      4  H   UNL     1     -38.779  13.847  -5.266  1.00  0.00     0.210 HD
ENDBRANCH   2   3
ENDBRANCH   1   2
BRANCH   1   5
ATOM      5  C   UNL     1     -37.637  11.128  -5.031  1.00  0.00     0.190 C 
BRANCH   5   6
ATOM      6  O   UNL     1     -38.660  11.018  -4.079  1.00  0.00    -0.394 OA
ATOM      7  H   UNL     1     -38.238  10.675  -3.248  1.00  0.00     0.210 HD
ENDBRANCH   5   6
ENDBRANCH   1   5
BRANCH   1   8
ATOM      8  O   UNL     1     -37.302  12.876  -6.646  1.00  0.00    -0.388 OA
ATOM      9  H   UNL     1     -36.728  12.575  -7.399  1.00  0.00     0.211 HD
ENDBRANCH   1   8
TORSDOF 5
ENDMDL
MODEL 9
REMARK VINA RESULT:    -3.009     12.887     14.037
REMARK INTER + INTRA:          -3.848
REMARK INTER:                  -3.624
REMARK INTRA:                  -0.223
REMARK UNBOUND:                -0.223
REMARK SMILES OCC(O)CO
REMARK SMILES IDX 3 1 5 2 6 3 2 5 1 6 4 8
REMARK H PARENT 6 4 1 7 4 9
REMARK Flexibility Score: inf
ROOT
ATOM      1  C   UNL     1     -24.000   7.041 -10.499  1.00  0.00     0.165 C 
ENDROOT
BRANCH   1   2
ATOM      2  C   UNL     1     -25.029   6.646 -11.566  1.00  0.00     0.190 C 
BRANCH   2   3
ATOM      3  O   UNL     1     -24.725   5.383 -12.092  1.00  0.00    -0.394 OA
ATOM      4  H   UNL     1     -25.322   4.740 -11.628  1.00  0.00     0.210 HD
ENDBRANCH   2   3
ENDBRANCH   1   2
BRANCH   1   5
ATOM      5  C   UNL     1     -24.397   6.526  -9.102  1.00  0.00     0.190 C 
BRANCH   5   6
ATOM      6  O   UNL     1     -24.738   5.167  -9.141  1.00  0.00    -0.394 OA
ATOM      7  H   UNL     1     -24.709   4.840  -8.204  1.00  0.00     0.210 HD
ENDBRANCH   5   6
ENDBRANCH   1   5
BRANCH   1   8
ATOM      8  O   UNL     1     -23.904   8.442 -10.467  1.00  0.00    -0.388 OA
ATOM      9  H   UNL     1     -23.321   8.709 -11.226  1.00  0.00     0.211 HD
ENDBRANCH   1   8
TORSDOF 5
ENDMDL
