MODEL 1
REMARK VINA RESULT:    -4.322      0.000      0.000
REMARK INTER + INTRA:          -5.052
REMARK INTER:                  -4.827
REMARK INTRA:                  -0.225
REMARK UNBOUND:                -0.225
REMARK SMILES O=C([O-])c1ccccc1C(=O)[O-]
REMARK SMILES IDX 4 1 9 2 5 3 8 4 6 5 7 6 2 7 1 8 3 9 10 10 11 11 12 12
REMARK H PARENT
REMARK Flexibility Score: inf
ROOT
ATOM      1  C   UNL     1      20.893  14.459  -4.819  1.00  0.00     0.006 A 
ATOM      2  C   UNL     1      19.924  14.184  -3.811  1.00  0.00     0.006 A 
ATOM      3  C   UNL     1      21.319  15.785  -5.012  1.00  0.00     0.010 A 
ATOM      4  C   UNL     1      19.371  15.254  -3.085  1.00  0.00     0.010 A 
ATOM      5  C   UNL     1      20.774  16.828  -4.263  1.00  0.00     0.001 A 
ATOM      6  C   UNL     1      19.793  16.564  -3.309  1.00  0.00     0.001 A 
ENDROOT
BRANCH   1   7
ATOM      7  C   UNL     1      21.431  13.420  -5.726  1.00  0.00     0.072 C 
ATOM      8  O   UNL     1      22.450  12.749  -5.408  1.00  0.00    -0.545 OA
ATOM      9  O   UNL     1      20.774  13.124  -6.915  1.00  0.00    -0.545 OA
ENDBRANCH   1   7
BRANCH   2  10
ATOM     10  C   UNL     1      19.512  12.810  -3.442  1.00  0.00     0.072 C 
ATOM     11  O   UNL     1      18.474  12.294  -3.934  1.00  0.00    -0.545 OA
ATOM     12  O   UNL     1      20.309  12.047  -2.595  1.00  0.00    -0.545 OA
ENDBRANCH   2  10
TORSDOF 2
ENDMDL
MODEL 2
REMARK VINA RESULT:    -4.321      0.166      3.143
REMARK INTER + INTRA:          -5.051
REMARK INTER:                  -4.823
REMARK INTRA:                  -0.227
REMARK UNBOUND:                -0.225
REMARK SMILES O=C([O-])c1ccccc1C(=O)[O-]
REMARK SMILES IDX 4 1 9 2 5 3 8 4 6 5 7 6 2 7 1 8 3 9 10 10 11 11 12 12
REMARK H PARENT
REMARK Flexibility Score: inf
ROOT
ATOM      1  C   UNL     1      19.868  14.131  -3.924  1.00  0.00     0.006 A 
ATOM      2  C   UNL     1      20.903  14.381  -4.870  1.00  0.00     0.006 A 
ATOM      3  C   UNL     1      19.330  15.210  -3.199  1.00  0.00     0.010 A 
ATOM      4  C   UNL     1      21.405  15.689  -5.004  1.00  0.00     0.010 A 
ATOM      5  C   UNL     1      19.827  16.503  -3.366  1.00  0.00     0.001 A 
ATOM      6  C   UNL     1      20.871  16.739  -4.258  1.00  0.00     0.001 A 
ENDROOT
BRANCH   1   7
ATOM      7  C   UNL     1      19.370  12.772  -3.614  1.00  0.00     0.072 C 
ATOM      8  O   UNL     1      18.316  12.333  -4.148  1.00  0.00    -0.545 OA
ATOM      9  O   UNL     1      20.101  11.935  -2.778  1.00  0.00    -0.545 OA
ENDBRANCH   1   7
BRANCH   2  10
ATOM     10  C   UNL     1      21.439  13.338  -5.775  1.00  0.00     0.072 C 
ATOM     11  O   UNL     1      22.431  12.639  -5.436  1.00  0.00    -0.545 OA
ATOM     12  O   UNL     1      20.807  13.072  -6.984  1.00  0.00    -0.545 OA
ENDBRANCH   2  10
TORSDOF 2
ENDMDL
MODEL 3
REMARK VINA RESULT:    -4.290      1.924      3.258
REMARK INTER + INTRA:          -5.016
REMARK INTER:                  -4.946
REMARK INTRA:                  -0.070
REMARK UNBOUND:                -0.225
REMARK SMILES O=C([O-])c1ccccc1C(=O)[O-]
REMARK SMILES IDX 4 1 9 2 5 3 8 4 6 5 7 6 2 7 1 8 3 9 10 10 11 11 12 12
REMARK H PARENT
REMARK Flexibility Score: inf
ROOT
ATOM      1  C   UNL     1      20.473  15.105  -4.078  1.00  0.00     0.006 A 
ATOM      2  C   UNL     1      20.194  13.721  -4.263  1.00  0.00     0.006 A 
ATOM      3  C   UNL     1      21.523  15.693  -4.805  1.00  0.00     0.010 A 
ATOM      4  C   UNL     1      21.018  12.966  -5.116  1.00  0.00     0.010 A 
ATOM      5  C   UNL     1      22.313  14.929  -5.665  1.00  0.00     0.001 A 
ATOM      6  C   UNL     1      22.068  13.565  -5.811  1.00  0.00     0.001 A 
ENDROOT
BRANCH   1   7
ATOM      7  C   UNL     1      19.751  15.951  -3.100  1.00  0.00     0.072 C 
ATOM      8  O   UNL     1      19.148  16.994  -3.470  1.00  0.00    -0.545 OA
ATOM      9  O   UNL     1      19.672  15.563  -1.767  1.00  0.00    -0.545 OA
ENDBRANCH   1   7
BRANCH   2  10
ATOM     10  C   UNL     1      19.029  13.043  -3.647  1.00  0.00     0.072 C 
ATOM     11  O   UNL     1      17.875  13.174  -4.134  1.00  0.00    -0.545 OA
ATOM     12  O   UNL     1      19.211  12.195  -2.559  1.00  0.00    -0.545 OA
ENDBRANCH   2  10
TORSDOF 2
ENDMDL
MODEL 4
REMARK VINA RESULT:    -4.267      1.935      3.611
REMARK INTER + INTRA:          -4.990
REMARK INTER:                  -4.975
REMARK INTRA:                  -0.016
REMARK UNBOUND:                -0.225
REMARK SMILES O=C([O-])c1ccccc1C(=O)[O-]
REMARK SMILES IDX 4 1 9 2 5 3 8 4 6 5 7 6 2 7 1 8 3 9 10 10 11 11 12 12
REMARK H PARENT
REMARK Flexibility Score: inf
ROOT
ATOM      1  C   UNL     1      20.180  13.653  -4.239  1.00  0.00     0.006 A 
ATOM      2  C   UNL     1      20.436  15.042  -4.055  1.00  0.00     0.006 A 
ATOM      3  C   UNL     1      21.018  12.912  -5.092  1.00  0.00     0.010 A 
ATOM      4  C   UNL     1      21.476  15.648  -4.782  1.00  0.00     0.010 A 
ATOM      5  C   UNL     1      22.059  13.529  -5.786  1.00  0.00     0.001 A 
ATOM      6  C   UNL     1      22.280  14.897  -5.640  1.00  0.00     0.001 A 
ENDROOT
BRANCH   1   7
ATOM      7  C   UNL     1      19.027  12.956  -3.624  1.00  0.00     0.072 C 
ATOM      8  O   UNL     1      17.875  13.048  -4.126  1.00  0.00    -0.545 OA
ATOM      9  O   UNL     1      19.218  12.133  -2.520  1.00  0.00    -0.545 OA
ENDBRANCH   1   7
BRANCH   2  10
ATOM     10  C   UNL     1      19.697  15.876  -3.078  1.00  0.00     0.072 C 
ATOM     11  O   UNL     1      19.582  15.513  -1.878  1.00  0.00    -0.545 OA
ATOM     12  O   UNL     1      19.179  17.108  -3.464  1.00  0.00    -0.545 OA
ENDBRANCH   2  10
TORSDOF 2
ENDMDL
MODEL 5
REMARK VINA RESULT:    -3.918      2.828      3.523
REMARK INTER + INTRA:          -4.601
REMARK INTER:                  -4.451
REMARK INTRA:                  -0.150
REMARK UNBOUND:                -0.225
REMARK SMILES O=C([O-])c1ccccc1C(=O)[O-]
REMARK SMILES IDX 4 1 9 2 5 3 8 4 6 5 7 6 2 7 1 8 3 9 10 10 11 11 12 12
REMARK H PARENT
REMARK Flexibility Score: inf
ROOT
ATOM      1  C   UNL     1      20.437  15.962  -2.336  1.00  0.00     0.006 A 
ATOM      2  C   UNL     1      19.964  14.623  -2.226  1.00  0.00     0.006 A 
ATOM      3  C   UNL     1      21.087  16.549  -1.235  1.00  0.00     0.010 A 
ATOM      4  C   UNL     1      20.099  13.949  -0.999  1.00  0.00     0.010 A 
ATOM      5  C   UNL     1      21.230  15.853  -0.034  1.00  0.00     0.001 A 
ATOM      6  C   UNL     1      20.727  14.559   0.087  1.00  0.00     0.001 A 
ENDROOT
BRANCH   1   7
ATOM      7  C   UNL     1      20.221  16.798  -3.538  1.00  0.00     0.072 C 
ATOM      8  O   UNL     1      19.284  17.640  -3.578  1.00  0.00    -0.545 OA
ATOM      9  O   UNL     1      21.096  16.712  -4.615  1.00  0.00    -0.545 OA
ENDBRANCH   1   7
BRANCH   2  10
ATOM     10  C   UNL     1      19.391  13.873  -3.368  1.00  0.00     0.072 C 
ATOM     11  O   UNL     1      18.229  14.123  -3.784  1.00  0.00    -0.545 OA
ATOM     12  O   UNL     1      20.160  12.929  -4.039  1.00  0.00    -0.545 OA
ENDBRANCH   2  10
TORSDOF 2
ENDMDL
MODEL 6
REMARK VINA RESULT:    -3.898      4.690      5.686
REMARK INTER + INTRA:          -4.579
REMARK INTER:                  -4.585
REMARK INTRA:                   0.007
REMARK UNBOUND:                -0.225
REMARK SMILES O=C([O-])c1ccccc1C(=O)[O-]
REMARK SMILES IDX 4 1 9 2 5 3 8 4 6 5 7 6 2 7 1 8 3 9 10 10 11 11 12 12
REMARK H PARENT
REMARK Flexibility Score: inf
ROOT
ATOM      1  C   UNL     1      21.091  18.438  -1.215  1.00  0.00     0.006 A 
ATOM      2  C   UNL     1      20.886  17.105  -1.672  1.00  0.00     0.006 A 
ATOM      3  C   UNL     1      21.658  18.645   0.055  1.00  0.00     0.010 A 
ATOM      4  C   UNL     1      21.192  16.034  -0.814  1.00  0.00     0.010 A 
ATOM      5  C   UNL     1      21.977  17.566   0.880  1.00  0.00     0.001 A 
ATOM      6  C   UNL     1      21.734  16.264   0.451  1.00  0.00     0.001 A 
ENDROOT
BRANCH   1   7
ATOM      7  C   UNL     1      20.674  19.630  -1.989  1.00  0.00     0.072 C 
ATOM      8  O   UNL     1      21.208  19.899  -3.098  1.00  0.00    -0.545 OA
ATOM      9  O   UNL     1      19.634  20.430  -1.530  1.00  0.00    -0.545 OA
ENDBRANCH   1   7
BRANCH   2  10
ATOM     10  C   UNL     1      20.422  16.783  -3.042  1.00  0.00     0.072 C 
ATOM     11  O   UNL     1      19.236  17.021  -3.392  1.00  0.00    -0.545 OA
ATOM     12  O   UNL     1      21.315  16.277  -3.979  1.00  0.00    -0.545 OA
ENDBRANCH   2  10
TORSDOF 2
ENDMDL
MODEL 7
REMARK VINA RESULT:    -3.890      2.801      4.028
REMARK INTER + INTRA:          -4.569
REMARK INTER:                  -4.476
REMARK INTRA:                  -0.093
REMARK UNBOUND:                -0.225
REMARK SMILES O=C([O-])c1ccccc1C(=O)[O-]
REMARK SMILES IDX 4 1 9 2 5 3 8 4 6 5 7 6 2 7 1 8 3 9 10 10 11 11 12 12
REMARK H PARENT
REMARK Flexibility Score: inf
ROOT
ATOM      1  C   UNL     1      20.029  14.734  -2.155  1.00  0.00     0.006 A 
ATOM      2  C   UNL     1      20.516  16.052  -2.393  1.00  0.00     0.006 A 
ATOM      3  C   UNL     1      20.195  14.164  -0.880  1.00  0.00     0.010 A 
ATOM      4  C   UNL     1      21.208  16.720  -1.367  1.00  0.00     0.010 A 
ATOM      5  C   UNL     1      20.865  14.856   0.131  1.00  0.00     0.001 A 
ATOM      6  C   UNL     1      21.380  16.126  -0.116  1.00  0.00     0.001 A 
ENDROOT
BRANCH   1   7
ATOM      7  C   UNL     1      19.410  13.900  -3.210  1.00  0.00     0.072 C 
ATOM      8  O   UNL     1      18.302  14.220  -3.719  1.00  0.00    -0.545 OA
ATOM      9  O   UNL     1      20.082  12.786  -3.702  1.00  0.00    -0.545 OA
ENDBRANCH   1   7
BRANCH   2  10
ATOM     10  C   UNL     1      20.271  16.787  -3.655  1.00  0.00     0.072 C 
ATOM     11  O   UNL     1      19.302  17.585  -3.759  1.00  0.00    -0.545 OA
ATOM     12  O   UNL     1      21.155  16.655  -4.721  1.00  0.00    -0.545 OA
ENDBRANCH   2  10
TORSDOF 2
ENDMDL
MODEL 8
REMARK VINA RESULT:    -3.886      4.729      5.766
REMARK INTER + INTRA:          -4.564
REMARK INTER:                  -4.571
REMARK INTRA:                   0.006
REMARK UNBOUND:                -0.225
REMARK SMILES O=C([O-])c1ccccc1C(=O)[O-]
REMARK SMILES IDX 4 1 9 2 5 3 8 4 6 5 7 6 2 7 1 8 3 9 10 10 11 11 12 12
REMARK H PARENT
REMARK Flexibility Score: inf
ROOT
ATOM      1  C   UNL     1      20.882  17.121  -1.605  1.00  0.00     0.006 A 
ATOM      2  C   UNL     1      21.084  18.454  -1.146  1.00  0.00     0.006 A 
ATOM      3  C   UNL     1      21.196  16.050  -0.750  1.00  0.00     0.010 A 
ATOM      4  C   UNL     1      21.655  18.661   0.122  1.00  0.00     0.010 A 
ATOM      5  C   UNL     1      21.740  16.279   0.514  1.00  0.00     0.001 A 
ATOM      6  C   UNL     1      21.980  17.582   0.945  1.00  0.00     0.001 A 
ENDROOT
BRANCH   1   7
ATOM      7  C   UNL     1      20.415  16.801  -2.973  1.00  0.00     0.072 C 
ATOM      8  O   UNL     1      19.228  17.039  -3.323  1.00  0.00    -0.545 OA
ATOM      9  O   UNL     1      21.306  16.294  -3.913  1.00  0.00    -0.545 OA
ENDBRANCH   1   7
BRANCH   2  10
ATOM     10  C   UNL     1      20.660  19.646  -1.917  1.00  0.00     0.072 C 
ATOM     11  O   UNL     1      21.196  19.923  -3.022  1.00  0.00    -0.545 OA
ATOM     12  O   UNL     1      19.612  20.437  -1.457  1.00  0.00    -0.545 OA
ENDBRANCH   2  10
TORSDOF 2
ENDMDL
MODEL 9
REMARK VINA RESULT:    -3.857      2.147      3.881
REMARK INTER + INTRA:          -4.532
REMARK INTER:                  -4.384
REMARK INTRA:                  -0.149
REMARK UNBOUND:                -0.225
REMARK SMILES O=C([O-])c1ccccc1C(=O)[O-]
REMARK SMILES IDX 4 1 9 2 5 3 8 4 6 5 7 6 2 7 1 8 3 9 10 10 11 11 12 12
REMARK H PARENT
REMARK Flexibility Score: inf
ROOT
ATOM      1  C   UNL     1      20.176  13.850  -4.345  1.00  0.00     0.006 A 
ATOM      2  C   UNL     1      20.073  12.792  -5.294  1.00  0.00     0.006 A 
ATOM      3  C   UNL     1      19.801  13.610  -3.011  1.00  0.00     0.010 A 
ATOM      4  C   UNL     1      19.536  11.558  -4.885  1.00  0.00     0.010 A 
ATOM      5  C   UNL     1      19.293  12.370  -2.623  1.00  0.00     0.001 A 
ATOM      6  C   UNL     1      19.150  11.350  -3.561  1.00  0.00     0.001 A 
ENDROOT
BRANCH   1   7
ATOM      7  C   UNL     1      20.599  15.221  -4.709  1.00  0.00     0.072 C 
ATOM      8  O   UNL     1      19.760  16.160  -4.774  1.00  0.00    -0.545 OA
ATOM      9  O   UNL     1      21.944  15.504  -4.916  1.00  0.00    -0.545 OA
ENDBRANCH   1   7
BRANCH   2  10
ATOM     10  C   UNL     1      20.567  12.905  -6.686  1.00  0.00     0.072 C 
ATOM     11  O   UNL     1      21.800  12.878  -6.936  1.00  0.00    -0.545 OA
ATOM     12  O   UNL     1      19.665  12.974  -7.742  1.00  0.00    -0.545 OA
ENDBRANCH   2  10
TORSDOF 2
ENDMDL
