MODEL 1
REMARK VINA RESULT:    -4.977      0.000      0.000
REMARK INTER + INTRA:          -6.518
REMARK INTER:                  -6.141
REMARK INTRA:                  -0.377
REMARK UNBOUND:                -0.377
REMARK SMILES Oc1cc(O)c2cc(O)c(-c3cc(O)c(O)c(O)c3)[o+]c2c1.[Cl-]
REMARK SMILES IDX 10 1 20 2 21 3 22 4 2 5 3 6 4 7 6 8 7 9 8 10 11 11 12 12
REMARK SMILES IDX 13 13 19 14 15 15 17 16 14 17 16 19 18 21 9 23 1 25 5 27
REMARK H PARENT 14 18 16 20 18 22 9 24 1 26 5 28
REMARK Flexibility Score: inf
ROOT
ATOM      1  C   UNL     1      23.835  72.010  13.160  1.00  0.00     0.402 A 
ATOM      2  O   UNL     1      25.036  71.986  13.734  1.00  0.00    -0.202 OA
ATOM      3  C   UNL     1      26.173  71.958  13.046  1.00  0.00     0.368 A 
ATOM      4  C   UNL     1      27.385  71.936  13.740  1.00  0.00     0.162 A 
ATOM      5  C   UNL     1      28.595  71.910  13.045  1.00  0.00     0.128 A 
ATOM      6  C   UNL     1      28.595  71.906  11.646  1.00  0.00     0.093 A 
ATOM      7  C   UNL     1      27.392  71.928  10.927  1.00  0.00     0.136 A 
ATOM      8  C   UNL     1      26.161  71.951  11.631  1.00  0.00     0.125 A 
ATOM      9  C   UNL     1      24.908  71.962  10.996  1.00  0.00     0.078 A 
ATOM     10  C   UNL     1      23.736  71.980  11.757  1.00  0.00     0.223 A 
ENDROOT
BRANCH   1  11
ATOM     11  C   UNL     1      22.641  72.050  14.034  1.00  0.00     0.091 A 
ATOM     12  C   UNL     1      22.190  70.867  14.640  1.00  0.00     0.068 A 
ATOM     13  C   UNL     1      21.075  70.882  15.488  1.00  0.00     0.162 A 
ATOM     14  C   UNL     1      21.982  73.258  14.317  1.00  0.00     0.068 A 
ATOM     15  C   UNL     1      20.408  72.085  15.750  1.00  0.00     0.200 A 
ATOM     16  C   UNL     1      20.865  73.279  15.167  1.00  0.00     0.162 A 
BRANCH  13  17
ATOM     17  O   UNL     1      20.621  69.701  16.075  1.00  0.00    -0.504 OA
ATOM     18  H   UNL     1      19.651  69.577  16.335  1.00  0.00     0.293 HD
ENDBRANCH  13  17
BRANCH  15  19
ATOM     19  O   UNL     1      19.298  72.080  16.594  1.00  0.00    -0.502 OA
ATOM     20  H   UNL     1      19.386  72.012  17.601  1.00  0.00     0.293 HD
ENDBRANCH  15  19
BRANCH  16  21
ATOM     21  O   UNL     1      20.214  74.481  15.437  1.00  0.00    -0.504 OA
ATOM     22  H   UNL     1      20.553  75.121  16.146  1.00  0.00     0.293 HD
ENDBRANCH  16  21
ENDBRANCH   1  11
BRANCH  10  23
ATOM     23  O   UNL     1      22.491  71.940  11.126  1.00  0.00    -0.500 OA
ATOM     24  H   UNL     1      21.885  71.131  11.195  1.00  0.00     0.294 HD
ENDBRANCH  10  23
BRANCH   5  25
ATOM     25  O   UNL     1      29.794  71.887  13.754  1.00  0.00    -0.507 OA
ATOM     26  H   UNL     1      30.196  71.019  14.088  1.00  0.00     0.293 HD
ENDBRANCH   5  25
BRANCH   7  27
ATOM     27  O   UNL     1      27.476  71.926   9.532  1.00  0.00    -0.507 OA
ATOM     28  H   UNL     1      27.710  71.117   8.975  1.00  0.00     0.293 HD
ENDBRANCH   7  27
TORSDOF 7
ENDMDL
MODEL 2
REMARK VINA RESULT:    -4.920      0.089      1.790
REMARK INTER + INTRA:          -6.447
REMARK INTER:                  -6.082
REMARK INTRA:                  -0.365
REMARK UNBOUND:                -0.377
REMARK SMILES Oc1cc(O)c2cc(O)c(-c3cc(O)c(O)c(O)c3)[o+]c2c1.[Cl-]
REMARK SMILES IDX 10 1 20 2 21 3 22 4 2 5 3 6 4 7 6 8 7 9 8 10 11 11 12 12
REMARK SMILES IDX 13 13 19 14 15 15 17 16 14 17 16 19 18 21 9 23 1 25 5 27
REMARK H PARENT 14 18 16 20 18 22 9 24 1 26 5 28
REMARK Flexibility Score: inf
ROOT
ATOM      1  C   UNL     1      23.838  71.978  13.184  1.00  0.00     0.402 A 
ATOM      2  O   UNL     1      25.040  71.962  13.754  1.00  0.00    -0.202 OA
ATOM      3  C   UNL     1      26.176  71.967  13.064  1.00  0.00     0.368 A 
ATOM      4  C   UNL     1      27.390  71.951  13.754  1.00  0.00     0.162 A 
ATOM      5  C   UNL     1      28.599  71.959  13.057  1.00  0.00     0.128 A 
ATOM      6  C   UNL     1      28.595  71.985  11.658  1.00  0.00     0.093 A 
ATOM      7  C   UNL     1      27.390  72.001  10.942  1.00  0.00     0.136 A 
ATOM      8  C   UNL     1      26.160  71.990  11.649  1.00  0.00     0.125 A 
ATOM      9  C   UNL     1      24.906  71.992  11.016  1.00  0.00     0.078 A 
ATOM     10  C   UNL     1      23.736  71.976  11.780  1.00  0.00     0.223 A 
ENDROOT
BRANCH   1  11
ATOM     11  C   UNL     1      22.646  71.980  14.061  1.00  0.00     0.091 A 
ATOM     12  C   UNL     1      21.987  73.191  14.326  1.00  0.00     0.068 A 
ATOM     13  C   UNL     1      20.844  73.217  15.136  1.00  0.00     0.162 A 
ATOM     14  C   UNL     1      22.125  70.788  14.591  1.00  0.00     0.068 A 
ATOM     15  C   UNL     1      20.342  72.028  15.679  1.00  0.00     0.200 A 
ATOM     16  C   UNL     1      20.981  70.808  15.402  1.00  0.00     0.162 A 
BRANCH  13  17
ATOM     17  O   UNL     1      20.202  74.424  15.408  1.00  0.00    -0.504 OA
ATOM     18  H   UNL     1      19.386  74.720  14.886  1.00  0.00     0.293 HD
ENDBRANCH  13  17
BRANCH  15  19
ATOM     19  O   UNL     1      19.205  72.074  16.487  1.00  0.00    -0.502 OA
ATOM     20  H   UNL     1      19.069  71.438  17.264  1.00  0.00     0.293 HD
ENDBRANCH  15  19
BRANCH  16  21
ATOM     21  O   UNL     1      20.475  69.620  15.929  1.00  0.00    -0.504 OA
ATOM     22  H   UNL     1      20.582  68.737  15.443  1.00  0.00     0.293 HD
ENDBRANCH  16  21
ENDBRANCH   1  11
BRANCH  10  23
ATOM     23  O   UNL     1      22.491  71.927  11.151  1.00  0.00    -0.500 OA
ATOM     24  H   UNL     1      22.354  71.435  10.277  1.00  0.00     0.294 HD
ENDBRANCH  10  23
BRANCH   5  25
ATOM     25  O   UNL     1      29.799  71.942  13.762  1.00  0.00    -0.507 OA
ATOM     26  H   UNL     1      30.580  72.530  13.494  1.00  0.00     0.293 HD
ENDBRANCH   5  25
BRANCH   7  27
ATOM     27  O   UNL     1      27.471  72.030   9.547  1.00  0.00    -0.507 OA
ATOM     28  H   UNL     1      27.712  72.847   9.006  1.00  0.00     0.293 HD
ENDBRANCH   7  27
TORSDOF 7
ENDMDL
MODEL 3
REMARK VINA RESULT:    -4.846      1.331      7.020
REMARK INTER + INTRA:          -6.356
REMARK INTER:                  -5.992
REMARK INTRA:                  -0.363
REMARK UNBOUND:                -0.377
REMARK SMILES Oc1cc(O)c2cc(O)c(-c3cc(O)c(O)c(O)c3)[o+]c2c1.[Cl-]
REMARK SMILES IDX 10 1 20 2 21 3 22 4 2 5 3 6 4 7 6 8 7 9 8 10 11 11 12 12
REMARK SMILES IDX 13 13 19 14 15 15 17 16 14 17 16 19 18 21 9 23 1 25 5 27
REMARK H PARENT 14 18 16 20 18 22 9 24 1 26 5 28
REMARK Flexibility Score: inf
ROOT
ATOM      1  C   UNL     1      24.077  72.235  12.875  1.00  0.00     0.402 A 
ATOM      2  O   UNL     1      23.541  71.474  13.827  1.00  0.00    -0.202 OA
ATOM      3  C   UNL     1      22.441  71.808  14.494  1.00  0.00     0.368 A 
ATOM      4  C   UNL     1      21.953  70.941  15.475  1.00  0.00     0.162 A 
ATOM      5  C   UNL     1      20.799  71.263  16.190  1.00  0.00     0.128 A 
ATOM      6  C   UNL     1      20.125  72.460  15.922  1.00  0.00     0.093 A 
ATOM      7  C   UNL     1      20.594  73.346  14.943  1.00  0.00     0.136 A 
ATOM      8  C   UNL     1      21.769  73.022  14.217  1.00  0.00     0.125 A 
ATOM      9  C   UNL     1      22.319  73.854  13.227  1.00  0.00     0.078 A 
ATOM     10  C   UNL     1      23.483  73.470  12.557  1.00  0.00     0.223 A 
ENDROOT
BRANCH   1  11
ATOM     11  C   UNL     1      25.300  71.749  12.196  1.00  0.00     0.091 A 
ATOM     12  C   UNL     1      25.193  71.134  10.939  1.00  0.00     0.068 A 
ATOM     13  C   UNL     1      26.337  70.684  10.266  1.00  0.00     0.162 A 
ATOM     14  C   UNL     1      26.573  71.941  12.757  1.00  0.00     0.068 A 
ATOM     15  C   UNL     1      27.602  70.859  10.840  1.00  0.00     0.200 A 
ATOM     16  C   UNL     1      27.722  71.494  12.088  1.00  0.00     0.162 A 
BRANCH  13  17
ATOM     17  O   UNL     1      26.223  70.060   9.025  1.00  0.00    -0.504 OA
ATOM     18  H   UNL     1      25.621  69.257   8.888  1.00  0.00     0.293 HD
ENDBRANCH  13  17
BRANCH  15  19
ATOM     19  O   UNL     1      28.729  70.402  10.158  1.00  0.00    -0.502 OA
ATOM     20  H   UNL     1      28.726  70.242   9.156  1.00  0.00     0.293 HD
ENDBRANCH  15  19
BRANCH  16  21
ATOM     21  O   UNL     1      28.981  71.684  12.656  1.00  0.00    -0.504 OA
ATOM     22  H   UNL     1      29.185  72.488  13.238  1.00  0.00     0.293 HD
ENDBRANCH  16  21
ENDBRANCH   1  11
BRANCH  10  23
ATOM     23  O   UNL     1      24.057  74.319  11.610  1.00  0.00    -0.500 OA
ATOM     24  H   UNL     1      23.888  75.318  11.617  1.00  0.00     0.294 HD
ENDBRANCH  10  23
BRANCH   5  25
ATOM     25  O   UNL     1      20.328  70.387  17.165  1.00  0.00    -0.507 OA
ATOM     26  H   UNL     1      20.716  69.457  17.274  1.00  0.00     0.293 HD
ENDBRANCH   5  25
BRANCH   7  27
ATOM     27  O   UNL     1      19.863  74.518  14.732  1.00  0.00    -0.507 OA
ATOM     28  H   UNL     1      19.554  74.843  13.828  1.00  0.00     0.293 HD
ENDBRANCH   7  27
TORSDOF 7
ENDMDL
MODEL 4
REMARK VINA RESULT:    -4.786      1.335      7.058
REMARK INTER + INTRA:          -6.282
REMARK INTER:                  -5.898
REMARK INTRA:                  -0.384
REMARK UNBOUND:                -0.377
REMARK SMILES Oc1cc(O)c2cc(O)c(-c3cc(O)c(O)c(O)c3)[o+]c2c1.[Cl-]
REMARK SMILES IDX 10 1 20 2 21 3 22 4 2 5 3 6 4 7 6 8 7 9 8 10 11 11 12 12
REMARK SMILES IDX 13 13 19 14 15 15 17 16 14 17 16 19 18 21 9 23 1 25 5 27
REMARK H PARENT 14 18 16 20 18 22 9 24 1 26 5 28
REMARK Flexibility Score: inf
ROOT
ATOM      1  C   UNL     1      24.056  72.260  12.827  1.00  0.00     0.402 A 
ATOM      2  O   UNL     1      23.538  71.472  13.767  1.00  0.00    -0.202 OA
ATOM      3  C   UNL     1      22.458  71.790  14.472  1.00  0.00     0.368 A 
ATOM      4  C   UNL     1      21.988  70.895  15.436  1.00  0.00     0.162 A 
ATOM      5  C   UNL     1      20.855  71.200  16.190  1.00  0.00     0.128 A 
ATOM      6  C   UNL     1      20.184  72.410  15.980  1.00  0.00     0.093 A 
ATOM      7  C   UNL     1      20.635  73.325  15.019  1.00  0.00     0.136 A 
ATOM      8  C   UNL     1      21.789  73.018  14.253  1.00  0.00     0.125 A 
ATOM      9  C   UNL     1      22.320  73.878  13.278  1.00  0.00     0.078 A 
ATOM     10  C   UNL     1      23.464  73.509  12.566  1.00  0.00     0.223 A 
ENDROOT
BRANCH   1  11
ATOM     11  C   UNL     1      25.258  71.789  12.102  1.00  0.00     0.091 A 
ATOM     12  C   UNL     1      26.524  71.953  12.685  1.00  0.00     0.068 A 
ATOM     13  C   UNL     1      27.675  71.497  12.029  1.00  0.00     0.162 A 
ATOM     14  C   UNL     1      25.155  71.131  10.865  1.00  0.00     0.068 A 
ATOM     15  C   UNL     1      27.568  70.861  10.786  1.00  0.00     0.200 A 
ATOM     16  C   UNL     1      26.304  70.672  10.204  1.00  0.00     0.162 A 
BRANCH  13  17
ATOM     17  O   UNL     1      28.931  71.675  12.606  1.00  0.00    -0.504 OA
ATOM     18  H   UNL     1      29.176  72.530  13.091  1.00  0.00     0.293 HD
ENDBRANCH  13  17
BRANCH  15  19
ATOM     19  O   UNL     1      28.725  70.417  10.146  1.00  0.00    -0.502 OA
ATOM     20  H   UNL     1      28.944  69.432  10.047  1.00  0.00     0.293 HD
ENDBRANCH  15  19
BRANCH  16  21
ATOM     21  O   UNL     1      26.192  70.025   8.974  1.00  0.00    -0.504 OA
ATOM     22  H   UNL     1      25.546  70.346   8.262  1.00  0.00     0.293 HD
ENDBRANCH  16  21
ENDBRANCH   1  11
BRANCH  10  23
ATOM     23  O   UNL     1      24.021  74.386  11.633  1.00  0.00    -0.500 OA
ATOM     24  H   UNL     1      24.171  74.113  10.669  1.00  0.00     0.294 HD
ENDBRANCH  10  23
BRANCH   5  25
ATOM     25  O   UNL     1      20.402  70.295  17.147  1.00  0.00    -0.507 OA
ATOM     26  H   UNL     1      20.696  69.325  17.141  1.00  0.00     0.293 HD
ENDBRANCH   5  25
BRANCH   7  27
ATOM     27  O   UNL     1      19.908  74.508  14.866  1.00  0.00    -0.507 OA
ATOM     28  H   UNL     1      19.078  74.599  14.299  1.00  0.00     0.293 HD
ENDBRANCH   7  27
TORSDOF 7
ENDMDL
MODEL 5
REMARK VINA RESULT:    -4.440      3.612      7.762
REMARK INTER + INTRA:          -5.855
REMARK INTER:                  -5.602
REMARK INTRA:                  -0.254
REMARK UNBOUND:                -0.377
REMARK SMILES Oc1cc(O)c2cc(O)c(-c3cc(O)c(O)c(O)c3)[o+]c2c1.[Cl-]
REMARK SMILES IDX 10 1 20 2 21 3 22 4 2 5 3 6 4 7 6 8 7 9 8 10 11 11 12 12
REMARK SMILES IDX 13 13 19 14 15 15 17 16 14 17 16 19 18 21 9 23 1 25 5 27
REMARK H PARENT 14 18 16 20 18 22 9 24 1 26 5 28
REMARK Flexibility Score: inf
ROOT
ATOM      1  C   UNL     1      21.503  69.955  16.652  1.00  0.00     0.402 A 
ATOM      2  O   UNL     1      20.683  69.065  16.099  1.00  0.00    -0.202 OA
ATOM      3  C   UNL     1      20.461  67.859  16.612  1.00  0.00     0.368 A 
ATOM      4  C   UNL     1      19.580  66.994  15.959  1.00  0.00     0.162 A 
ATOM      5  C   UNL     1      19.325  65.723  16.476  1.00  0.00     0.128 A 
ATOM      6  C   UNL     1      19.955  65.313  17.656  1.00  0.00     0.093 A 
ATOM      7  C   UNL     1      20.844  66.161  18.330  1.00  0.00     0.136 A 
ATOM      8  C   UNL     1      21.106  67.453  17.805  1.00  0.00     0.125 A 
ATOM      9  C   UNL     1      21.990  68.365  18.405  1.00  0.00     0.078 A 
ATOM     10  C   UNL     1      22.202  69.620  17.826  1.00  0.00     0.223 A 
ENDROOT
BRANCH   1  11
ATOM     11  C   UNL     1      21.659  71.270  15.990  1.00  0.00     0.091 A 
ATOM     12  C   UNL     1      22.872  71.584  15.358  1.00  0.00     0.068 A 
ATOM     13  C   UNL     1      23.038  72.813  14.706  1.00  0.00     0.162 A 
ATOM     14  C   UNL     1      20.599  72.190  15.931  1.00  0.00     0.068 A 
ATOM     15  C   UNL     1      21.985  73.736  14.669  1.00  0.00     0.200 A 
ATOM     16  C   UNL     1      20.759  73.422  15.279  1.00  0.00     0.162 A 
BRANCH  13  17
ATOM     17  O   UNL     1      24.250  73.127  14.093  1.00  0.00    -0.504 OA
ATOM     18  H   UNL     1      24.308  73.816  13.353  1.00  0.00     0.293 HD
ENDBRANCH  13  17
BRANCH  15  19
ATOM     19  O   UNL     1      22.170  74.956  14.019  1.00  0.00    -0.502 OA
ATOM     20  H   UNL     1      23.043  75.469  14.072  1.00  0.00     0.293 HD
ENDBRANCH  15  19
BRANCH  16  21
ATOM     21  O   UNL     1      19.703  74.331  15.232  1.00  0.00    -0.504 OA
ATOM     22  H   UNL     1      19.306  74.729  16.076  1.00  0.00     0.293 HD
ENDBRANCH  16  21
ENDBRANCH   1  11
BRANCH  10  23
ATOM     23  O   UNL     1      23.118  70.506  18.394  1.00  0.00    -0.500 OA
ATOM     24  H   UNL     1      24.114  70.422  18.230  1.00  0.00     0.294 HD
ENDBRANCH  10  23
BRANCH   5  25
ATOM     25  O   UNL     1      18.444  64.875  15.811  1.00  0.00    -0.507 OA
ATOM     26  H   UNL     1      18.709  64.399  14.955  1.00  0.00     0.293 HD
ENDBRANCH   5  25
BRANCH   7  27
ATOM     27  O   UNL     1      21.429  65.679  19.503  1.00  0.00    -0.507 OA
ATOM     28  H   UNL     1      21.395  64.716  19.805  1.00  0.00     0.293 HD
ENDBRANCH   7  27
TORSDOF 7
ENDMDL
MODEL 6
REMARK VINA RESULT:    -4.332      3.843      6.351
REMARK INTER + INTRA:          -5.722
REMARK INTER:                  -5.367
REMARK INTRA:                  -0.354
REMARK UNBOUND:                -0.377
REMARK SMILES Oc1cc(O)c2cc(O)c(-c3cc(O)c(O)c(O)c3)[o+]c2c1.[Cl-]
REMARK SMILES IDX 10 1 20 2 21 3 22 4 2 5 3 6 4 7 6 8 7 9 8 10 11 11 12 12
REMARK SMILES IDX 13 13 19 14 15 15 17 16 14 17 16 19 18 21 9 23 1 25 5 27
REMARK H PARENT 14 18 16 20 18 22 9 24 1 26 5 28
REMARK Flexibility Score: inf
ROOT
ATOM      1  C   UNL     1      22.067  69.715  16.641  1.00  0.00     0.402 A 
ATOM      2  O   UNL     1      21.653  69.837  15.382  1.00  0.00    -0.202 OA
ATOM      3  C   UNL     1      21.875  70.918  14.642  1.00  0.00     0.368 A 
ATOM      4  C   UNL     1      21.403  70.951  13.327  1.00  0.00     0.162 A 
ATOM      5  C   UNL     1      21.624  72.071  12.525  1.00  0.00     0.128 A 
ATOM      6  C   UNL     1      22.324  73.168  13.040  1.00  0.00     0.093 A 
ATOM      7  C   UNL     1      22.808  73.161  14.355  1.00  0.00     0.136 A 
ATOM      8  C   UNL     1      22.582  72.024  15.173  1.00  0.00     0.125 A 
ATOM      9  C   UNL     1      23.019  71.932  16.505  1.00  0.00     0.078 A 
ATOM     10  C   UNL     1      22.754  70.781  17.252  1.00  0.00     0.223 A 
ENDROOT
BRANCH   1  11
ATOM     11  C   UNL     1      21.766  68.456  17.359  1.00  0.00     0.091 A 
ATOM     12  C   UNL     1      22.771  67.487  17.503  1.00  0.00     0.068 A 
ATOM     13  C   UNL     1      22.519  66.296  18.196  1.00  0.00     0.162 A 
ATOM     14  C   UNL     1      20.511  68.232  17.949  1.00  0.00     0.068 A 
ATOM     15  C   UNL     1      21.259  66.069  18.763  1.00  0.00     0.200 A 
ATOM     16  C   UNL     1      20.252  67.041  18.644  1.00  0.00     0.162 A 
BRANCH  13  17
ATOM     17  O   UNL     1      23.516  65.331  18.323  1.00  0.00    -0.504 OA
ATOM     18  H   UNL     1      23.725  64.898  19.214  1.00  0.00     0.293 HD
ENDBRANCH  13  17
BRANCH  15  19
ATOM     19  O   UNL     1      21.024  64.875  19.446  1.00  0.00    -0.502 OA
ATOM     20  H   UNL     1      21.773  64.237  19.690  1.00  0.00     0.293 HD
ENDBRANCH  15  19
BRANCH  16  21
ATOM     21  O   UNL     1      19.002  66.826  19.221  1.00  0.00    -0.504 OA
ATOM     22  H   UNL     1      18.450  67.590  19.594  1.00  0.00     0.293 HD
ENDBRANCH  16  21
ENDBRANCH   1  11
BRANCH  10  23
ATOM     23  O   UNL     1      23.144  70.709  18.590  1.00  0.00    -0.500 OA
ATOM     24  H   UNL     1      23.408  71.536  19.113  1.00  0.00     0.294 HD
ENDBRANCH  10  23
BRANCH   5  25
ATOM     25  O   UNL     1      21.145  72.085  11.218  1.00  0.00    -0.507 OA
ATOM     26  H   UNL     1      21.750  72.300  10.434  1.00  0.00     0.293 HD
ENDBRANCH   5  25
BRANCH   7  27
ATOM     27  O   UNL     1      23.499  74.293  14.793  1.00  0.00    -0.507 OA
ATOM     28  H   UNL     1      23.338  75.228  14.449  1.00  0.00     0.293 HD
ENDBRANCH   7  27
TORSDOF 7
ENDMDL
MODEL 7
REMARK VINA RESULT:    -4.187      2.719      5.420
REMARK INTER + INTRA:          -5.543
REMARK INTER:                  -5.188
REMARK INTRA:                  -0.355
REMARK UNBOUND:                -0.377
REMARK SMILES Oc1cc(O)c2cc(O)c(-c3cc(O)c(O)c(O)c3)[o+]c2c1.[Cl-]
REMARK SMILES IDX 10 1 20 2 21 3 22 4 2 5 3 6 4 7 6 8 7 9 8 10 11 11 12 12
REMARK SMILES IDX 13 13 19 14 15 15 17 16 14 17 16 19 18 21 9 23 1 25 5 27
REMARK H PARENT 14 18 16 20 18 22 9 24 1 26 5 28
REMARK Flexibility Score: inf
ROOT
ATOM      1  C   UNL     1      21.047  70.863  15.884  1.00  0.00     0.402 A 
ATOM      2  O   UNL     1      22.114  70.886  15.088  1.00  0.00    -0.202 OA
ATOM      3  C   UNL     1      22.401  71.904  14.283  1.00  0.00     0.368 A 
ATOM      4  C   UNL     1      23.546  71.836  13.485  1.00  0.00     0.162 A 
ATOM      5  C   UNL     1      23.875  72.890  12.632  1.00  0.00     0.128 A 
ATOM      6  C   UNL     1      23.055  74.022  12.576  1.00  0.00     0.093 A 
ATOM      7  C   UNL     1      21.901  74.115  13.366  1.00  0.00     0.136 A 
ATOM      8  C   UNL     1      21.562  73.043  14.232  1.00  0.00     0.125 A 
ATOM      9  C   UNL     1      20.421  73.042  15.050  1.00  0.00     0.078 A 
ATOM     10  C   UNL     1      20.149  71.947  15.874  1.00  0.00     0.223 A 
ENDROOT
BRANCH   1  11
ATOM     11  C   UNL     1      20.840  69.676  16.744  1.00  0.00     0.091 A 
ATOM     12  C   UNL     1      19.977  68.656  16.315  1.00  0.00     0.068 A 
ATOM     13  C   UNL     1      19.779  67.512  17.100  1.00  0.00     0.162 A 
ATOM     14  C   UNL     1      21.533  69.520  17.956  1.00  0.00     0.068 A 
ATOM     15  C   UNL     1      20.456  67.372  18.317  1.00  0.00     0.200 A 
ATOM     16  C   UNL     1      21.340  68.376  18.746  1.00  0.00     0.162 A 
BRANCH  13  17
ATOM     17  O   UNL     1      18.909  66.509  16.676  1.00  0.00    -0.504 OA
ATOM     18  H   UNL     1      18.133  66.707  16.056  1.00  0.00     0.293 HD
ENDBRANCH  13  17
BRANCH  15  19
ATOM     19  O   UNL     1      20.245  66.228  19.087  1.00  0.00    -0.502 OA
ATOM     20  H   UNL     1      20.754  66.054  19.946  1.00  0.00     0.293 HD
ENDBRANCH  15  19
BRANCH  16  21
ATOM     21  O   UNL     1      22.028  68.234  19.950  1.00  0.00    -0.504 OA
ATOM     22  H   UNL     1      21.547  68.002  20.812  1.00  0.00     0.293 HD
ENDBRANCH  16  21
ENDBRANCH   1  11
BRANCH  10  23
ATOM     23  O   UNL     1      18.989  71.924  16.649  1.00  0.00    -0.500 OA
ATOM     24  H   UNL     1      18.117  72.318  16.315  1.00  0.00     0.294 HD
ENDBRANCH  10  23
BRANCH   5  25
ATOM     25  O   UNL     1      25.020  72.804  11.845  1.00  0.00    -0.507 OA
ATOM     26  H   UNL     1      25.281  73.546  11.204  1.00  0.00     0.293 HD
ENDBRANCH   5  25
BRANCH   7  27
ATOM     27  O   UNL     1      21.137  75.279  13.255  1.00  0.00    -0.507 OA
ATOM     28  H   UNL     1      20.576  75.667  14.000  1.00  0.00     0.293 HD
ENDBRANCH   7  27
TORSDOF 7
ENDMDL
MODEL 8
REMARK VINA RESULT:    -4.096      2.807      5.591
REMARK INTER + INTRA:          -5.430
REMARK INTER:                  -5.089
REMARK INTRA:                  -0.342
REMARK UNBOUND:                -0.377
REMARK SMILES Oc1cc(O)c2cc(O)c(-c3cc(O)c(O)c(O)c3)[o+]c2c1.[Cl-]
REMARK SMILES IDX 10 1 20 2 21 3 22 4 2 5 3 6 4 7 6 8 7 9 8 10 11 11 12 12
REMARK SMILES IDX 13 13 19 14 15 15 17 16 14 17 16 19 18 21 9 23 1 25 5 27
REMARK H PARENT 14 18 16 20 18 22 9 24 1 26 5 28
REMARK Flexibility Score: inf
ROOT
ATOM      1  C   UNL     1      20.918  70.756  15.843  1.00  0.00     0.402 A 
ATOM      2  O   UNL     1      22.015  70.858  15.097  1.00  0.00    -0.202 OA
ATOM      3  C   UNL     1      22.274  71.905  14.320  1.00  0.00     0.368 A 
ATOM      4  C   UNL     1      23.456  71.921  13.575  1.00  0.00     0.162 A 
ATOM      5  C   UNL     1      23.757  73.008  12.752  1.00  0.00     0.128 A 
ATOM      6  C   UNL     1      22.870  74.088  12.674  1.00  0.00     0.093 A 
ATOM      7  C   UNL     1      21.679  74.095  13.411  1.00  0.00     0.136 A 
ATOM      8  C   UNL     1      21.369  72.991  14.245  1.00  0.00     0.125 A 
ATOM      9  C   UNL     1      20.194  72.906  15.010  1.00  0.00     0.078 A 
ATOM     10  C   UNL     1      19.955  71.782  15.806  1.00  0.00     0.223 A 
ENDROOT
BRANCH   1  11
ATOM     11  C   UNL     1      20.747  69.545  16.676  1.00  0.00     0.091 A 
ATOM     12  C   UNL     1      21.406  69.458  17.912  1.00  0.00     0.068 A 
ATOM     13  C   UNL     1      21.245  68.331  18.729  1.00  0.00     0.162 A 
ATOM     14  C   UNL     1      19.894  68.500  16.282  1.00  0.00     0.068 A 
ATOM     15  C   UNL     1      20.410  67.284  18.321  1.00  0.00     0.200 A 
ATOM     16  C   UNL     1      19.728  67.369  17.096  1.00  0.00     0.162 A 
BRANCH  13  17
ATOM     17  O   UNL     1      21.914  68.245  19.948  1.00  0.00    -0.504 OA
ATOM     18  H   UNL     1      21.900  69.006  20.617  1.00  0.00     0.293 HD
ENDBRANCH  13  17
BRANCH  15  19
ATOM     19  O   UNL     1      20.264  66.168  19.145  1.00  0.00    -0.502 OA
ATOM     20  H   UNL     1      19.358  65.759  19.345  1.00  0.00     0.293 HD
ENDBRANCH  15  19
BRANCH  16  21
ATOM     21  O   UNL     1      18.883  66.336  16.693  1.00  0.00    -0.504 OA
ATOM     22  H   UNL     1      19.172  65.365  16.742  1.00  0.00     0.293 HD
ENDBRANCH  16  21
ENDBRANCH   1  11
BRANCH  10  23
ATOM     23  O   UNL     1      18.764  71.675  16.526  1.00  0.00    -0.500 OA
ATOM     24  H   UNL     1      18.437  72.421  17.130  1.00  0.00     0.294 HD
ENDBRANCH  10  23
BRANCH   5  25
ATOM     25  O   UNL     1      24.939  73.006  12.017  1.00  0.00    -0.507 OA
ATOM     26  H   UNL     1      25.170  73.761  11.381  1.00  0.00     0.293 HD
ENDBRANCH   5  25
BRANCH   7  27
ATOM     27  O   UNL     1      20.849  75.212  13.280  1.00  0.00    -0.507 OA
ATOM     28  H   UNL     1      19.846  75.195  13.400  1.00  0.00     0.293 HD
ENDBRANCH   7  27
TORSDOF 7
ENDMDL
MODEL 9
REMARK VINA RESULT:    -3.997      4.030      6.094
REMARK INTER + INTRA:          -5.309
REMARK INTER:                  -4.978
REMARK INTRA:                  -0.331
REMARK UNBOUND:                -0.377
REMARK SMILES Oc1cc(O)c2cc(O)c(-c3cc(O)c(O)c(O)c3)[o+]c2c1.[Cl-]
REMARK SMILES IDX 10 1 20 2 21 3 22 4 2 5 3 6 4 7 6 8 7 9 8 10 11 11 12 12
REMARK SMILES IDX 13 13 19 14 15 15 17 16 14 17 16 19 18 21 9 23 1 25 5 27
REMARK H PARENT 14 18 16 20 18 22 9 24 1 26 5 28
REMARK Flexibility Score: inf
ROOT
ATOM      1  C   UNL     1      21.373  69.045  15.614  1.00  0.00     0.402 A 
ATOM      2  O   UNL     1      22.020  70.172  15.899  1.00  0.00    -0.202 OA
ATOM      3  C   UNL     1      22.057  71.219  15.081  1.00  0.00     0.368 A 
ATOM      4  C   UNL     1      22.761  72.361  15.470  1.00  0.00     0.162 A 
ATOM      5  C   UNL     1      22.815  73.476  14.633  1.00  0.00     0.128 A 
ATOM      6  C   UNL     1      22.159  73.452  13.398  1.00  0.00     0.093 A 
ATOM      7  C   UNL     1      21.446  72.319  12.984  1.00  0.00     0.136 A 
ATOM      8  C   UNL     1      21.392  71.182  13.832  1.00  0.00     0.125 A 
ATOM      9  C   UNL     1      20.712  70.000  13.496  1.00  0.00     0.078 A 
ATOM     10  C   UNL     1      20.707  68.918  14.381  1.00  0.00     0.223 A 
ENDROOT
BRANCH   1  11
ATOM     11  C   UNL     1      21.397  67.952  16.613  1.00  0.00     0.091 A 
ATOM     12  C   UNL     1      22.590  67.247  16.835  1.00  0.00     0.068 A 
ATOM     13  C   UNL     1      22.645  66.222  17.790  1.00  0.00     0.162 A 
ATOM     14  C   UNL     1      20.265  67.640  17.384  1.00  0.00     0.068 A 
ATOM     15  C   UNL     1      21.507  65.902  18.540  1.00  0.00     0.200 A 
ATOM     16  C   UNL     1      20.314  66.616  18.341  1.00  0.00     0.162 A 
BRANCH  13  17
ATOM     17  O   UNL     1      23.829  65.516  17.996  1.00  0.00    -0.504 OA
ATOM     18  H   UNL     1      24.609  65.588  17.354  1.00  0.00     0.293 HD
ENDBRANCH  13  17
BRANCH  15  19
ATOM     19  O   UNL     1      21.580  64.876  19.483  1.00  0.00    -0.502 OA
ATOM     20  H   UNL     1      22.062  64.989  20.368  1.00  0.00     0.293 HD
ENDBRANCH  15  19
BRANCH  16  21
ATOM     21  O   UNL     1      19.183  66.310  19.097  1.00  0.00    -0.504 OA
ATOM     22  H   UNL     1      19.089  65.422  19.577  1.00  0.00     0.293 HD
ENDBRANCH  16  21
ENDBRANCH   1  11
BRANCH  10  23
ATOM     23  O   UNL     1      20.075  67.726  14.026  1.00  0.00    -0.500 OA
ATOM     24  H   UNL     1      19.394  67.687  13.277  1.00  0.00     0.294 HD
ENDBRANCH  10  23
BRANCH   5  25
ATOM     25  O   UNL     1      23.523  74.604  15.038  1.00  0.00    -0.507 OA
ATOM     26  H   UNL     1      24.536  74.613  15.068  1.00  0.00     0.293 HD
ENDBRANCH   5  25
BRANCH   7  27
ATOM     27  O   UNL     1      20.815  72.374  11.739  1.00  0.00    -0.507 OA
ATOM     28  H   UNL     1      20.772  71.605  11.086  1.00  0.00     0.293 HD
ENDBRANCH   7  27
TORSDOF 7
ENDMDL
