MODEL 1
REMARK VINA RESULT:    -3.681      0.000      0.000
REMARK INTER + INTRA:          -4.785
REMARK INTER:                  -4.434
REMARK INTRA:                  -0.351
REMARK UNBOUND:                -0.351
REMARK SMILES NC(=O)C[C@H]([NH3+])C(=O)[O-]
REMARK SMILES IDX 4 1 5 2 6 3 7 7 8 8 9 9 2 10 3 11 1 12
REMARK H PARENT 6 4 6 5 6 6 1 13 1 14
REMARK Flexibility Score: inf
ROOT
ATOM      1  C   UNL     1     124.307 141.955 136.471  1.00  0.00     0.171 C 
ENDROOT
BRANCH   1   2
ATOM      2  C   UNL     1     125.138 141.738 137.751  1.00  0.00     0.237 C 
BRANCH   2   3
ATOM      3  N   UNL     1     126.195 142.749 137.886  1.00  0.00    -0.350 N 
ATOM      4  H   UNL     1     127.141 142.301 137.874  1.00  0.00     0.345 HD
ATOM      5  H   UNL     1     126.075 143.271 138.784  1.00  0.00     0.345 HD
ATOM      6  H   UNL     1     126.133 143.439 137.103  1.00  0.00     0.345 HD
ENDBRANCH   2   3
BRANCH   2   7
ATOM      7  C   UNL     1     125.736 140.355 137.743  1.00  0.00     0.100 C 
ATOM      8  O   UNL     1     124.994 139.337 137.769  1.00  0.00    -0.544 OA
ATOM      9  O   UNL     1     127.116 140.196 137.724  1.00  0.00    -0.544 OA
ENDBRANCH   2   7
ENDBRANCH   1   2
BRANCH   1  10
ATOM     10  C   UNL     1     125.182 142.105 135.261  1.00  0.00     0.223 C 
ATOM     11  O   UNL     1     125.910 143.125 135.134  1.00  0.00    -0.275 OA
ATOM     12  N   UNL     1     125.172 141.110 134.237  1.00  0.00    -0.369 N 
ATOM     13  H   UNL     1     125.772 141.221 133.389  1.00  0.00     0.159 HD
ATOM     14  H   UNL     1     124.566 140.265 134.321  1.00  0.00     0.159 HD
ENDBRANCH   1  10
TORSDOF 4
ENDMDL
MODEL 2
REMARK VINA RESULT:    -3.298     17.746     18.701
REMARK INTER + INTRA:          -4.324
REMARK INTER:                  -3.827
REMARK INTRA:                  -0.497
REMARK UNBOUND:                -0.351
REMARK SMILES NC(=O)C[C@H]([NH3+])C(=O)[O-]
REMARK SMILES IDX 4 1 5 2 6 3 7 7 8 8 9 9 2 10 3 11 1 12
REMARK H PARENT 6 4 6 5 6 6 1 13 1 14
REMARK Flexibility Score: inf
ROOT
ATOM      1  C   UNL     1     139.363 137.357 126.083  1.00  0.00     0.171 C 
ENDROOT
BRANCH   1   2
ATOM      2  C   UNL     1     138.575 137.845 124.851  1.00  0.00     0.237 C 
BRANCH   2   3
ATOM      3  N   UNL     1     137.244 137.226 124.783  1.00  0.00    -0.350 N 
ATOM      4  H   UNL     1     137.022 136.931 123.804  1.00  0.00     0.345 HD
ATOM      5  H   UNL     1     136.519 137.906 125.109  1.00  0.00     0.345 HD
ATOM      6  H   UNL     1     137.204 136.391 125.411  1.00  0.00     0.345 HD
ENDBRANCH   2   3
BRANCH   2   7
ATOM      7  C   UNL     1     139.353 137.548 123.596  1.00  0.00     0.100 C 
ATOM      8  O   UNL     1     140.090 138.428 123.078  1.00  0.00    -0.544 OA
ATOM      9  O   UNL     1     139.246 136.302 122.992  1.00  0.00    -0.544 OA
ENDBRANCH   2   7
ENDBRANCH   1   2
BRANCH   1  10
ATOM     10  C   UNL     1     138.985 135.955 126.464  1.00  0.00     0.223 C 
ATOM     11  O   UNL     1     138.129 135.759 127.367  1.00  0.00    -0.275 OA
ATOM     12  N   UNL     1     139.612 134.841 125.828  1.00  0.00    -0.369 N 
ATOM     13  H   UNL     1     139.357 133.866 126.102  1.00  0.00     0.159 HD
ATOM     14  H   UNL     1     140.331 134.988 125.086  1.00  0.00     0.159 HD
ENDBRANCH   1  10
TORSDOF 4
ENDMDL
MODEL 3
REMARK VINA RESULT:    -3.292     20.153     20.914
REMARK INTER + INTRA:          -4.316
REMARK INTER:                  -3.831
REMARK INTRA:                  -0.485
REMARK UNBOUND:                -0.351
REMARK SMILES NC(=O)C[C@H]([NH3+])C(=O)[O-]
REMARK SMILES IDX 4 1 5 2 6 3 7 7 8 8 9 9 2 10 3 11 1 12
REMARK H PARENT 6 4 6 5 6 6 1 13 1 14
REMARK Flexibility Score: inf
ROOT
ATOM      1  C   UNL     1     133.770 125.591 126.099  1.00  0.00     0.171 C 
ENDROOT
BRANCH   1   2
ATOM      2  C   UNL     1     134.615 126.062 124.898  1.00  0.00     0.237 C 
BRANCH   2   3
ATOM      3  N   UNL     1     134.798 127.520 124.906  1.00  0.00    -0.350 N 
ATOM      4  H   UNL     1     135.725 127.779 124.495  1.00  0.00     0.345 HD
ATOM      5  H   UNL     1     134.745 127.879 125.887  1.00  0.00     0.345 HD
ATOM      6  H   UNL     1     134.038 127.979 124.354  1.00  0.00     0.345 HD
ENDBRANCH   2   3
BRANCH   2   7
ATOM      7  C   UNL     1     133.962 125.625 123.612  1.00  0.00     0.100 C 
ATOM      8  O   UNL     1     134.271 124.525 123.081  1.00  0.00    -0.544 OA
ATOM      9  O   UNL     1     133.027 126.446 122.995  1.00  0.00    -0.544 OA
ENDBRANCH   2   7
ENDBRANCH   1   2
BRANCH   1  10
ATOM     10  C   UNL     1     132.740 126.612 126.486  1.00  0.00     0.223 C 
ATOM     11  O   UNL     1     132.978 127.421 127.421  1.00  0.00    -0.275 OA
ATOM     12  N   UNL     1     131.478 126.652 125.819  1.00  0.00    -0.369 N 
ATOM     13  H   UNL     1     130.757 127.354 126.098  1.00  0.00     0.159 HD
ATOM     14  H   UNL     1     131.261 125.980 125.050  1.00  0.00     0.159 HD
ENDBRANCH   1  10
TORSDOF 4
ENDMDL
MODEL 4
REMARK VINA RESULT:    -3.274     11.950     13.255
REMARK INTER + INTRA:          -4.295
REMARK INTER:                  -3.797
REMARK INTRA:                  -0.498
REMARK UNBOUND:                -0.351
REMARK SMILES NC(=O)C[C@H]([NH3+])C(=O)[O-]
REMARK SMILES IDX 4 1 5 2 6 3 7 7 8 8 9 9 2 10 3 11 1 12
REMARK H PARENT 6 4 6 5 6 6 1 13 1 14
REMARK Flexibility Score: inf
ROOT
ATOM      1  C   UNL     1     126.406 136.364 126.110  1.00  0.00     0.171 C 
ENDROOT
BRANCH   1   2
ATOM      2  C   UNL     1     126.351 135.384 124.921  1.00  0.00     0.237 C 
BRANCH   2   3
ATOM      3  N   UNL     1     127.518 134.491 124.904  1.00  0.00    -0.350 N 
ATOM      4  H   UNL     1     128.404 135.041 124.815  1.00  0.00     0.345 HD
ATOM      5  H   UNL     1     127.445 133.827 124.099  1.00  0.00     0.345 HD
ATOM      6  H   UNL     1     127.550 133.926 125.783  1.00  0.00     0.345 HD
ENDBRANCH   2   3
BRANCH   2   7
ATOM      7  C   UNL     1     126.263 136.152 123.629  1.00  0.00     0.100 C 
ATOM      8  O   UNL     1     125.144 136.375 123.093  1.00  0.00    -0.544 OA
ATOM      9  O   UNL     1     127.421 136.604 123.010  1.00  0.00    -0.544 OA
ENDBRANCH   2   7
ENDBRANCH   1   2
BRANCH   1  10
ATOM     10  C   UNL     1     127.819 136.729 126.462  1.00  0.00     0.223 C 
ATOM     11  O   UNL     1     128.435 136.078 127.346  1.00  0.00    -0.275 OA
ATOM     12  N   UNL     1     128.460 137.831 125.818  1.00  0.00    -0.369 N 
ATOM     13  H   UNL     1     129.439 138.092 126.073  1.00  0.00     0.159 HD
ATOM     14  H   UNL     1     127.960 138.388 125.091  1.00  0.00     0.159 HD
ENDBRANCH   1  10
TORSDOF 4
ENDMDL
MODEL 5
REMARK VINA RESULT:    -3.192     13.610     14.666
REMARK INTER + INTRA:          -4.195
REMARK INTER:                  -3.681
REMARK INTRA:                  -0.515
REMARK UNBOUND:                -0.351
REMARK SMILES NC(=O)C[C@H]([NH3+])C(=O)[O-]
REMARK SMILES IDX 4 1 5 2 6 3 7 7 8 8 9 9 2 10 3 11 1 12
REMARK H PARENT 6 4 6 5 6 6 1 13 1 14
REMARK Flexibility Score: inf
ROOT
ATOM      1  C   UNL     1     125.693 134.641 123.049  1.00  0.00     0.171 C 
ENDROOT
BRANCH   1   2
ATOM      2  C   UNL     1     126.079 135.982 123.705  1.00  0.00     0.237 C 
BRANCH   2   3
ATOM      3  N   UNL     1     127.248 136.585 123.050  1.00  0.00    -0.350 N 
ATOM      4  H   UNL     1     127.696 135.906 122.392  1.00  0.00     0.345 HD
ATOM      5  H   UNL     1     127.948 136.876 123.771  1.00  0.00     0.345 HD
ATOM      6  H   UNL     1     126.960 137.439 122.520  1.00  0.00     0.345 HD
ENDBRANCH   2   3
BRANCH   2   7
ATOM      7  C   UNL     1     126.352 135.774 125.171  1.00  0.00     0.100 C 
ATOM      8  O   UNL     1     125.652 136.358 126.041  1.00  0.00    -0.544 OA
ATOM      9  O   UNL     1     127.393 134.947 125.573  1.00  0.00    -0.544 OA
ENDBRANCH   2   7
ENDBRANCH   1   2
BRANCH   1  10
ATOM     10  C   UNL     1     126.855 134.021 122.329  1.00  0.00     0.223 C 
ATOM     11  O   UNL     1     127.054 134.285 121.114  1.00  0.00    -0.275 OA
ATOM     12  N   UNL     1     127.721 133.110 123.006  1.00  0.00    -0.369 N 
ATOM     13  H   UNL     1     128.521 132.669 122.501  1.00  0.00     0.159 HD
ATOM     14  H   UNL     1     127.562 132.872 124.010  1.00  0.00     0.159 HD
ENDBRANCH   1  10
TORSDOF 4
ENDMDL
MODEL 6
REMARK VINA RESULT:    -3.188     21.168     21.852
REMARK INTER + INTRA:          -4.190
REMARK INTER:                  -3.673
REMARK INTRA:                  -0.517
REMARK UNBOUND:                -0.351
REMARK SMILES NC(=O)C[C@H]([NH3+])C(=O)[O-]
REMARK SMILES IDX 4 1 5 2 6 3 7 7 8 8 9 9 2 10 3 11 1 12
REMARK H PARENT 6 4 6 5 6 6 1 13 1 14
REMARK Flexibility Score: inf
ROOT
ATOM      1  C   UNL     1     135.461 125.838 123.087  1.00  0.00     0.171 C 
ENDROOT
BRANCH   1   2
ATOM      2  C   UNL     1     134.098 125.534 123.740  1.00  0.00     0.237 C 
BRANCH   2   3
ATOM      3  N   UNL     1     133.011 126.282 123.093  1.00  0.00    -0.350 N 
ATOM      4  H   UNL     1     133.360 127.196 122.723  1.00  0.00     0.345 HD
ATOM      5  H   UNL     1     132.244 126.461 123.782  1.00  0.00     0.345 HD
ATOM      6  H   UNL     1     132.610 125.723 122.306  1.00  0.00     0.345 HD
ENDBRANCH   2   3
BRANCH   2   7
ATOM      7  C   UNL     1     134.151 125.858 125.210  1.00  0.00     0.100 C 
ATOM      8  O   UNL     1     134.069 124.941 126.070  1.00  0.00    -0.544 OA
ATOM      9  O   UNL     1     134.274 127.178 125.625  1.00  0.00    -0.544 OA
ENDBRANCH   2   7
ENDBRANCH   1   2
BRANCH   1  10
ATOM     10  C   UNL     1     135.459 127.169 122.395  1.00  0.00     0.223 C 
ATOM     11  O   UNL     1     135.144 127.245 121.178  1.00  0.00    -0.275 OA
ATOM     12  N   UNL     1     135.841 128.350 123.101  1.00  0.00    -0.369 N 
ATOM     13  H   UNL     1     135.853 129.274 122.615  1.00  0.00     0.159 HD
ATOM     14  H   UNL     1     136.116 128.302 124.107  1.00  0.00     0.159 HD
ENDBRANCH   1  10
TORSDOF 4
ENDMDL
MODEL 7
REMARK VINA RESULT:    -3.187     17.761     18.644
REMARK INTER + INTRA:          -4.190
REMARK INTER:                  -3.671
REMARK INTRA:                  -0.519
REMARK UNBOUND:                -0.351
REMARK SMILES NC(=O)C[C@H]([NH3+])C(=O)[O-]
REMARK SMILES IDX 4 1 5 2 6 3 7 7 8 8 9 9 2 10 3 11 1 12
REMARK H PARENT 6 4 6 5 6 6 1 13 1 14
REMARK Flexibility Score: inf
ROOT
ATOM      1  C   UNL     1     138.291 138.762 123.033  1.00  0.00     0.171 C 
ENDROOT
BRANCH   1   2
ATOM      2  C   UNL     1     139.241 137.734 123.679  1.00  0.00     0.237 C 
BRANCH   2   3
ATOM      3  N   UNL     1     139.143 136.423 123.023  1.00  0.00    -0.350 N 
ATOM      4  H   UNL     1     138.863 136.530 122.020  1.00  0.00     0.345 HD
ATOM      5  H   UNL     1     138.435 135.831 123.516  1.00  0.00     0.345 HD
ATOM      6  H   UNL     1     140.063 135.928 123.071  1.00  0.00     0.345 HD
ENDBRANCH   2   3
BRANCH   2   7
ATOM      7  C   UNL     1     138.932 137.606 125.148  1.00  0.00     0.100 C 
ATOM      8  O   UNL     1     139.769 137.984 126.012  1.00  0.00    -0.544 OA
ATOM      9  O   UNL     1     137.727 137.051 125.559  1.00  0.00    -0.544 OA
ENDBRANCH   2   7
ENDBRANCH   1   2
BRANCH   1  10
ATOM     10  C   UNL     1     137.142 138.094 122.336  1.00  0.00     0.223 C 
ATOM     11  O   UNL     1     137.234 137.796 121.116  1.00  0.00    -0.275 OA
ATOM     12  N   UNL     1     135.931 137.820 123.042  1.00  0.00    -0.369 N 
ATOM     13  H   UNL     1     135.127 137.366 122.553  1.00  0.00     0.159 HD
ATOM     14  H   UNL     1     135.834 138.071 124.050  1.00  0.00     0.159 HD
ENDBRANCH   1  10
TORSDOF 4
ENDMDL
MODEL 8
REMARK VINA RESULT:    -3.136     14.285     15.421
REMARK INTER + INTRA:          -4.128
REMARK INTER:                  -3.642
REMARK INTRA:                  -0.486
REMARK UNBOUND:                -0.351
REMARK SMILES NC(=O)C[C@H]([NH3+])C(=O)[O-]
REMARK SMILES IDX 4 1 5 2 6 3 7 7 8 8 9 9 2 10 3 11 1 12
REMARK H PARENT 6 4 6 5 6 6 1 13 1 14
REMARK Flexibility Score: inf
ROOT
ATOM      1  C   UNL     1     125.912 135.880 123.073  1.00  0.00     0.171 C 
ENDROOT
BRANCH   1   2
ATOM      2  C   UNL     1     126.077 134.348 123.064  1.00  0.00     0.237 C 
BRANCH   2   3
ATOM      3  N   UNL     1     126.945 133.892 124.159  1.00  0.00    -0.350 N 
ATOM      4  H   UNL     1     127.100 132.859 124.104  1.00  0.00     0.345 HD
ATOM      5  H   UNL     1     126.508 134.125 125.080  1.00  0.00     0.345 HD
ATOM      6  H   UNL     1     127.868 134.381 124.110  1.00  0.00     0.345 HD
ENDBRANCH   2   3
BRANCH   2   7
ATOM      7  C   UNL     1     126.633 133.901 121.737  1.00  0.00     0.100 C 
ATOM      8  O   UNL     1     126.264 132.811 121.224  1.00  0.00    -0.544 OA
ATOM      9  O   UNL     1     127.572 134.685 121.079  1.00  0.00    -0.544 OA
ENDBRANCH   2   7
ENDBRANCH   1   2
BRANCH   1  10
ATOM     10  C   UNL     1     127.029 136.554 123.814  1.00  0.00     0.223 C 
ATOM     11  O   UNL     1     126.967 136.681 125.066  1.00  0.00    -0.275 OA
ATOM     12  N   UNL     1     128.152 137.079 123.105  1.00  0.00    -0.369 N 
ATOM     13  H   UNL     1     128.923 137.559 123.620  1.00  0.00     0.159 HD
ATOM     14  H   UNL     1     128.213 136.992 122.067  1.00  0.00     0.159 HD
ENDBRANCH   1  10
TORSDOF 4
ENDMDL
MODEL 9
REMARK VINA RESULT:    -3.116     18.528     19.046
REMARK INTER + INTRA:          -4.105
REMARK INTER:                  -3.832
REMARK INTRA:                  -0.273
REMARK UNBOUND:                -0.351
REMARK SMILES NC(=O)C[C@H]([NH3+])C(=O)[O-]
REMARK SMILES IDX 4 1 5 2 6 3 7 7 8 8 9 9 2 10 3 11 1 12
REMARK H PARENT 6 4 6 5 6 6 1 13 1 14
REMARK Flexibility Score: inf
ROOT
ATOM      1  C   UNL     1     139.288 137.713 123.361  1.00  0.00     0.171 C 
ENDROOT
BRANCH   1   2
ATOM      2  C   UNL     1     138.919 137.072 124.714  1.00  0.00     0.237 C 
BRANCH   2   3
ATOM      3  N   UNL     1     139.537 137.789 125.837  1.00  0.00    -0.350 N 
ATOM      4  H   UNL     1     140.165 137.154 126.383  1.00  0.00     0.345 HD
ATOM      5  H   UNL     1     138.795 138.165 126.471  1.00  0.00     0.345 HD
ATOM      6  H   UNL     1     140.094 138.599 125.482  1.00  0.00     0.345 HD
ENDBRANCH   2   3
BRANCH   2   7
ATOM      7  C   UNL     1     139.338 135.625 124.725  1.00  0.00     0.100 C 
ATOM      8  O   UNL     1     139.663 135.062 125.805  1.00  0.00    -0.544 OA
ATOM      9  O   UNL     1     139.386 134.907 123.537  1.00  0.00    -0.544 OA
ENDBRANCH   2   7
ENDBRANCH   1   2
BRANCH   1  10
ATOM     10  C   UNL     1     138.082 137.901 122.489  1.00  0.00     0.223 C 
ATOM     11  O   UNL     1     137.549 139.038 122.390  1.00  0.00    -0.275 OA
ATOM     12  N   UNL     1     137.516 136.792 121.791  1.00  0.00    -0.369 N 
ATOM     13  H   UNL     1     136.669 136.921 121.194  1.00  0.00     0.159 HD
ATOM     14  H   UNL     1     137.938 135.840 121.872  1.00  0.00     0.159 HD
ENDBRANCH   1  10
TORSDOF 4
ENDMDL
