MODEL 1
REMARK VINA RESULT:    -4.558      0.000      0.000
REMARK INTER + INTRA:          -4.558
REMARK INTER:                  -4.558
REMARK INTRA:                   0.000
REMARK UNBOUND:                 0.000
REMARK SMILES c1ccc2ccccc2c1
REMARK SMILES IDX 2 1 1 2 10 3 9 4 8 5 7 6 6 7 5 8 4 9 3 10
REMARK H PARENT
REMARK Flexibility Score: inf
ROOT
ATOM      1  C   UNL     1      -9.508  12.554  -2.214  1.00  0.00     0.001 A 
ATOM      2  C   UNL     1      -9.468  13.479  -1.167  1.00  0.00     0.001 A 
ATOM      3  C   UNL     1      -8.298  14.197  -0.905  1.00  0.00     0.009 A 
ATOM      4  C   UNL     1      -7.155  13.992  -1.693  1.00  0.00    -0.018 A 
ATOM      5  C   UNL     1      -5.973  14.706  -1.440  1.00  0.00     0.009 A 
ATOM      6  C   UNL     1      -4.842  14.493  -2.234  1.00  0.00     0.001 A 
ATOM      7  C   UNL     1      -4.881  13.568  -3.281  1.00  0.00     0.001 A 
ATOM      8  C   UNL     1      -6.052  12.850  -3.543  1.00  0.00     0.009 A 
ATOM      9  C   UNL     1      -7.194  13.055  -2.755  1.00  0.00    -0.018 A 
ATOM     10  C   UNL     1      -8.376  12.341  -3.008  1.00  0.00     0.009 A 
ENDROOT
TORSDOF 0
ENDMDL
MODEL 2
REMARK VINA RESULT:    -4.549      1.608      2.132
REMARK INTER + INTRA:          -4.549
REMARK INTER:                  -4.549
REMARK INTRA:                   0.000
REMARK UNBOUND:                 0.000
REMARK SMILES c1ccc2ccccc2c1
REMARK SMILES IDX 2 1 1 2 10 3 9 4 8 5 7 6 6 7 5 8 4 9 3 10
REMARK H PARENT
REMARK Flexibility Score: inf
ROOT
ATOM      1  C   UNL     1      -9.762  13.802   0.331  1.00  0.00     0.001 A 
ATOM      2  C   UNL     1      -8.966  13.779   1.480  1.00  0.00     0.001 A 
ATOM      3  C   UNL     1      -7.574  13.707   1.371  1.00  0.00     0.009 A 
ATOM      4  C   UNL     1      -6.969  13.657   0.106  1.00  0.00    -0.018 A 
ATOM      5  C   UNL     1      -5.573  13.583  -0.018  1.00  0.00     0.009 A 
ATOM      6  C   UNL     1      -4.982  13.535  -1.284  1.00  0.00     0.001 A 
ATOM      7  C   UNL     1      -5.779  13.558  -2.433  1.00  0.00     0.001 A 
ATOM      8  C   UNL     1      -7.170  13.630  -2.324  1.00  0.00     0.009 A 
ATOM      9  C   UNL     1      -7.776  13.680  -1.059  1.00  0.00    -0.018 A 
ATOM     10  C   UNL     1      -9.172  13.754  -0.935  1.00  0.00     0.009 A 
ENDROOT
TORSDOF 0
ENDMDL
MODEL 3
REMARK VINA RESULT:    -4.530      1.640      3.929
REMARK INTER + INTRA:          -4.530
REMARK INTER:                  -4.530
REMARK INTRA:                   0.000
REMARK UNBOUND:                 0.000
REMARK SMILES c1ccc2ccccc2c1
REMARK SMILES IDX 2 1 1 2 10 3 9 4 8 5 7 6 6 7 5 8 4 9 3 10
REMARK H PARENT
REMARK Flexibility Score: inf
ROOT
ATOM      1  C   UNL     1      -5.851  13.580  -2.351  1.00  0.00     0.001 A 
ATOM      2  C   UNL     1      -5.062  13.568  -1.197  1.00  0.00     0.001 A 
ATOM      3  C   UNL     1      -5.659  13.627   0.065  1.00  0.00     0.009 A 
ATOM      4  C   UNL     1      -7.055  13.698   0.181  1.00  0.00    -0.018 A 
ATOM      5  C   UNL     1      -7.667  13.759   1.443  1.00  0.00     0.009 A 
ATOM      6  C   UNL     1      -9.059  13.830   1.545  1.00  0.00     0.001 A 
ATOM      7  C   UNL     1      -9.849  13.842   0.391  1.00  0.00     0.001 A 
ATOM      8  C   UNL     1      -9.252  13.783  -0.872  1.00  0.00     0.009 A 
ATOM      9  C   UNL     1      -7.856  13.711  -0.988  1.00  0.00    -0.018 A 
ATOM     10  C   UNL     1      -7.244  13.650  -2.249  1.00  0.00     0.009 A 
ENDROOT
TORSDOF 0
ENDMDL
MODEL 4
REMARK VINA RESULT:    -4.509      1.660      2.767
REMARK INTER + INTRA:          -4.509
REMARK INTER:                  -4.509
REMARK INTRA:                   0.000
REMARK UNBOUND:                 0.000
REMARK SMILES c1ccc2ccccc2c1
REMARK SMILES IDX 2 1 1 2 10 3 9 4 8 5 7 6 6 7 5 8 4 9 3 10
REMARK H PARENT
REMARK Flexibility Score: inf
ROOT
ATOM      1  C   UNL     1      -9.026  13.811   1.595  1.00  0.00     0.001 A 
ATOM      2  C   UNL     1      -9.817  13.867   0.444  1.00  0.00     0.001 A 
ATOM      3  C   UNL     1      -9.223  13.849  -0.821  1.00  0.00     0.009 A 
ATOM      4  C   UNL     1      -7.828  13.774  -0.942  1.00  0.00    -0.018 A 
ATOM      5  C   UNL     1      -7.218  13.755  -2.206  1.00  0.00     0.009 A 
ATOM      6  C   UNL     1      -5.826  13.679  -2.313  1.00  0.00     0.001 A 
ATOM      7  C   UNL     1      -5.035  13.623  -1.163  1.00  0.00     0.001 A 
ATOM      8  C   UNL     1      -5.629  13.641   0.103  1.00  0.00     0.009 A 
ATOM      9  C   UNL     1      -7.024  13.717   0.224  1.00  0.00    -0.018 A 
ATOM     10  C   UNL     1      -7.634  13.735   1.488  1.00  0.00     0.009 A 
ENDROOT
TORSDOF 0
ENDMDL
MODEL 5
REMARK VINA RESULT:    -4.466      1.609      4.306
REMARK INTER + INTRA:          -4.466
REMARK INTER:                  -4.466
REMARK INTRA:                   0.000
REMARK UNBOUND:                 0.000
REMARK SMILES c1ccc2ccccc2c1
REMARK SMILES IDX 2 1 1 2 10 3 9 4 8 5 7 6 6 7 5 8 4 9 3 10
REMARK H PARENT
REMARK Flexibility Score: inf
ROOT
ATOM      1  C   UNL     1      -5.027  13.831  -1.074  1.00  0.00     0.001 A 
ATOM      2  C   UNL     1      -5.775  13.824  -2.255  1.00  0.00     0.001 A 
ATOM      3  C   UNL     1      -7.172  13.799  -2.203  1.00  0.00     0.009 A 
ATOM      4  C   UNL     1      -7.830  13.781  -0.964  1.00  0.00    -0.018 A 
ATOM      5  C   UNL     1      -9.232  13.755  -0.898  1.00  0.00     0.009 A 
ATOM      6  C   UNL     1      -9.876  13.739   0.343  1.00  0.00     0.001 A 
ATOM      7  C   UNL     1      -9.127  13.746   1.523  1.00  0.00     0.001 A 
ATOM      8  C   UNL     1      -7.731  13.771   1.472  1.00  0.00     0.009 A 
ATOM      9  C   UNL     1      -7.072  13.788   0.233  1.00  0.00    -0.018 A 
ATOM     10  C   UNL     1      -5.670  13.815   0.167  1.00  0.00     0.009 A 
ENDROOT
TORSDOF 0
ENDMDL
MODEL 6
REMARK VINA RESULT:    -4.445      0.272      2.090
REMARK INTER + INTRA:          -4.445
REMARK INTER:                  -4.445
REMARK INTRA:                   0.000
REMARK UNBOUND:                 0.000
REMARK SMILES c1ccc2ccccc2c1
REMARK SMILES IDX 2 1 1 2 10 3 9 4 8 5 7 6 6 7 5 8 4 9 3 10
REMARK H PARENT
REMARK Flexibility Score: inf
ROOT
ATOM      1  C   UNL     1      -9.351  13.685  -0.992  1.00  0.00     0.001 A 
ATOM      2  C   UNL     1      -9.556  12.711  -1.974  1.00  0.00     0.001 A 
ATOM      3  C   UNL     1      -8.528  12.376  -2.860  1.00  0.00     0.009 A 
ATOM      4  C   UNL     1      -7.284  13.017  -2.768  1.00  0.00    -0.018 A 
ATOM      5  C   UNL     1      -6.243  12.690  -3.652  1.00  0.00     0.009 A 
ATOM      6  C   UNL     1      -5.007  13.336  -3.549  1.00  0.00     0.001 A 
ATOM      7  C   UNL     1      -4.802  14.310  -2.568  1.00  0.00     0.001 A 
ATOM      8  C   UNL     1      -5.830  14.645  -1.682  1.00  0.00     0.009 A 
ATOM      9  C   UNL     1      -7.074  14.004  -1.774  1.00  0.00    -0.018 A 
ATOM     10  C   UNL     1      -8.115  14.331  -0.890  1.00  0.00     0.009 A 
ENDROOT
TORSDOF 0
ENDMDL
MODEL 7
REMARK VINA RESULT:    -4.006      7.213      7.838
REMARK INTER + INTRA:          -4.006
REMARK INTER:                  -4.006
REMARK INTRA:                   0.000
REMARK UNBOUND:                 0.000
REMARK SMILES c1ccc2ccccc2c1
REMARK SMILES IDX 2 1 1 2 10 3 9 4 8 5 7 6 6 7 5 8 4 9 3 10
REMARK H PARENT
REMARK Flexibility Score: inf
ROOT
ATOM      1  C   UNL     1      -8.407  16.812  -8.952  1.00  0.00     0.001 A 
ATOM      2  C   UNL     1      -9.508  17.323  -8.259  1.00  0.00     0.001 A 
ATOM      3  C   UNL     1     -10.583  16.491  -7.933  1.00  0.00     0.009 A 
ATOM      4  C   UNL     1     -10.561  15.137  -8.299  1.00  0.00    -0.018 A 
ATOM      5  C   UNL     1     -11.635  14.291  -7.979  1.00  0.00     0.009 A 
ATOM      6  C   UNL     1     -11.600  12.943  -8.349  1.00  0.00     0.001 A 
ATOM      7  C   UNL     1     -10.499  12.432  -9.042  1.00  0.00     0.001 A 
ATOM      8  C   UNL     1      -9.424  13.264  -9.368  1.00  0.00     0.009 A 
ATOM      9  C   UNL     1      -9.446  14.618  -9.002  1.00  0.00    -0.018 A 
ATOM     10  C   UNL     1      -8.372  15.464  -9.322  1.00  0.00     0.009 A 
ENDROOT
TORSDOF 0
ENDMDL
MODEL 8
REMARK VINA RESULT:    -4.005      7.220      7.541
REMARK INTER + INTRA:          -4.005
REMARK INTER:                  -4.005
REMARK INTRA:                   0.000
REMARK UNBOUND:                 0.000
REMARK SMILES c1ccc2ccccc2c1
REMARK SMILES IDX 2 1 1 2 10 3 9 4 8 5 7 6 6 7 5 8 4 9 3 10
REMARK H PARENT
REMARK Flexibility Score: inf
ROOT
ATOM      1  C   UNL     1     -11.592  12.986  -8.329  1.00  0.00     0.001 A 
ATOM      2  C   UNL     1     -10.499  12.433  -9.001  1.00  0.00     0.001 A 
ATOM      3  C   UNL     1      -9.405  13.234  -9.344  1.00  0.00     0.009 A 
ATOM      4  C   UNL     1      -9.399  14.597  -9.013  1.00  0.00    -0.018 A 
ATOM      5  C   UNL     1      -8.308  15.412  -9.352  1.00  0.00     0.009 A 
ATOM      6  C   UNL     1      -8.315  16.769  -9.016  1.00  0.00     0.001 A 
ATOM      7  C   UNL     1      -9.409  17.322  -8.343  1.00  0.00     0.001 A 
ATOM      8  C   UNL     1     -10.502  16.521  -8.001  1.00  0.00     0.009 A 
ATOM      9  C   UNL     1     -10.508  15.158  -8.331  1.00  0.00    -0.018 A 
ATOM     10  C   UNL     1     -11.599  14.343  -7.993  1.00  0.00     0.009 A 
ENDROOT
TORSDOF 0
ENDMDL
MODEL 9
REMARK VINA RESULT:    -3.994      7.229      8.005
REMARK INTER + INTRA:          -3.994
REMARK INTER:                  -3.994
REMARK INTRA:                   0.000
REMARK UNBOUND:                 0.000
REMARK SMILES c1ccc2ccccc2c1
REMARK SMILES IDX 2 1 1 2 10 3 9 4 8 5 7 6 6 7 5 8 4 9 3 10
REMARK H PARENT
REMARK Flexibility Score: inf
ROOT
ATOM      1  C   UNL     1      -9.521  17.295  -8.272  1.00  0.00     0.001 A 
ATOM      2  C   UNL     1      -8.398  16.806  -8.946  1.00  0.00     0.001 A 
ATOM      3  C   UNL     1      -8.334  15.462  -9.326  1.00  0.00     0.009 A 
ATOM      4  C   UNL     1      -9.398  14.596  -9.032  1.00  0.00    -0.018 A 
ATOM      5  C   UNL     1      -9.345  13.244  -9.407  1.00  0.00     0.009 A 
ATOM      6  C   UNL     1     -10.413  12.392  -9.109  1.00  0.00     0.001 A 
ATOM      7  C   UNL     1     -11.536  12.881  -8.436  1.00  0.00     0.001 A 
ATOM      8  C   UNL     1     -11.600  14.224  -8.056  1.00  0.00     0.009 A 
ATOM      9  C   UNL     1     -10.536  15.091  -8.349  1.00  0.00    -0.018 A 
ATOM     10  C   UNL     1     -10.588  16.442  -7.974  1.00  0.00     0.009 A 
ENDROOT
TORSDOF 0
ENDMDL
