MODEL 1
REMARK VINA RESULT:    -3.675      0.000      0.000
REMARK INTER + INTRA:          -9.010
REMARK INTER:                  -7.971
REMARK INTRA:                  -1.039
REMARK UNBOUND:                -1.039
REMARK SMILES CCCCCCCCCCCCCCCCCCCCCC(=O)[O-]
REMARK SMILES IDX 12 1 11 2 10 3 9 4 8 5 7 6 6 7 5 8 4 9 3 10 2 11 1 12 13 13
REMARK SMILES IDX 14 14 15 15 16 16 17 17 18 18 19 19 20 20 21 21 22 22 23 23
REMARK SMILES IDX 24 24
REMARK H PARENT
REMARK Flexibility Score: inf
ROOT
ATOM      1  C   UNL     1      -3.222  25.358  25.465  1.00  0.00     0.000 C 
ENDROOT
BRANCH   1   2
ATOM      2  C   UNL     1      -4.060  24.475  26.404  1.00  0.00     0.000 C 
BRANCH   2   3
ATOM      3  C   UNL     1      -5.003  23.483  25.695  1.00  0.00     0.000 C 
BRANCH   3   4
ATOM      4  C   UNL     1      -6.120  22.925  26.602  1.00  0.00    -0.000 C 
BRANCH   4   5
ATOM      5  C   UNL     1      -7.519  23.400  26.173  1.00  0.00    -0.000 C 
BRANCH   5   6
ATOM      6  C   UNL     1      -8.641  22.525  26.756  1.00  0.00    -0.000 C 
BRANCH   6   7
ATOM      7  C   UNL     1      -9.711  22.168  25.710  1.00  0.00    -0.000 C 
BRANCH   7   8
ATOM      8  C   UNL     1      -9.621  23.039  24.445  1.00  0.00    -0.000 C 
BRANCH   8   9
ATOM      9  C   UNL     1     -10.967  23.286  23.728  1.00  0.00    -0.000 C 
BRANCH   9  10
ATOM     10  C   UNL     1     -10.864  23.605  22.221  1.00  0.00    -0.000 C 
BRANCH  10  11
ATOM     11  C   UNL     1     -12.215  23.708  21.490  1.00  0.00    -0.003 C 
ATOM     12  C   UNL     1     -12.134  23.251  20.034  1.00  0.00     0.004 C 
ENDBRANCH  10  11
ENDBRANCH   9  10
ENDBRANCH   8   9
ENDBRANCH   7   8
ENDBRANCH   6   7
ENDBRANCH   5   6
ENDBRANCH   4   5
ENDBRANCH   3   4
ENDBRANCH   2   3
ENDBRANCH   1   2
BRANCH   1  13
ATOM     13  C   UNL     1      -3.156  26.821  25.927  1.00  0.00     0.000 C 
BRANCH  13  14
ATOM     14  C   UNL     1      -2.145  27.621  25.095  1.00  0.00     0.000 C 
BRANCH  14  15
ATOM     15  C   UNL     1      -0.820  27.780  25.853  1.00  0.00     0.000 C 
BRANCH  15  16
ATOM     16  C   UNL     1       0.376  27.171  25.105  1.00  0.00     0.000 C 
BRANCH  16  17
ATOM     17  C   UNL     1      -0.029  26.566  23.749  1.00  0.00     0.000 C 
BRANCH  17  18
ATOM     18  C   UNL     1       0.255  25.055  23.651  1.00  0.00     0.000 C 
BRANCH  18  19
ATOM     19  C   UNL     1       1.576  24.677  22.951  1.00  0.00     0.000 C 
BRANCH  19  20
ATOM     20  C   UNL     1       1.436  24.555  21.423  1.00  0.00     0.006 C 
BRANCH  20  21
ATOM     21  C   UNL     1       1.568  23.102  20.941  1.00  0.00     0.053 C 
BRANCH  21  22
ATOM     22  C   UNL     1       0.262  22.366  20.996  1.00  0.00     0.041 C 
ATOM     23  O   UNL     1      -0.325  22.030  19.931  1.00  0.00    -0.550 OA
ATOM     24  O   UNL     1      -0.295  22.034  22.226  1.00  0.00    -0.550 OA
ENDBRANCH  21  22
ENDBRANCH  20  21
ENDBRANCH  19  20
ENDBRANCH  18  19
ENDBRANCH  17  18
ENDBRANCH  16  17
ENDBRANCH  15  16
ENDBRANCH  14  15
ENDBRANCH  13  14
ENDBRANCH   1  13
TORSDOF 20
ENDMDL
MODEL 2
REMARK VINA RESULT:    -3.509      1.083      1.641
REMARK INTER + INTRA:          -8.650
REMARK INTER:                  -7.641
REMARK INTRA:                  -1.009
REMARK UNBOUND:                -1.039
REMARK SMILES CCCCCCCCCCCCCCCCCCCCCC(=O)[O-]
REMARK SMILES IDX 12 1 11 2 10 3 9 4 8 5 7 6 6 7 5 8 4 9 3 10 2 11 1 12 13 13
REMARK SMILES IDX 14 14 15 15 16 16 17 17 18 18 19 19 20 20 21 21 22 22 23 23
REMARK SMILES IDX 24 24
REMARK H PARENT
REMARK Flexibility Score: inf
ROOT
ATOM      1  C   UNL     1      -3.347  26.832  25.932  1.00  0.00     0.000 C 
ENDROOT
BRANCH   1   2
ATOM      2  C   UNL     1      -3.551  25.370  25.499  1.00  0.00     0.000 C 
BRANCH   2   3
ATOM      3  C   UNL     1      -3.843  24.387  26.650  1.00  0.00     0.000 C 
BRANCH   3   4
ATOM      4  C   UNL     1      -4.767  23.217  26.253  1.00  0.00    -0.000 C 
BRANCH   4   5
ATOM      5  C   UNL     1      -6.253  23.618  26.241  1.00  0.00    -0.000 C 
BRANCH   5   6
ATOM      6  C   UNL     1      -7.183  22.433  26.544  1.00  0.00    -0.000 C 
BRANCH   6   7
ATOM      7  C   UNL     1      -8.654  22.863  26.692  1.00  0.00    -0.000 C 
BRANCH   7   8
ATOM      8  C   UNL     1      -9.272  23.334  25.365  1.00  0.00    -0.000 C 
BRANCH   8   9
ATOM      9  C   UNL     1     -10.156  22.288  24.651  1.00  0.00    -0.000 C 
BRANCH   9  10
ATOM     10  C   UNL     1     -11.256  22.866  23.736  1.00  0.00    -0.000 C 
BRANCH  10  11
ATOM     11  C   UNL     1     -10.737  23.624  22.501  1.00  0.00    -0.003 C 
ATOM     12  C   UNL     1     -11.720  23.595  21.332  1.00  0.00     0.004 C 
ENDBRANCH  10  11
ENDBRANCH   9  10
ENDBRANCH   8   9
ENDBRANCH   7   8
ENDBRANCH   6   7
ENDBRANCH   5   6
ENDBRANCH   4   5
ENDBRANCH   3   4
ENDBRANCH   2   3
ENDBRANCH   1   2
BRANCH   1  13
ATOM     13  C   UNL     1      -1.969  27.381  25.536  1.00  0.00     0.000 C 
BRANCH  13  14
ATOM     14  C   UNL     1      -2.018  28.074  24.168  1.00  0.00     0.000 C 
BRANCH  14  15
ATOM     15  C   UNL     1      -0.942  27.506  23.231  1.00  0.00     0.000 C 
BRANCH  15  16
ATOM     16  C   UNL     1      -0.397  26.147  23.698  1.00  0.00     0.000 C 
BRANCH  16  17
ATOM     17  C   UNL     1       1.139  26.127  23.772  1.00  0.00     0.000 C 
BRANCH  17  18
ATOM     18  C   UNL     1       1.783  25.165  22.756  1.00  0.00     0.000 C 
BRANCH  18  19
ATOM     19  C   UNL     1       1.135  23.769  22.668  1.00  0.00     0.000 C 
BRANCH  19  20
ATOM     20  C   UNL     1       1.367  23.079  21.312  1.00  0.00     0.006 C 
BRANCH  20  21
ATOM     21  C   UNL     1       0.054  22.618  20.661  1.00  0.00     0.053 C 
BRANCH  21  22
ATOM     22  C   UNL     1       0.257  21.455  19.735  1.00  0.00     0.041 C 
ATOM     23  O   UNL     1       0.095  21.594  18.492  1.00  0.00    -0.550 OA
ATOM     24  O   UNL     1       0.646  20.222  20.247  1.00  0.00    -0.550 OA
ENDBRANCH  21  22
ENDBRANCH  20  21
ENDBRANCH  19  20
ENDBRANCH  18  19
ENDBRANCH  17  18
ENDBRANCH  16  17
ENDBRANCH  15  16
ENDBRANCH  14  15
ENDBRANCH  13  14
ENDBRANCH   1  13
TORSDOF 20
ENDMDL
MODEL 3
REMARK VINA RESULT:    -3.490      4.478      9.338
REMARK INTER + INTRA:          -8.608
REMARK INTER:                  -6.820
REMARK INTRA:                  -1.788
REMARK UNBOUND:                -1.039
REMARK SMILES CCCCCCCCCCCCCCCCCCCCCC(=O)[O-]
REMARK SMILES IDX 12 1 11 2 10 3 9 4 8 5 7 6 6 7 5 8 4 9 3 10 2 11 1 12 13 13
REMARK SMILES IDX 14 14 15 15 16 16 17 17 18 18 19 19 20 20 21 21 22 22 23 23
REMARK SMILES IDX 24 24
REMARK H PARENT
REMARK Flexibility Score: inf
ROOT
ATOM      1  C   UNL     1       0.217  23.116  22.724  1.00  0.00     0.000 C 
ENDROOT
BRANCH   1   2
ATOM      2  C   UNL     1       1.469  23.351  21.862  1.00  0.00     0.000 C 
BRANCH   2   3
ATOM      3  C   UNL     1       1.194  23.558  20.360  1.00  0.00     0.000 C 
BRANCH   3   4
ATOM      4  C   UNL     1       1.633  22.373  19.475  1.00  0.00    -0.000 C 
BRANCH   4   5
ATOM      5  C   UNL     1       0.566  21.267  19.401  1.00  0.00    -0.000 C 
BRANCH   5   6
ATOM      6  C   UNL     1       0.163  20.934  17.956  1.00  0.00    -0.000 C 
BRANCH   6   7
ATOM      7  C   UNL     1       1.339  20.387  17.128  1.00  0.00    -0.000 C 
BRANCH   7   8
ATOM      8  C   UNL     1       1.422  18.851  17.156  1.00  0.00    -0.000 C 
BRANCH   8   9
ATOM      9  C   UNL     1       0.059  18.127  17.208  1.00  0.00    -0.000 C 
BRANCH   9  10
ATOM     10  C   UNL     1      -0.198  17.294  18.481  1.00  0.00    -0.000 C 
BRANCH  10  11
ATOM     11  C   UNL     1       1.069  16.897  19.260  1.00  0.00    -0.003 C 
ATOM     12  C   UNL     1       0.946  17.158  20.761  1.00  0.00     0.004 C 
ENDBRANCH  10  11
ENDBRANCH   9  10
ENDBRANCH   8   9
ENDBRANCH   7   8
ENDBRANCH   6   7
ENDBRANCH   5   6
ENDBRANCH   4   5
ENDBRANCH   3   4
ENDBRANCH   2   3
ENDBRANCH   1   2
BRANCH   1  13
ATOM     13  C   UNL     1       0.008  24.212  23.780  1.00  0.00     0.000 C 
BRANCH  13  14
ATOM     14  C   UNL     1       0.864  25.448  23.474  1.00  0.00     0.000 C 
BRANCH  14  15
ATOM     15  C   UNL     1       0.420  26.642  24.331  1.00  0.00     0.000 C 
BRANCH  15  16
ATOM     16  C   UNL     1      -0.454  27.642  23.558  1.00  0.00     0.000 C 
BRANCH  16  17
ATOM     17  C   UNL     1      -1.954  27.447  23.840  1.00  0.00     0.000 C 
BRANCH  17  18
ATOM     18  C   UNL     1      -2.349  27.790  25.289  1.00  0.00     0.000 C 
BRANCH  18  19
ATOM     19  C   UNL     1      -3.270  26.765  25.980  1.00  0.00     0.000 C 
BRANCH  19  20
ATOM     20  C   UNL     1      -3.055  25.325  25.480  1.00  0.00     0.006 C 
BRANCH  20  21
ATOM     21  C   UNL     1      -4.379  24.566  25.303  1.00  0.00     0.053 C 
BRANCH  21  22
ATOM     22  C   UNL     1      -4.705  23.709  26.490  1.00  0.00     0.041 C 
ATOM     23  O   UNL     1      -4.010  23.784  27.540  1.00  0.00    -0.550 OA
ATOM     24  O   UNL     1      -5.791  22.843  26.441  1.00  0.00    -0.550 OA
ENDBRANCH  21  22
ENDBRANCH  20  21
ENDBRANCH  19  20
ENDBRANCH  18  19
ENDBRANCH  17  18
ENDBRANCH  16  17
ENDBRANCH  15  16
ENDBRANCH  14  15
ENDBRANCH  13  14
ENDBRANCH   1  13
TORSDOF 20
ENDMDL
MODEL 4
REMARK VINA RESULT:    -3.432      1.472      3.433
REMARK INTER + INTRA:          -8.483
REMARK INTER:                  -7.424
REMARK INTRA:                  -1.059
REMARK UNBOUND:                -1.039
REMARK SMILES CCCCCCCCCCCCCCCCCCCCCC(=O)[O-]
REMARK SMILES IDX 12 1 11 2 10 3 9 4 8 5 7 6 6 7 5 8 4 9 3 10 2 11 1 12 13 13
REMARK SMILES IDX 14 14 15 15 16 16 17 17 18 18 19 19 20 20 21 21 22 22 23 23
REMARK SMILES IDX 24 24
REMARK H PARENT
REMARK Flexibility Score: inf
ROOT
ATOM      1  C   UNL     1      -1.425  27.001  24.531  1.00  0.00     0.000 C 
ENDROOT
BRANCH   1   2
ATOM      2  C   UNL     1      -2.431  27.600  25.528  1.00  0.00     0.000 C 
BRANCH   2   3
ATOM      3  C   UNL     1      -3.385  26.581  26.180  1.00  0.00     0.000 C 
BRANCH   3   4
ATOM      4  C   UNL     1      -3.395  25.202  25.489  1.00  0.00    -0.000 C 
BRANCH   4   5
ATOM      5  C   UNL     1      -4.113  24.128  26.325  1.00  0.00    -0.000 C 
BRANCH   5   6
ATOM      6  C   UNL     1      -5.284  23.479  25.569  1.00  0.00    -0.000 C 
BRANCH   6   7
ATOM      7  C   UNL     1      -6.390  22.979  26.515  1.00  0.00    -0.000 C 
BRANCH   7   8
ATOM      8  C   UNL     1      -7.787  23.482  26.115  1.00  0.00    -0.000 C 
BRANCH   8   9
ATOM      9  C   UNL     1      -8.920  22.443  26.263  1.00  0.00    -0.000 C 
BRANCH   9  10
ATOM     10  C   UNL     1      -9.956  22.427  25.118  1.00  0.00    -0.000 C 
BRANCH  10  11
ATOM     11  C   UNL     1      -9.973  23.696  24.246  1.00  0.00    -0.003 C 
ATOM     12  C   UNL     1     -10.737  23.503  22.937  1.00  0.00     0.004 C 
ENDBRANCH  10  11
ENDBRANCH   9  10
ENDBRANCH   8   9
ENDBRANCH   7   8
ENDBRANCH   6   7
ENDBRANCH   5   6
ENDBRANCH   4   5
ENDBRANCH   3   4
ENDBRANCH   2   3
ENDBRANCH   1   2
BRANCH   1  13
ATOM     13  C   UNL     1      -1.090  27.957  23.377  1.00  0.00     0.000 C 
BRANCH  13  14
ATOM     14  C   UNL     1       0.381  27.831  22.960  1.00  0.00     0.000 C 
BRANCH  14  15
ATOM     15  C   UNL     1       0.514  26.987  21.684  1.00  0.00     0.000 C 
BRANCH  15  16
ATOM     16  C   UNL     1       1.283  25.676  21.910  1.00  0.00     0.000 C 
BRANCH  16  17
ATOM     17  C   UNL     1       1.506  24.895  20.603  1.00  0.00     0.000 C 
BRANCH  17  18
ATOM     18  C   UNL     1       0.831  25.550  19.383  1.00  0.00     0.000 C 
BRANCH  18  19
ATOM     19  C   UNL     1       0.407  24.577  18.265  1.00  0.00     0.000 C 
BRANCH  19  20
ATOM     20  C   UNL     1       0.919  23.142  18.486  1.00  0.00     0.006 C 
BRANCH  20  21
ATOM     21  C   UNL     1      -0.190  22.197  18.973  1.00  0.00     0.053 C 
BRANCH  21  22
ATOM     22  C   UNL     1       0.274  21.305  20.087  1.00  0.00     0.041 C 
ATOM     23  O   UNL     1       0.128  21.660  21.289  1.00  0.00    -0.550 OA
ATOM     24  O   UNL     1       0.849  20.074  19.795  1.00  0.00    -0.550 OA
ENDBRANCH  21  22
ENDBRANCH  20  21
ENDBRANCH  19  20
ENDBRANCH  18  19
ENDBRANCH  17  18
ENDBRANCH  16  17
ENDBRANCH  15  16
ENDBRANCH  14  15
ENDBRANCH  13  14
ENDBRANCH   1  13
TORSDOF 20
ENDMDL
MODEL 5
REMARK VINA RESULT:    -3.362      3.373      9.642
REMARK INTER + INTRA:          -8.332
REMARK INTER:                  -7.059
REMARK INTRA:                  -1.272
REMARK UNBOUND:                -1.039
REMARK SMILES CCCCCCCCCCCCCCCCCCCCCC(=O)[O-]
REMARK SMILES IDX 12 1 11 2 10 3 9 4 8 5 7 6 6 7 5 8 4 9 3 10 2 11 1 12 13 13
REMARK SMILES IDX 14 14 15 15 16 16 17 17 18 18 19 19 20 20 21 21 22 22 23 23
REMARK SMILES IDX 24 24
REMARK H PARENT
REMARK Flexibility Score: inf
ROOT
ATOM      1  C   UNL     1      -2.007  26.697  24.413  1.00  0.00     0.000 C 
ENDROOT
BRANCH   1   2
ATOM      2  C   UNL     1      -0.649  25.977  24.368  1.00  0.00     0.000 C 
BRANCH   2   3
ATOM      3  C   UNL     1       0.182  26.235  23.095  1.00  0.00     0.000 C 
BRANCH   3   4
ATOM      4  C   UNL     1      -0.064  27.618  22.458  1.00  0.00    -0.000 C 
BRANCH   4   5
ATOM      5  C   UNL     1       0.895  27.907  21.290  1.00  0.00    -0.000 C 
BRANCH   5   6
ATOM      6  C   UNL     1       1.184  26.657  20.444  1.00  0.00    -0.000 C 
BRANCH   6   7
ATOM      7  C   UNL     1       0.218  26.516  19.253  1.00  0.00    -0.000 C 
BRANCH   7   8
ATOM      8  C   UNL     1       0.274  25.123  18.603  1.00  0.00    -0.000 C 
BRANCH   8   9
ATOM      9  C   UNL     1       0.803  23.998  19.521  1.00  0.00    -0.000 C 
BRANCH   9  10
ATOM     10  C   UNL     1       0.562  22.562  19.011  1.00  0.00    -0.000 C 
BRANCH  10  11
ATOM     11  C   UNL     1       0.284  21.524  20.113  1.00  0.00    -0.003 C 
ATOM     12  C   UNL     1      -0.046  22.165  21.460  1.00  0.00     0.004 C 
ENDBRANCH  10  11
ENDBRANCH   9  10
ENDBRANCH   8   9
ENDBRANCH   7   8
ENDBRANCH   6   7
ENDBRANCH   5   6
ENDBRANCH   4   5
ENDBRANCH   3   4
ENDBRANCH   2   3
ENDBRANCH   1   2
BRANCH   1  13
ATOM     13  C   UNL     1      -2.455  27.030  25.844  1.00  0.00     0.000 C 
BRANCH  13  14
ATOM     14  C   UNL     1      -3.736  26.272  26.215  1.00  0.00     0.000 C 
BRANCH  14  15
ATOM     15  C   UNL     1      -3.528  24.756  26.087  1.00  0.00     0.000 C 
BRANCH  15  16
ATOM     16  C   UNL     1      -4.680  24.053  25.354  1.00  0.00     0.000 C 
BRANCH  16  17
ATOM     17  C   UNL     1      -5.549  23.208  26.302  1.00  0.00     0.000 C 
BRANCH  17  18
ATOM     18  C   UNL     1      -7.050  23.536  26.204  1.00  0.00     0.000 C 
BRANCH  18  19
ATOM     19  C   UNL     1      -8.002  22.384  26.583  1.00  0.00     0.000 C 
BRANCH  19  20
ATOM     20  C   UNL     1      -9.469  22.663  26.207  1.00  0.00     0.006 C 
BRANCH  20  21
ATOM     21  C   UNL     1      -9.794  22.232  24.769  1.00  0.00     0.053 C 
BRANCH  21  22
ATOM     22  C   UNL     1     -10.260  23.381  23.924  1.00  0.00     0.041 C 
ATOM     23  O   UNL     1     -11.293  23.268  23.210  1.00  0.00    -0.550 OA
ATOM     24  O   UNL     1      -9.561  24.582  23.942  1.00  0.00    -0.550 OA
ENDBRANCH  21  22
ENDBRANCH  20  21
ENDBRANCH  19  20
ENDBRANCH  18  19
ENDBRANCH  17  18
ENDBRANCH  16  17
ENDBRANCH  15  16
ENDBRANCH  14  15
ENDBRANCH  13  14
ENDBRANCH   1  13
TORSDOF 20
ENDMDL
MODEL 6
REMARK VINA RESULT:    -3.312      3.541      9.636
REMARK INTER + INTRA:          -8.222
REMARK INTER:                  -6.523
REMARK INTRA:                  -1.700
REMARK UNBOUND:                -1.039
REMARK SMILES CCCCCCCCCCCCCCCCCCCCCC(=O)[O-]
REMARK SMILES IDX 12 1 11 2 10 3 9 4 8 5 7 6 6 7 5 8 4 9 3 10 2 11 1 12 13 13
REMARK SMILES IDX 14 14 15 15 16 16 17 17 18 18 19 19 20 20 21 21 22 22 23 23
REMARK SMILES IDX 24 24
REMARK H PARENT
REMARK Flexibility Score: inf
ROOT
ATOM      1  C   UNL     1      -1.093  27.728  23.866  1.00  0.00     0.000 C 
ENDROOT
BRANCH   1   2
ATOM      2  C   UNL     1       0.412  27.980  24.049  1.00  0.00     0.000 C 
BRANCH   2   3
ATOM      3  C   UNL     1       1.311  27.379  22.950  1.00  0.00     0.000 C 
BRANCH   3   4
ATOM      4  C   UNL     1       0.602  27.199  21.592  1.00  0.00    -0.000 C 
BRANCH   4   5
ATOM      5  C   UNL     1       1.557  26.711  20.489  1.00  0.00    -0.000 C 
BRANCH   5   6
ATOM      6  C   UNL     1       0.974  25.542  19.680  1.00  0.00    -0.000 C 
BRANCH   6   7
ATOM      7  C   UNL     1       2.051  24.533  19.243  1.00  0.00    -0.000 C 
BRANCH   7   8
ATOM      8  C   UNL     1       2.091  23.281  20.136  1.00  0.00    -0.000 C 
BRANCH   8   9
ATOM      9  C   UNL     1       0.892  23.130  21.098  1.00  0.00    -0.000 C 
BRANCH   9  10
ATOM     10  C   UNL     1       1.158  23.562  22.556  1.00  0.00    -0.000 C 
BRANCH  10  11
ATOM     11  C   UNL     1      -0.079  23.540  23.472  1.00  0.00    -0.003 C 
ATOM     12  C   UNL     1      -0.815  22.201  23.438  1.00  0.00     0.004 C 
ENDBRANCH  10  11
ENDBRANCH   9  10
ENDBRANCH   8   9
ENDBRANCH   7   8
ENDBRANCH   6   7
ENDBRANCH   5   6
ENDBRANCH   4   5
ENDBRANCH   3   4
ENDBRANCH   2   3
ENDBRANCH   1   2
BRANCH   1  13
ATOM     13  C   UNL     1      -1.613  26.574  24.736  1.00  0.00     0.000 C 
BRANCH  13  14
ATOM     14  C   UNL     1      -3.048  26.837  25.208  1.00  0.00     0.000 C 
BRANCH  14  15
ATOM     15  C   UNL     1      -3.504  25.753  26.196  1.00  0.00     0.000 C 
BRANCH  15  16
ATOM     16  C   UNL     1      -3.686  24.378  25.535  1.00  0.00     0.000 C 
BRANCH  16  17
ATOM     17  C   UNL     1      -4.638  23.468  26.329  1.00  0.00     0.000 C 
BRANCH  17  18
ATOM     18  C   UNL     1      -6.125  23.729  26.020  1.00  0.00     0.000 C 
BRANCH  18  19
ATOM     19  C   UNL     1      -7.112  22.713  26.629  1.00  0.00     0.000 C 
BRANCH  19  20
ATOM     20  C   UNL     1      -8.586  23.111  26.435  1.00  0.00     0.006 C 
BRANCH  20  21
ATOM     21  C   UNL     1      -8.868  23.623  25.014  1.00  0.00     0.053 C 
BRANCH  21  22
ATOM     22  C   UNL     1     -10.058  22.952  24.395  1.00  0.00     0.041 C 
ATOM     23  O   UNL     1     -10.715  23.530  23.487  1.00  0.00    -0.550 OA
ATOM     24  O   UNL     1     -10.429  21.678  24.811  1.00  0.00    -0.550 OA
ENDBRANCH  21  22
ENDBRANCH  20  21
ENDBRANCH  19  20
ENDBRANCH  18  19
ENDBRANCH  17  18
ENDBRANCH  16  17
ENDBRANCH  15  16
ENDBRANCH  14  15
ENDBRANCH  13  14
ENDBRANCH   1  13
TORSDOF 20
ENDMDL
MODEL 7
REMARK VINA RESULT:    -3.242      3.607      9.471
REMARK INTER + INTRA:          -8.070
REMARK INTER:                  -7.029
REMARK INTRA:                  -1.042
REMARK UNBOUND:                -1.039
REMARK SMILES CCCCCCCCCCCCCCCCCCCCCC(=O)[O-]
REMARK SMILES IDX 12 1 11 2 10 3 9 4 8 5 7 6 6 7 5 8 4 9 3 10 2 11 1 12 13 13
REMARK SMILES IDX 14 14 15 15 16 16 17 17 18 18 19 19 20 20 21 21 22 22 23 23
REMARK SMILES IDX 24 24
REMARK H PARENT
REMARK Flexibility Score: inf
ROOT
ATOM      1  C   UNL     1      -1.463  26.607  23.988  1.00  0.00     0.000 C 
ENDROOT
BRANCH   1   2
ATOM      2  C   UNL     1      -0.244  25.782  24.433  1.00  0.00     0.000 C 
BRANCH   2   3
ATOM      3  C   UNL     1      -0.061  24.442  23.695  1.00  0.00     0.000 C 
BRANCH   3   4
ATOM      4  C   UNL     1       1.301  24.300  22.985  1.00  0.00    -0.000 C 
BRANCH   4   5
ATOM      5  C   UNL     1       1.167  23.731  21.561  1.00  0.00    -0.000 C 
BRANCH   5   6
ATOM      6  C   UNL     1       0.240  22.506  21.503  1.00  0.00    -0.000 C 
BRANCH   6   7
ATOM      7  C   UNL     1       0.564  21.579  20.317  1.00  0.00    -0.000 C 
BRANCH   7   8
ATOM      8  C   UNL     1      -0.063  22.061  18.998  1.00  0.00    -0.000 C 
BRANCH   8   9
ATOM      9  C   UNL     1       0.016  21.050  17.833  1.00  0.00    -0.000 C 
BRANCH   9  10
ATOM     10  C   UNL     1       1.248  20.120  17.848  1.00  0.00    -0.000 C 
BRANCH  10  11
ATOM     11  C   UNL     1       0.924  18.618  17.749  1.00  0.00    -0.003 C 
ATOM     12  C   UNL     1       0.367  18.046  19.052  1.00  0.00     0.004 C 
ENDBRANCH  10  11
ENDBRANCH   9  10
ENDBRANCH   8   9
ENDBRANCH   7   8
ENDBRANCH   6   7
ENDBRANCH   5   6
ENDBRANCH   4   5
ENDBRANCH   3   4
ENDBRANCH   2   3
ENDBRANCH   1   2
BRANCH   1  13
ATOM     13  C   UNL     1      -1.978  27.547  25.088  1.00  0.00     0.000 C 
BRANCH  13  14
ATOM     14  C   UNL     1      -3.357  27.106  25.594  1.00  0.00     0.000 C 
BRANCH  14  15
ATOM     15  C   UNL     1      -3.277  25.725  26.261  1.00  0.00     0.000 C 
BRANCH  15  16
ATOM     16  C   UNL     1      -4.217  24.693  25.618  1.00  0.00     0.000 C 
BRANCH  16  17
ATOM     17  C   UNL     1      -4.634  23.588  26.604  1.00  0.00     0.000 C 
BRANCH  17  18
ATOM     18  C   UNL     1      -5.920  22.853  26.181  1.00  0.00     0.000 C 
BRANCH  18  19
ATOM     19  C   UNL     1      -7.206  23.308  26.901  1.00  0.00     0.000 C 
BRANCH  19  20
ATOM     20  C   UNL     1      -8.487  22.734  26.269  1.00  0.00     0.006 C 
BRANCH  20  21
ATOM     21  C   UNL     1      -9.046  23.640  25.162  1.00  0.00     0.053 C 
BRANCH  21  22
ATOM     22  C   UNL     1     -10.111  22.958  24.354  1.00  0.00     0.041 C 
ATOM     23  O   UNL     1     -10.514  23.466  23.272  1.00  0.00    -0.550 OA
ATOM     24  O   UNL     1     -10.644  21.751  24.791  1.00  0.00    -0.550 OA
ENDBRANCH  21  22
ENDBRANCH  20  21
ENDBRANCH  19  20
ENDBRANCH  18  19
ENDBRANCH  17  18
ENDBRANCH  16  17
ENDBRANCH  15  16
ENDBRANCH  14  15
ENDBRANCH  13  14
ENDBRANCH   1  13
TORSDOF 20
ENDMDL
MODEL 8
REMARK VINA RESULT:    -3.190      3.527      9.379
REMARK INTER + INTRA:          -7.958
REMARK INTER:                  -6.868
REMARK INTRA:                  -1.090
REMARK UNBOUND:                -1.039
REMARK SMILES CCCCCCCCCCCCCCCCCCCCCC(=O)[O-]
REMARK SMILES IDX 12 1 11 2 10 3 9 4 8 5 7 6 6 7 5 8 4 9 3 10 2 11 1 12 13 13
REMARK SMILES IDX 14 14 15 15 16 16 17 17 18 18 19 19 20 20 21 21 22 22 23 23
REMARK SMILES IDX 24 24
REMARK H PARENT
REMARK Flexibility Score: inf
ROOT
ATOM      1  C   UNL     1      -2.058  26.727  24.182  1.00  0.00     0.000 C 
ENDROOT
BRANCH   1   2
ATOM      2  C   UNL     1      -1.355  27.726  23.250  1.00  0.00     0.000 C 
BRANCH   2   3
ATOM      3  C   UNL     1       0.071  28.125  23.679  1.00  0.00     0.000 C 
BRANCH   3   4
ATOM      4  C   UNL     1       1.181  27.280  23.021  1.00  0.00    -0.000 C 
BRANCH   4   5
ATOM      5  C   UNL     1       1.208  25.833  23.542  1.00  0.00    -0.000 C 
BRANCH   5   6
ATOM      6  C   UNL     1       2.024  24.897  22.637  1.00  0.00    -0.000 C 
BRANCH   6   7
ATOM      7  C   UNL     1       1.174  24.274  21.515  1.00  0.00    -0.000 C 
BRANCH   7   8
ATOM      8  C   UNL     1       1.364  24.983  20.163  1.00  0.00    -0.000 C 
BRANCH   8   9
ATOM      9  C   UNL     1       0.451  24.470  19.027  1.00  0.00    -0.000 C 
BRANCH   9  10
ATOM     10  C   UNL     1       0.183  25.479  17.889  1.00  0.00    -0.000 C 
BRANCH  10  11
ATOM     11  C   UNL     1      -0.424  26.818  18.343  1.00  0.00    -0.003 C 
ATOM     12  C   UNL     1      -1.582  27.274  17.456  1.00  0.00     0.004 C 
ENDBRANCH  10  11
ENDBRANCH   9  10
ENDBRANCH   8   9
ENDBRANCH   7   8
ENDBRANCH   6   7
ENDBRANCH   5   6
ENDBRANCH   4   5
ENDBRANCH   3   4
ENDBRANCH   2   3
ENDBRANCH   1   2
BRANCH   1  13
ATOM     13  C   UNL     1      -2.377  27.323  25.561  1.00  0.00     0.000 C 
BRANCH  13  14
ATOM     14  C   UNL     1      -3.474  26.522  26.272  1.00  0.00     0.000 C 
BRANCH  14  15
ATOM     15  C   UNL     1      -4.046  25.439  25.346  1.00  0.00     0.000 C 
BRANCH  15  16
ATOM     16  C   UNL     1      -3.710  24.013  25.812  1.00  0.00     0.000 C 
BRANCH  16  17
ATOM     17  C   UNL     1      -4.832  23.397  26.665  1.00  0.00     0.000 C 
BRANCH  17  18
ATOM     18  C   UNL     1      -6.229  23.556  26.037  1.00  0.00     0.000 C 
BRANCH  18  19
ATOM     19  C   UNL     1      -7.316  22.623  26.606  1.00  0.00     0.000 C 
BRANCH  19  20
ATOM     20  C   UNL     1      -8.741  23.184  26.442  1.00  0.00     0.006 C 
BRANCH  20  21
ATOM     21  C   UNL     1      -9.501  22.513  25.289  1.00  0.00     0.053 C 
BRANCH  21  22
ATOM     22  C   UNL     1      -9.932  23.498  24.243  1.00  0.00     0.041 C 
ATOM     23  O   UNL     1     -10.875  23.219  23.454  1.00  0.00    -0.550 OA
ATOM     24  O   UNL     1      -9.300  24.734  24.154  1.00  0.00    -0.550 OA
ENDBRANCH  21  22
ENDBRANCH  20  21
ENDBRANCH  19  20
ENDBRANCH  18  19
ENDBRANCH  17  18
ENDBRANCH  16  17
ENDBRANCH  15  16
ENDBRANCH  14  15
ENDBRANCH  13  14
ENDBRANCH   1  13
TORSDOF 20
ENDMDL
MODEL 9
REMARK VINA RESULT:    -3.163      1.562      3.861
REMARK INTER + INTRA:          -7.900
REMARK INTER:                  -6.069
REMARK INTRA:                  -1.831
REMARK UNBOUND:                -1.039
REMARK SMILES CCCCCCCCCCCCCCCCCCCCCC(=O)[O-]
REMARK SMILES IDX 12 1 11 2 10 3 9 4 8 5 7 6 6 7 5 8 4 9 3 10 2 11 1 12 13 13
REMARK SMILES IDX 14 14 15 15 16 16 17 17 18 18 19 19 20 20 21 21 22 22 23 23
REMARK SMILES IDX 24 24
REMARK H PARENT
REMARK Flexibility Score: inf
ROOT
ATOM      1  C   UNL     1       0.053  27.547  25.157  1.00  0.00     0.000 C 
ENDROOT
BRANCH   1   2
ATOM      2  C   UNL     1      -1.422  27.840  25.479  1.00  0.00     0.000 C 
BRANCH   2   3
ATOM      3  C   UNL     1      -2.424  26.797  24.944  1.00  0.00     0.000 C 
BRANCH   3   4
ATOM      4  C   UNL     1      -3.203  26.055  26.049  1.00  0.00    -0.000 C 
BRANCH   4   5
ATOM      5  C   UNL     1      -4.352  25.199  25.486  1.00  0.00    -0.000 C 
BRANCH   5   6
ATOM      6  C   UNL     1      -4.181  23.705  25.801  1.00  0.00    -0.000 C 
BRANCH   6   7
ATOM      7  C   UNL     1      -5.370  23.131  26.593  1.00  0.00    -0.000 C 
BRANCH   7   8
ATOM      8  C   UNL     1      -6.729  23.611  26.056  1.00  0.00    -0.000 C 
BRANCH   8   9
ATOM      9  C   UNL     1      -7.953  22.850  26.610  1.00  0.00    -0.000 C 
BRANCH   9  10
ATOM     10  C   UNL     1      -9.204  22.863  25.706  1.00  0.00    -0.000 C 
BRANCH  10  11
ATOM     11  C   UNL     1      -9.130  23.837  24.516  1.00  0.00    -0.003 C 
ATOM     12  C   UNL     1     -10.339  23.730  23.588  1.00  0.00     0.004 C 
ENDBRANCH  10  11
ENDBRANCH   9  10
ENDBRANCH   8   9
ENDBRANCH   7   8
ENDBRANCH   6   7
ENDBRANCH   5   6
ENDBRANCH   4   5
ENDBRANCH   3   4
ENDBRANCH   2   3
ENDBRANCH   1   2
BRANCH   1  13
ATOM     13  C   UNL     1       0.257  27.032  23.725  1.00  0.00     0.000 C 
BRANCH  13  14
ATOM     14  C   UNL     1       1.732  27.116  23.310  1.00  0.00     0.000 C 
BRANCH  14  15
ATOM     15  C   UNL     1       1.861  27.521  21.834  1.00  0.00     0.000 C 
BRANCH  15  16
ATOM     16  C   UNL     1       0.580  27.259  21.027  1.00  0.00     0.000 C 
BRANCH  16  17
ATOM     17  C   UNL     1       0.799  26.237  19.898  1.00  0.00     0.000 C 
BRANCH  17  18
ATOM     18  C   UNL     1       2.101  25.430  20.053  1.00  0.00     0.000 C 
BRANCH  18  19
ATOM     19  C   UNL     1       1.915  23.942  20.412  1.00  0.00     0.000 C 
BRANCH  19  20
ATOM     20  C   UNL     1       0.648  23.675  21.245  1.00  0.00     0.006 C 
BRANCH  20  21
ATOM     21  C   UNL     1       0.971  23.378  22.717  1.00  0.00     0.053 C 
BRANCH  21  22
ATOM     22  C   UNL     1      -0.249  22.991  23.499  1.00  0.00     0.041 C 
ATOM     23  O   UNL     1      -0.723  23.773  24.368  1.00  0.00    -0.550 OA
ATOM     24  O   UNL     1      -0.873  21.774  23.251  1.00  0.00    -0.550 OA
ENDBRANCH  21  22
ENDBRANCH  20  21
ENDBRANCH  19  20
ENDBRANCH  18  19
ENDBRANCH  17  18
ENDBRANCH  16  17
ENDBRANCH  15  16
ENDBRANCH  14  15
ENDBRANCH  13  14
ENDBRANCH   1  13
TORSDOF 20
ENDMDL
