MODEL 1
REMARK VINA RESULT:    -3.390      0.000      0.000
REMARK INTER + INTRA:          -8.875
REMARK INTER:                  -6.164
REMARK INTRA:                  -2.712
REMARK UNBOUND:                -2.712
REMARK SMILES CCCCCC=CCC=CCCCCCCCC(=O)[O-]
REMARK SMILES IDX 11 1 12 2 13 3 14 4 15 5 16 6 17 7 18 8 19 9 20 10 10 11
REMARK SMILES IDX 9 12 8 13 7 14 6 15 5 16 4 17 3 18 2 19 1 20
REMARK H PARENT
REMARK Flexibility Score: inf
ROOT
ATOM      1  C   UNL     1      60.573  24.974  50.202  1.00  0.00     0.027 C 
ENDROOT
BRANCH   1   2
ATOM      2  C   UNL     1      61.350  26.288  50.380  1.00  0.00     0.004 C 
BRANCH   2   3
ATOM      3  C   UNL     1      61.025  27.323  49.291  1.00  0.00     0.000 C 
BRANCH   3   4
ATOM      4  C   UNL     1      60.393  28.602  49.866  1.00  0.00     0.000 C 
BRANCH   4   5
ATOM      5  C   UNL     1      58.949  28.827  49.379  1.00  0.00     0.000 C 
BRANCH   5   6
ATOM      6  C   UNL     1      57.950  29.270  50.469  1.00  0.00     0.006 C 
BRANCH   6   7
ATOM      7  C   UNL     1      58.364  28.904  51.903  1.00  0.00     0.053 C 
BRANCH   7   8
ATOM      8  C   UNL     1      58.498  30.115  52.774  1.00  0.00     0.041 C 
ATOM      9  O   UNL     1      57.540  30.925  52.885  1.00  0.00    -0.550 OA
ATOM     10  O   UNL     1      59.692  30.366  53.436  1.00  0.00    -0.550 OA
ENDBRANCH   7   8
ENDBRANCH   6   7
ENDBRANCH   5   6
ENDBRANCH   4   5
ENDBRANCH   3   4
ENDBRANCH   2   3
ENDBRANCH   1   2
BRANCH   1  11
ATOM     11  C   UNL     1      59.091  25.222  50.200  1.00  0.00    -0.031 C 
ATOM     12  C   UNL     1      58.402  25.360  51.343  1.00  0.00    -0.027 C 
BRANCH  12  13
ATOM     13  C   UNL     1      56.918  25.597  51.346  1.00  0.00     0.054 C 
BRANCH  13  14
ATOM     14  C   UNL     1      56.424  26.000  49.979  1.00  0.00    -0.027 C 
ATOM     15  C   UNL     1      55.127  26.080  49.626  1.00  0.00    -0.031 C 
BRANCH  15  16
ATOM     16  C   UNL     1      53.959  25.823  50.549  1.00  0.00     0.027 C 
BRANCH  16  17
ATOM     17  C   UNL     1      53.231  27.125  50.903  1.00  0.00     0.004 C 
BRANCH  17  18
ATOM     18  C   UNL     1      53.606  28.272  49.949  1.00  0.00     0.000 C 
BRANCH  18  19
ATOM     19  C   UNL     1      54.256  29.458  50.679  1.00  0.00    -0.003 C 
ATOM     20  C   UNL     1      54.616  29.132  52.128  1.00  0.00     0.004 C 
ENDBRANCH  18  19
ENDBRANCH  17  18
ENDBRANCH  16  17
ENDBRANCH  15  16
ENDBRANCH  13  14
ENDBRANCH  12  13
ENDBRANCH   1  11
TORSDOF 14
ENDMDL
MODEL 2
REMARK VINA RESULT:    -3.255      2.694      4.538
REMARK INTER + INTRA:          -8.630
REMARK INTER:                  -6.257
REMARK INTRA:                  -2.373
REMARK UNBOUND:                -2.712
REMARK SMILES CCCCCC=CCC=CCCCCCCCC(=O)[O-]
REMARK SMILES IDX 11 1 12 2 13 3 14 4 15 5 16 6 17 7 18 8 19 9 20 10 10 11
REMARK SMILES IDX 9 12 8 13 7 14 6 15 5 16 4 17 3 18 2 19 1 20
REMARK H PARENT
REMARK Flexibility Score: inf
ROOT
ATOM      1  C   UNL     1      57.315  28.870  50.926  1.00  0.00     0.027 C 
ENDROOT
BRANCH   1   2
ATOM      2  C   UNL     1      58.431  29.195  49.921  1.00  0.00     0.004 C 
BRANCH   2   3
ATOM      3  C   UNL     1      59.766  28.522  50.277  1.00  0.00     0.000 C 
BRANCH   3   4
ATOM      4  C   UNL     1      60.128  27.385  49.306  1.00  0.00     0.000 C 
BRANCH   4   5
ATOM      5  C   UNL     1      59.387  26.072  49.620  1.00  0.00     0.000 C 
BRANCH   5   6
ATOM      6  C   UNL     1      60.292  24.875  49.976  1.00  0.00     0.006 C 
BRANCH   6   7
ATOM      7  C   UNL     1      61.210  25.106  51.187  1.00  0.00     0.053 C 
BRANCH   7   8
ATOM      8  C   UNL     1      62.658  24.992  50.823  1.00  0.00     0.041 C 
ATOM      9  O   UNL     1      63.148  25.732  49.929  1.00  0.00    -0.550 OA
ATOM     10  O   UNL     1      63.459  24.045  51.448  1.00  0.00    -0.550 OA
ENDBRANCH   7   8
ENDBRANCH   6   7
ENDBRANCH   5   6
ENDBRANCH   4   5
ENDBRANCH   3   4
ENDBRANCH   2   3
ENDBRANCH   1   2
BRANCH   1  11
ATOM     11  C   UNL     1      56.177  28.155  50.253  1.00  0.00    -0.031 C 
ATOM     12  C   UNL     1      54.900  28.429  50.556  1.00  0.00    -0.027 C 
BRANCH  12  13
ATOM     13  C   UNL     1      53.760  27.708  49.893  1.00  0.00     0.054 C 
BRANCH  13  14
ATOM     14  C   UNL     1      54.186  26.353  49.386  1.00  0.00    -0.027 C 
ATOM     15  C   UNL     1      53.981  25.193  50.037  1.00  0.00    -0.031 C 
BRANCH  15  16
ATOM     16  C   UNL     1      53.255  25.053  51.354  1.00  0.00     0.027 C 
BRANCH  16  17
ATOM     17  C   UNL     1      54.223  24.696  52.489  1.00  0.00     0.004 C 
BRANCH  17  18
ATOM     18  C   UNL     1      54.582  25.921  53.347  1.00  0.00     0.000 C 
BRANCH  18  19
ATOM     19  C   UNL     1      56.090  26.217  53.351  1.00  0.00    -0.003 C 
ATOM     20  C   UNL     1      56.880  25.267  52.452  1.00  0.00     0.004 C 
ENDBRANCH  18  19
ENDBRANCH  17  18
ENDBRANCH  16  17
ENDBRANCH  15  16
ENDBRANCH  13  14
ENDBRANCH  12  13
ENDBRANCH   1  11
TORSDOF 14
ENDMDL
MODEL 3
REMARK VINA RESULT:    -3.237     10.772     13.398
REMARK INTER + INTRA:          -8.598
REMARK INTER:                  -5.950
REMARK INTRA:                  -2.648
REMARK UNBOUND:                -2.712
REMARK SMILES CCCCCC=CCC=CCCCCCCCC(=O)[O-]
REMARK SMILES IDX 11 1 12 2 13 3 14 4 15 5 16 6 17 7 18 8 19 9 20 10 10 11
REMARK SMILES IDX 9 12 8 13 7 14 6 15 5 16 4 17 3 18 2 19 1 20
REMARK H PARENT
REMARK Flexibility Score: inf
ROOT
ATOM      1  C   UNL     1      60.544  32.143  59.519  1.00  0.00     0.027 C 
ENDROOT
BRANCH   1   2
ATOM      2  C   UNL     1      61.105  31.694  60.877  1.00  0.00     0.004 C 
BRANCH   2   3
ATOM      3  C   UNL     1      61.444  30.195  60.914  1.00  0.00     0.000 C 
BRANCH   3   4
ATOM      4  C   UNL     1      62.747  29.906  61.679  1.00  0.00     0.000 C 
BRANCH   4   5
ATOM      5  C   UNL     1      63.648  28.884  60.960  1.00  0.00     0.000 C 
BRANCH   5   6
ATOM      6  C   UNL     1      65.146  29.250  60.911  1.00  0.00     0.006 C 
BRANCH   6   7
ATOM      7  C   UNL     1      65.857  28.864  59.604  1.00  0.00     0.053 C 
BRANCH   7   8
ATOM      8  C   UNL     1      67.164  29.576  59.446  1.00  0.00     0.041 C 
ATOM      9  O   UNL     1      67.256  30.572  58.681  1.00  0.00    -0.550 OA
ATOM     10  O   UNL     1      68.290  29.119  60.119  1.00  0.00    -0.550 OA
ENDBRANCH   7   8
ENDBRANCH   6   7
ENDBRANCH   5   6
ENDBRANCH   4   5
ENDBRANCH   3   4
ENDBRANCH   2   3
ENDBRANCH   1   2
BRANCH   1  11
ATOM     11  C   UNL     1      60.974  33.547  59.197  1.00  0.00    -0.031 C 
ATOM     12  C   UNL     1      61.081  34.483  60.152  1.00  0.00    -0.027 C 
BRANCH  12  13
ATOM     13  C   UNL     1      61.501  35.890  59.833  1.00  0.00     0.054 C 
BRANCH  13  14
ATOM     14  C   UNL     1      62.292  36.498  60.964  1.00  0.00    -0.027 C 
ATOM     15  C   UNL     1      63.547  36.143  61.298  1.00  0.00    -0.031 C 
BRANCH  15  16
ATOM     16  C   UNL     1      64.380  35.113  60.572  1.00  0.00     0.027 C 
BRANCH  16  17
ATOM     17  C   UNL     1      64.281  33.739  61.247  1.00  0.00     0.004 C 
BRANCH  17  18
ATOM     18  C   UNL     1      64.693  32.600  60.299  1.00  0.00     0.000 C 
BRANCH  18  19
ATOM     19  C   UNL     1      64.411  32.929  58.825  1.00  0.00    -0.003 C 
ATOM     20  C   UNL     1      63.939  31.713  58.029  1.00  0.00     0.004 C 
ENDBRANCH  18  19
ENDBRANCH  17  18
ENDBRANCH  16  17
ENDBRANCH  15  16
ENDBRANCH  13  14
ENDBRANCH  12  13
ENDBRANCH   1  11
TORSDOF 14
ENDMDL
MODEL 4
REMARK VINA RESULT:    -3.218      2.434      6.290
REMARK INTER + INTRA:          -8.564
REMARK INTER:                  -6.759
REMARK INTRA:                  -1.805
REMARK UNBOUND:                -2.712
REMARK SMILES CCCCCC=CCC=CCCCCCCCC(=O)[O-]
REMARK SMILES IDX 11 1 12 2 13 3 14 4 15 5 16 6 17 7 18 8 19 9 20 10 10 11
REMARK SMILES IDX 9 12 8 13 7 14 6 15 5 16 4 17 3 18 2 19 1 20
REMARK H PARENT
REMARK Flexibility Score: inf
ROOT
ATOM      1  C   UNL     1      57.983  29.827  52.624  1.00  0.00     0.027 C 
ENDROOT
BRANCH   1   2
ATOM      2  C   UNL     1      57.439  28.477  53.113  1.00  0.00     0.004 C 
BRANCH   2   3
ATOM      3  C   UNL     1      55.914  28.487  53.312  1.00  0.00     0.000 C 
BRANCH   3   4
ATOM      4  C   UNL     1      55.260  29.772  52.774  1.00  0.00     0.000 C 
BRANCH   4   5
ATOM      5  C   UNL     1      54.247  29.500  51.646  1.00  0.00     0.000 C 
BRANCH   5   6
ATOM      6  C   UNL     1      54.822  28.790  50.403  1.00  0.00     0.006 C 
BRANCH   6   7
ATOM      7  C   UNL     1      53.974  27.618  49.887  1.00  0.00     0.053 C 
BRANCH   7   8
ATOM      8  C   UNL     1      54.786  26.372  49.714  1.00  0.00     0.041 C 
ATOM      9  O   UNL     1      54.314  25.388  49.086  1.00  0.00    -0.550 OA
ATOM     10  O   UNL     1      56.054  26.286  50.276  1.00  0.00    -0.550 OA
ENDBRANCH   7   8
ENDBRANCH   6   7
ENDBRANCH   5   6
ENDBRANCH   4   5
ENDBRANCH   3   4
ENDBRANCH   2   3
ENDBRANCH   1   2
BRANCH   1  11
ATOM     11  C   UNL     1      58.819  29.653  51.387  1.00  0.00    -0.031 C 
ATOM     12  C   UNL     1      58.417  28.870  50.374  1.00  0.00    -0.027 C 
BRANCH  12  13
ATOM     13  C   UNL     1      59.255  28.685  49.140  1.00  0.00     0.054 C 
BRANCH  13  14
ATOM     14  C   UNL     1      60.642  28.203  49.485  1.00  0.00    -0.027 C 
ATOM     15  C   UNL     1      60.969  26.920  49.728  1.00  0.00    -0.031 C 
BRANCH  15  16
ATOM     16  C   UNL     1      60.013  25.752  49.653  1.00  0.00     0.027 C 
BRANCH  16  17
ATOM     17  C   UNL     1      59.906  25.032  51.003  1.00  0.00     0.004 C 
BRANCH  17  18
ATOM     18  C   UNL     1      60.050  23.508  50.856  1.00  0.00     0.000 C 
BRANCH  18  19
ATOM     19  C   UNL     1      61.112  23.113  49.817  1.00  0.00    -0.003 C 
ATOM     20  C   UNL     1      60.791  21.793  49.118  1.00  0.00     0.004 C 
ENDBRANCH  18  19
ENDBRANCH  17  18
ENDBRANCH  16  17
ENDBRANCH  15  16
ENDBRANCH  13  14
ENDBRANCH  12  13
ENDBRANCH   1  11
TORSDOF 14
ENDMDL
MODEL 5
REMARK VINA RESULT:    -3.196      1.770      5.916
REMARK INTER + INTRA:          -8.523
REMARK INTER:                  -6.436
REMARK INTRA:                  -2.087
REMARK UNBOUND:                -2.712
REMARK SMILES CCCCCC=CCC=CCCCCCCCC(=O)[O-]
REMARK SMILES IDX 11 1 12 2 13 3 14 4 15 5 16 6 17 7 18 8 19 9 20 10 10 11
REMARK SMILES IDX 9 12 8 13 7 14 6 15 5 16 4 17 3 18 2 19 1 20
REMARK H PARENT
REMARK Flexibility Score: inf
ROOT
ATOM      1  C   UNL     1      55.539  25.957  50.576  1.00  0.00     0.027 C 
ENDROOT
BRANCH   1   2
ATOM      2  C   UNL     1      54.461  26.633  49.715  1.00  0.00     0.004 C 
BRANCH   2   3
ATOM      3  C   UNL     1      53.441  27.421  50.551  1.00  0.00     0.000 C 
BRANCH   3   4
ATOM      4  C   UNL     1      53.224  28.849  50.020  1.00  0.00     0.000 C 
BRANCH   4   5
ATOM      5  C   UNL     1      53.539  29.931  51.069  1.00  0.00     0.000 C 
BRANCH   5   6
ATOM      6  C   UNL     1      54.303  29.436  52.315  1.00  0.00     0.006 C 
BRANCH   6   7
ATOM      7  C   UNL     1      55.265  30.467  52.927  1.00  0.00     0.053 C 
BRANCH   7   8
ATOM      8  C   UNL     1      54.549  31.705  53.372  1.00  0.00     0.041 C 
ATOM      9  O   UNL     1      54.958  32.840  53.011  1.00  0.00    -0.550 OA
ATOM     10  O   UNL     1      53.449  31.606  54.214  1.00  0.00    -0.550 OA
ENDBRANCH   7   8
ENDBRANCH   6   7
ENDBRANCH   5   6
ENDBRANCH   4   5
ENDBRANCH   3   4
ENDBRANCH   2   3
ENDBRANCH   1   2
BRANCH   1  11
ATOM     11  C   UNL     1      56.643  26.921  50.910  1.00  0.00    -0.031 C 
ATOM     12  C   UNL     1      56.906  27.982  50.132  1.00  0.00    -0.027 C 
BRANCH  12  13
ATOM     13  C   UNL     1      58.015  28.942  50.456  1.00  0.00     0.054 C 
BRANCH  13  14
ATOM     14  C   UNL     1      59.046  28.982  49.356  1.00  0.00    -0.027 C 
ATOM     15  C   UNL     1      60.139  28.199  49.301  1.00  0.00    -0.031 C 
BRANCH  15  16
ATOM     16  C   UNL     1      60.488  27.125  50.305  1.00  0.00     0.027 C 
BRANCH  16  17
ATOM     17  C   UNL     1      60.322  25.725  49.704  1.00  0.00     0.004 C 
BRANCH  17  18
ATOM     18  C   UNL     1      59.527  24.790  50.631  1.00  0.00     0.000 C 
BRANCH  18  19
ATOM     19  C   UNL     1      60.085  23.358  50.645  1.00  0.00    -0.003 C 
ATOM     20  C   UNL     1      61.498  23.271  50.071  1.00  0.00     0.004 C 
ENDBRANCH  18  19
ENDBRANCH  17  18
ENDBRANCH  16  17
ENDBRANCH  15  16
ENDBRANCH  13  14
ENDBRANCH  12  13
ENDBRANCH   1  11
TORSDOF 14
ENDMDL
MODEL 6
REMARK VINA RESULT:    -3.158      9.603     12.075
REMARK INTER + INTRA:          -8.454
REMARK INTER:                  -5.861
REMARK INTRA:                  -2.593
REMARK UNBOUND:                -2.712
REMARK SMILES CCCCCC=CCC=CCCCCCCCC(=O)[O-]
REMARK SMILES IDX 11 1 12 2 13 3 14 4 15 5 16 6 17 7 18 8 19 9 20 10 10 11
REMARK SMILES IDX 9 12 8 13 7 14 6 15 5 16 4 17 3 18 2 19 1 20
REMARK H PARENT
REMARK Flexibility Score: inf
ROOT
ATOM      1  C   UNL     1      64.618  33.647  59.945  1.00  0.00     0.027 C 
ENDROOT
BRANCH   1   2
ATOM      2  C   UNL     1      64.171  34.987  60.549  1.00  0.00     0.004 C 
BRANCH   2   3
ATOM      3  C   UNL     1      62.655  35.055  60.788  1.00  0.00     0.000 C 
BRANCH   3   4
ATOM      4  C   UNL     1      62.175  36.478  61.124  1.00  0.00     0.000 C 
BRANCH   4   5
ATOM      5  C   UNL     1      61.092  36.988  60.156  1.00  0.00     0.000 C 
BRANCH   5   6
ATOM      6  C   UNL     1      60.385  35.896  59.327  1.00  0.00     0.006 C 
BRANCH   6   7
ATOM      7  C   UNL     1      60.193  36.244  57.842  1.00  0.00     0.053 C 
BRANCH   7   8
ATOM      8  C   UNL     1      59.441  35.177  57.109  1.00  0.00     0.041 C 
ATOM      9  O   UNL     1      58.650  34.417  57.729  1.00  0.00    -0.550 OA
ATOM     10  O   UNL     1      59.638  35.000  55.745  1.00  0.00    -0.550 OA
ENDBRANCH   7   8
ENDBRANCH   6   7
ENDBRANCH   5   6
ENDBRANCH   4   5
ENDBRANCH   3   4
ENDBRANCH   2   3
ENDBRANCH   1   2
BRANCH   1  11
ATOM     11  C   UNL     1      64.259  32.503  60.851  1.00  0.00    -0.031 C 
ATOM     12  C   UNL     1      64.556  31.235  60.530  1.00  0.00    -0.027 C 
BRANCH  12  13
ATOM     13  C   UNL     1      64.188  30.087  61.428  1.00  0.00     0.054 C 
BRANCH  13  14
ATOM     14  C   UNL     1      63.039  29.292  60.861  1.00  0.00    -0.027 C 
ATOM     15  C   UNL     1      61.738  29.568  61.071  1.00  0.00    -0.031 C 
BRANCH  15  16
ATOM     16  C   UNL     1      61.218  30.740  61.870  1.00  0.00     0.027 C 
BRANCH  16  17
ATOM     17  C   UNL     1      60.871  31.925  60.960  1.00  0.00     0.004 C 
BRANCH  17  18
ATOM     18  C   UNL     1      60.612  31.480  59.510  1.00  0.00     0.000 C 
BRANCH  18  19
ATOM     19  C   UNL     1      61.384  32.328  58.487  1.00  0.00    -0.003 C 
ATOM     20  C   UNL     1      62.352  31.498  57.644  1.00  0.00     0.004 C 
ENDBRANCH  18  19
ENDBRANCH  17  18
ENDBRANCH  16  17
ENDBRANCH  15  16
ENDBRANCH  13  14
ENDBRANCH  12  13
ENDBRANCH   1  11
TORSDOF 14
ENDMDL
MODEL 7
REMARK VINA RESULT:    -3.110     10.424     12.750
REMARK INTER + INTRA:          -8.367
REMARK INTER:                  -6.069
REMARK INTRA:                  -2.298
REMARK UNBOUND:                -2.712
REMARK SMILES CCCCCC=CCC=CCCCCCCCC(=O)[O-]
REMARK SMILES IDX 11 1 12 2 13 3 14 4 15 5 16 6 17 7 18 8 19 9 20 10 10 11
REMARK SMILES IDX 9 12 8 13 7 14 6 15 5 16 4 17 3 18 2 19 1 20
REMARK H PARENT
REMARK Flexibility Score: inf
ROOT
ATOM      1  C   UNL     1      61.695  32.002  58.580  1.00  0.00     0.027 C 
ENDROOT
BRANCH   1   2
ATOM      2  C   UNL     1      60.650  31.477  59.578  1.00  0.00     0.004 C 
BRANCH   2   3
ATOM      3  C   UNL     1      61.084  31.656  61.041  1.00  0.00     0.000 C 
BRANCH   3   4
ATOM      4  C   UNL     1      61.619  30.352  61.659  1.00  0.00     0.000 C 
BRANCH   4   5
ATOM      5  C   UNL     1      63.152  30.345  61.805  1.00  0.00     0.000 C 
BRANCH   5   6
ATOM      6  C   UNL     1      63.921  29.720  60.622  1.00  0.00     0.006 C 
BRANCH   6   7
ATOM      7  C   UNL     1      65.204  30.469  60.226  1.00  0.00     0.053 C 
BRANCH   7   8
ATOM      8  C   UNL     1      66.411  29.585  60.292  1.00  0.00     0.041 C 
ATOM      9  O   UNL     1      67.249  29.585  59.352  1.00  0.00    -0.550 OA
ATOM     10  O   UNL     1      66.593  28.738  61.377  1.00  0.00    -0.550 OA
ENDBRANCH   7   8
ENDBRANCH   6   7
ENDBRANCH   5   6
ENDBRANCH   4   5
ENDBRANCH   3   4
ENDBRANCH   2   3
ENDBRANCH   1   2
BRANCH   1  11
ATOM     11  C   UNL     1      61.234  33.283  57.944  1.00  0.00    -0.031 C 
ATOM     12  C   UNL     1      59.950  33.667  57.992  1.00  0.00    -0.027 C 
BRANCH  12  13
ATOM     13  C   UNL     1      59.483  34.942  57.348  1.00  0.00     0.054 C 
BRANCH  13  14
ATOM     14  C   UNL     1      60.593  35.961  57.279  1.00  0.00    -0.027 C 
ATOM     15  C   UNL     1      60.918  36.807  58.274  1.00  0.00    -0.031 C 
BRANCH  15  16
ATOM     16  C   UNL     1      60.257  36.846  59.632  1.00  0.00     0.027 C 
BRANCH  16  17
ATOM     17  C   UNL     1      61.284  36.673  60.757  1.00  0.00     0.004 C 
BRANCH  17  18
ATOM     18  C   UNL     1      61.922  35.273  60.746  1.00  0.00     0.000 C 
BRANCH  18  19
ATOM     19  C   UNL     1      63.449  35.320  60.912  1.00  0.00    -0.003 C 
ATOM     20  C   UNL     1      64.070  33.930  61.045  1.00  0.00     0.004 C 
ENDBRANCH  18  19
ENDBRANCH  17  18
ENDBRANCH  16  17
ENDBRANCH  15  16
ENDBRANCH  13  14
ENDBRANCH  12  13
ENDBRANCH   1  11
TORSDOF 14
ENDMDL
MODEL 8
REMARK VINA RESULT:    -3.107      2.382      3.798
REMARK INTER + INTRA:          -8.361
REMARK INTER:                  -5.544
REMARK INTRA:                  -2.817
REMARK UNBOUND:                -2.712
REMARK SMILES CCCCCC=CCC=CCCCCCCCC(=O)[O-]
REMARK SMILES IDX 11 1 12 2 13 3 14 4 15 5 16 6 17 7 18 8 19 9 20 10 10 11
REMARK SMILES IDX 9 12 8 13 7 14 6 15 5 16 4 17 3 18 2 19 1 20
REMARK H PARENT
REMARK Flexibility Score: inf
ROOT
ATOM      1  C   UNL     1      57.420  27.106  52.836  1.00  0.00     0.027 C 
ENDROOT
BRANCH   1   2
ATOM      2  C   UNL     1      58.279  28.359  53.067  1.00  0.00     0.004 C 
BRANCH   2   3
ATOM      3  C   UNL     1      58.185  29.365  51.909  1.00  0.00     0.000 C 
BRANCH   3   4
ATOM      4  C   UNL     1      59.482  29.435  51.085  1.00  0.00     0.000 C 
BRANCH   4   5
ATOM      5  C   UNL     1      59.320  28.856  49.666  1.00  0.00     0.000 C 
BRANCH   5   6
ATOM      6  C   UNL     1      60.196  27.625  49.355  1.00  0.00     0.006 C 
BRANCH   6   7
ATOM      7  C   UNL     1      59.443  26.285  49.369  1.00  0.00     0.053 C 
BRANCH   7   8
ATOM      8  C   UNL     1      60.103  25.281  50.264  1.00  0.00     0.041 C 
ATOM      9  O   UNL     1      59.466  24.772  51.224  1.00  0.00    -0.550 OA
ATOM     10  O   UNL     1      61.431  24.934  50.058  1.00  0.00    -0.550 OA
ENDBRANCH   7   8
ENDBRANCH   6   7
ENDBRANCH   5   6
ENDBRANCH   4   5
ENDBRANCH   3   4
ENDBRANCH   2   3
ENDBRANCH   1   2
BRANCH   1  11
ATOM     11  C   UNL     1      56.657  27.208  51.545  1.00  0.00    -0.031 C 
ATOM     12  C   UNL     1      56.065  26.138  50.994  1.00  0.00    -0.027 C 
BRANCH  12  13
ATOM     13  C   UNL     1      55.311  26.234  49.697  1.00  0.00     0.054 C 
BRANCH  13  14
ATOM     14  C   UNL     1      53.838  26.453  49.933  1.00  0.00    -0.027 C 
ATOM     15  C   UNL     1      53.263  27.656  50.119  1.00  0.00    -0.031 C 
BRANCH  15  16
ATOM     16  C   UNL     1      53.989  28.981  50.078  1.00  0.00     0.027 C 
BRANCH  16  17
ATOM     17  C   UNL     1      53.915  29.698  51.431  1.00  0.00     0.004 C 
BRANCH  17  18
ATOM     18  C   UNL     1      53.063  28.922  52.449  1.00  0.00     0.000 C 
BRANCH  18  19
ATOM     19  C   UNL     1      53.884  28.426  53.650  1.00  0.00    -0.003 C 
ATOM     20  C   UNL     1      53.763  26.918  53.865  1.00  0.00     0.004 C 
ENDBRANCH  18  19
ENDBRANCH  17  18
ENDBRANCH  16  17
ENDBRANCH  15  16
ENDBRANCH  13  14
ENDBRANCH  12  13
ENDBRANCH   1  11
TORSDOF 14
ENDMDL
MODEL 9
REMARK VINA RESULT:    -3.043      2.005      3.304
REMARK INTER + INTRA:          -8.245
REMARK INTER:                  -5.471
REMARK INTRA:                  -2.774
REMARK UNBOUND:                -2.712
REMARK SMILES CCCCCC=CCC=CCCCCCCCC(=O)[O-]
REMARK SMILES IDX 11 1 12 2 13 3 14 4 15 5 16 6 17 7 18 8 19 9 20 10 10 11
REMARK SMILES IDX 9 12 8 13 7 14 6 15 5 16 4 17 3 18 2 19 1 20
REMARK H PARENT
REMARK Flexibility Score: inf
ROOT
ATOM      1  C   UNL     1      58.573  27.589  53.814  1.00  0.00     0.027 C 
ENDROOT
BRANCH   1   2
ATOM      2  C   UNL     1      58.662  29.097  53.531  1.00  0.00     0.004 C 
BRANCH   2   3
ATOM      3  C   UNL     1      58.005  29.491  52.199  1.00  0.00     0.000 C 
BRANCH   3   4
ATOM      4  C   UNL     1      59.023  29.601  51.051  1.00  0.00     0.000 C 
BRANCH   4   5
ATOM      5  C   UNL     1      58.533  28.935  49.752  1.00  0.00     0.000 C 
BRANCH   5   6
ATOM      6  C   UNL     1      59.233  27.608  49.389  1.00  0.00     0.006 C 
BRANCH   6   7
ATOM      7  C   UNL     1      60.769  27.669  49.411  1.00  0.00     0.053 C 
BRANCH   7   8
ATOM      8  C   UNL     1      61.352  26.719  50.410  1.00  0.00     0.041 C 
ATOM      9  O   UNL     1      61.402  25.485  50.160  1.00  0.00    -0.550 OA
ATOM     10  O   UNL     1      61.812  27.192  51.632  1.00  0.00    -0.550 OA
ENDBRANCH   7   8
ENDBRANCH   6   7
ENDBRANCH   5   6
ENDBRANCH   4   5
ENDBRANCH   3   4
ENDBRANCH   2   3
ENDBRANCH   1   2
BRANCH   1  11
ATOM     11  C   UNL     1      57.735  26.896  52.776  1.00  0.00    -0.031 C 
ATOM     12  C   UNL     1      56.645  26.191  53.113  1.00  0.00    -0.027 C 
BRANCH  12  13
ATOM     13  C   UNL     1      55.810  25.488  52.080  1.00  0.00     0.054 C 
BRANCH  13  14
ATOM     14  C   UNL     1      56.217  25.885  50.683  1.00  0.00    -0.027 C 
ATOM     15  C   UNL     1      55.381  26.389  49.756  1.00  0.00    -0.031 C 
BRANCH  15  16
ATOM     16  C   UNL     1      53.915  26.680  49.976  1.00  0.00     0.027 C 
BRANCH  16  17
ATOM     17  C   UNL     1      53.628  28.184  49.902  1.00  0.00     0.004 C 
BRANCH  17  18
ATOM     18  C   UNL     1      54.762  29.018  50.521  1.00  0.00     0.000 C 
BRANCH  18  19
ATOM     19  C   UNL     1      54.307  29.804  51.760  1.00  0.00    -0.003 C 
ATOM     20  C   UNL     1      54.370  28.974  53.042  1.00  0.00     0.004 C 
ENDBRANCH  18  19
ENDBRANCH  17  18
ENDBRANCH  16  17
ENDBRANCH  15  16
ENDBRANCH  13  14
ENDBRANCH  12  13
ENDBRANCH   1  11
TORSDOF 14
ENDMDL
