MODEL 1
REMARK VINA RESULT:    -3.549      0.000      0.000
REMARK INTER + INTRA:          -4.000
REMARK INTER:                  -3.964
REMARK INTRA:                  -0.037
REMARK UNBOUND:                -0.037
REMARK SMILES CCCC(=O)[O-]
REMARK SMILES IDX 3 1 4 2 5 3 6 4 2 5 1 6
REMARK H PARENT
REMARK Flexibility Score: inf
ROOT
ATOM      1  C   UNL     1      13.450  33.932  14.050  1.00  0.00     0.052 C 
ENDROOT
BRANCH   1   2
ATOM      2  C   UNL     1      13.174  32.645  13.335  1.00  0.00     0.041 C 
ATOM      3  O   UNL     1      13.669  32.433  12.198  1.00  0.00    -0.550 OA
ATOM      4  O   UNL     1      12.339  31.695  13.911  1.00  0.00    -0.550 OA
ENDBRANCH   1   2
BRANCH   1   5
ATOM      5  C   UNL     1      14.289  34.889  13.195  1.00  0.00     0.003 C 
ATOM      6  C   UNL     1      13.490  36.109  12.737  1.00  0.00     0.004 C 
ENDBRANCH   1   5
TORSDOF 2
ENDMDL
MODEL 2
REMARK VINA RESULT:    -3.464      2.402      3.349
REMARK INTER + INTRA:          -3.905
REMARK INTER:                  -3.870
REMARK INTRA:                  -0.035
REMARK UNBOUND:                -0.037
REMARK SMILES CCCC(=O)[O-]
REMARK SMILES IDX 3 1 4 2 5 3 6 4 2 5 1 6
REMARK H PARENT
REMARK Flexibility Score: inf
ROOT
ATOM      1  C   UNL     1      13.400  33.539  13.548  1.00  0.00     0.052 C 
ENDROOT
BRANCH   1   2
ATOM      2  C   UNL     1      14.267  34.740  13.322  1.00  0.00     0.041 C 
ATOM      3  O   UNL     1      15.411  34.802  13.842  1.00  0.00    -0.550 OA
ATOM      4  O   UNL     1      13.795  35.806  12.566  1.00  0.00    -0.550 OA
ENDBRANCH   1   2
BRANCH   1   5
ATOM      5  C   UNL     1      13.557  32.505  12.427  1.00  0.00     0.003 C 
ATOM      6  C   UNL     1      14.724  31.551  12.676  1.00  0.00     0.004 C 
ENDBRANCH   1   5
TORSDOF 2
ENDMDL
MODEL 3
REMARK VINA RESULT:    -3.164     14.381     15.073
REMARK INTER + INTRA:          -3.570
REMARK INTER:                  -3.557
REMARK INTRA:                  -0.013
REMARK UNBOUND:                -0.037
REMARK SMILES CCCC(=O)[O-]
REMARK SMILES IDX 3 1 4 2 5 3 6 4 2 5 1 6
REMARK H PARENT
REMARK Flexibility Score: inf
ROOT
ATOM      1  C   UNL     1       4.100  46.106  10.873  1.00  0.00     0.052 C 
ENDROOT
BRANCH   1   2
ATOM      2  C   UNL     1       4.196  44.685  11.336  1.00  0.00     0.041 C 
ATOM      3  O   UNL     1       4.287  44.422  12.563  1.00  0.00    -0.550 OA
ATOM      4  O   UNL     1       4.221  43.651  10.407  1.00  0.00    -0.550 OA
ENDBRANCH   1   2
BRANCH   1   5
ATOM      5  C   UNL     1       4.707  46.292   9.478  1.00  0.00     0.003 C 
ATOM      6  C   UNL     1       5.729  47.428   9.436  1.00  0.00     0.004 C 
ENDBRANCH   1   5
TORSDOF 2
ENDMDL
MODEL 4
REMARK VINA RESULT:    -3.131     12.343     13.184
REMARK INTER + INTRA:          -3.534
REMARK INTER:                  -3.496
REMARK INTRA:                  -0.038
REMARK UNBOUND:                -0.037
REMARK SMILES CCCC(=O)[O-]
REMARK SMILES IDX 3 1 4 2 5 3 6 4 2 5 1 6
REMARK H PARENT
REMARK Flexibility Score: inf
ROOT
ATOM      1  C   UNL     1       3.026  42.121  11.360  1.00  0.00     0.052 C 
ENDROOT
BRANCH   1   2
ATOM      2  C   UNL     1       3.388  41.001  12.286  1.00  0.00     0.041 C 
ATOM      3  O   UNL     1       2.493  40.249  12.752  1.00  0.00    -0.550 OA
ATOM      4  O   UNL     1       4.712  40.811  12.662  1.00  0.00    -0.550 OA
ENDBRANCH   1   2
BRANCH   1   5
ATOM      5  C   UNL     1       2.734  43.418  12.123  1.00  0.00     0.003 C 
ATOM      6  C   UNL     1       3.994  44.252  12.354  1.00  0.00     0.004 C 
ENDBRANCH   1   5
TORSDOF 2
ENDMDL
MODEL 5
REMARK VINA RESULT:    -3.131     13.627     14.153
REMARK INTER + INTRA:          -3.533
REMARK INTER:                  -3.493
REMARK INTRA:                  -0.040
REMARK UNBOUND:                -0.037
REMARK SMILES CCCC(=O)[O-]
REMARK SMILES IDX 3 1 4 2 5 3 6 4 2 5 1 6
REMARK H PARENT
REMARK Flexibility Score: inf
ROOT
ATOM      1  C   UNL     1       2.678  43.620  12.127  1.00  0.00     0.052 C 
ENDROOT
BRANCH   1   2
ATOM      2  C   UNL     1       2.808  42.333  11.372  1.00  0.00     0.041 C 
ATOM      3  O   UNL     1       3.037  41.259  11.986  1.00  0.00    -0.550 OA
ATOM      4  O   UNL     1       2.713  42.328   9.986  1.00  0.00    -0.550 OA
ENDBRANCH   1   2
BRANCH   1   5
ATOM      5  C   UNL     1       4.017  44.360  12.227  1.00  0.00     0.003 C 
ATOM      6  C   UNL     1       4.203  45.378  11.103  1.00  0.00     0.004 C 
ENDBRANCH   1   5
TORSDOF 2
ENDMDL
MODEL 6
REMARK VINA RESULT:    -3.124     15.393     15.928
REMARK INTER + INTRA:          -3.526
REMARK INTER:                  -3.520
REMARK INTRA:                  -0.006
REMARK UNBOUND:                -0.037
REMARK SMILES CCCC(=O)[O-]
REMARK SMILES IDX 3 1 4 2 5 3 6 4 2 5 1 6
REMARK H PARENT
REMARK Flexibility Score: inf
ROOT
ATOM      1  C   UNL     1       4.894  46.419  10.080  1.00  0.00     0.052 C 
ENDROOT
BRANCH   1   2
ATOM      2  C   UNL     1       3.866  45.531   9.448  1.00  0.00     0.041 C 
ATOM      3  O   UNL     1       4.145  44.336   9.171  1.00  0.00    -0.550 OA
ATOM      4  O   UNL     1       2.610  46.036   9.134  1.00  0.00    -0.550 OA
ENDBRANCH   1   2
BRANCH   1   5
ATOM      5  C   UNL     1       5.435  47.456   9.090  1.00  0.00     0.003 C 
ATOM      6  C   UNL     1       6.900  47.803   9.354  1.00  0.00     0.004 C 
ENDBRANCH   1   5
TORSDOF 2
ENDMDL
MODEL 7
REMARK VINA RESULT:    -3.043     14.998     15.981
REMARK INTER + INTRA:          -3.436
REMARK INTER:                  -3.427
REMARK INTRA:                  -0.008
REMARK UNBOUND:                -0.037
REMARK SMILES CCCC(=O)[O-]
REMARK SMILES IDX 3 1 4 2 5 3 6 4 2 5 1 6
REMARK H PARENT
REMARK Flexibility Score: inf
ROOT
ATOM      1  C   UNL     1       3.971  46.348  10.684  1.00  0.00     0.052 C 
ENDROOT
BRANCH   1   2
ATOM      2  C   UNL     1       4.716  47.014   9.568  1.00  0.00     0.041 C 
ATOM      3  O   UNL     1       4.104  47.397   8.537  1.00  0.00    -0.550 OA
ATOM      4  O   UNL     1       6.093  47.181   9.653  1.00  0.00    -0.550 OA
ENDBRANCH   1   2
BRANCH   1   5
ATOM      5  C   UNL     1       4.444  44.905  10.900  1.00  0.00     0.003 C 
ATOM      6  C   UNL     1       4.130  44.396  12.306  1.00  0.00     0.004 C 
ENDBRANCH   1   5
TORSDOF 2
ENDMDL
MODEL 8
REMARK VINA RESULT:    -3.035     14.186     14.994
REMARK INTER + INTRA:          -3.426
REMARK INTER:                  -3.390
REMARK INTRA:                  -0.036
REMARK UNBOUND:                -0.037
REMARK SMILES CCCC(=O)[O-]
REMARK SMILES IDX 3 1 4 2 5 3 6 4 2 5 1 6
REMARK H PARENT
REMARK Flexibility Score: inf
ROOT
ATOM      1  C   UNL     1       4.030  44.381  12.079  1.00  0.00     0.052 C 
ENDROOT
BRANCH   1   2
ATOM      2  C   UNL     1       4.159  45.251  10.866  1.00  0.00     0.041 C 
ATOM      3  O   UNL     1       4.154  46.504  10.981  1.00  0.00    -0.550 OA
ATOM      4  O   UNL     1       4.248  44.676   9.604  1.00  0.00    -0.550 OA
ENDBRANCH   1   2
BRANCH   1   5
ATOM      5  C   UNL     1       2.728  43.572  12.062  1.00  0.00     0.003 C 
ATOM      6  C   UNL     1       2.959  42.107  11.694  1.00  0.00     0.004 C 
ENDBRANCH   1   5
TORSDOF 2
ENDMDL
MODEL 9
REMARK VINA RESULT:    -2.942     14.156     14.682
REMARK INTER + INTRA:          -3.322
REMARK INTER:                  -3.270
REMARK INTRA:                  -0.052
REMARK UNBOUND:                -0.037
REMARK SMILES CCCC(=O)[O-]
REMARK SMILES IDX 3 1 4 2 5 3 6 4 2 5 1 6
REMARK H PARENT
REMARK Flexibility Score: inf
ROOT
ATOM      1  C   UNL     1       2.912  42.526  10.952  1.00  0.00     0.052 C 
ENDROOT
BRANCH   1   2
ATOM      2  C   UNL     1       2.881  43.177   9.603  1.00  0.00     0.041 C 
ATOM      3  O   UNL     1       1.795  43.596   9.125  1.00  0.00    -0.550 OA
ATOM      4  O   UNL     1       4.049  43.289   8.858  1.00  0.00    -0.550 OA
ENDBRANCH   1   2
BRANCH   1   5
ATOM      5  C   UNL     1       2.841  43.559  12.083  1.00  0.00     0.003 C 
ATOM      6  C   UNL     1       4.114  44.399  12.183  1.00  0.00     0.004 C 
ENDBRANCH   1   5
TORSDOF 2
ENDMDL
