MODEL 1
REMARK VINA RESULT:    14.098      0.000      0.000
REMARK INTER + INTRA:          16.538
REMARK INTER:                  16.159
REMARK INTRA:                   0.379
REMARK UNBOUND:                 0.379
REMARK SMILES C=C(C)[C@H]1CC[C@]2(C(=O)[O-])CC[C@@]3(C)[C@H](CC[C@H]4[C@]5(C)CC[C@H](O)C(C)(C)[C@@H]5CC[C@@]43C)[C@@H]12
REMARK SMILES IDX 7 1 6 2 33 3 11 4 5 5 15 6 4 7 12 8 16 9 13 10 17 11 31 12
REMARK SMILES IDX 14 13 18 14 30 15 32 16 19 17 29 18 21 19 20 20 28 21 22 22
REMARK SMILES IDX 25 23 23 24 26 25 27 26 8 27 9 28 10 29 2 30 3 31 1 32 24 33
REMARK H PARENT 24 34
REMARK Flexibility Score: inf
ROOT
ATOM      1  C   UNL     1     -29.028  -2.559  15.772  1.00  0.00     0.014 C 
ATOM      2  C   UNL     1     -28.737  -3.318  14.468  1.00  0.00     0.014 C 
ATOM      3  C   UNL     1     -28.576  -3.580  16.847  1.00  0.00     0.012 C 
ATOM      4  C   UNL     1     -28.192  -1.267  15.973  1.00  0.00     0.014 C 
ATOM      5  C   UNL     1     -29.179  -4.751  14.752  1.00  0.00     0.009 C 
ATOM      6  C   UNL     1     -29.070  -3.187  18.257  1.00  0.00     0.000 C 
ATOM      7  C   UNL     1     -28.751  -5.000  16.210  1.00  0.00     0.018 C 
ATOM      8  C   UNL     1     -27.875  -0.929  17.471  1.00  0.00     0.008 C 
ATOM      9  C   UNL     1     -28.577  -4.157  19.339  1.00  0.00     0.005 C 
ATOM     10  C   UNL     1     -28.799  -1.622  18.573  1.00  0.00    -0.024 C 
ATOM     11  C   UNL     1     -29.020  -3.774  20.753  1.00  0.00     0.005 C 
ATOM     12  C   UNL     1     -28.113  -1.424  20.041  1.00  0.00    -0.024 C 
ATOM     13  C   UNL     1     -30.206  -0.890  18.461  1.00  0.00     0.012 C 
ATOM     14  C   UNL     1     -28.983  -2.252  21.068  1.00  0.00     0.002 C 
ATOM     15  C   UNL     1     -28.059   0.095  20.453  1.00  0.00     0.008 C 
ATOM     16  C   UNL     1     -26.628  -1.974  20.082  1.00  0.00     0.012 C 
ATOM     17  C   UNL     1     -28.811  -1.955  22.622  1.00  0.00    -0.026 C 
ATOM     18  C   UNL     1     -27.893   0.347  21.959  1.00  0.00     0.005 C 
ATOM     19  C   UNL     1     -29.962  -2.664  23.417  1.00  0.00     0.010 C 
ATOM     20  C   UNL     1     -27.484  -2.520  23.244  1.00  0.00     0.012 C 
ATOM     21  C   UNL     1     -28.880  -0.415  22.904  1.00  0.00     0.003 C 
ATOM     22  C   UNL     1     -31.378  -2.240  23.016  1.00  0.00     0.033 C 
ATOM     23  C   UNL     1     -30.349   0.196  23.176  1.00  0.00    -0.006 C 
ATOM     24  C   UNL     1     -31.535  -0.717  22.689  1.00  0.00     0.120 C 
ATOM     25  C   UNL     1     -30.521   1.621  22.563  1.00  0.00     0.014 C 
ATOM     26  C   UNL     1     -30.559   0.387  24.714  1.00  0.00     0.014 C 
ENDROOT
BRANCH   1  27
ATOM     27  C   UNL     1     -30.524  -2.206  15.719  1.00  0.00     0.048 C 
ATOM     28  O   UNL     1     -30.934  -1.314  14.920  1.00  0.00    -0.550 OA
ATOM     29  O   UNL     1     -31.467  -2.848  16.476  1.00  0.00    -0.550 OA
ENDBRANCH   1  27
BRANCH   7  30
ATOM     30  C   UNL     1     -29.582  -6.065  16.942  1.00  0.00    -0.077 C 
ATOM     31  C   UNL     1     -30.958  -6.478  16.486  1.00  0.00     0.039 C 
ATOM     32  C   UNL     1     -29.059  -6.688  18.020  1.00  0.00     0.008 C 
ENDBRANCH   7  30
BRANCH  24  33
ATOM     33  O   UNL     1     -31.840  -0.454  21.337  1.00  0.00    -0.393 OA
ATOM     34  H   UNL     1     -31.324   0.305  20.983  1.00  0.00     0.210 HD
ENDBRANCH  24  33
TORSDOF 3
ENDMDL
MODEL 2
REMARK VINA RESULT:    16.052      1.881      2.683
REMARK INTER + INTRA:          18.777
REMARK INTER:                  15.841
REMARK INTRA:                   2.937
REMARK UNBOUND:                 0.379
REMARK SMILES C=C(C)[C@H]1CC[C@]2(C(=O)[O-])CC[C@@]3(C)[C@H](CC[C@H]4[C@]5(C)CC[C@H](O)C(C)(C)[C@@H]5CC[C@@]43C)[C@@H]12
REMARK SMILES IDX 7 1 6 2 33 3 11 4 5 5 15 6 4 7 12 8 16 9 13 10 17 11 31 12
REMARK SMILES IDX 14 13 18 14 30 15 32 16 19 17 29 18 21 19 20 20 28 21 22 22
REMARK SMILES IDX 25 23 23 24 26 25 27 26 8 27 9 28 10 29 2 30 3 31 1 32 24 33
REMARK H PARENT 24 34
REMARK Flexibility Score: inf
ROOT
ATOM      1  C   UNL     1     -27.428  -2.116  16.406  1.00  0.00     0.014 C 
ATOM      2  C   UNL     1     -27.309  -2.804  15.037  1.00  0.00     0.014 C 
ATOM      3  C   UNL     1     -28.632  -2.861  17.037  1.00  0.00     0.012 C 
ATOM      4  C   UNL     1     -26.209  -2.319  17.345  1.00  0.00     0.014 C 
ATOM      5  C   UNL     1     -28.750  -2.976  14.568  1.00  0.00     0.009 C 
ATOM      6  C   UNL     1     -29.166  -2.133  18.290  1.00  0.00     0.000 C 
ATOM      7  C   UNL     1     -29.525  -3.346  15.846  1.00  0.00     0.018 C 
ATOM      8  C   UNL     1     -26.565  -2.341  18.872  1.00  0.00     0.008 C 
ATOM      9  C   UNL     1     -30.319  -2.893  18.960  1.00  0.00     0.005 C 
ATOM     10  C   UNL     1     -27.966  -1.701  19.290  1.00  0.00    -0.024 C 
ATOM     11  C   UNL     1     -30.846  -2.215  20.226  1.00  0.00     0.005 C 
ATOM     12  C   UNL     1     -28.301  -2.118  20.832  1.00  0.00    -0.024 C 
ATOM     13  C   UNL     1     -27.779  -0.132  19.117  1.00  0.00     0.012 C 
ATOM     14  C   UNL     1     -29.757  -1.589  21.144  1.00  0.00     0.002 C 
ATOM     15  C   UNL     1     -27.257  -1.501  21.836  1.00  0.00     0.008 C 
ATOM     16  C   UNL     1     -28.281  -3.688  21.041  1.00  0.00     0.012 C 
ATOM     17  C   UNL     1     -30.222  -1.492  22.662  1.00  0.00    -0.026 C 
ATOM     18  C   UNL     1     -27.736  -1.420  23.294  1.00  0.00     0.005 C 
ATOM     19  C   UNL     1     -31.561  -0.679  22.746  1.00  0.00     0.010 C 
ATOM     20  C   UNL     1     -30.550  -2.878  23.327  1.00  0.00     0.012 C 
ATOM     21  C   UNL     1     -29.137  -0.765  23.530  1.00  0.00     0.003 C 
ATOM     22  C   UNL     1     -31.484   0.746  22.191  1.00  0.00     0.033 C 
ATOM     23  C   UNL     1     -29.257   0.842  23.622  1.00  0.00    -0.006 C 
ATOM     24  C   UNL     1     -30.143   1.495  22.498  1.00  0.00     0.120 C 
ATOM     25  C   UNL     1     -27.861   1.539  23.637  1.00  0.00     0.014 C 
ATOM     26  C   UNL     1     -29.924   1.239  24.979  1.00  0.00     0.014 C 
ENDROOT
BRANCH   1  27
ATOM     27  C   UNL     1     -27.605  -0.619  16.102  1.00  0.00     0.048 C 
ATOM     28  O   UNL     1     -28.213   0.126  16.926  1.00  0.00    -0.550 OA
ATOM     29  O   UNL     1     -27.092  -0.022  14.982  1.00  0.00    -0.550 OA
ENDBRANCH   1  27
BRANCH   7  30
ATOM     30  C   UNL     1     -31.017  -2.976  15.813  1.00  0.00    -0.077 C 
ATOM     31  C   UNL     1     -31.594  -1.852  16.636  1.00  0.00     0.039 C 
ATOM     32  C   UNL     1     -31.850  -3.654  14.996  1.00  0.00     0.008 C 
ENDBRANCH   7  30
BRANCH  24  33
ATOM     33  O   UNL     1     -29.369   1.769  21.351  1.00  0.00    -0.393 OA
ATOM     34  H   UNL     1     -29.846   2.346  20.713  1.00  0.00     0.210 HD
ENDBRANCH  24  33
TORSDOF 3
ENDMDL
MODEL 3
REMARK VINA RESULT:    16.310      1.935      3.450
REMARK INTER + INTRA:          19.073
REMARK INTER:                  18.110
REMARK INTRA:                   0.963
REMARK UNBOUND:                 0.379
REMARK SMILES C=C(C)[C@H]1CC[C@]2(C(=O)[O-])CC[C@@]3(C)[C@H](CC[C@H]4[C@]5(C)CC[C@H](O)C(C)(C)[C@@H]5CC[C@@]43C)[C@@H]12
REMARK SMILES IDX 7 1 6 2 33 3 11 4 5 5 15 6 4 7 12 8 16 9 13 10 17 11 31 12
REMARK SMILES IDX 14 13 18 14 30 15 32 16 19 17 29 18 21 19 20 20 28 21 22 22
REMARK SMILES IDX 25 23 23 24 26 25 27 26 8 27 9 28 10 29 2 30 3 31 1 32 24 33
REMARK H PARENT 24 34
REMARK Flexibility Score: inf
ROOT
ATOM      1  C   UNL     1     -29.558  -3.494  16.142  1.00  0.00     0.014 C 
ATOM      2  C   UNL     1     -29.431  -3.665  14.620  1.00  0.00     0.014 C 
ATOM      3  C   UNL     1     -28.435  -2.471  16.446  1.00  0.00     0.012 C 
ATOM      4  C   UNL     1     -30.899  -2.873  16.617  1.00  0.00     0.014 C 
ATOM      5  C   UNL     1     -27.928  -3.707  14.363  1.00  0.00     0.009 C 
ATOM      6  C   UNL     1     -28.137  -2.377  17.958  1.00  0.00     0.000 C 
ATOM      7  C   UNL     1     -27.346  -2.667  15.339  1.00  0.00     0.018 C 
ATOM      8  C   UNL     1     -30.785  -2.010  17.921  1.00  0.00     0.008 C 
ATOM      9  C   UNL     1     -27.070  -1.322  18.279  1.00  0.00     0.005 C 
ATOM     10  C   UNL     1     -29.497  -2.255  18.831  1.00  0.00    -0.024 C 
ATOM     11  C   UNL     1     -26.779  -1.180  19.774  1.00  0.00     0.005 C 
ATOM     12  C   UNL     1     -29.388  -1.054  19.931  1.00  0.00    -0.024 C 
ATOM     13  C   UNL     1     -29.725  -3.674  19.510  1.00  0.00     0.012 C 
ATOM     14  C   UNL     1     -28.024  -1.259  20.702  1.00  0.00     0.002 C 
ATOM     15  C   UNL     1     -30.603  -1.076  20.932  1.00  0.00     0.008 C 
ATOM     16  C   UNL     1     -29.369   0.377  19.249  1.00  0.00     0.012 C 
ATOM     17  C   UNL     1     -27.807  -0.496  22.080  1.00  0.00    -0.026 C 
ATOM     18  C   UNL     1     -30.362  -0.331  22.254  1.00  0.00     0.005 C 
ATOM     19  C   UNL     1     -26.537  -1.069  22.799  1.00  0.00     0.010 C 
ATOM     20  C   UNL     1     -27.525   1.042  21.929  1.00  0.00     0.012 C 
ATOM     21  C   UNL     1     -29.046  -0.687  23.022  1.00  0.00     0.003 C 
ATOM     22  C   UNL     1     -26.590  -2.570  23.101  1.00  0.00     0.033 C 
ATOM     23  C   UNL     1     -29.016  -1.979  23.988  1.00  0.00    -0.006 C 
ATOM     24  C   UNL     1     -27.995  -3.095  23.552  1.00  0.00     0.120 C 
ATOM     25  C   UNL     1     -30.427  -2.623  24.161  1.00  0.00     0.014 C 
ATOM     26  C   UNL     1     -28.588  -1.546  25.428  1.00  0.00     0.014 C 
ENDROOT
BRANCH   1  27
ATOM     27  C   UNL     1     -29.404  -4.907  16.729  1.00  0.00     0.048 C 
ATOM     28  O   UNL     1     -28.701  -5.087  17.766  1.00  0.00    -0.550 OA
ATOM     29  O   UNL     1     -30.035  -6.004  16.206  1.00  0.00    -0.550 OA
ENDBRANCH   1  27
BRANCH   7  30
ATOM     30  C   UNL     1     -25.886  -2.925  15.744  1.00  0.00    -0.077 C 
ATOM     31  C   UNL     1     -25.459  -4.152  16.508  1.00  0.00     0.039 C 
ATOM     32  C   UNL     1     -24.931  -2.041  15.382  1.00  0.00     0.008 C 
ENDBRANCH   7  30
BRANCH  24  33
ATOM     33  O   UNL     1     -28.593  -3.983  22.633  1.00  0.00    -0.393 OA
ATOM     34  H   UNL     1     -28.509  -3.665  21.706  1.00  0.00     0.210 HD
ENDBRANCH  24  33
TORSDOF 3
ENDMDL
MODEL 4
REMARK VINA RESULT:    17.074      2.328      4.467
REMARK INTER + INTRA:          19.948
REMARK INTER:                  19.421
REMARK INTRA:                   0.527
REMARK UNBOUND:                 0.379
REMARK SMILES C=C(C)[C@H]1CC[C@]2(C(=O)[O-])CC[C@@]3(C)[C@H](CC[C@H]4[C@]5(C)CC[C@H](O)C(C)(C)[C@@H]5CC[C@@]43C)[C@@H]12
REMARK SMILES IDX 7 1 6 2 33 3 11 4 5 5 15 6 4 7 12 8 16 9 13 10 17 11 31 12
REMARK SMILES IDX 14 13 18 14 30 15 32 16 19 17 29 18 21 19 20 20 28 21 22 22
REMARK SMILES IDX 25 23 23 24 26 25 27 26 8 27 9 28 10 29 2 30 3 31 1 32 24 33
REMARK H PARENT 24 34
REMARK Flexibility Score: inf
ROOT
ATOM      1  C   UNL     1     -27.712  -3.216  16.027  1.00  0.00     0.014 C 
ATOM      2  C   UNL     1     -27.755  -3.301  14.493  1.00  0.00     0.014 C 
ATOM      3  C   UNL     1     -28.254  -1.788  16.286  1.00  0.00     0.012 C 
ATOM      4  C   UNL     1     -28.650  -4.213  16.760  1.00  0.00     0.014 C 
ATOM      5  C   UNL     1     -27.271  -1.934  14.020  1.00  0.00     0.009 C 
ATOM      6  C   UNL     1     -28.004  -1.333  17.740  1.00  0.00     0.000 C 
ATOM      7  C   UNL     1     -27.896  -0.942  15.018  1.00  0.00     0.018 C 
ATOM      8  C   UNL     1     -29.209  -3.688  18.127  1.00  0.00     0.008 C 
ATOM      9  C   UNL     1     -28.592   0.056  18.027  1.00  0.00     0.005 C 
ATOM     10  C   UNL     1     -28.418  -2.479  18.808  1.00  0.00    -0.024 C 
ATOM     11  C   UNL     1     -28.392   0.519  19.471  1.00  0.00     0.005 C 
ATOM     12  C   UNL     1     -29.328  -1.863  20.015  1.00  0.00    -0.024 C 
ATOM     13  C   UNL     1     -27.060  -3.112  19.339  1.00  0.00     0.012 C 
ATOM     14  C   UNL     1     -28.572  -0.584  20.552  1.00  0.00     0.002 C 
ATOM     15  C   UNL     1     -29.540  -2.912  21.170  1.00  0.00     0.008 C 
ATOM     16  C   UNL     1     -30.765  -1.423  19.512  1.00  0.00     0.012 C 
ATOM     17  C   UNL     1     -28.994   0.011  21.966  1.00  0.00    -0.026 C 
ATOM     18  C   UNL     1     -29.946  -2.306  22.523  1.00  0.00     0.005 C 
ATOM     19  C   UNL     1     -27.933   1.072  22.422  1.00  0.00     0.010 C 
ATOM     20  C   UNL     1     -30.361   0.785  21.959  1.00  0.00     0.012 C 
ATOM     21  C   UNL     1     -29.066  -1.123  23.046  1.00  0.00     0.003 C 
ATOM     22  C   UNL     1     -26.503   0.540  22.548  1.00  0.00     0.033 C 
ATOM     23  C   UNL     1     -27.697  -1.442  23.838  1.00  0.00    -0.006 C 
ATOM     24  C   UNL     1     -26.396  -0.910  23.131  1.00  0.00     0.120 C 
ATOM     25  C   UNL     1     -27.525  -2.965  24.134  1.00  0.00     0.014 C 
ATOM     26  C   UNL     1     -27.733  -0.757  25.243  1.00  0.00     0.014 C 
ENDROOT
BRANCH   1  27
ATOM     27  C   UNL     1     -26.251  -3.497  16.415  1.00  0.00     0.048 C 
ATOM     28  O   UNL     1     -25.736  -4.626  16.163  1.00  0.00    -0.550 OA
ATOM     29  O   UNL     1     -25.441  -2.557  16.994  1.00  0.00    -0.550 OA
ENDBRANCH   1  27
BRANCH   7  30
ATOM     30  C   UNL     1     -27.118   0.374  15.177  1.00  0.00    -0.077 C 
ATOM     31  C   UNL     1     -25.651   0.495  14.854  1.00  0.00     0.039 C 
ATOM     32  C   UNL     1     -27.769   1.483  15.590  1.00  0.00     0.008 C 
ENDBRANCH   7  30
BRANCH  24  33
ATOM     33  O   UNL     1     -25.907  -1.859  22.208  1.00  0.00    -0.393 OA
ATOM     34  H   UNL     1     -26.629  -2.250  21.666  1.00  0.00     0.210 HD
ENDBRANCH  24  33
TORSDOF 3
ENDMDL
