MODEL 1
REMARK VINA RESULT:    -4.158      0.000      0.000
REMARK INTER + INTRA:          -4.279
REMARK INTER:                  -4.279
REMARK INTRA:                   0.000
REMARK UNBOUND:                 0.000
REMARK SMILES O=c1ccc2ccc(O)cc2o1
REMARK SMILES IDX 6 1 7 2 8 3 10 4 11 5 5 6 4 7 3 8 2 9 1 10 12 11 9 12
REMARK H PARENT 9 13
REMARK Flexibility Score: inf
ROOT
ATOM      1  C   UNL     1       3.546   0.644 -17.242  1.00  0.00     0.016 A 
ATOM      2  C   UNL     1       3.023   0.971 -18.497  1.00  0.00     0.047 A 
ATOM      3  C   UNL     1       3.393   2.169 -19.128  1.00  0.00     0.119 A 
ATOM      4  C   UNL     1       4.290   3.041 -18.499  1.00  0.00     0.094 A 
ATOM      5  C   UNL     1       4.818   2.722 -17.243  1.00  0.00     0.142 A 
ATOM      6  C   UNL     1       4.444   1.515 -16.610  1.00  0.00     0.018 A 
ATOM      7  C   UNL     1       4.988   1.224 -15.355  1.00  0.00     0.019 A 
ATOM      8  C   UNL     1       5.877   2.125 -14.769  1.00  0.00     0.094 A 
ATOM      9  C   UNL     1       6.202   3.300 -15.455  1.00  0.00     0.336 A 
ATOM     10  O   UNL     1       7.002   4.125 -14.942  1.00  0.00    -0.246 OA
ATOM     11  O   UNL     1       5.670   3.554 -16.648  1.00  0.00    -0.423 OA
ENDROOT
BRANCH   3  12
ATOM     12  O   UNL     1       2.877   2.501 -20.378  1.00  0.00    -0.508 OA
ATOM     13  H   UNL     1       3.478   2.802 -21.136  1.00  0.00     0.293 HD
ENDBRANCH   3  12
TORSDOF 1
ENDMDL
MODEL 2
REMARK VINA RESULT:    -3.942      0.845      4.225
REMARK INTER + INTRA:          -4.057
REMARK INTER:                  -4.057
REMARK INTRA:                   0.000
REMARK UNBOUND:                 0.000
REMARK SMILES O=c1ccc2ccc(O)cc2o1
REMARK SMILES IDX 6 1 7 2 8 3 10 4 11 5 5 6 4 7 3 8 2 9 1 10 12 11 9 12
REMARK H PARENT 9 13
REMARK Flexibility Score: inf
ROOT
ATOM      1  C   UNL     1       4.991   0.832 -15.587  1.00  0.00     0.016 A 
ATOM      2  C   UNL     1       5.851   1.686 -14.887  1.00  0.00     0.047 A 
ATOM      3  C   UNL     1       6.145   2.962 -15.391  1.00  0.00     0.119 A 
ATOM      4  C   UNL     1       5.576   3.384 -16.598  1.00  0.00     0.094 A 
ATOM      5  C   UNL     1       4.716   2.538 -17.305  1.00  0.00     0.142 A 
ATOM      6  C   UNL     1       4.421   1.253 -16.796  1.00  0.00     0.018 A 
ATOM      7  C   UNL     1       3.557   0.429 -17.525  1.00  0.00     0.019 A 
ATOM      8  C   UNL     1       3.017   0.895 -18.723  1.00  0.00     0.094 A 
ATOM      9  C   UNL     1       3.353   2.179 -19.165  1.00  0.00     0.336 A 
ATOM     10  O   UNL     1       2.875   2.617 -20.244  1.00  0.00    -0.246 OA
ATOM     11  O   UNL     1       4.178   2.943 -18.453  1.00  0.00    -0.423 OA
ENDROOT
BRANCH   3  12
ATOM     12  O   UNL     1       7.000   3.817 -14.699  1.00  0.00    -0.508 OA
ATOM     13  H   UNL     1       7.993   3.628 -14.627  1.00  0.00     0.293 HD
ENDBRANCH   3  12
TORSDOF 1
ENDMDL
MODEL 3
REMARK VINA RESULT:    -3.798      1.916      4.820
REMARK INTER + INTRA:          -3.910
REMARK INTER:                  -3.910
REMARK INTRA:                   0.000
REMARK UNBOUND:                 0.000
REMARK SMILES O=c1ccc2ccc(O)cc2o1
REMARK SMILES IDX 6 1 7 2 8 3 10 4 11 5 5 6 4 7 3 8 2 9 1 10 12 11 9 12
REMARK H PARENT 9 13
REMARK Flexibility Score: inf
ROOT
ATOM      1  C   UNL     1       4.005   3.509 -16.963  1.00  0.00     0.016 A 
ATOM      2  C   UNL     1       4.539   3.352 -15.680  1.00  0.00     0.047 A 
ATOM      3  C   UNL     1       4.770   2.069 -15.162  1.00  0.00     0.119 A 
ATOM      4  C   UNL     1       4.465   0.940 -15.931  1.00  0.00     0.094 A 
ATOM      5  C   UNL     1       3.931   1.087 -17.216  1.00  0.00     0.142 A 
ATOM      6  C   UNL     1       3.698   2.381 -17.736  1.00  0.00     0.018 A 
ATOM      7  C   UNL     1       3.163   2.496 -19.022  1.00  0.00     0.019 A 
ATOM      8  C   UNL     1       2.875   1.341 -19.749  1.00  0.00     0.094 A 
ATOM      9  C   UNL     1       3.131   0.094 -19.170  1.00  0.00     0.336 A 
ATOM     10  O   UNL     1       2.878  -0.959 -19.811  1.00  0.00    -0.246 OA
ATOM     11  O   UNL     1       3.641   0.012 -17.944  1.00  0.00    -0.423 OA
ENDROOT
BRANCH   3  12
ATOM     12  O   UNL     1       5.302   1.906 -13.885  1.00  0.00    -0.508 OA
ATOM     13  H   UNL     1       5.915   1.130 -13.663  1.00  0.00     0.293 HD
ENDBRANCH   3  12
TORSDOF 1
ENDMDL
MODEL 4
REMARK VINA RESULT:    -3.691      1.715      2.395
REMARK INTER + INTRA:          -3.799
REMARK INTER:                  -3.799
REMARK INTRA:                   0.000
REMARK UNBOUND:                 0.000
REMARK SMILES O=c1ccc2ccc(O)cc2o1
REMARK SMILES IDX 6 1 7 2 8 3 10 4 11 5 5 6 4 7 3 8 2 9 1 10 12 11 9 12
REMARK H PARENT 9 13
REMARK Flexibility Score: inf
ROOT
ATOM      1  C   UNL     1       3.132   2.754 -18.831  1.00  0.00     0.016 A 
ATOM      2  C   UNL     1       2.875   1.555 -19.504  1.00  0.00     0.047 A 
ATOM      3  C   UNL     1       3.192   0.325 -18.906  1.00  0.00     0.119 A 
ATOM      4  C   UNL     1       3.769   0.298 -17.631  1.00  0.00     0.094 A 
ATOM      5  C   UNL     1       4.030   1.492 -16.950  1.00  0.00     0.142 A 
ATOM      6  C   UNL     1       3.710   2.729 -17.554  1.00  0.00     0.018 A 
ATOM      7  C   UNL     1       3.983   3.905 -16.850  1.00  0.00     0.019 A 
ATOM      8  C   UNL     1       4.559   3.826 -15.582  1.00  0.00     0.094 A 
ATOM      9  C   UNL     1       4.848   2.566 -15.047  1.00  0.00     0.336 A 
ATOM     10  O   UNL     1       5.368   2.474 -13.904  1.00  0.00    -0.246 OA
ATOM     11  O   UNL     1       4.579   1.461 -15.738  1.00  0.00    -0.423 OA
ENDROOT
BRANCH   3  12
ATOM     12  O   UNL     1       2.938  -0.872 -19.570  1.00  0.00    -0.508 OA
ATOM     13  H   UNL     1       3.537  -1.681 -19.451  1.00  0.00     0.293 HD
ENDBRANCH   3  12
TORSDOF 1
ENDMDL
MODEL 5
REMARK VINA RESULT:    -3.135      1.789      4.577
REMARK INTER + INTRA:          -3.227
REMARK INTER:                  -3.227
REMARK INTRA:                   0.000
REMARK UNBOUND:                 0.000
REMARK SMILES O=c1ccc2ccc(O)cc2o1
REMARK SMILES IDX 6 1 7 2 8 3 10 4 11 5 5 6 4 7 3 8 2 9 1 10 12 11 9 12
REMARK H PARENT 9 13
REMARK Flexibility Score: inf
ROOT
ATOM      1  C   UNL     1       4.952   3.612 -15.737  1.00  0.00     0.016 A 
ATOM      2  C   UNL     1       5.315   2.658 -14.781  1.00  0.00     0.047 A 
ATOM      3  C   UNL     1       5.141   1.290 -15.044  1.00  0.00     0.119 A 
ATOM      4  C   UNL     1       4.601   0.878 -16.268  1.00  0.00     0.094 A 
ATOM      5  C   UNL     1       4.235   1.825 -17.230  1.00  0.00     0.142 A 
ATOM      6  C   UNL     1       4.411   3.202 -16.964  1.00  0.00     0.018 A 
ATOM      7  C   UNL     1       4.035   4.124 -17.945  1.00  0.00     0.019 A 
ATOM      8  C   UNL     1       3.501   3.664 -19.147  1.00  0.00     0.094 A 
ATOM      9  C   UNL     1       3.355   2.286 -19.342  1.00  0.00     0.336 A 
ATOM     10  O   UNL     1       2.875   1.852 -20.421  1.00  0.00    -0.246 OA
ATOM     11  O   UNL     1       3.721   1.429 -18.392  1.00  0.00    -0.423 OA
ENDROOT
BRANCH   3  12
ATOM     12  O   UNL     1       5.502   0.335 -14.096  1.00  0.00    -0.508 OA
ATOM     13  H   UNL     1       6.430  -0.070 -14.081  1.00  0.00     0.293 HD
ENDBRANCH   3  12
TORSDOF 1
ENDMDL
MODEL 6
REMARK VINA RESULT:    -2.840      2.489      3.141
REMARK INTER + INTRA:          -2.923
REMARK INTER:                  -2.923
REMARK INTRA:                   0.000
REMARK UNBOUND:                 0.000
REMARK SMILES O=c1ccc2ccc(O)cc2o1
REMARK SMILES IDX 6 1 7 2 8 3 10 4 11 5 5 6 4 7 3 8 2 9 1 10 12 11 9 12
REMARK H PARENT 9 13
REMARK Flexibility Score: inf
ROOT
ATOM      1  C   UNL     1       2.916  -0.530 -19.380  1.00  0.00     0.016 A 
ATOM      2  C   UNL     1       2.905  -0.451 -20.777  1.00  0.00     0.047 A 
ATOM      3  C   UNL     1       2.885   0.798 -21.415  1.00  0.00     0.119 A 
ATOM      4  C   UNL     1       2.875   1.972 -20.652  1.00  0.00     0.094 A 
ATOM      5  C   UNL     1       2.886   1.903 -19.255  1.00  0.00     0.142 A 
ATOM      6  C   UNL     1       2.906   0.643 -18.614  1.00  0.00     0.018 A 
ATOM      7  C   UNL     1       2.916   0.607 -17.216  1.00  0.00     0.019 A 
ATOM      8  C   UNL     1       2.905   1.803 -16.500  1.00  0.00     0.094 A 
ATOM      9  C   UNL     1       2.885   3.014 -17.202  1.00  0.00     0.336 A 
ATOM     10  O   UNL     1       2.875   4.104 -16.573  1.00  0.00    -0.246 OA
ATOM     11  O   UNL     1       2.876   3.021 -18.533  1.00  0.00    -0.423 OA
ENDROOT
BRANCH   3  12
ATOM     12  O   UNL     1       2.875   0.884 -22.805  1.00  0.00    -0.508 OA
ATOM     13  H   UNL     1       2.115   1.334 -23.302  1.00  0.00     0.293 HD
ENDBRANCH   3  12
TORSDOF 1
ENDMDL
MODEL 7
REMARK VINA RESULT:    -1.907      3.074      6.116
REMARK INTER + INTRA:          -1.963
REMARK INTER:                  -1.963
REMARK INTRA:                   0.000
REMARK UNBOUND:                 0.000
REMARK SMILES O=c1ccc2ccc(O)cc2o1
REMARK SMILES IDX 6 1 7 2 8 3 10 4 11 5 5 6 4 7 3 8 2 9 1 10 12 11 9 12
REMARK H PARENT 9 13
REMARK Flexibility Score: inf
ROOT
ATOM      1  C   UNL     1       3.042   2.495 -20.496  1.00  0.00     0.016 A 
ATOM      2  C   UNL     1       3.122   2.714 -19.117  1.00  0.00     0.047 A 
ATOM      3  C   UNL     1       3.159   1.627 -18.229  1.00  0.00     0.119 A 
ATOM      4  C   UNL     1       3.116   0.319 -18.725  1.00  0.00     0.094 A 
ATOM      5  C   UNL     1       3.037   0.091 -20.103  1.00  0.00     0.142 A 
ATOM      6  C   UNL     1       2.999   1.187 -20.996  1.00  0.00     0.018 A 
ATOM      7  C   UNL     1       2.919   0.927 -22.367  1.00  0.00     0.019 A 
ATOM      8  C   UNL     1       2.879  -0.394 -22.812  1.00  0.00     0.094 A 
ATOM      9  C   UNL     1       2.920  -1.428 -21.871  1.00  0.00     0.336 A 
ATOM     10  O   UNL     1       2.884  -2.627 -22.254  1.00  0.00    -0.246 OA
ATOM     11  O   UNL     1       2.996  -1.154 -20.571  1.00  0.00    -0.423 OA
ENDROOT
BRANCH   3  12
ATOM     12  O   UNL     1       3.238   1.838 -16.855  1.00  0.00    -0.508 OA
ATOM     13  H   UNL     1       4.013   2.343 -16.441  1.00  0.00     0.293 HD
ENDBRANCH   3  12
TORSDOF 1
ENDMDL
MODEL 8
REMARK VINA RESULT:    -1.488      1.778      4.538
REMARK INTER + INTRA:          -1.531
REMARK INTER:                  -1.531
REMARK INTRA:                   0.000
REMARK UNBOUND:                 0.000
REMARK SMILES O=c1ccc2ccc(O)cc2o1
REMARK SMILES IDX 6 1 7 2 8 3 10 4 11 5 5 6 4 7 3 8 2 9 1 10 12 11 9 12
REMARK H PARENT 9 13
REMARK Flexibility Score: inf
ROOT
ATOM      1  C   UNL     1       3.457   0.486 -16.514  1.00  0.00     0.016 A 
ATOM      2  C   UNL     1       3.634   1.597 -15.682  1.00  0.00     0.047 A 
ATOM      3  C   UNL     1       3.657   2.891 -16.224  1.00  0.00     0.119 A 
ATOM      4  C   UNL     1       3.502   3.072 -17.603  1.00  0.00     0.094 A 
ATOM      5  C   UNL     1       3.325   1.968 -18.443  1.00  0.00     0.142 A 
ATOM      6  C   UNL     1       3.302   0.665 -17.895  1.00  0.00     0.018 A 
ATOM      7  C   UNL     1       3.124  -0.419 -18.760  1.00  0.00     0.019 A 
ATOM      8  C   UNL     1       2.975  -0.186 -20.127  1.00  0.00     0.094 A 
ATOM      9  C   UNL     1       3.008   1.130 -20.598  1.00  0.00     0.336 A 
ATOM     10  O   UNL     1       2.875   1.360 -21.829  1.00  0.00    -0.246 OA
ATOM     11  O   UNL     1       3.179   2.145 -19.754  1.00  0.00    -0.423 OA
ENDROOT
BRANCH   3  12
ATOM     12  O   UNL     1       3.831   4.001 -15.401  1.00  0.00    -0.508 OA
ATOM     13  H   UNL     1       4.509   4.721 -15.621  1.00  0.00     0.293 HD
ENDBRANCH   3  12
TORSDOF 1
ENDMDL
