MODEL 1
REMARK VINA RESULT:    -3.807      0.000      0.000
REMARK INTER + INTRA:          -8.348
REMARK INTER:                  -6.922
REMARK INTRA:                  -1.425
REMARK UNBOUND:                -1.425
REMARK SMILES CCCCCCCCCCCCCC[C@@H](C)C(=O)[O-]
REMARK SMILES IDX 9 1 10 2 11 3 12 4 13 5 14 6 15 7 16 8 17 9 18 10 19 11 8 12
REMARK SMILES IDX 7 13 6 14 5 15 4 16 3 17 2 18 1 19
REMARK H PARENT
REMARK Flexibility Score: inf
ROOT
ATOM      1  C   UNL     1      -8.813  -8.157  -6.420  1.00  0.00     0.000 C 
ENDROOT
BRANCH   1   2
ATOM      2  C   UNL     1     -10.256  -8.663  -6.559  1.00  0.00     0.000 C 
BRANCH   2   3
ATOM      3  C   UNL     1     -10.916  -8.824  -5.180  1.00  0.00     0.000 C 
BRANCH   3   4
ATOM      4  C   UNL     1     -12.025  -9.892  -5.166  1.00  0.00     0.000 C 
BRANCH   4   5
ATOM      5  C   UNL     1     -13.221  -9.604  -6.092  1.00  0.00     0.001 C 
BRANCH   5   6
ATOM      6  C   UNL     1     -14.267  -8.675  -5.450  1.00  0.00     0.009 C 
BRANCH   6   7
ATOM      7  C   UNL     1     -14.706  -7.546  -6.407  1.00  0.00     0.032 C 
ATOM      8  C   UNL     1     -13.566  -7.173  -7.362  1.00  0.00     0.014 C 
BRANCH   7   9
ATOM      9  C   UNL     1     -15.928  -7.932  -7.196  1.00  0.00     0.044 C 
ATOM     10  O   UNL     1     -16.663  -8.882  -6.815  1.00  0.00    -0.550 OA
ATOM     11  O   UNL     1     -16.251  -7.239  -8.356  1.00  0.00    -0.550 OA
ENDBRANCH   7   9
ENDBRANCH   6   7
ENDBRANCH   5   6
ENDBRANCH   4   5
ENDBRANCH   3   4
ENDBRANCH   2   3
ENDBRANCH   1   2
BRANCH   1  12
ATOM     12  C   UNL     1      -7.844  -9.251  -5.946  1.00  0.00     0.000 C 
BRANCH  12  13
ATOM     13  C   UNL     1      -8.104 -10.606  -6.624  1.00  0.00    -0.000 C 
BRANCH  13  14
ATOM     14  C   UNL     1      -7.227 -10.772  -7.870  1.00  0.00    -0.000 C 
BRANCH  14  15
ATOM     15  C   UNL     1      -5.743 -10.866  -7.491  1.00  0.00    -0.000 C 
BRANCH  15  16
ATOM     16  C   UNL     1      -4.871 -10.081  -8.478  1.00  0.00    -0.000 C 
BRANCH  16  17
ATOM     17  C   UNL     1      -4.864  -8.586  -8.138  1.00  0.00    -0.000 C 
BRANCH  17  18
ATOM     18  C   UNL     1      -4.271  -8.342  -6.745  1.00  0.00    -0.003 C 
ATOM     19  C   UNL     1      -3.755  -6.913  -6.609  1.00  0.00     0.004 C 
ENDBRANCH  17  18
ENDBRANCH  16  17
ENDBRANCH  15  16
ENDBRANCH  14  15
ENDBRANCH  13  14
ENDBRANCH  12  13
ENDBRANCH   1  12
TORSDOF 14
ENDMDL
MODEL 2
REMARK VINA RESULT:    -3.687      1.515      2.089
REMARK INTER + INTRA:          -8.131
REMARK INTER:                  -7.128
REMARK INTRA:                  -1.002
REMARK UNBOUND:                -1.425
REMARK SMILES CCCCCCCCCCCCCC[C@@H](C)C(=O)[O-]
REMARK SMILES IDX 9 1 10 2 11 3 12 4 13 5 14 6 15 7 16 8 17 9 18 10 19 11 8 12
REMARK SMILES IDX 7 13 6 14 5 15 4 16 3 17 2 18 1 19
REMARK H PARENT
REMARK Flexibility Score: inf
ROOT
ATOM      1  C   UNL     1     -10.160  -8.506  -6.926  1.00  0.00     0.000 C 
ENDROOT
BRANCH   1   2
ATOM      2  C   UNL     1     -10.264  -7.792  -5.570  1.00  0.00     0.000 C 
BRANCH   2   3
ATOM      3  C   UNL     1     -11.733  -7.565  -5.181  1.00  0.00     0.000 C 
BRANCH   3   4
ATOM      4  C   UNL     1     -12.720  -8.302  -6.104  1.00  0.00     0.000 C 
BRANCH   4   5
ATOM      5  C   UNL     1     -13.824  -7.420  -6.717  1.00  0.00     0.001 C 
BRANCH   5   6
ATOM      6  C   UNL     1     -15.177  -7.567  -5.999  1.00  0.00     0.009 C 
BRANCH   6   7
ATOM      7  C   UNL     1     -16.340  -7.781  -6.990  1.00  0.00     0.032 C 
ATOM      8  C   UNL     1     -16.051  -7.080  -8.322  1.00  0.00     0.014 C 
BRANCH   7   9
ATOM      9  C   UNL     1     -16.602  -9.245  -7.229  1.00  0.00     0.044 C 
ATOM     10  O   UNL     1     -16.155 -10.114  -6.434  1.00  0.00    -0.550 OA
ATOM     11  O   UNL     1     -17.341  -9.644  -8.337  1.00  0.00    -0.550 OA
ENDBRANCH   7   9
ENDBRANCH   6   7
ENDBRANCH   5   6
ENDBRANCH   4   5
ENDBRANCH   3   4
ENDBRANCH   2   3
ENDBRANCH   1   2
BRANCH   1  12
ATOM     12  C   UNL     1      -9.314  -9.787  -6.859  1.00  0.00     0.000 C 
BRANCH  12  13
ATOM     13  C   UNL     1      -8.589  -9.948  -5.513  1.00  0.00    -0.000 C 
BRANCH  13  14
ATOM     14  C   UNL     1      -7.308 -10.774  -5.676  1.00  0.00    -0.000 C 
BRANCH  14  15
ATOM     15  C   UNL     1      -6.746 -10.644  -7.097  1.00  0.00    -0.000 C 
BRANCH  15  16
ATOM     16  C   UNL     1      -5.440  -9.840  -7.102  1.00  0.00    -0.000 C 
BRANCH  16  17
ATOM     17  C   UNL     1      -5.098  -9.354  -8.515  1.00  0.00    -0.000 C 
BRANCH  17  18
ATOM     18  C   UNL     1      -4.093 -10.294  -9.191  1.00  0.00    -0.003 C 
ATOM     19  C   UNL     1      -3.251 -11.036  -8.159  1.00  0.00     0.004 C 
ENDBRANCH  17  18
ENDBRANCH  16  17
ENDBRANCH  15  16
ENDBRANCH  14  15
ENDBRANCH  13  14
ENDBRANCH  12  13
ENDBRANCH   1  12
TORSDOF 14
ENDMDL
MODEL 3
REMARK VINA RESULT:    -3.473      4.462      9.143
REMARK INTER + INTRA:          -7.740
REMARK INTER:                  -6.777
REMARK INTRA:                  -0.963
REMARK UNBOUND:                -1.425
REMARK SMILES CCCCCCCCCCCCCC[C@@H](C)C(=O)[O-]
REMARK SMILES IDX 9 1 10 2 11 3 12 4 13 5 14 6 15 7 16 8 17 9 18 10 19 11 8 12
REMARK SMILES IDX 7 13 6 14 5 15 4 16 3 17 2 18 1 19
REMARK H PARENT
REMARK Flexibility Score: inf
ROOT
ATOM      1  C   UNL     1     -10.378  -7.800  -5.591  1.00  0.00     0.000 C 
ENDROOT
BRANCH   1   2
ATOM      2  C   UNL     1      -9.108  -8.019  -6.426  1.00  0.00     0.000 C 
BRANCH   2   3
ATOM      3  C   UNL     1      -8.378  -9.299  -5.989  1.00  0.00     0.000 C 
BRANCH   3   4
ATOM      4  C   UNL     1      -8.520 -10.448  -7.003  1.00  0.00     0.000 C 
BRANCH   4   5
ATOM      5  C   UNL     1      -7.202 -10.922  -7.642  1.00  0.00     0.001 C 
BRANCH   5   6
ATOM      6  C   UNL     1      -5.968 -10.186  -7.089  1.00  0.00     0.009 C 
BRANCH   6   7
ATOM      7  C   UNL     1      -5.102  -9.578  -8.213  1.00  0.00     0.032 C 
ATOM      8  C   UNL     1      -4.564  -8.204  -7.798  1.00  0.00     0.014 C 
BRANCH   7   9
ATOM      9  C   UNL     1      -3.959 -10.485  -8.583  1.00  0.00     0.044 C 
ATOM     10  O   UNL     1      -3.758 -10.805  -9.785  1.00  0.00    -0.550 OA
ATOM     11  O   UNL     1      -3.117 -10.977  -7.593  1.00  0.00    -0.550 OA
ENDBRANCH   7   9
ENDBRANCH   6   7
ENDBRANCH   5   6
ENDBRANCH   4   5
ENDBRANCH   3   4
ENDBRANCH   2   3
ENDBRANCH   1   2
BRANCH   1  12
ATOM     12  C   UNL     1     -11.093  -9.115  -5.241  1.00  0.00     0.000 C 
BRANCH  12  13
ATOM     13  C   UNL     1     -12.195  -9.475  -6.251  1.00  0.00    -0.000 C 
BRANCH  13  14
ATOM     14  C   UNL     1     -13.566  -9.535  -5.566  1.00  0.00    -0.000 C 
BRANCH  14  15
ATOM     15  C   UNL     1     -14.096  -8.127  -5.271  1.00  0.00    -0.000 C 
BRANCH  15  16
ATOM     16  C   UNL     1     -14.566  -7.434  -6.556  1.00  0.00    -0.000 C 
BRANCH  16  17
ATOM     17  C   UNL     1     -16.073  -7.624  -6.765  1.00  0.00    -0.000 C 
BRANCH  17  18
ATOM     18  C   UNL     1     -16.823  -7.576  -5.429  1.00  0.00    -0.003 C 
ATOM     19  C   UNL     1     -17.627  -6.287  -5.293  1.00  0.00     0.004 C 
ENDBRANCH  17  18
ENDBRANCH  16  17
ENDBRANCH  15  16
ENDBRANCH  14  15
ENDBRANCH  13  14
ENDBRANCH  12  13
ENDBRANCH   1  12
TORSDOF 14
ENDMDL
MODEL 4
REMARK VINA RESULT:    -3.446      4.663      9.095
REMARK INTER + INTRA:          -7.692
REMARK INTER:                  -6.593
REMARK INTRA:                  -1.099
REMARK UNBOUND:                -1.425
REMARK SMILES CCCCCCCCCCCCCC[C@@H](C)C(=O)[O-]
REMARK SMILES IDX 9 1 10 2 11 3 12 4 13 5 14 6 15 7 16 8 17 9 18 10 19 11 8 12
REMARK SMILES IDX 7 13 6 14 5 15 4 16 3 17 2 18 1 19
REMARK H PARENT
REMARK Flexibility Score: inf
ROOT
ATOM      1  C   UNL     1      -9.287 -10.004  -6.439  1.00  0.00     0.000 C 
ENDROOT
BRANCH   1   2
ATOM      2  C   UNL     1      -7.838 -10.511  -6.376  1.00  0.00     0.000 C 
BRANCH   2   3
ATOM      3  C   UNL     1      -7.324 -10.877  -7.777  1.00  0.00     0.000 C 
BRANCH   3   4
ATOM      4  C   UNL     1      -5.790 -10.811  -7.890  1.00  0.00     0.000 C 
BRANCH   4   5
ATOM      5  C   UNL     1      -5.096  -9.914  -6.848  1.00  0.00     0.001 C 
BRANCH   5   6
ATOM      6  C   UNL     1      -4.618  -8.573  -7.434  1.00  0.00     0.009 C 
BRANCH   6   7
ATOM      7  C   UNL     1      -4.581  -7.455  -6.370  1.00  0.00     0.032 C 
ATOM      8  C   UNL     1      -5.497  -7.801  -5.191  1.00  0.00     0.014 C 
BRANCH   7   9
ATOM      9  C   UNL     1      -3.181  -7.209  -5.875  1.00  0.00     0.044 C 
ATOM     10  O   UNL     1      -2.418  -8.174  -5.601  1.00  0.00    -0.550 OA
ATOM     11  O   UNL     1      -2.722  -5.907  -5.716  1.00  0.00    -0.550 OA
ENDBRANCH   7   9
ENDBRANCH   6   7
ENDBRANCH   5   6
ENDBRANCH   4   5
ENDBRANCH   3   4
ENDBRANCH   2   3
ENDBRANCH   1   2
BRANCH   1  12
ATOM     12  C   UNL     1      -9.376  -8.485  -6.656  1.00  0.00     0.000 C 
BRANCH  12  13
ATOM     13  C   UNL     1     -10.377  -7.810  -5.706  1.00  0.00    -0.000 C 
BRANCH  13  14
ATOM     14  C   UNL     1     -11.757  -8.470  -5.806  1.00  0.00    -0.000 C 
BRANCH  14  15
ATOM     15  C   UNL     1     -12.505  -7.996  -7.058  1.00  0.00    -0.000 C 
BRANCH  15  16
ATOM     16  C   UNL     1     -13.802  -7.269  -6.684  1.00  0.00    -0.000 C 
BRANCH  16  17
ATOM     17  C   UNL     1     -14.889  -8.264  -6.261  1.00  0.00    -0.000 C 
BRANCH  17  18
ATOM     18  C   UNL     1     -16.181  -8.037  -7.054  1.00  0.00    -0.003 C 
ATOM     19  C   UNL     1     -15.949  -7.087  -8.224  1.00  0.00     0.004 C 
ENDBRANCH  17  18
ENDBRANCH  16  17
ENDBRANCH  15  16
ENDBRANCH  14  15
ENDBRANCH  13  14
ENDBRANCH  12  13
ENDBRANCH   1  12
TORSDOF 14
ENDMDL
MODEL 5
REMARK VINA RESULT:    -3.403      3.941      8.650
REMARK INTER + INTRA:          -7.614
REMARK INTER:                  -6.035
REMARK INTRA:                  -1.579
REMARK UNBOUND:                -1.425
REMARK SMILES CCCCCCCCCCCCCC[C@@H](C)C(=O)[O-]
REMARK SMILES IDX 9 1 10 2 11 3 12 4 13 5 14 6 15 7 16 8 17 9 18 10 19 11 8 12
REMARK SMILES IDX 7 13 6 14 5 15 4 16 3 17 2 18 1 19
REMARK H PARENT
REMARK Flexibility Score: inf
ROOT
ATOM      1  C   UNL     1     -12.409  -7.820  -5.677  1.00  0.00     0.000 C 
ENDROOT
BRANCH   1   2
ATOM      2  C   UNL     1     -12.227  -8.183  -7.158  1.00  0.00     0.000 C 
BRANCH   2   3
ATOM      3  C   UNL     1     -10.763  -8.541  -7.459  1.00  0.00     0.000 C 
BRANCH   3   4
ATOM      4  C   UNL     1      -9.833  -8.332  -6.250  1.00  0.00     0.000 C 
BRANCH   4   5
ATOM      5  C   UNL     1      -9.086  -9.593  -5.775  1.00  0.00     0.001 C 
BRANCH   5   6
ATOM      6  C   UNL     1      -7.983 -10.041  -6.751  1.00  0.00     0.009 C 
BRANCH   6   7
ATOM      7  C   UNL     1      -6.805  -9.044  -6.792  1.00  0.00     0.032 C 
ATOM      8  C   UNL     1      -6.169  -8.901  -5.404  1.00  0.00     0.014 C 
BRANCH   7   9
ATOM      9  C   UNL     1      -5.760  -9.463  -7.791  1.00  0.00     0.044 C 
ATOM     10  O   UNL     1      -5.768 -10.625  -8.279  1.00  0.00    -0.550 OA
ATOM     11  O   UNL     1      -4.775  -8.564  -8.181  1.00  0.00    -0.550 OA
ENDBRANCH   7   9
ENDBRANCH   6   7
ENDBRANCH   5   6
ENDBRANCH   4   5
ENDBRANCH   3   4
ENDBRANCH   2   3
ENDBRANCH   1   2
BRANCH   1  12
ATOM     12  C   UNL     1     -13.239  -8.861  -4.909  1.00  0.00     0.000 C 
BRANCH  12  13
ATOM     13  C   UNL     1     -13.758  -9.989  -5.815  1.00  0.00    -0.000 C 
BRANCH  13  14
ATOM     14  C   UNL     1     -15.166 -10.426  -5.394  1.00  0.00    -0.000 C 
BRANCH  14  15
ATOM     15  C   UNL     1     -16.002 -10.837  -6.612  1.00  0.00    -0.000 C 
BRANCH  15  16
ATOM     16  C   UNL     1     -16.893  -9.681  -7.083  1.00  0.00    -0.000 C 
BRANCH  16  17
ATOM     17  C   UNL     1     -17.003  -8.596  -6.007  1.00  0.00    -0.000 C 
BRANCH  17  18
ATOM     18  C   UNL     1     -16.404  -7.273  -6.498  1.00  0.00    -0.003 C 
ATOM     19  C   UNL     1     -16.095  -7.328  -7.991  1.00  0.00     0.004 C 
ENDBRANCH  17  18
ENDBRANCH  16  17
ENDBRANCH  15  16
ENDBRANCH  14  15
ENDBRANCH  13  14
ENDBRANCH  12  13
ENDBRANCH   1  12
TORSDOF 14
ENDMDL
MODEL 6
REMARK VINA RESULT:    -3.316      1.205      2.390
REMARK INTER + INTRA:          -7.456
REMARK INTER:                  -5.986
REMARK INTRA:                  -1.470
REMARK UNBOUND:                -1.425
REMARK SMILES CCCCCCCCCCCCCC[C@@H](C)C(=O)[O-]
REMARK SMILES IDX 9 1 10 2 11 3 12 4 13 5 14 6 15 7 16 8 17 9 18 10 19 11 8 12
REMARK SMILES IDX 7 13 6 14 5 15 4 16 3 17 2 18 1 19
REMARK H PARENT
REMARK Flexibility Score: inf
ROOT
ATOM      1  C   UNL     1      -8.172  -7.269  -6.260  1.00  0.00     0.000 C 
ENDROOT
BRANCH   1   2
ATOM      2  C   UNL     1      -9.166  -8.244  -6.907  1.00  0.00     0.000 C 
BRANCH   2   3
ATOM      3  C   UNL     1     -10.281  -8.625  -5.921  1.00  0.00     0.000 C 
BRANCH   3   4
ATOM      4  C   UNL     1     -11.092  -9.852  -6.376  1.00  0.00     0.000 C 
BRANCH   4   5
ATOM      5  C   UNL     1     -12.622  -9.678  -6.326  1.00  0.00     0.001 C 
BRANCH   5   6
ATOM      6  C   UNL     1     -13.071  -8.602  -5.320  1.00  0.00     0.009 C 
BRANCH   6   7
ATOM      7  C   UNL     1     -13.957  -7.524  -5.979  1.00  0.00     0.032 C 
ATOM      8  C   UNL     1     -13.507  -7.262  -7.421  1.00  0.00     0.014 C 
BRANCH   7   9
ATOM      9  C   UNL     1     -15.411  -7.916  -5.961  1.00  0.00     0.044 C 
ATOM     10  O   UNL     1     -15.814  -8.848  -5.215  1.00  0.00    -0.550 OA
ATOM     11  O   UNL     1     -16.318  -7.247  -6.774  1.00  0.00    -0.550 OA
ENDBRANCH   7   9
ENDBRANCH   6   7
ENDBRANCH   5   6
ENDBRANCH   4   5
ENDBRANCH   3   4
ENDBRANCH   2   3
ENDBRANCH   1   2
BRANCH   1  12
ATOM     12  C   UNL     1      -7.691  -7.740  -4.879  1.00  0.00     0.000 C 
BRANCH  12  13
ATOM     13  C   UNL     1      -6.250  -8.275  -4.904  1.00  0.00    -0.000 C 
BRANCH  13  14
ATOM     14  C   UNL     1      -5.239  -7.123  -4.892  1.00  0.00    -0.000 C 
BRANCH  14  15
ATOM     15  C   UNL     1      -4.334  -7.172  -6.129  1.00  0.00    -0.000 C 
BRANCH  15  16
ATOM     16  C   UNL     1      -4.269  -8.590  -6.710  1.00  0.00    -0.000 C 
BRANCH  16  17
ATOM     17  C   UNL     1      -4.688  -8.601  -8.185  1.00  0.00    -0.000 C 
BRANCH  17  18
ATOM     18  C   UNL     1      -5.032 -10.021  -8.648  1.00  0.00    -0.003 C 
ATOM     19  C   UNL     1      -6.062 -10.666  -7.726  1.00  0.00     0.004 C 
ENDBRANCH  17  18
ENDBRANCH  16  17
ENDBRANCH  15  16
ENDBRANCH  14  15
ENDBRANCH  13  14
ENDBRANCH  12  13
ENDBRANCH   1  12
TORSDOF 14
ENDMDL
MODEL 7
REMARK VINA RESULT:    -3.307      3.839      8.753
REMARK INTER + INTRA:          -7.440
REMARK INTER:                  -6.127
REMARK INTRA:                  -1.312
REMARK UNBOUND:                -1.425
REMARK SMILES CCCCCCCCCCCCCC[C@@H](C)C(=O)[O-]
REMARK SMILES IDX 9 1 10 2 11 3 12 4 13 5 14 6 15 7 16 8 17 9 18 10 19 11 8 12
REMARK SMILES IDX 7 13 6 14 5 15 4 16 3 17 2 18 1 19
REMARK H PARENT
REMARK Flexibility Score: inf
ROOT
ATOM      1  C   UNL     1     -11.917  -9.049  -6.751  1.00  0.00     0.000 C 
ENDROOT
BRANCH   1   2
ATOM      2  C   UNL     1     -11.611 -10.369  -6.028  1.00  0.00     0.000 C 
BRANCH   2   3
ATOM      3  C   UNL     1     -10.148 -10.411  -5.559  1.00  0.00     0.000 C 
BRANCH   3   4
ATOM      4  C   UNL     1      -9.147 -10.099  -6.686  1.00  0.00     0.000 C 
BRANCH   4   5
ATOM      5  C   UNL     1      -7.845 -10.921  -6.648  1.00  0.00     0.001 C 
BRANCH   5   6
ATOM      6  C   UNL     1      -6.881 -10.570  -7.796  1.00  0.00     0.009 C 
BRANCH   6   7
ATOM      7  C   UNL     1      -5.471 -10.209  -7.281  1.00  0.00     0.032 C 
ATOM      8  C   UNL     1      -4.402 -10.612  -8.302  1.00  0.00     0.014 C 
BRANCH   7   9
ATOM      9  C   UNL     1      -5.355  -8.740  -6.971  1.00  0.00     0.044 C 
ATOM     10  O   UNL     1      -6.194  -8.175  -6.220  1.00  0.00    -0.550 OA
ATOM     11  O   UNL     1      -4.316  -7.997  -7.518  1.00  0.00    -0.550 OA
ENDBRANCH   7   9
ENDBRANCH   6   7
ENDBRANCH   5   6
ENDBRANCH   4   5
ENDBRANCH   3   4
ENDBRANCH   2   3
ENDBRANCH   1   2
BRANCH   1  12
ATOM     12  C   UNL     1     -12.072  -7.865  -5.783  1.00  0.00     0.000 C 
BRANCH  12  13
ATOM     13  C   UNL     1     -13.370  -7.076  -6.017  1.00  0.00    -0.000 C 
BRANCH  13  14
ATOM     14  C   UNL     1     -13.704  -7.002  -7.512  1.00  0.00    -0.000 C 
BRANCH  14  15
ATOM     15  C   UNL     1     -15.167  -7.383  -7.769  1.00  0.00    -0.000 C 
BRANCH  15  16
ATOM     16  C   UNL     1     -15.919  -7.604  -6.451  1.00  0.00    -0.000 C 
BRANCH  16  17
ATOM     17  C   UNL     1     -16.560  -8.996  -6.409  1.00  0.00    -0.000 C 
BRANCH  17  18
ATOM     18  C   UNL     1     -15.761  -9.942  -5.505  1.00  0.00    -0.003 C 
ATOM     19  C   UNL     1     -15.209 -11.124  -6.295  1.00  0.00     0.004 C 
ENDBRANCH  17  18
ENDBRANCH  16  17
ENDBRANCH  15  16
ENDBRANCH  14  15
ENDBRANCH  13  14
ENDBRANCH  12  13
ENDBRANCH   1  12
TORSDOF 14
ENDMDL
MODEL 8
REMARK VINA RESULT:    -3.184      4.447      9.381
REMARK INTER + INTRA:          -7.215
REMARK INTER:                  -6.198
REMARK INTRA:                  -1.017
REMARK UNBOUND:                -1.425
REMARK SMILES CCCCCCCCCCCCCC[C@@H](C)C(=O)[O-]
REMARK SMILES IDX 9 1 10 2 11 3 12 4 13 5 14 6 15 7 16 8 17 9 18 10 19 11 8 12
REMARK SMILES IDX 7 13 6 14 5 15 4 16 3 17 2 18 1 19
REMARK H PARENT
REMARK Flexibility Score: inf
ROOT
ATOM      1  C   UNL     1     -10.794  -9.112  -6.596  1.00  0.00     0.000 C 
ENDROOT
BRANCH   1   2
ATOM      2  C   UNL     1      -9.989 -10.317  -6.085  1.00  0.00     0.000 C 
BRANCH   2   3
ATOM      3  C   UNL     1      -8.519 -10.219  -6.522  1.00  0.00     0.000 C 
BRANCH   3   4
ATOM      4  C   UNL     1      -8.001  -8.770  -6.567  1.00  0.00     0.000 C 
BRANCH   4   5
ATOM      5  C   UNL     1      -6.670  -8.529  -5.830  1.00  0.00     0.001 C 
BRANCH   5   6
ATOM      6  C   UNL     1      -5.618  -9.615  -6.121  1.00  0.00     0.009 C 
BRANCH   6   7
ATOM      7  C   UNL     1      -4.406  -9.057  -6.897  1.00  0.00     0.032 C 
ATOM      8  C   UNL     1      -4.824  -8.609  -8.302  1.00  0.00     0.014 C 
BRANCH   7   9
ATOM      9  C   UNL     1      -3.761  -7.910  -6.166  1.00  0.00     0.044 C 
ATOM     10  O   UNL     1      -3.653  -6.780  -6.713  1.00  0.00    -0.550 OA
ATOM     11  O   UNL     1      -3.279  -8.095  -4.876  1.00  0.00    -0.550 OA
ENDBRANCH   7   9
ENDBRANCH   6   7
ENDBRANCH   5   6
ENDBRANCH   4   5
ENDBRANCH   3   4
ENDBRANCH   2   3
ENDBRANCH   1   2
BRANCH   1  12
ATOM     12  C   UNL     1     -12.294  -9.225  -6.281  1.00  0.00     0.000 C 
BRANCH  12  13
ATOM     13  C   UNL     1     -12.919  -7.876  -5.892  1.00  0.00    -0.000 C 
BRANCH  13  14
ATOM     14  C   UNL     1     -13.509  -7.172  -7.120  1.00  0.00    -0.000 C 
BRANCH  14  15
ATOM     15  C   UNL     1     -15.014  -7.443  -7.241  1.00  0.00    -0.000 C 
BRANCH  15  16
ATOM     16  C   UNL     1     -15.660  -7.594  -5.858  1.00  0.00    -0.000 C 
BRANCH  16  17
ATOM     17  C   UNL     1     -16.707  -8.713  -5.859  1.00  0.00    -0.000 C 
BRANCH  17  18
ATOM     18  C   UNL     1     -16.746  -9.428  -7.214  1.00  0.00    -0.003 C 
ATOM     19  C   UNL     1     -16.905 -10.935  -7.038  1.00  0.00     0.004 C 
ENDBRANCH  17  18
ENDBRANCH  16  17
ENDBRANCH  15  16
ENDBRANCH  14  15
ENDBRANCH  13  14
ENDBRANCH  12  13
ENDBRANCH   1  12
TORSDOF 14
ENDMDL
MODEL 9
REMARK VINA RESULT:    -2.974      1.565      2.030
REMARK INTER + INTRA:          -6.833
REMARK INTER:                  -5.577
REMARK INTRA:                  -1.256
REMARK UNBOUND:                -1.425
REMARK SMILES CCCCCCCCCCCCCC[C@@H](C)C(=O)[O-]
REMARK SMILES IDX 9 1 10 2 11 3 12 4 13 5 14 6 15 7 16 8 17 9 18 10 19 11 8 12
REMARK SMILES IDX 7 13 6 14 5 15 4 16 3 17 2 18 1 19
REMARK H PARENT
REMARK Flexibility Score: inf
ROOT
ATOM      1  C   UNL     1      -8.685  -7.653  -6.262  1.00  0.00     0.000 C 
ENDROOT
BRANCH   1   2
ATOM      2  C   UNL     1      -9.901  -8.445  -6.762  1.00  0.00     0.000 C 
BRANCH   2   3
ATOM      3  C   UNL     1     -10.593  -9.177  -5.602  1.00  0.00     0.000 C 
BRANCH   3   4
ATOM      4  C   UNL     1     -11.201 -10.528  -6.021  1.00  0.00     0.000 C 
BRANCH   4   5
ATOM      5  C   UNL     1     -12.734 -10.621  -5.901  1.00  0.00     0.001 C 
BRANCH   5   6
ATOM      6  C   UNL     1     -13.348  -9.432  -5.140  1.00  0.00     0.009 C 
BRANCH   6   7
ATOM      7  C   UNL     1     -14.304  -8.606  -6.027  1.00  0.00     0.032 C 
ATOM      8  C   UNL     1     -15.609  -8.304  -5.281  1.00  0.00     0.014 C 
BRANCH   7   9
ATOM      9  C   UNL     1     -13.666  -7.321  -6.481  1.00  0.00     0.044 C 
ATOM     10  O   UNL     1     -13.104  -6.556  -5.652  1.00  0.00    -0.550 OA
ATOM     11  O   UNL     1     -13.696  -6.970  -7.826  1.00  0.00    -0.550 OA
ENDBRANCH   7   9
ENDBRANCH   6   7
ENDBRANCH   5   6
ENDBRANCH   4   5
ENDBRANCH   3   4
ENDBRANCH   2   3
ENDBRANCH   1   2
BRANCH   1  12
ATOM     12  C   UNL     1      -7.497  -8.557  -5.895  1.00  0.00     0.000 C 
BRANCH  12  13
ATOM     13  C   UNL     1      -6.595  -8.866  -7.100  1.00  0.00    -0.000 C 
BRANCH  13  14
ATOM     14  C   UNL     1      -6.190 -10.345  -7.116  1.00  0.00    -0.000 C 
BRANCH  14  15
ATOM     15  C   UNL     1      -4.797 -10.541  -6.505  1.00  0.00    -0.000 C 
BRANCH  15  16
ATOM     16  C   UNL     1      -3.884  -9.350  -6.818  1.00  0.00    -0.000 C 
BRANCH  16  17
ATOM     17  C   UNL     1      -2.931  -9.065  -5.652  1.00  0.00    -0.000 C 
BRANCH  17  18
ATOM     18  C   UNL     1      -2.612  -7.568  -5.556  1.00  0.00    -0.003 C 
ATOM     19  C   UNL     1      -3.631  -6.737  -6.329  1.00  0.00     0.004 C 
ENDBRANCH  17  18
ENDBRANCH  16  17
ENDBRANCH  15  16
ENDBRANCH  14  15
ENDBRANCH  13  14
ENDBRANCH  12  13
ENDBRANCH   1  12
TORSDOF 14
ENDMDL
