MODEL 1
REMARK VINA RESULT:    -6.038      0.000      0.000
REMARK INTER + INTRA:         -17.413
REMARK INTER:                 -13.803
REMARK INTRA:                  -3.609
REMARK UNBOUND:                -3.609
REMARK SMILES CCCCCCCCCCCCCCCCCCCCCCCC(=O)[O-]
REMARK SMILES IDX 13 1 14 2 15 3 16 4 17 5 18 6 19 7 20 8 21 9 22 10 23 11
REMARK SMILES IDX 24 12 25 13 26 14 12 15 11 16 10 17 9 18 8 19 7 20 6 21 5 22
REMARK SMILES IDX 4 23 3 24 2 25 1 26
REMARK H PARENT
REMARK Flexibility Score: inf
ROOT
ATOM      1  C   UNL     1       2.092   3.975   8.409  1.00  0.00     0.000 C 
ENDROOT
BRANCH   1   2
ATOM      2  C   UNL     1       1.217   4.601   9.509  1.00  0.00     0.000 C 
BRANCH   2   3
ATOM      3  C   UNL     1       0.047   5.419   8.939  1.00  0.00     0.000 C 
BRANCH   3   4
ATOM      4  C   UNL     1      -0.735   6.169  10.032  1.00  0.00     0.000 C 
BRANCH   4   5
ATOM      5  C   UNL     1      -0.592   5.510  11.414  1.00  0.00     0.000 C 
BRANCH   5   6
ATOM      6  C   UNL     1      -0.254   6.525  12.518  1.00  0.00     0.000 C 
BRANCH   6   7
ATOM      7  C   UNL     1       1.182   7.051  12.363  1.00  0.00     0.000 C 
BRANCH   7   8
ATOM      8  C   UNL     1       1.235   8.591  12.286  1.00  0.00     0.000 C 
BRANCH   8   9
ATOM      9  C   UNL     1       1.473   9.131  10.865  1.00  0.00     0.000 C 
BRANCH   9  10
ATOM     10  C   UNL     1       2.314   8.179   9.999  1.00  0.00     0.006 C 
BRANCH  10  11
ATOM     11  C   UNL     1       2.313   8.581   8.518  1.00  0.00     0.053 C 
BRANCH  11  12
ATOM     12  C   UNL     1       3.651   9.086   8.071  1.00  0.00     0.041 C 
ATOM     13  O   UNL     1       4.706   8.594   8.552  1.00  0.00    -0.550 OA
ATOM     14  O   UNL     1       3.733  10.108   7.131  1.00  0.00    -0.550 OA
ENDBRANCH  11  12
ENDBRANCH  10  11
ENDBRANCH   9  10
ENDBRANCH   8   9
ENDBRANCH   7   8
ENDBRANCH   6   7
ENDBRANCH   5   6
ENDBRANCH   4   5
ENDBRANCH   3   4
ENDBRANCH   2   3
ENDBRANCH   1   2
BRANCH   1  15
ATOM     15  C   UNL     1       2.662   5.036   7.443  1.00  0.00     0.000 C 
BRANCH  15  16
ATOM     16  C   UNL     1       4.167   5.295   7.638  1.00  0.00     0.000 C 
BRANCH  16  17
ATOM     17  C   UNL     1       4.979   4.000   7.783  1.00  0.00     0.000 C 
BRANCH  17  18
ATOM     18  C   UNL     1       6.461   4.241   7.475  1.00  0.00    -0.000 C 
BRANCH  18  19
ATOM     19  C   UNL     1       7.047   5.317   8.404  1.00  0.00    -0.000 C 
BRANCH  19  20
ATOM     20  C   UNL     1       8.581   5.433   8.275  1.00  0.00    -0.000 C 
BRANCH  20  21
ATOM     21  C   UNL     1       9.043   6.603   7.390  1.00  0.00    -0.000 C 
BRANCH  21  22
ATOM     22  C   UNL     1       7.948   7.654   7.160  1.00  0.00    -0.000 C 
BRANCH  22  23
ATOM     23  C   UNL     1       7.740   7.917   5.664  1.00  0.00    -0.000 C 
BRANCH  23  24
ATOM     24  C   UNL     1       6.338   8.490   5.394  1.00  0.00    -0.000 C 
BRANCH  24  25
ATOM     25  C   UNL     1       5.385   7.448   4.789  1.00  0.00    -0.003 C 
ATOM     26  C   UNL     1       6.088   6.136   4.441  1.00  0.00     0.004 C 
ENDBRANCH  24  25
ENDBRANCH  23  24
ENDBRANCH  22  23
ENDBRANCH  21  22
ENDBRANCH  20  21
ENDBRANCH  19  20
ENDBRANCH  18  19
ENDBRANCH  17  18
ENDBRANCH  16  17
ENDBRANCH  15  16
ENDBRANCH   1  15
TORSDOF 22
ENDMDL
MODEL 2
REMARK VINA RESULT:    -5.938      1.641      3.207
REMARK INTER + INTRA:         -17.184
REMARK INTER:                 -14.018
REMARK INTRA:                  -3.165
REMARK UNBOUND:                -3.609
REMARK SMILES CCCCCCCCCCCCCCCCCCCCCCCC(=O)[O-]
REMARK SMILES IDX 13 1 14 2 15 3 16 4 17 5 18 6 19 7 20 8 21 9 22 10 23 11
REMARK SMILES IDX 24 12 25 13 26 14 12 15 11 16 10 17 9 18 8 19 7 20 6 21 5 22
REMARK SMILES IDX 4 23 3 24 2 25 1 26
REMARK H PARENT
REMARK Flexibility Score: inf
ROOT
ATOM      1  C   UNL     1       4.793   7.712   8.465  1.00  0.00     0.000 C 
ENDROOT
BRANCH   1   2
ATOM      2  C   UNL     1       3.835   8.840   8.043  1.00  0.00     0.000 C 
BRANCH   2   3
ATOM      3  C   UNL     1       2.434   8.685   8.656  1.00  0.00     0.000 C 
BRANCH   3   4
ATOM      4  C   UNL     1       2.286   9.445   9.985  1.00  0.00     0.000 C 
BRANCH   4   5
ATOM      5  C   UNL     1       1.126   8.913  10.841  1.00  0.00     0.000 C 
BRANCH   5   6
ATOM      6  C   UNL     1       1.456   8.906  12.342  1.00  0.00     0.000 C 
BRANCH   6   7
ATOM      7  C   UNL     1       0.933   7.627  13.016  1.00  0.00     0.000 C 
BRANCH   7   8
ATOM      8  C   UNL     1       0.741   6.473  12.011  1.00  0.00     0.000 C 
BRANCH   8   9
ATOM      9  C   UNL     1      -0.683   5.889  12.005  1.00  0.00     0.000 C 
BRANCH   9  10
ATOM     10  C   UNL     1      -1.053   5.238  10.662  1.00  0.00     0.006 C 
BRANCH  10  11
ATOM     11  C   UNL     1      -0.702   6.129   9.463  1.00  0.00     0.053 C 
BRANCH  11  12
ATOM     12  C   UNL     1       0.383   5.534   8.618  1.00  0.00     0.041 C 
ATOM     13  O   UNL     1       0.641   6.020   7.485  1.00  0.00    -0.550 OA
ATOM     14  O   UNL     1       1.103   4.437   9.077  1.00  0.00    -0.550 OA
ENDBRANCH  11  12
ENDBRANCH  10  11
ENDBRANCH   9  10
ENDBRANCH   8   9
ENDBRANCH   7   8
ENDBRANCH   6   7
ENDBRANCH   5   6
ENDBRANCH   4   5
ENDBRANCH   3   4
ENDBRANCH   2   3
ENDBRANCH   1   2
BRANCH   1  15
ATOM     15  C   UNL     1       4.050   6.382   8.719  1.00  0.00     0.000 C 
BRANCH  15  16
ATOM     16  C   UNL     1       4.053   5.438   7.504  1.00  0.00     0.000 C 
BRANCH  16  17
ATOM     17  C   UNL     1       4.854   4.152   7.751  1.00  0.00     0.000 C 
BRANCH  17  18
ATOM     18  C   UNL     1       6.306   4.309   7.285  1.00  0.00    -0.000 C 
BRANCH  18  19
ATOM     19  C   UNL     1       7.265   4.366   8.485  1.00  0.00    -0.000 C 
BRANCH  19  20
ATOM     20  C   UNL     1       8.277   5.525   8.376  1.00  0.00    -0.000 C 
BRANCH  20  21
ATOM     21  C   UNL     1       7.745   6.743   7.600  1.00  0.00    -0.000 C 
BRANCH  21  22
ATOM     22  C   UNL     1       8.786   7.355   6.653  1.00  0.00    -0.000 C 
BRANCH  22  23
ATOM     23  C   UNL     1       8.123   7.906   5.385  1.00  0.00    -0.000 C 
BRANCH  23  24
ATOM     24  C   UNL     1       6.724   8.465   5.693  1.00  0.00    -0.000 C 
BRANCH  24  25
ATOM     25  C   UNL     1       5.621   7.762   4.888  1.00  0.00    -0.003 C 
ATOM     26  C   UNL     1       6.072   6.418   4.317  1.00  0.00     0.004 C 
ENDBRANCH  24  25
ENDBRANCH  23  24
ENDBRANCH  22  23
ENDBRANCH  21  22
ENDBRANCH  20  21
ENDBRANCH  19  20
ENDBRANCH  18  19
ENDBRANCH  17  18
ENDBRANCH  16  17
ENDBRANCH  15  16
ENDBRANCH   1  15
TORSDOF 22
ENDMDL
MODEL 3
REMARK VINA RESULT:    -5.904      1.836      3.732
REMARK INTER + INTRA:         -17.107
REMARK INTER:                 -13.171
REMARK INTRA:                  -3.936
REMARK UNBOUND:                -3.609
REMARK SMILES CCCCCCCCCCCCCCCCCCCCCCCC(=O)[O-]
REMARK SMILES IDX 13 1 14 2 15 3 16 4 17 5 18 6 19 7 20 8 21 9 22 10 23 11
REMARK SMILES IDX 24 12 25 13 26 14 12 15 11 16 10 17 9 18 8 19 7 20 6 21 5 22
REMARK SMILES IDX 4 23 3 24 2 25 1 26
REMARK H PARENT
REMARK Flexibility Score: inf
ROOT
ATOM      1  C   UNL     1       2.842   9.755   8.017  1.00  0.00     0.000 C 
ENDROOT
BRANCH   1   2
ATOM      2  C   UNL     1       1.931   8.836   8.850  1.00  0.00     0.000 C 
BRANCH   2   3
ATOM      3  C   UNL     1       1.803   9.298  10.310  1.00  0.00     0.000 C 
BRANCH   3   4
ATOM      4  C   UNL     1       1.943   8.136  11.310  1.00  0.00     0.000 C 
BRANCH   4   5
ATOM      5  C   UNL     1       1.300   8.450  12.670  1.00  0.00     0.000 C 
BRANCH   5   6
ATOM      6  C   UNL     1       0.298   7.371  13.111  1.00  0.00     0.000 C 
BRANCH   6   7
ATOM      7  C   UNL     1       0.481   6.082  12.295  1.00  0.00     0.000 C 
BRANCH   7   8
ATOM      8  C   UNL     1      -0.823   5.640  11.599  1.00  0.00     0.000 C 
BRANCH   8   9
ATOM      9  C   UNL     1      -0.965   6.164  10.160  1.00  0.00     0.000 C 
BRANCH   9  10
ATOM     10  C   UNL     1      -0.528   5.133   9.106  1.00  0.00     0.006 C 
BRANCH  10  11
ATOM     11  C   UNL     1       0.856   5.445   8.522  1.00  0.00     0.053 C 
BRANCH  11  12
ATOM     12  C   UNL     1       1.898   4.477   8.996  1.00  0.00     0.041 C 
ATOM     13  O   UNL     1       2.514   4.689  10.074  1.00  0.00    -0.550 OA
ATOM     14  O   UNL     1       2.196   3.347   8.243  1.00  0.00    -0.550 OA
ENDBRANCH  11  12
ENDBRANCH  10  11
ENDBRANCH   9  10
ENDBRANCH   8   9
ENDBRANCH   7   8
ENDBRANCH   6   7
ENDBRANCH   5   6
ENDBRANCH   4   5
ENDBRANCH   3   4
ENDBRANCH   2   3
ENDBRANCH   1   2
BRANCH   1  15
ATOM     15  C   UNL     1       3.935   8.965   7.264  1.00  0.00     0.000 C 
BRANCH  15  16
ATOM     16  C   UNL     1       5.020   8.388   8.191  1.00  0.00     0.000 C 
BRANCH  16  17
ATOM     17  C   UNL     1       4.885   6.872   8.393  1.00  0.00     0.000 C 
BRANCH  17  18
ATOM     18  C   UNL     1       4.459   6.178   7.094  1.00  0.00    -0.000 C 
BRANCH  18  19
ATOM     19  C   UNL     1       5.254   4.880   6.880  1.00  0.00    -0.000 C 
BRANCH  19  20
ATOM     20  C   UNL     1       6.090   4.491   8.117  1.00  0.00    -0.000 C 
BRANCH  20  21
ATOM     21  C   UNL     1       7.608   4.498   7.869  1.00  0.00    -0.000 C 
BRANCH  21  22
ATOM     22  C   UNL     1       8.376   5.381   8.861  1.00  0.00    -0.000 C 
BRANCH  22  23
ATOM     23  C   UNL     1       8.858   6.674   8.191  1.00  0.00    -0.000 C 
BRANCH  23  24
ATOM     24  C   UNL     1       8.595   6.641   6.676  1.00  0.00    -0.000 C 
BRANCH  24  25
ATOM     25  C   UNL     1       8.012   7.963   6.153  1.00  0.00    -0.003 C 
ATOM     26  C   UNL     1       7.026   7.760   5.003  1.00  0.00     0.004 C 
ENDBRANCH  24  25
ENDBRANCH  23  24
ENDBRANCH  22  23
ENDBRANCH  21  22
ENDBRANCH  20  21
ENDBRANCH  19  20
ENDBRANCH  18  19
ENDBRANCH  17  18
ENDBRANCH  16  17
ENDBRANCH  15  16
ENDBRANCH   1  15
TORSDOF 22
ENDMDL
MODEL 4
REMARK VINA RESULT:    -5.889      1.805      7.103
REMARK INTER + INTRA:         -17.072
REMARK INTER:                 -13.539
REMARK INTRA:                  -3.532
REMARK UNBOUND:                -3.609
REMARK SMILES CCCCCCCCCCCCCCCCCCCCCCCC(=O)[O-]
REMARK SMILES IDX 13 1 14 2 15 3 16 4 17 5 18 6 19 7 20 8 21 9 22 10 23 11
REMARK SMILES IDX 24 12 25 13 26 14 12 15 11 16 10 17 9 18 8 19 7 20 6 21 5 22
REMARK SMILES IDX 4 23 3 24 2 25 1 26
REMARK H PARENT
REMARK Flexibility Score: inf
ROOT
ATOM      1  C   UNL     1       2.144   9.778  10.173  1.00  0.00     0.000 C 
ENDROOT
BRANCH   1   2
ATOM      2  C   UNL     1       2.378   9.488   8.680  1.00  0.00     0.000 C 
BRANCH   2   3
ATOM      3  C   UNL     1       3.796   8.966   8.396  1.00  0.00     0.000 C 
BRANCH   3   4
ATOM      4  C   UNL     1       4.308   9.381   7.005  1.00  0.00     0.000 C 
BRANCH   4   5
ATOM      5  C   UNL     1       5.681   8.773   6.677  1.00  0.00     0.000 C 
BRANCH   5   6
ATOM      6  C   UNL     1       5.851   8.476   5.179  1.00  0.00     0.000 C 
BRANCH   6   7
ATOM      7  C   UNL     1       5.908   6.963   4.919  1.00  0.00     0.000 C 
BRANCH   7   8
ATOM      8  C   UNL     1       5.265   6.148   6.061  1.00  0.00     0.000 C 
BRANCH   8   9
ATOM      9  C   UNL     1       6.204   5.095   6.673  1.00  0.00     0.000 C 
BRANCH   9  10
ATOM     10  C   UNL     1       6.747   5.510   8.051  1.00  0.00     0.006 C 
BRANCH  10  11
ATOM     11  C   UNL     1       8.267   5.331   8.157  1.00  0.00     0.053 C 
BRANCH  11  12
ATOM     12  C   UNL     1       9.001   6.623   7.959  1.00  0.00     0.041 C 
ATOM     13  O   UNL     1       9.790   7.046   8.845  1.00  0.00    -0.550 OA
ATOM     14  O   UNL     1       8.805   7.367   6.800  1.00  0.00    -0.550 OA
ENDBRANCH  11  12
ENDBRANCH  10  11
ENDBRANCH   9  10
ENDBRANCH   8   9
ENDBRANCH   7   8
ENDBRANCH   6   7
ENDBRANCH   5   6
ENDBRANCH   4   5
ENDBRANCH   3   4
ENDBRANCH   2   3
ENDBRANCH   1   2
BRANCH   1  15
ATOM     15  C   UNL     1       1.227   8.725  10.834  1.00  0.00     0.000 C 
BRANCH  15  16
ATOM     16  C   UNL     1       1.499   8.534  12.336  1.00  0.00     0.000 C 
BRANCH  16  17
ATOM     17  C   UNL     1       0.738   7.340  12.930  1.00  0.00     0.000 C 
BRANCH  17  18
ATOM     18  C   UNL     1       0.636   6.192  11.918  1.00  0.00    -0.000 C 
BRANCH  18  19
ATOM     19  C   UNL     1      -0.822   5.731  11.758  1.00  0.00    -0.000 C 
BRANCH  19  20
ATOM     20  C   UNL     1      -1.269   5.694  10.281  1.00  0.00    -0.000 C 
BRANCH  20  21
ATOM     21  C   UNL     1      -0.176   5.209   9.314  1.00  0.00    -0.000 C 
BRANCH  21  22
ATOM     22  C   UNL     1       0.253   6.281   8.303  1.00  0.00    -0.000 C 
BRANCH  22  23
ATOM     23  C   UNL     1       1.621   5.951   7.694  1.00  0.00    -0.000 C 
BRANCH  23  24
ATOM     24  C   UNL     1       2.673   5.725   8.793  1.00  0.00    -0.000 C 
BRANCH  24  25
ATOM     25  C   UNL     1       3.280   4.315   8.744  1.00  0.00    -0.003 C 
ATOM     26  C   UNL     1       2.883   3.544   7.485  1.00  0.00     0.004 C 
ENDBRANCH  24  25
ENDBRANCH  23  24
ENDBRANCH  22  23
ENDBRANCH  21  22
ENDBRANCH  20  21
ENDBRANCH  19  20
ENDBRANCH  18  19
ENDBRANCH  17  18
ENDBRANCH  16  17
ENDBRANCH  15  16
ENDBRANCH   1  15
TORSDOF 22
ENDMDL
MODEL 5
REMARK VINA RESULT:    -5.881      2.060      3.772
REMARK INTER + INTRA:         -17.055
REMARK INTER:                 -14.237
REMARK INTRA:                  -2.818
REMARK UNBOUND:                -3.609
REMARK SMILES CCCCCCCCCCCCCCCCCCCCCCCC(=O)[O-]
REMARK SMILES IDX 13 1 14 2 15 3 16 4 17 5 18 6 19 7 20 8 21 9 22 10 23 11
REMARK SMILES IDX 24 12 25 13 26 14 12 15 11 16 10 17 9 18 8 19 7 20 6 21 5 22
REMARK SMILES IDX 4 23 3 24 2 25 1 26
REMARK H PARENT
REMARK Flexibility Score: inf
ROOT
ATOM      1  C   UNL     1       2.659   7.246   6.294  1.00  0.00     0.000 C 
ENDROOT
BRANCH   1   2
ATOM      2  C   UNL     1       3.679   7.749   7.331  1.00  0.00     0.000 C 
BRANCH   2   3
ATOM      3  C   UNL     1       3.864   9.275   7.285  1.00  0.00     0.000 C 
BRANCH   3   4
ATOM      4  C   UNL     1       2.656  10.031   7.866  1.00  0.00     0.000 C 
BRANCH   4   5
ATOM      5  C   UNL     1       1.870   9.190   8.885  1.00  0.00     0.000 C 
BRANCH   5   6
ATOM      6  C   UNL     1       2.290   9.479  10.335  1.00  0.00     0.000 C 
BRANCH   6   7
ATOM      7  C   UNL     1       1.125   9.232  11.306  1.00  0.00     0.000 C 
BRANCH   7   8
ATOM      8  C   UNL     1       1.585   8.539  12.606  1.00  0.00     0.000 C 
BRANCH   8   9
ATOM      9  C   UNL     1       0.823   7.239  12.917  1.00  0.00     0.000 C 
BRANCH   9  10
ATOM     10  C   UNL     1       0.762   6.283  11.714  1.00  0.00     0.006 C 
BRANCH  10  11
ATOM     11  C   UNL     1      -0.675   5.864  11.374  1.00  0.00     0.053 C 
BRANCH  11  12
ATOM     12  C   UNL     1      -0.889   5.739   9.896  1.00  0.00     0.041 C 
ATOM     13  O   UNL     1      -1.006   6.772   9.184  1.00  0.00    -0.550 OA
ATOM     14  O   UNL     1      -0.971   4.483   9.305  1.00  0.00    -0.550 OA
ENDBRANCH  11  12
ENDBRANCH  10  11
ENDBRANCH   9  10
ENDBRANCH   8   9
ENDBRANCH   7   8
ENDBRANCH   6   7
ENDBRANCH   5   6
ENDBRANCH   4   5
ENDBRANCH   3   4
ENDBRANCH   2   3
ENDBRANCH   1   2
BRANCH   1  15
ATOM     15  C   UNL     1       1.895   5.998   6.787  1.00  0.00     0.000 C 
BRANCH  15  16
ATOM     16  C   UNL     1       2.337   5.522   8.182  1.00  0.00     0.000 C 
BRANCH  16  17
ATOM     17  C   UNL     1       2.532   4.001   8.257  1.00  0.00     0.000 C 
BRANCH  17  18
ATOM     18  C   UNL     1       3.862   3.583   7.619  1.00  0.00    -0.000 C 
BRANCH  18  19
ATOM     19  C   UNL     1       4.967   4.606   7.933  1.00  0.00    -0.000 C 
BRANCH  19  20
ATOM     20  C   UNL     1       6.382   4.016   7.757  1.00  0.00    -0.000 C 
BRANCH  20  21
ATOM     21  C   UNL     1       7.511   5.041   7.954  1.00  0.00    -0.000 C 
BRANCH  21  22
ATOM     22  C   UNL     1       7.108   6.466   7.552  1.00  0.00    -0.000 C 
BRANCH  22  23
ATOM     23  C   UNL     1       8.317   7.260   7.043  1.00  0.00    -0.000 C 
BRANCH  23  24
ATOM     24  C   UNL     1       8.067   7.796   5.624  1.00  0.00    -0.000 C 
BRANCH  24  25
ATOM     25  C   UNL     1       6.575   7.822   5.261  1.00  0.00    -0.003 C 
ATOM     26  C   UNL     1       6.157   6.636   4.391  1.00  0.00     0.004 C 
ENDBRANCH  24  25
ENDBRANCH  23  24
ENDBRANCH  22  23
ENDBRANCH  21  22
ENDBRANCH  20  21
ENDBRANCH  19  20
ENDBRANCH  18  19
ENDBRANCH  17  18
ENDBRANCH  16  17
ENDBRANCH  15  16
ENDBRANCH   1  15
TORSDOF 22
ENDMDL
MODEL 6
REMARK VINA RESULT:    -5.877      1.839      4.231
REMARK INTER + INTRA:         -17.045
REMARK INTER:                 -13.520
REMARK INTRA:                  -3.525
REMARK UNBOUND:                -3.609
REMARK SMILES CCCCCCCCCCCCCCCCCCCCCCCC(=O)[O-]
REMARK SMILES IDX 13 1 14 2 15 3 16 4 17 5 18 6 19 7 20 8 21 9 22 10 23 11
REMARK SMILES IDX 24 12 25 13 26 14 12 15 11 16 10 17 9 18 8 19 7 20 6 21 5 22
REMARK SMILES IDX 4 23 3 24 2 25 1 26
REMARK H PARENT
REMARK Flexibility Score: inf
ROOT
ATOM      1  C   UNL     1       2.372   9.830   9.739  1.00  0.00     0.000 C 
ENDROOT
BRANCH   1   2
ATOM      2  C   UNL     1       1.271   9.219  10.624  1.00  0.00     0.000 C 
BRANCH   2   3
ATOM      3  C   UNL     1       1.766   8.007  11.429  1.00  0.00     0.000 C 
BRANCH   3   4
ATOM      4  C   UNL     1       1.252   8.014  12.880  1.00  0.00     0.000 C 
BRANCH   4   5
ATOM      5  C   UNL     1       0.121   6.999  13.108  1.00  0.00     0.000 C 
BRANCH   5   6
ATOM      6  C   UNL     1       0.232   5.776  12.184  1.00  0.00     0.000 C 
BRANCH   6   7
ATOM      7  C   UNL     1      -1.060   5.574  11.377  1.00  0.00     0.000 C 
BRANCH   7   8
ATOM      8  C   UNL     1      -0.781   5.124   9.928  1.00  0.00     0.000 C 
BRANCH   8   9
ATOM      9  C   UNL     1      -0.540   6.290   8.954  1.00  0.00     0.000 C 
BRANCH   9  10
ATOM     10  C   UNL     1       0.800   6.175   8.208  1.00  0.00     0.006 C 
BRANCH  10  11
ATOM     11  C   UNL     1       1.768   5.200   8.892  1.00  0.00     0.053 C 
BRANCH  11  12
ATOM     12  C   UNL     1       2.256   4.140   7.952  1.00  0.00     0.041 C 
ATOM     13  O   UNL     1       2.739   4.460   6.833  1.00  0.00    -0.550 OA
ATOM     14  O   UNL     1       2.168   2.798   8.306  1.00  0.00    -0.550 OA
ENDBRANCH  11  12
ENDBRANCH  10  11
ENDBRANCH   9  10
ENDBRANCH   8   9
ENDBRANCH   7   8
ENDBRANCH   6   7
ENDBRANCH   5   6
ENDBRANCH   4   5
ENDBRANCH   3   4
ENDBRANCH   2   3
ENDBRANCH   1   2
BRANCH   1  15
ATOM     15  C   UNL     1       2.224   9.419   8.258  1.00  0.00     0.000 C 
BRANCH  15  16
ATOM     16  C   UNL     1       3.403   9.869   7.378  1.00  0.00     0.000 C 
BRANCH  16  17
ATOM     17  C   UNL     1       4.656   9.005   7.574  1.00  0.00     0.000 C 
BRANCH  17  18
ATOM     18  C   UNL     1       4.368   7.534   7.253  1.00  0.00    -0.000 C 
BRANCH  18  19
ATOM     19  C   UNL     1       4.615   7.239   5.764  1.00  0.00    -0.000 C 
BRANCH  19  20
ATOM     20  C   UNL     1       5.809   8.035   5.197  1.00  0.00    -0.000 C 
BRANCH  20  21
ATOM     21  C   UNL     1       7.102   7.211   5.074  1.00  0.00    -0.000 C 
BRANCH  21  22
ATOM     22  C   UNL     1       8.182   7.631   6.080  1.00  0.00    -0.000 C 
BRANCH  22  23
ATOM     23  C   UNL     1       7.872   7.092   7.481  1.00  0.00    -0.000 C 
BRANCH  23  24
ATOM     24  C   UNL     1       8.507   5.707   7.692  1.00  0.00    -0.000 C 
BRANCH  24  25
ATOM     25  C   UNL     1       7.588   4.753   8.469  1.00  0.00    -0.003 C 
ATOM     26  C   UNL     1       6.334   4.368   7.683  1.00  0.00     0.004 C 
ENDBRANCH  24  25
ENDBRANCH  23  24
ENDBRANCH  22  23
ENDBRANCH  21  22
ENDBRANCH  20  21
ENDBRANCH  19  20
ENDBRANCH  18  19
ENDBRANCH  17  18
ENDBRANCH  16  17
ENDBRANCH  15  16
ENDBRANCH   1  15
TORSDOF 22
ENDMDL
MODEL 7
REMARK VINA RESULT:    -5.875      1.812      3.619
REMARK INTER + INTRA:         -17.040
REMARK INTER:                 -13.609
REMARK INTRA:                  -3.431
REMARK UNBOUND:                -3.609
REMARK SMILES CCCCCCCCCCCCCCCCCCCCCCCC(=O)[O-]
REMARK SMILES IDX 13 1 14 2 15 3 16 4 17 5 18 6 19 7 20 8 21 9 22 10 23 11
REMARK SMILES IDX 24 12 25 13 26 14 12 15 11 16 10 17 9 18 8 19 7 20 6 21 5 22
REMARK SMILES IDX 4 23 3 24 2 25 1 26
REMARK H PARENT
REMARK Flexibility Score: inf
ROOT
ATOM      1  C   UNL     1       3.656   3.916   7.365  1.00  0.00     0.000 C 
ENDROOT
BRANCH   1   2
ATOM      2  C   UNL     1       2.410   4.265   8.199  1.00  0.00     0.000 C 
BRANCH   2   3
ATOM      3  C   UNL     1       2.750   5.098   9.447  1.00  0.00     0.000 C 
BRANCH   3   4
ATOM      4  C   UNL     1       2.369   6.580   9.285  1.00  0.00     0.000 C 
BRANCH   4   5
ATOM      5  C   UNL     1       1.145   6.778   8.377  1.00  0.00     0.000 C 
BRANCH   5   6
ATOM      6  C   UNL     1       0.000   7.520   9.084  1.00  0.00     0.000 C 
BRANCH   6   7
ATOM      7  C   UNL     1      -1.235   6.618   9.232  1.00  0.00     0.000 C 
BRANCH   7   8
ATOM      8  C   UNL     1      -0.948   5.370  10.092  1.00  0.00     0.000 C 
BRANCH   8   9
ATOM      9  C   UNL     1      -0.943   5.649  11.605  1.00  0.00     0.000 C 
BRANCH   9  10
ATOM     10  C   UNL     1       0.460   5.963  12.148  1.00  0.00     0.006 C 
BRANCH  10  11
ATOM     11  C   UNL     1       0.435   7.029  13.252  1.00  0.00     0.053 C 
BRANCH  11  12
ATOM     12  C   UNL     1       1.357   8.172  12.952  1.00  0.00     0.041 C 
ATOM     13  O   UNL     1       2.257   8.491  13.773  1.00  0.00    -0.550 OA
ATOM     14  O   UNL     1       1.215   8.892  11.771  1.00  0.00    -0.550 OA
ENDBRANCH  11  12
ENDBRANCH  10  11
ENDBRANCH   9  10
ENDBRANCH   8   9
ENDBRANCH   7   8
ENDBRANCH   6   7
ENDBRANCH   5   6
ENDBRANCH   4   5
ENDBRANCH   3   4
ENDBRANCH   2   3
ENDBRANCH   1   2
BRANCH   1  15
ATOM     15  C   UNL     1       4.961   4.066   8.177  1.00  0.00     0.000 C 
BRANCH  15  16
ATOM     16  C   UNL     1       6.125   4.655   7.360  1.00  0.00     0.000 C 
BRANCH  16  17
ATOM     17  C   UNL     1       7.496   4.364   7.984  1.00  0.00     0.000 C 
BRANCH  17  18
ATOM     18  C   UNL     1       8.366   5.626   8.019  1.00  0.00    -0.000 C 
BRANCH  18  19
ATOM     19  C   UNL     1       7.575   6.851   7.531  1.00  0.00    -0.000 C 
BRANCH  19  20
ATOM     20  C   UNL     1       8.341   7.658   6.461  1.00  0.00    -0.000 C 
BRANCH  20  21
ATOM     21  C   UNL     1       7.613   7.746   5.109  1.00  0.00    -0.000 C 
BRANCH  21  22
ATOM     22  C   UNL     1       6.232   8.407   5.211  1.00  0.00    -0.000 C 
BRANCH  22  23
ATOM     23  C   UNL     1       5.111   7.381   5.003  1.00  0.00    -0.000 C 
BRANCH  23  24
ATOM     24  C   UNL     1       4.091   7.438   6.152  1.00  0.00    -0.000 C 
BRANCH  24  25
ATOM     25  C   UNL     1       4.423   8.532   7.178  1.00  0.00    -0.003 C 
ATOM     26  C   UNL     1       3.331   9.596   7.282  1.00  0.00     0.004 C 
ENDBRANCH  24  25
ENDBRANCH  23  24
ENDBRANCH  22  23
ENDBRANCH  21  22
ENDBRANCH  20  21
ENDBRANCH  19  20
ENDBRANCH  18  19
ENDBRANCH  17  18
ENDBRANCH  16  17
ENDBRANCH  15  16
ENDBRANCH   1  15
TORSDOF 22
ENDMDL
MODEL 8
REMARK VINA RESULT:    -5.841      1.682      7.695
REMARK INTER + INTRA:         -16.962
REMARK INTER:                 -13.858
REMARK INTRA:                  -3.105
REMARK UNBOUND:                -3.609
REMARK SMILES CCCCCCCCCCCCCCCCCCCCCCCC(=O)[O-]
REMARK SMILES IDX 13 1 14 2 15 3 16 4 17 5 18 6 19 7 20 8 21 9 22 10 23 11
REMARK SMILES IDX 24 12 25 13 26 14 12 15 11 16 10 17 9 18 8 19 7 20 6 21 5 22
REMARK SMILES IDX 4 23 3 24 2 25 1 26
REMARK H PARENT
REMARK Flexibility Score: inf
ROOT
ATOM      1  C   UNL     1       4.767   8.622   7.507  1.00  0.00     0.000 C 
ENDROOT
BRANCH   1   2
ATOM      2  C   UNL     1       5.815   9.155   6.513  1.00  0.00     0.000 C 
BRANCH   2   3
ATOM      3  C   UNL     1       5.896   8.310   5.232  1.00  0.00     0.000 C 
BRANCH   3   4
ATOM      4  C   UNL     1       7.081   7.328   5.249  1.00  0.00     0.000 C 
BRANCH   4   5
ATOM      5  C   UNL     1       8.238   7.818   6.135  1.00  0.00     0.000 C 
BRANCH   5   6
ATOM      6  C   UNL     1       8.754   6.726   7.086  1.00  0.00     0.000 C 
BRANCH   6   7
ATOM      7  C   UNL     1       7.627   6.205   7.992  1.00  0.00     0.000 C 
BRANCH   7   8
ATOM      8  C   UNL     1       7.650   4.668   8.129  1.00  0.00     0.000 C 
BRANCH   8   9
ATOM      9  C   UNL     1       6.279   4.006   7.909  1.00  0.00     0.000 C 
BRANCH   9  10
ATOM     10  C   UNL     1       5.203   5.004   7.450  1.00  0.00     0.006 C 
BRANCH  10  11
ATOM     11  C   UNL     1       4.028   5.089   8.432  1.00  0.00     0.053 C 
BRANCH  11  12
ATOM     12  C   UNL     1       2.751   4.588   7.826  1.00  0.00     0.041 C 
ATOM     13  O   UNL     1       2.189   3.562   8.293  1.00  0.00    -0.550 OA
ATOM     14  O   UNL     1       2.188   5.248   6.740  1.00  0.00    -0.550 OA
ENDBRANCH  11  12
ENDBRANCH  10  11
ENDBRANCH   9  10
ENDBRANCH   8   9
ENDBRANCH   7   8
ENDBRANCH   6   7
ENDBRANCH   5   6
ENDBRANCH   4   5
ENDBRANCH   3   4
ENDBRANCH   2   3
ENDBRANCH   1   2
BRANCH   1  15
ATOM     15  C   UNL     1       3.362   9.206   7.240  1.00  0.00     0.000 C 
BRANCH  15  16
ATOM     16  C   UNL     1       2.255   8.542   8.078  1.00  0.00     0.000 C 
BRANCH  16  17
ATOM     17  C   UNL     1       2.027   9.243   9.424  1.00  0.00     0.000 C 
BRANCH  17  18
ATOM     18  C   UNL     1       1.935   8.225  10.568  1.00  0.00    -0.000 C 
BRANCH  18  19
ATOM     19  C   UNL     1       1.229   8.835  11.790  1.00  0.00    -0.000 C 
BRANCH  19  20
ATOM     20  C   UNL     1       1.380   7.962  13.053  1.00  0.00    -0.000 C 
BRANCH  20  21
ATOM     21  C   UNL     1       0.295   6.881  13.195  1.00  0.00    -0.000 C 
BRANCH  21  22
ATOM     22  C   UNL     1       0.392   5.787  12.124  1.00  0.00    -0.000 C 
BRANCH  22  23
ATOM     23  C   UNL     1      -0.948   5.599  11.403  1.00  0.00    -0.000 C 
BRANCH  23  24
ATOM     24  C   UNL     1      -0.755   4.874  10.061  1.00  0.00    -0.000 C 
BRANCH  24  25
ATOM     25  C   UNL     1      -0.595   5.849   8.885  1.00  0.00    -0.003 C 
ATOM     26  C   UNL     1      -1.346   7.163   9.101  1.00  0.00     0.004 C 
ENDBRANCH  24  25
ENDBRANCH  23  24
ENDBRANCH  22  23
ENDBRANCH  21  22
ENDBRANCH  20  21
ENDBRANCH  19  20
ENDBRANCH  18  19
ENDBRANCH  17  18
ENDBRANCH  16  17
ENDBRANCH  15  16
ENDBRANCH   1  15
TORSDOF 22
ENDMDL
MODEL 9
REMARK VINA RESULT:    -5.802      2.350      3.807
REMARK INTER + INTRA:         -16.873
REMARK INTER:                 -13.147
REMARK INTRA:                  -3.726
REMARK UNBOUND:                -3.609
REMARK SMILES CCCCCCCCCCCCCCCCCCCCCCCC(=O)[O-]
REMARK SMILES IDX 13 1 14 2 15 3 16 4 17 5 18 6 19 7 20 8 21 9 22 10 23 11
REMARK SMILES IDX 24 12 25 13 26 14 12 15 11 16 10 17 9 18 8 19 7 20 6 21 5 22
REMARK SMILES IDX 4 23 3 24 2 25 1 26
REMARK H PARENT
REMARK Flexibility Score: inf
ROOT
ATOM      1  C   UNL     1       3.539   4.004   8.195  1.00  0.00     0.000 C 
ENDROOT
BRANCH   1   2
ATOM      2  C   UNL     1       2.666   5.053   8.907  1.00  0.00     0.000 C 
BRANCH   2   3
ATOM      3  C   UNL     1       1.928   5.974   7.921  1.00  0.00     0.000 C 
BRANCH   3   4
ATOM      4  C   UNL     1       1.507   7.307   8.565  1.00  0.00     0.000 C 
BRANCH   4   5
ATOM      5  C   UNL     1       2.413   7.705   9.741  1.00  0.00     0.000 C 
BRANCH   5   6
ATOM      6  C   UNL     1       2.176   9.151  10.204  1.00  0.00     0.000 C 
BRANCH   6   7
ATOM      7  C   UNL     1       1.305   9.189  11.470  1.00  0.00     0.000 C 
BRANCH   7   8
ATOM      8  C   UNL     1       1.748   8.145  12.516  1.00  0.00     0.000 C 
BRANCH   8   9
ATOM      9  C   UNL     1       0.585   7.325  13.102  1.00  0.00     0.000 C 
BRANCH   9  10
ATOM     10  C   UNL     1       0.372   5.989  12.372  1.00  0.00     0.006 C 
BRANCH  10  11
ATOM     11  C   UNL     1      -0.657   6.100  11.239  1.00  0.00     0.053 C 
BRANCH  11  12
ATOM     12  C   UNL     1      -1.083   4.755  10.732  1.00  0.00     0.041 C 
ATOM     13  O   UNL     1      -1.643   3.935  11.507  1.00  0.00    -0.550 OA
ATOM     14  O   UNL     1      -0.851   4.403   9.407  1.00  0.00    -0.550 OA
ENDBRANCH  11  12
ENDBRANCH  10  11
ENDBRANCH   9  10
ENDBRANCH   8   9
ENDBRANCH   7   8
ENDBRANCH   6   7
ENDBRANCH   5   6
ENDBRANCH   4   5
ENDBRANCH   3   4
ENDBRANCH   2   3
ENDBRANCH   1   2
BRANCH   1  15
ATOM     15  C   UNL     1       4.590   4.653   7.268  1.00  0.00     0.000 C 
BRANCH  15  16
ATOM     16  C   UNL     1       6.040   4.398   7.715  1.00  0.00     0.000 C 
BRANCH  16  17
ATOM     17  C   UNL     1       6.704   5.643   8.319  1.00  0.00     0.000 C 
BRANCH  17  18
ATOM     18  C   UNL     1       8.204   5.677   8.002  1.00  0.00    -0.000 C 
BRANCH  18  19
ATOM     19  C   UNL     1       8.625   7.062   7.485  1.00  0.00    -0.000 C 
BRANCH  19  20
ATOM     20  C   UNL     1       8.348   7.235   5.976  1.00  0.00    -0.000 C 
BRANCH  20  21
ATOM     21  C   UNL     1       8.027   8.683   5.565  1.00  0.00    -0.000 C 
BRANCH  21  22
ATOM     22  C   UNL     1       6.608   8.849   5.007  1.00  0.00    -0.000 C 
BRANCH  22  23
ATOM     23  C   UNL     1       5.789   7.565   5.187  1.00  0.00    -0.000 C 
BRANCH  23  24
ATOM     24  C   UNL     1       4.536   7.825   6.041  1.00  0.00    -0.000 C 
BRANCH  24  25
ATOM     25  C   UNL     1       4.818   8.761   7.226  1.00  0.00    -0.003 C 
ATOM     26  C   UNL     1       3.923  10.001   7.225  1.00  0.00     0.004 C 
ENDBRANCH  24  25
ENDBRANCH  23  24
ENDBRANCH  22  23
ENDBRANCH  21  22
ENDBRANCH  20  21
ENDBRANCH  19  20
ENDBRANCH  18  19
ENDBRANCH  17  18
ENDBRANCH  16  17
ENDBRANCH  15  16
ENDBRANCH   1  15
TORSDOF 22
ENDMDL
