MODEL 1
REMARK VINA RESULT:    -2.841      0.000      0.000
REMARK INTER + INTRA:          -3.358
REMARK INTER:                  -3.339
REMARK INTRA:                  -0.019
REMARK UNBOUND:                -0.019
REMARK SMILES CCCCC(=O)[O-]
REMARK SMILES IDX 4 1 5 2 6 3 7 4 3 5 2 6 1 7
REMARK H PARENT
REMARK Flexibility Score: inf
ROOT
ATOM      1  C   UNL     1      48.143  20.864  15.576  1.00  0.00     0.053 C 
ENDROOT
BRANCH   1   2
ATOM      2  C   UNL     1      47.199  21.497  16.552  1.00  0.00     0.041 C 
ATOM      3  O   UNL     1      47.638  22.034  17.602  1.00  0.00    -0.550 OA
ATOM      4  O   UNL     1      45.830  21.467  16.314  1.00  0.00    -0.550 OA
ENDBRANCH   1   2
BRANCH   1   5
ATOM      5  C   UNL     1      49.516  21.554  15.576  1.00  0.00     0.006 C 
BRANCH   5   6
ATOM      6  C   UNL     1      50.510  20.978  14.553  1.00  0.00    -0.003 C 
ATOM      7  C   UNL     1      51.969  21.256  14.920  1.00  0.00     0.004 C 
ENDBRANCH   5   6
ENDBRANCH   1   5
TORSDOF 3
ENDMDL
MODEL 2
REMARK VINA RESULT:    -2.691     12.438     13.877
REMARK INTER + INTRA:          -3.182
REMARK INTER:                  -3.134
REMARK INTRA:                  -0.048
REMARK UNBOUND:                -0.019
REMARK SMILES CCCCC(=O)[O-]
REMARK SMILES IDX 4 1 5 2 6 3 7 4 3 5 2 6 1 7
REMARK H PARENT
REMARK Flexibility Score: inf
ROOT
ATOM      1  C   UNL     1      34.543  20.022  16.130  1.00  0.00     0.053 C 
ENDROOT
BRANCH   1   2
ATOM      2  C   UNL     1      33.889  18.914  15.362  1.00  0.00     0.041 C 
ATOM      3  O   UNL     1      33.850  18.953  14.104  1.00  0.00    -0.550 OA
ATOM      4  O   UNL     1      33.298  17.854  16.039  1.00  0.00    -0.550 OA
ENDBRANCH   1   2
BRANCH   1   5
ATOM      5  C   UNL     1      35.987  20.268  15.666  1.00  0.00     0.006 C 
BRANCH   5   6
ATOM      6  C   UNL     1      36.204  21.628  14.979  1.00  0.00    -0.003 C 
ATOM      7  C   UNL     1      37.679  22.025  14.900  1.00  0.00     0.004 C 
ENDBRANCH   5   6
ENDBRANCH   1   5
TORSDOF 3
ENDMDL
MODEL 3
REMARK VINA RESULT:    -2.659     12.698     14.130
REMARK INTER + INTRA:          -3.145
REMARK INTER:                  -3.040
REMARK INTRA:                  -0.104
REMARK UNBOUND:                -0.019
REMARK SMILES CCCCC(=O)[O-]
REMARK SMILES IDX 4 1 5 2 6 3 7 4 3 5 2 6 1 7
REMARK H PARENT
REMARK Flexibility Score: inf
ROOT
ATOM      1  C   UNL     1      35.838  20.173  15.893  1.00  0.00     0.053 C 
ENDROOT
BRANCH   1   2
ATOM      2  C   UNL     1      36.061  21.304  14.937  1.00  0.00     0.041 C 
ATOM      3  O   UNL     1      35.737  21.184  13.726  1.00  0.00    -0.550 OA
ATOM      4  O   UNL     1      36.656  22.480  15.377  1.00  0.00    -0.550 OA
ENDBRANCH   1   2
BRANCH   1   5
ATOM      5  C   UNL     1      34.353  20.010  16.254  1.00  0.00     0.006 C 
BRANCH   5   6
ATOM      6  C   UNL     1      33.744  18.666  15.820  1.00  0.00    -0.003 C 
ATOM      7  C   UNL     1      33.330  18.648  14.348  1.00  0.00     0.004 C 
ENDBRANCH   5   6
ENDBRANCH   1   5
TORSDOF 3
ENDMDL
MODEL 4
REMARK VINA RESULT:    -2.637     11.134     12.878
REMARK INTER + INTRA:          -3.119
REMARK INTER:                  -3.104
REMARK INTRA:                  -0.015
REMARK UNBOUND:                -0.019
REMARK SMILES CCCCC(=O)[O-]
REMARK SMILES IDX 4 1 5 2 6 3 7 4 3 5 2 6 1 7
REMARK H PARENT
REMARK Flexibility Score: inf
ROOT
ATOM      1  C   UNL     1      36.444  22.052  15.192  1.00  0.00     0.053 C 
ENDROOT
BRANCH   1   2
ATOM      2  C   UNL     1      37.610  22.328  14.294  1.00  0.00     0.041 C 
ATOM      3  O   UNL     1      37.423  22.747  13.121  1.00  0.00    -0.550 OA
ATOM      4  O   UNL     1      38.904  22.092  14.743  1.00  0.00    -0.550 OA
ENDBRANCH   1   2
BRANCH   1   5
ATOM      5  C   UNL     1      36.168  20.546  15.328  1.00  0.00     0.006 C 
BRANCH   5   6
ATOM      6  C   UNL     1      34.937  20.207  16.187  1.00  0.00    -0.003 C 
ATOM      7  C   UNL     1      34.119  19.046  15.622  1.00  0.00     0.004 C 
ENDBRANCH   5   6
ENDBRANCH   1   5
TORSDOF 3
ENDMDL
MODEL 5
REMARK VINA RESULT:    -2.559      2.878      4.028
REMARK INTER + INTRA:          -3.027
REMARK INTER:                  -2.926
REMARK INTRA:                  -0.101
REMARK UNBOUND:                -0.019
REMARK SMILES CCCCC(=O)[O-]
REMARK SMILES IDX 4 1 5 2 6 3 7 4 3 5 2 6 1 7
REMARK H PARENT
REMARK Flexibility Score: inf
ROOT
ATOM      1  C   UNL     1      52.636  22.433  16.757  1.00  0.00     0.053 C 
ENDROOT
BRANCH   1   2
ATOM      2  C   UNL     1      51.566  22.557  17.798  1.00  0.00     0.041 C 
ATOM      3  O   UNL     1      50.436  23.023  17.494  1.00  0.00    -0.550 OA
ATOM      4  O   UNL     1      51.827  22.185  19.111  1.00  0.00    -0.550 OA
ENDBRANCH   1   2
BRANCH   1   5
ATOM      5  C   UNL     1      52.604  21.063  16.062  1.00  0.00     0.006 C 
BRANCH   5   6
ATOM      6  C   UNL     1      52.038  21.096  14.631  1.00  0.00    -0.003 C 
ATOM      7  C   UNL     1      50.514  20.972  14.592  1.00  0.00     0.004 C 
ENDBRANCH   5   6
ENDBRANCH   1   5
TORSDOF 3
ENDMDL
MODEL 6
REMARK VINA RESULT:    -2.435     13.263     14.266
REMARK INTER + INTRA:          -2.882
REMARK INTER:                  -2.756
REMARK INTRA:                  -0.125
REMARK UNBOUND:                -0.019
REMARK SMILES CCCCC(=O)[O-]
REMARK SMILES IDX 4 1 5 2 6 3 7 4 3 5 2 6 1 7
REMARK H PARENT
REMARK Flexibility Score: inf
ROOT
ATOM      1  C   UNL     1      36.059  21.259  14.788  1.00  0.00     0.053 C 
ENDROOT
BRANCH   1   2
ATOM      2  C   UNL     1      35.112  21.229  13.628  1.00  0.00     0.041 C 
ATOM      3  O   UNL     1      35.054  20.216  12.883  1.00  0.00    -0.550 OA
ATOM      4  O   UNL     1      34.315  22.334  13.352  1.00  0.00    -0.550 OA
ENDBRANCH   1   2
BRANCH   1   5
ATOM      5  C   UNL     1      35.815  20.092  15.758  1.00  0.00     0.006 C 
BRANCH   5   6
ATOM      6  C   UNL     1      34.388  20.038  16.331  1.00  0.00    -0.003 C 
ATOM      7  C   UNL     1      33.642  18.759  15.950  1.00  0.00     0.004 C 
ENDBRANCH   5   6
ENDBRANCH   1   5
TORSDOF 3
ENDMDL
MODEL 7
REMARK VINA RESULT:    -2.370     13.662     14.752
REMARK INTER + INTRA:          -2.805
REMARK INTER:                  -2.775
REMARK INTRA:                  -0.031
REMARK UNBOUND:                -0.019
REMARK SMILES CCCCC(=O)[O-]
REMARK SMILES IDX 4 1 5 2 6 3 7 4 3 5 2 6 1 7
REMARK H PARENT
REMARK Flexibility Score: inf
ROOT
ATOM      1  C   UNL     1      34.973  20.297  13.276  1.00  0.00     0.053 C 
ENDROOT
BRANCH   1   2
ATOM      2  C   UNL     1      34.456  20.464  11.880  1.00  0.00     0.041 C 
ATOM      3  O   UNL     1      35.207  20.915  10.976  1.00  0.00    -0.550 OA
ATOM      4  O   UNL     1      33.134  20.149  11.586  1.00  0.00    -0.550 OA
ENDBRANCH   1   2
BRANCH   1   5
ATOM      5  C   UNL     1      34.030  19.443  14.139  1.00  0.00     0.006 C 
BRANCH   5   6
ATOM      6  C   UNL     1      34.428  19.371  15.623  1.00  0.00    -0.003 C 
ATOM      7  C   UNL     1      35.754  20.072  15.919  1.00  0.00     0.004 C 
ENDBRANCH   5   6
ENDBRANCH   1   5
TORSDOF 3
ENDMDL
MODEL 8
REMARK VINA RESULT:    -2.357      2.775      4.350
REMARK INTER + INTRA:          -2.789
REMARK INTER:                  -2.766
REMARK INTRA:                  -0.023
REMARK UNBOUND:                -0.019
REMARK SMILES CCCCC(=O)[O-]
REMARK SMILES IDX 4 1 5 2 6 3 7 4 3 5 2 6 1 7
REMARK H PARENT
REMARK Flexibility Score: inf
ROOT
ATOM      1  C   UNL     1      50.162  21.179  14.895  1.00  0.00     0.053 C 
ENDROOT
BRANCH   1   2
ATOM      2  C   UNL     1      51.531  21.491  15.416  1.00  0.00     0.041 C 
ATOM      3  O   UNL     1      51.671  22.183  16.459  1.00  0.00    -0.550 OA
ATOM      4  O   UNL     1      52.654  21.042  14.731  1.00  0.00    -0.550 OA
ENDBRANCH   1   2
BRANCH   1   5
ATOM      5  C   UNL     1      49.060  21.683  15.840  1.00  0.00     0.006 C 
BRANCH   5   6
ATOM      6  C   UNL     1      47.734  20.909  15.732  1.00  0.00    -0.003 C 
ATOM      7  C   UNL     1      46.580  21.603  16.455  1.00  0.00     0.004 C 
ENDBRANCH   5   6
ENDBRANCH   1   5
TORSDOF 3
ENDMDL
MODEL 9
REMARK VINA RESULT:    -2.238     13.973     14.794
REMARK INTER + INTRA:          -2.649
REMARK INTER:                  -2.548
REMARK INTRA:                  -0.101
REMARK UNBOUND:                -0.019
REMARK SMILES CCCCC(=O)[O-]
REMARK SMILES IDX 4 1 5 2 6 3 7 4 3 5 2 6 1 7
REMARK H PARENT
REMARK Flexibility Score: inf
ROOT
ATOM      1  C   UNL     1      35.612  21.708  11.212  1.00  0.00     0.053 C 
ENDROOT
BRANCH   1   2
ATOM      2  C   UNL     1      34.615  20.723  11.739  1.00  0.00     0.041 C 
ATOM      3  O   UNL     1      33.496  20.590  11.177  1.00  0.00    -0.550 OA
ATOM      4  O   UNL     1      34.910  19.973  12.872  1.00  0.00    -0.550 OA
ENDBRANCH   1   2
BRANCH   1   5
ATOM      5  C   UNL     1      36.233  21.241   9.886  1.00  0.00     0.006 C 
BRANCH   5   6
ATOM      6  C   UNL     1      36.089  22.250   8.733  1.00  0.00    -0.003 C 
ATOM      7  C   UNL     1      34.635  22.637   8.460  1.00  0.00     0.004 C 
ENDBRANCH   5   6
ENDBRANCH   1   5
TORSDOF 3
ENDMDL
