MODEL 1
REMARK VINA RESULT:    -3.547      0.000      0.000
REMARK INTER + INTRA:          -5.138
REMARK INTER:                  -4.791
REMARK INTRA:                  -0.346
REMARK UNBOUND:                -0.346
REMARK SMILES CCCCCCCC(=O)[O-]
REMARK SMILES IDX 5 1 6 2 7 3 8 4 9 5 10 6 4 7 3 8 2 9 1 10
REMARK H PARENT
REMARK Flexibility Score: inf
ROOT
ATOM      1  C   UNL     1      15.923  44.967   0.356  1.00  0.00     0.000 C 
ENDROOT
BRANCH   1   2
ATOM      2  C   UNL     1      14.512  44.397   0.606  1.00  0.00     0.006 C 
BRANCH   2   3
ATOM      3  C   UNL     1      13.379  45.196  -0.057  1.00  0.00     0.053 C 
BRANCH   3   4
ATOM      4  C   UNL     1      12.295  44.304  -0.578  1.00  0.00     0.041 C 
ATOM      5  O   UNL     1      12.341  43.063  -0.367  1.00  0.00    -0.550 OA
ATOM      6  O   UNL     1      11.252  44.837  -1.325  1.00  0.00    -0.550 OA
ENDBRANCH   3   4
ENDBRANCH   2   3
ENDBRANCH   1   2
BRANCH   1   7
ATOM      7  C   UNL     1      15.961  46.437  -0.106  1.00  0.00     0.000 C 
BRANCH   7   8
ATOM      8  C   UNL     1      16.912  46.729  -1.285  1.00  0.00    -0.000 C 
BRANCH   8   9
ATOM      9  C   UNL     1      16.412  47.804  -2.266  1.00  0.00    -0.003 C 
ATOM     10  C   UNL     1      14.898  48.003  -2.211  1.00  0.00     0.004 C 
ENDBRANCH   8   9
ENDBRANCH   7   8
ENDBRANCH   1   7
TORSDOF 6
ENDMDL
MODEL 2
REMARK VINA RESULT:    -3.494      2.375      4.470
REMARK INTER + INTRA:          -5.066
REMARK INTER:                  -4.827
REMARK INTRA:                  -0.239
REMARK UNBOUND:                -0.346
REMARK SMILES CCCCCCCC(=O)[O-]
REMARK SMILES IDX 5 1 6 2 7 3 8 4 9 5 10 6 4 7 3 8 2 9 1 10
REMARK H PARENT
REMARK Flexibility Score: inf
ROOT
ATOM      1  C   UNL     1      15.533  45.020   0.230  1.00  0.00     0.000 C 
ENDROOT
BRANCH   1   2
ATOM      2  C   UNL     1      16.122  46.429   0.016  1.00  0.00     0.006 C 
BRANCH   2   3
ATOM      3  C   UNL     1      16.540  46.729  -1.432  1.00  0.00     0.053 C 
BRANCH   3   4
ATOM      4  C   UNL     1      15.468  47.453  -2.186  1.00  0.00     0.041 C 
ATOM      5  O   UNL     1      14.357  47.686  -1.640  1.00  0.00    -0.550 OA
ATOM      6  O   UNL     1      15.682  47.840  -3.503  1.00  0.00    -0.550 OA
ENDBRANCH   3   4
ENDBRANCH   2   3
ENDBRANCH   1   2
BRANCH   1   7
ATOM      7  C   UNL     1      14.015  44.980   0.494  1.00  0.00     0.000 C 
BRANCH   7   8
ATOM      8  C   UNL     1      13.396  43.568   0.548  1.00  0.00    -0.000 C 
BRANCH   8   9
ATOM      9  C   UNL     1      12.247  43.328  -0.447  1.00  0.00    -0.003 C 
ATOM     10  C   UNL     1      11.749  44.614  -1.103  1.00  0.00     0.004 C 
ENDBRANCH   8   9
ENDBRANCH   7   8
ENDBRANCH   1   7
TORSDOF 6
ENDMDL
MODEL 3
REMARK VINA RESULT:    -3.489      1.024      2.311
REMARK INTER + INTRA:          -5.060
REMARK INTER:                  -4.583
REMARK INTRA:                  -0.477
REMARK UNBOUND:                -0.346
REMARK SMILES CCCCCCCC(=O)[O-]
REMARK SMILES IDX 5 1 6 2 7 3 8 4 9 5 10 6 4 7 3 8 2 9 1 10
REMARK H PARENT
REMARK Flexibility Score: inf
ROOT
ATOM      1  C   UNL     1      14.519  46.617  -1.539  1.00  0.00     0.000 C 
ENDROOT
BRANCH   1   2
ATOM      2  C   UNL     1      13.367  46.364  -0.546  1.00  0.00     0.006 C 
BRANCH   2   3
ATOM      3  C   UNL     1      13.302  44.927  -0.003  1.00  0.00     0.053 C 
BRANCH   3   4
ATOM      4  C   UNL     1      12.201  44.136  -0.639  1.00  0.00     0.041 C 
ATOM      5  O   UNL     1      12.195  42.880  -0.557  1.00  0.00    -0.550 OA
ATOM      6  O   UNL     1      11.199  44.784  -1.350  1.00  0.00    -0.550 OA
ENDBRANCH   3   4
ENDBRANCH   2   3
ENDBRANCH   1   2
BRANCH   1   7
ATOM      7  C   UNL     1      15.616  47.578  -1.036  1.00  0.00     0.000 C 
BRANCH   7   8
ATOM      8  C   UNL     1      16.599  46.972  -0.014  1.00  0.00    -0.000 C 
BRANCH   8   9
ATOM      9  C   UNL     1      17.053  45.535  -0.329  1.00  0.00    -0.003 C 
ATOM     10  C   UNL     1      16.885  44.585   0.855  1.00  0.00     0.004 C 
ENDBRANCH   8   9
ENDBRANCH   7   8
ENDBRANCH   1   7
TORSDOF 6
ENDMDL
MODEL 4
REMARK VINA RESULT:    -3.241     11.582     13.264
REMARK INTER + INTRA:          -4.724
REMARK INTER:                  -4.478
REMARK INTRA:                  -0.246
REMARK UNBOUND:                -0.346
REMARK SMILES CCCCCCCC(=O)[O-]
REMARK SMILES IDX 5 1 6 2 7 3 8 4 9 5 10 6 4 7 3 8 2 9 1 10
REMARK H PARENT
REMARK Flexibility Score: inf
ROOT
ATOM      1  C   UNL     1      14.325  38.752   9.243  1.00  0.00     0.000 C 
ENDROOT
BRANCH   1   2
ATOM      2  C   UNL     1      14.114  37.731  10.379  1.00  0.00     0.006 C 
BRANCH   2   3
ATOM      3  C   UNL     1      15.258  37.677  11.405  1.00  0.00     0.053 C 
BRANCH   3   4
ATOM      4  C   UNL     1      14.780  37.976  12.793  1.00  0.00     0.041 C 
ATOM      5  O   UNL     1      15.415  37.537  13.788  1.00  0.00    -0.550 OA
ATOM      6  O   UNL     1      13.616  38.708  12.987  1.00  0.00    -0.550 OA
ENDBRANCH   3   4
ENDBRANCH   2   3
ENDBRANCH   1   2
BRANCH   1   7
ATOM      7  C   UNL     1      13.810  38.306   7.860  1.00  0.00     0.000 C 
BRANCH   7   8
ATOM      8  C   UNL     1      14.650  38.791   6.661  1.00  0.00    -0.000 C 
BRANCH   8   9
ATOM      9  C   UNL     1      16.106  39.158   6.998  1.00  0.00    -0.003 C 
ATOM     10  C   UNL     1      17.124  38.369   6.177  1.00  0.00     0.004 C 
ENDBRANCH   8   9
ENDBRANCH   7   8
ENDBRANCH   1   7
TORSDOF 6
ENDMDL
MODEL 5
REMARK VINA RESULT:    -3.133     10.675     12.300
REMARK INTER + INTRA:          -4.577
REMARK INTER:                  -4.265
REMARK INTRA:                  -0.313
REMARK UNBOUND:                -0.346
REMARK SMILES CCCCCCCC(=O)[O-]
REMARK SMILES IDX 5 1 6 2 7 3 8 4 9 5 10 6 4 7 3 8 2 9 1 10
REMARK H PARENT
REMARK Flexibility Score: inf
ROOT
ATOM      1  C   UNL     1      13.927  38.407   7.903  1.00  0.00     0.000 C 
ENDROOT
BRANCH   1   2
ATOM      2  C   UNL     1      14.439  38.756   9.315  1.00  0.00     0.006 C 
BRANCH   2   3
ATOM      3  C   UNL     1      14.086  37.719  10.393  1.00  0.00     0.053 C 
BRANCH   3   4
ATOM      4  C   UNL     1      14.517  38.159  11.758  1.00  0.00     0.041 C 
ATOM      5  O   UNL     1      13.657  38.420  12.640  1.00  0.00    -0.550 OA
ATOM      6  O   UNL     1      15.867  38.312  12.046  1.00  0.00    -0.550 OA
ENDBRANCH   3   4
ENDBRANCH   2   3
ENDBRANCH   1   2
BRANCH   1   7
ATOM      7  C   UNL     1      14.854  38.836   6.748  1.00  0.00     0.000 C 
BRANCH   7   8
ATOM      8  C   UNL     1      16.327  39.066   7.141  1.00  0.00    -0.000 C 
BRANCH   8   9
ATOM      9  C   UNL     1      16.818  40.516   6.987  1.00  0.00    -0.003 C 
ATOM     10  C   UNL     1      15.705  41.545   7.181  1.00  0.00     0.004 C 
ENDBRANCH   8   9
ENDBRANCH   7   8
ENDBRANCH   1   7
TORSDOF 6
ENDMDL
MODEL 6
REMARK VINA RESULT:    -3.092     10.948     13.071
REMARK INTER + INTRA:          -4.522
REMARK INTER:                  -4.519
REMARK INTRA:                  -0.003
REMARK UNBOUND:                -0.346
REMARK SMILES CCCCCCCC(=O)[O-]
REMARK SMILES IDX 5 1 6 2 7 3 8 4 9 5 10 6 4 7 3 8 2 9 1 10
REMARK H PARENT
REMARK Flexibility Score: inf
ROOT
ATOM      1  C   UNL     1      14.576  38.756   9.229  1.00  0.00     0.000 C 
ENDROOT
BRANCH   1   2
ATOM      2  C   UNL     1      13.860  38.352   7.925  1.00  0.00     0.006 C 
BRANCH   2   3
ATOM      3  C   UNL     1      14.604  38.755   6.642  1.00  0.00     0.053 C 
BRANCH   3   4
ATOM      4  C   UNL     1      15.961  39.317   6.933  1.00  0.00     0.041 C 
ATOM      5  O   UNL     1      16.106  40.552   7.129  1.00  0.00    -0.550 OA
ATOM      6  O   UNL     1      17.071  38.482   6.955  1.00  0.00    -0.550 OA
ENDBRANCH   3   4
ENDBRANCH   2   3
ENDBRANCH   1   2
BRANCH   1   7
ATOM      7  C   UNL     1      14.092  38.020  10.495  1.00  0.00     0.000 C 
BRANCH   7   8
ATOM      8  C   UNL     1      15.209  37.573  11.460  1.00  0.00    -0.000 C 
BRANCH   8   9
ATOM      9  C   UNL     1      14.920  37.839  12.948  1.00  0.00    -0.003 C 
ATOM     10  C   UNL     1      13.588  38.553  13.178  1.00  0.00     0.004 C 
ENDBRANCH   8   9
ENDBRANCH   7   8
ENDBRANCH   1   7
TORSDOF 6
ENDMDL
MODEL 7
REMARK VINA RESULT:    -3.077     10.018     12.161
REMARK INTER + INTRA:          -4.502
REMARK INTER:                  -4.245
REMARK INTRA:                  -0.256
REMARK UNBOUND:                -0.346
REMARK SMILES CCCCCCCC(=O)[O-]
REMARK SMILES IDX 5 1 6 2 7 3 8 4 9 5 10 6 4 7 3 8 2 9 1 10
REMARK H PARENT
REMARK Flexibility Score: inf
ROOT
ATOM      1  C   UNL     1      13.765  38.378   7.753  1.00  0.00     0.000 C 
ENDROOT
BRANCH   1   2
ATOM      2  C   UNL     1      14.747  38.756   6.626  1.00  0.00     0.006 C 
BRANCH   2   3
ATOM      3  C   UNL     1      16.153  39.143   7.112  1.00  0.00     0.053 C 
BRANCH   3   4
ATOM      4  C   UNL     1      16.270  40.613   7.375  1.00  0.00     0.041 C 
ATOM      5  O   UNL     1      17.125  41.043   8.193  1.00  0.00    -0.550 OA
ATOM      6  O   UNL     1      15.414  41.505   6.741  1.00  0.00    -0.550 OA
ENDBRANCH   3   4
ENDBRANCH   2   3
ENDBRANCH   1   2
BRANCH   1   7
ATOM      7  C   UNL     1      14.228  38.753   9.175  1.00  0.00     0.000 C 
BRANCH   7   8
ATOM      8  C   UNL     1      14.111  37.626  10.221  1.00  0.00    -0.000 C 
BRANCH   8   9
ATOM      9  C   UNL     1      15.241  37.594  11.265  1.00  0.00    -0.003 C 
ATOM     10  C   UNL     1      16.514  38.288  10.785  1.00  0.00     0.004 C 
ENDBRANCH   8   9
ENDBRANCH   7   8
ENDBRANCH   1   7
TORSDOF 6
ENDMDL
MODEL 8
REMARK VINA RESULT:    -3.050     12.232     13.976
REMARK INTER + INTRA:          -4.466
REMARK INTER:                  -4.272
REMARK INTRA:                  -0.195
REMARK UNBOUND:                -0.346
REMARK SMILES CCCCCCCC(=O)[O-]
REMARK SMILES IDX 5 1 6 2 7 3 8 4 9 5 10 6 4 7 3 8 2 9 1 10
REMARK H PARENT
REMARK Flexibility Score: inf
ROOT
ATOM      1  C   UNL     1      14.077  37.722  10.363  1.00  0.00     0.000 C 
ENDROOT
BRANCH   1   2
ATOM      2  C   UNL     1      14.872  37.954  11.663  1.00  0.00     0.006 C 
BRANCH   2   3
ATOM      3  C   UNL     1      16.326  37.459  11.613  1.00  0.00     0.053 C 
BRANCH   3   4
ATOM      4  C   UNL     1      16.475  36.095  12.215  1.00  0.00     0.041 C 
ATOM      5  O   UNL     1      16.551  35.081  11.472  1.00  0.00    -0.550 OA
ATOM      6  O   UNL     1      16.497  35.941  13.595  1.00  0.00    -0.550 OA
ENDBRANCH   3   4
ENDBRANCH   2   3
ENDBRANCH   1   2
BRANCH   1   7
ATOM      7  C   UNL     1      14.361  38.732   9.233  1.00  0.00     0.000 C 
BRANCH   7   8
ATOM      8  C   UNL     1      13.802  38.343   7.850  1.00  0.00    -0.000 C 
BRANCH   8   9
ATOM      9  C   UNL     1      14.692  38.741   6.659  1.00  0.00    -0.003 C 
ATOM     10  C   UNL     1      15.682  39.852   7.001  1.00  0.00     0.004 C 
ENDBRANCH   8   9
ENDBRANCH   7   8
ENDBRANCH   1   7
TORSDOF 6
ENDMDL
MODEL 9
REMARK VINA RESULT:    -3.002     11.677     13.688
REMARK INTER + INTRA:          -4.401
REMARK INTER:                  -4.134
REMARK INTRA:                  -0.267
REMARK UNBOUND:                -0.346
REMARK SMILES CCCCCCCC(=O)[O-]
REMARK SMILES IDX 5 1 6 2 7 3 8 4 9 5 10 6 4 7 3 8 2 9 1 10
REMARK H PARENT
REMARK Flexibility Score: inf
ROOT
ATOM      1  C   UNL     1      14.656  38.147  10.661  1.00  0.00     0.000 C 
ENDROOT
BRANCH   1   2
ATOM      2  C   UNL     1      15.557  38.962   9.711  1.00  0.00     0.006 C 
BRANCH   2   3
ATOM      3  C   UNL     1      14.803  39.675   8.578  1.00  0.00     0.053 C 
BRANCH   3   4
ATOM      4  C   UNL     1      14.503  38.752   7.437  1.00  0.00     0.041 C 
ATOM      5  O   UNL     1      15.318  38.639   6.484  1.00  0.00    -0.550 OA
ATOM      6  O   UNL     1      13.309  38.042   7.409  1.00  0.00    -0.550 OA
ENDBRANCH   3   4
ENDBRANCH   2   3
ENDBRANCH   1   2
BRANCH   1   7
ATOM      7  C   UNL     1      15.409  37.276  11.687  1.00  0.00     0.000 C 
BRANCH   7   8
ATOM      8  C   UNL     1      15.160  37.642  13.165  1.00  0.00    -0.000 C 
BRANCH   8   9
ATOM      9  C   UNL     1      14.325  38.916  13.382  1.00  0.00    -0.003 C 
ATOM     10  C   UNL     1      12.908  38.624  13.873  1.00  0.00     0.004 C 
ENDBRANCH   8   9
ENDBRANCH   7   8
ENDBRANCH   1   7
TORSDOF 6
ENDMDL
