MODEL 1
REMARK VINA RESULT:    -2.785      0.000      0.000
REMARK INTER + INTRA:          -3.302
REMARK INTER:                  -3.273
REMARK INTRA:                  -0.029
REMARK UNBOUND:                -0.029
REMARK SMILES CCCCC(=O)[O-]
REMARK SMILES IDX 4 1 5 2 6 3 7 4 3 5 2 6 1 7
REMARK H PARENT
REMARK Flexibility Score: inf
ROOT
ATOM      1  C   UNL     1      57.720  28.107  50.541  1.00  0.00     0.053 C 
ENDROOT
BRANCH   1   2
ATOM      2  C   UNL     1      58.809  28.778  49.761  1.00  0.00     0.041 C 
ATOM      3  O   UNL     1      58.667  29.965  49.367  1.00  0.00    -0.550 OA
ATOM      4  O   UNL     1      59.967  28.080  49.443  1.00  0.00    -0.550 OA
ENDBRANCH   1   2
BRANCH   1   5
ATOM      5  C   UNL     1      56.535  29.051  50.800  1.00  0.00     0.006 C 
BRANCH   5   6
ATOM      6  C   UNL     1      55.155  28.384  50.653  1.00  0.00    -0.003 C 
ATOM      7  C   UNL     1      54.010  29.395  50.592  1.00  0.00     0.004 C 
ENDBRANCH   5   6
ENDBRANCH   1   5
TORSDOF 3
ENDMDL
MODEL 2
REMARK VINA RESULT:    -2.746      0.186      1.233
REMARK INTER + INTRA:          -3.257
REMARK INTER:                  -3.231
REMARK INTRA:                  -0.026
REMARK UNBOUND:                -0.029
REMARK SMILES CCCCC(=O)[O-]
REMARK SMILES IDX 4 1 5 2 6 3 7 4 3 5 2 6 1 7
REMARK H PARENT
REMARK Flexibility Score: inf
ROOT
ATOM      1  C   UNL     1      57.590  28.087  50.664  1.00  0.00     0.053 C 
ENDROOT
BRANCH   1   2
ATOM      2  C   UNL     1      58.689  28.631  49.802  1.00  0.00     0.041 C 
ATOM      3  O   UNL     1      59.667  27.904  49.489  1.00  0.00    -0.550 OA
ATOM      4  O   UNL     1      58.646  29.952  49.373  1.00  0.00    -0.550 OA
ENDBRANCH   1   2
BRANCH   1   5
ATOM      5  C   UNL     1      56.418  29.073  50.790  1.00  0.00     0.006 C 
BRANCH   5   6
ATOM      6  C   UNL     1      55.032  28.427  50.616  1.00  0.00    -0.003 C 
ATOM      7  C   UNL     1      53.897  29.451  50.603  1.00  0.00     0.004 C 
ENDBRANCH   5   6
ENDBRANCH   1   5
TORSDOF 3
ENDMDL
MODEL 3
REMARK VINA RESULT:    -2.715      1.227      1.650
REMARK INTER + INTRA:          -3.220
REMARK INTER:                  -3.193
REMARK INTRA:                  -0.027
REMARK UNBOUND:                -0.029
REMARK SMILES CCCCC(=O)[O-]
REMARK SMILES IDX 4 1 5 2 6 3 7 4 3 5 2 6 1 7
REMARK H PARENT
REMARK Flexibility Score: inf
ROOT
ATOM      1  C   UNL     1      56.990  28.491  50.628  1.00  0.00     0.053 C 
ENDROOT
BRANCH   1   2
ATOM      2  C   UNL     1      58.095  29.489  50.454  1.00  0.00     0.041 C 
ATOM      3  O   UNL     1      58.458  30.207  51.422  1.00  0.00    -0.550 OA
ATOM      4  O   UNL     1      58.699  29.647  49.213  1.00  0.00    -0.550 OA
ENDBRANCH   1   2
BRANCH   1   5
ATOM      5  C   UNL     1      55.640  29.172  50.901  1.00  0.00     0.006 C 
BRANCH   5   6
ATOM      6  C   UNL     1      54.419  28.351  50.450  1.00  0.00    -0.003 C 
ATOM      7  C   UNL     1      54.738  26.869  50.254  1.00  0.00     0.004 C 
ENDBRANCH   5   6
ENDBRANCH   1   5
TORSDOF 3
ENDMDL
MODEL 4
REMARK VINA RESULT:    -2.657      2.931      4.213
REMARK INTER + INTRA:          -3.151
REMARK INTER:                  -3.128
REMARK INTRA:                  -0.023
REMARK UNBOUND:                -0.029
REMARK SMILES CCCCC(=O)[O-]
REMARK SMILES IDX 4 1 5 2 6 3 7 4 3 5 2 6 1 7
REMARK H PARENT
REMARK Flexibility Score: inf
ROOT
ATOM      1  C   UNL     1      55.571  29.114  50.770  1.00  0.00     0.053 C 
ENDROOT
BRANCH   1   2
ATOM      2  C   UNL     1      54.504  28.143  50.367  1.00  0.00     0.041 C 
ATOM      3  O   UNL     1      53.305  28.518  50.283  1.00  0.00    -0.550 OA
ATOM      4  O   UNL     1      54.830  26.816  50.117  1.00  0.00    -0.550 OA
ENDBRANCH   1   2
BRANCH   1   5
ATOM      5  C   UNL     1      56.973  28.488  50.699  1.00  0.00     0.006 C 
BRANCH   5   6
ATOM      6  C   UNL     1      58.067  29.450  50.201  1.00  0.00    -0.003 C 
ATOM      7  C   UNL     1      59.220  28.729  49.505  1.00  0.00     0.004 C 
ENDBRANCH   5   6
ENDBRANCH   1   5
TORSDOF 3
ENDMDL
MODEL 5
REMARK VINA RESULT:    -2.557     14.744     15.253
REMARK INTER + INTRA:          -3.034
REMARK INTER:                  -3.017
REMARK INTRA:                  -0.017
REMARK UNBOUND:                -0.029
REMARK SMILES CCCCC(=O)[O-]
REMARK SMILES IDX 4 1 5 2 6 3 7 4 3 5 2 6 1 7
REMARK H PARENT
REMARK Flexibility Score: inf
ROOT
ATOM      1  C   UNL     1      63.904  35.782  62.315  1.00  0.00     0.053 C 
ENDROOT
BRANCH   1   2
ATOM      2  C   UNL     1      63.083  36.441  63.382  1.00  0.00     0.041 C 
ATOM      3  O   UNL     1      63.426  36.351  64.590  1.00  0.00    -0.550 OA
ATOM      4  O   UNL     1      61.923  37.125  63.043  1.00  0.00    -0.550 OA
ENDBRANCH   1   2
BRANCH   1   5
ATOM      5  C   UNL     1      63.029  35.042  61.292  1.00  0.00     0.006 C 
BRANCH   5   6
ATOM      6  C   UNL     1      63.648  33.737  60.762  1.00  0.00    -0.003 C 
ATOM      7  C   UNL     1      62.826  33.100  59.642  1.00  0.00     0.004 C 
ENDBRANCH   5   6
ENDBRANCH   1   5
TORSDOF 3
ENDMDL
MODEL 6
REMARK VINA RESULT:    -2.533     14.266     14.708
REMARK INTER + INTRA:          -3.006
REMARK INTER:                  -2.987
REMARK INTRA:                  -0.019
REMARK UNBOUND:                -0.029
REMARK SMILES CCCCC(=O)[O-]
REMARK SMILES IDX 4 1 5 2 6 3 7 4 3 5 2 6 1 7
REMARK H PARENT
REMARK Flexibility Score: inf
ROOT
ATOM      1  C   UNL     1      63.394  35.569  60.859  1.00  0.00     0.053 C 
ENDROOT
BRANCH   1   2
ATOM      2  C   UNL     1      63.054  34.185  60.395  1.00  0.00     0.041 C 
ATOM      3  O   UNL     1      63.713  33.197  60.812  1.00  0.00    -0.550 OA
ATOM      4  O   UNL     1      62.030  33.992  59.477  1.00  0.00    -0.550 OA
ENDBRANCH   1   2
BRANCH   1   5
ATOM      5  C   UNL     1      63.715  35.608  62.361  1.00  0.00     0.006 C 
BRANCH   5   6
ATOM      6  C   UNL     1      63.043  36.767  63.118  1.00  0.00    -0.003 C 
ATOM      7  C   UNL     1      63.294  36.718  64.625  1.00  0.00     0.004 C 
ENDBRANCH   5   6
ENDBRANCH   1   5
TORSDOF 3
ENDMDL
MODEL 7
REMARK VINA RESULT:    -2.474     17.351     18.373
REMARK INTER + INTRA:          -2.937
REMARK INTER:                  -2.914
REMARK INTRA:                  -0.023
REMARK UNBOUND:                -0.029
REMARK SMILES CCCCC(=O)[O-]
REMARK SMILES IDX 4 1 5 2 6 3 7 4 3 5 2 6 1 7
REMARK H PARENT
REMARK Flexibility Score: inf
ROOT
ATOM      1  C   UNL     1      72.219  31.192  60.657  1.00  0.00     0.053 C 
ENDROOT
BRANCH   1   2
ATOM      2  C   UNL     1      72.161  30.475  61.971  1.00  0.00     0.041 C 
ATOM      3  O   UNL     1      71.224  29.669  62.213  1.00  0.00    -0.550 OA
ATOM      4  O   UNL     1      73.125  30.721  62.941  1.00  0.00    -0.550 OA
ENDBRANCH   1   2
BRANCH   1   5
ATOM      5  C   UNL     1      71.428  32.510  60.687  1.00  0.00     0.006 C 
BRANCH   5   6
ATOM      6  C   UNL     1      70.570  32.757  59.434  1.00  0.00    -0.003 C 
ATOM      7  C   UNL     1      70.190  34.226  59.255  1.00  0.00     0.004 C 
ENDBRANCH   5   6
ENDBRANCH   1   5
TORSDOF 3
ENDMDL
MODEL 8
REMARK VINA RESULT:    -2.472     13.691     14.282
REMARK INTER + INTRA:          -2.934
REMARK INTER:                  -2.906
REMARK INTRA:                  -0.029
REMARK UNBOUND:                -0.029
REMARK SMILES CCCCC(=O)[O-]
REMARK SMILES IDX 4 1 5 2 6 3 7 4 3 5 2 6 1 7
REMARK H PARENT
REMARK Flexibility Score: inf
ROOT
ATOM      1  C   UNL     1      61.602  36.366  61.280  1.00  0.00     0.053 C 
ENDROOT
BRANCH   1   2
ATOM      2  C   UNL     1      60.755  36.346  60.044  1.00  0.00     0.041 C 
ATOM      3  O   UNL     1      59.510  36.512  60.127  1.00  0.00    -0.550 OA
ATOM      4  O   UNL     1      61.337  36.113  58.805  1.00  0.00    -0.550 OA
ENDBRANCH   1   2
BRANCH   1   5
ATOM      5  C   UNL     1      62.715  35.307  61.229  1.00  0.00     0.006 C 
BRANCH   5   6
ATOM      6  C   UNL     1      63.820  35.505  62.282  1.00  0.00    -0.003 C 
ATOM      7  C   UNL     1      63.381  36.393  63.445  1.00  0.00     0.004 C 
ENDBRANCH   5   6
ENDBRANCH   1   5
TORSDOF 3
ENDMDL
MODEL 9
REMARK VINA RESULT:    -2.457      2.074      2.586
REMARK INTER + INTRA:          -2.917
REMARK INTER:                  -2.851
REMARK INTRA:                  -0.066
REMARK UNBOUND:                -0.029
REMARK SMILES CCCCC(=O)[O-]
REMARK SMILES IDX 4 1 5 2 6 3 7 4 3 5 2 6 1 7
REMARK H PARENT
REMARK Flexibility Score: inf
ROOT
ATOM      1  C   UNL     1      59.598  28.198  49.525  1.00  0.00     0.053 C 
ENDROOT
BRANCH   1   2
ATOM      2  C   UNL     1      60.995  28.423  50.017  1.00  0.00     0.041 C 
ATOM      3  O   UNL     1      61.330  29.544  50.483  1.00  0.00    -0.550 OA
ATOM      4  O   UNL     1      61.934  27.404  49.930  1.00  0.00    -0.550 OA
ENDBRANCH   1   2
BRANCH   1   5
ATOM      5  C   UNL     1      58.743  29.472  49.621  1.00  0.00     0.006 C 
BRANCH   5   6
ATOM      6  C   UNL     1      57.534  29.349  50.565  1.00  0.00    -0.003 C 
ATOM      7  C   UNL     1      57.007  27.918  50.672  1.00  0.00     0.004 C 
ENDBRANCH   5   6
ENDBRANCH   1   5
TORSDOF 3
ENDMDL
