MODEL 1
REMARK VINA RESULT:    -2.961      0.000      0.000
REMARK INTER + INTRA:          -3.791
REMARK INTER:                  -4.173
REMARK INTRA:                   0.382
REMARK UNBOUND:                 0.382
REMARK SMILES CC1=CCC(=C(C)C)C(=O)CC(C)=CCC1
REMARK SMILES IDX 12 1 14 2 13 3 15 4 16 5 2 6 1 7 3 8 11 10 9 11 10 12 5 13
REMARK SMILES IDX 6 14 7 15 8 16 4 17
REMARK H PARENT
REMARK Flexibility Score: 60.00
ROOT
ATOM      1  C   UNL     1       6.892 -35.739  16.631  1.00  0.00    -0.070 C 
ATOM      2  C   UNL     1       6.863 -36.942  16.018  1.00  0.00    -0.027 C 
ATOM      3  C   UNL     1       7.891 -35.537  17.743  1.00  0.00     0.039 C 
ENDROOT
BRANCH   2   4
ATOM      4  C   UNL     1       5.875 -37.368  14.954  1.00  0.00     0.032 C 
BRANCH   4   5
ATOM      5  C   UNL     1       6.121 -36.757  13.559  1.00  0.00     0.034 C 
BRANCH   5   6
ATOM      6  C   UNL     1       7.585 -36.458  13.287  1.00  0.00    -0.077 C 
ATOM      7  C   UNL     1       8.503 -37.625  13.026  1.00  0.00     0.039 C 
ATOM      8  C   UNL     1       8.132 -35.218  13.333  1.00  0.00    -0.023 CG0
ATOM      9  G   UNL     1       7.407 -33.905  13.558  1.00  0.00     0.000 G0
ENDBRANCH   5   6
ENDBRANCH   4   5
ENDBRANCH   2   4
BRANCH   1  10
ATOM     10  C   UNL     1       5.913 -34.624  16.321  1.00  0.00     0.111 C 
BRANCH  10  11
ATOM     11  C   UNL     1       6.623 -33.350  15.949  1.00  0.00     0.163 C 
ATOM     12  O   UNL     1       6.229 -32.273  16.476  1.00  0.00    -0.294 OA
BRANCH  11  13
ATOM     13  C   UNL     1       7.724 -33.310  14.940  1.00  0.00    -0.002 C 
ATOM     14  C   UNL     1       8.910 -32.694  15.223  1.00  0.00    -0.069 C 
ATOM     15  C   UNL     1       9.982 -32.498  14.173  1.00  0.00     0.039 C 
ATOM     16  C   UNL     1       9.211 -32.172  16.611  1.00  0.00     0.039 C 
BRANCH  13  17
ATOM     17  C   UNL     1       7.429 -33.895  13.568  1.00  0.00     0.066 CG0
ATOM     18  G   UNL     1       8.151 -35.208  13.334  1.00  0.00     0.000 G0
ENDBRANCH  13  17
ENDBRANCH  11  13
ENDBRANCH  10  11
ENDBRANCH   1  10
TORSDOF 0
ENDMDL
MODEL 2
REMARK VINA RESULT:    -2.679      1.616      3.379
REMARK INTER + INTRA:          -3.393
REMARK INTER:                  -4.058
REMARK INTRA:                   0.665
REMARK UNBOUND:                 0.382
REMARK SMILES CC1=CCC(=C(C)C)C(=O)CC(C)=CCC1
REMARK SMILES IDX 12 1 14 2 13 3 15 4 16 5 2 6 1 7 3 8 11 10 9 11 10 12 5 13
REMARK SMILES IDX 6 14 7 15 8 16 4 17
REMARK H PARENT
REMARK Flexibility Score: 60.00
ROOT
ATOM      1  C   UNL     1       7.427 -37.088  14.135  1.00  0.00    -0.070 C 
ATOM      2  C   UNL     1       8.379 -36.892  13.197  1.00  0.00    -0.027 C 
ATOM      3  C   UNL     1       6.302 -38.040  13.811  1.00  0.00     0.039 C 
ENDROOT
BRANCH   2   4
ATOM      4  C   UNL     1       9.527 -35.911  13.295  1.00  0.00     0.032 C 
BRANCH   4   5
ATOM      5  C   UNL     1       9.183 -34.467  12.875  1.00  0.00     0.034 C 
BRANCH   5   6
ATOM      6  C   UNL     1       9.962 -33.418  13.648  1.00  0.00    -0.077 C 
ATOM      7  C   UNL     1      11.436 -33.284  13.360  1.00  0.00     0.039 C 
ATOM      8  C   UNL     1       9.435 -32.643  14.628  1.00  0.00    -0.023 CG0
ATOM      9  G   UNL     1       7.986 -32.591  15.073  1.00  0.00     0.000 G0
ENDBRANCH   5   6
ENDBRANCH   4   5
ENDBRANCH   2   4
BRANCH   1  10
ATOM     10  C   UNL     1       7.385 -36.333  15.448  1.00  0.00     0.111 C 
BRANCH  10  11
ATOM     11  C   UNL     1       6.908 -34.918  15.260  1.00  0.00     0.163 C 
ATOM     12  O   UNL     1       5.955 -34.713  14.458  1.00  0.00    -0.294 OA
BRANCH  11  13
ATOM     13  C   UNL     1       7.558 -33.755  15.936  1.00  0.00    -0.002 C 
ATOM     14  C   UNL     1       7.691 -33.722  17.295  1.00  0.00    -0.069 C 
ATOM     15  C   UNL     1       8.200 -32.495  18.021  1.00  0.00     0.039 C 
ATOM     16  C   UNL     1       7.332 -34.920  18.148  1.00  0.00     0.039 C 
BRANCH  13  17
ATOM     17  C   UNL     1       7.972 -32.584  15.059  1.00  0.00     0.066 CG0
ATOM     18  G   UNL     1       9.426 -32.668  14.635  1.00  0.00     0.000 G0
ENDBRANCH  13  17
ENDBRANCH  11  13
ENDBRANCH  10  11
ENDBRANCH   1  10
TORSDOF 0
ENDMDL
MODEL 3
REMARK VINA RESULT:    -2.657      1.871      3.684
REMARK INTER + INTRA:          -3.362
REMARK INTER:                  -3.757
REMARK INTRA:                   0.395
REMARK UNBOUND:                 0.382
REMARK SMILES CC1=CCC(=C(C)C)C(=O)CC(C)=CCC1
REMARK SMILES IDX 12 1 14 2 13 3 15 4 16 5 2 6 1 7 3 8 11 10 9 11 10 12 5 13
REMARK SMILES IDX 6 14 7 15 8 16 4 17
REMARK H PARENT
REMARK Flexibility Score: 60.00
ROOT
ATOM      1  C   UNL     1       9.437 -32.947  13.661  1.00  0.00    -0.070 C 
ATOM      2  C   UNL     1       9.351 -34.085  12.940  1.00  0.00    -0.027 C 
ATOM      3  C   UNL     1      10.734 -32.179  13.617  1.00  0.00     0.039 C 
ENDROOT
BRANCH   2   4
ATOM      4  C   UNL     1       8.176 -35.039  12.930  1.00  0.00     0.032 C 
BRANCH   4   5
ATOM      5  C   UNL     1       8.369 -36.312  13.780  1.00  0.00     0.034 C 
BRANCH   5   6
ATOM      6  C   UNL     1       7.337 -36.455  14.885  1.00  0.00    -0.077 C 
ATOM      7  C   UNL     1       6.088 -37.242  14.582  1.00  0.00     0.039 C 
ATOM      8  C   UNL     1       7.434 -35.863  16.101  1.00  0.00    -0.023 CG0
ATOM      9  G   UNL     1       8.597 -35.046  16.631  1.00  0.00     0.000 G0
ENDBRANCH   5   6
ENDBRANCH   4   5
ENDBRANCH   2   4
BRANCH   1  10
ATOM     10  C   UNL     1       8.334 -32.459  14.578  1.00  0.00     0.111 C 
BRANCH  10  11
ATOM     11  C   UNL     1       8.735 -32.548  16.027  1.00  0.00     0.163 C 
ATOM     12  O   UNL     1       9.590 -31.728  16.459  1.00  0.00    -0.294 OA
BRANCH  11  13
ATOM     13  C   UNL     1       8.208 -33.605  16.941  1.00  0.00    -0.002 C 
ATOM     14  C   UNL     1       7.477 -33.271  18.047  1.00  0.00    -0.069 C 
ATOM     15  C   UNL     1       7.064 -34.302  19.075  1.00  0.00     0.039 C 
ATOM     16  C   UNL     1       7.043 -31.844  18.298  1.00  0.00     0.039 C 
BRANCH  13  17
ATOM     17  C   UNL     1       8.599 -35.043  16.640  1.00  0.00     0.066 CG0
ATOM     18  G   UNL     1       7.436 -35.858  16.108  1.00  0.00     0.000 G0
ENDBRANCH  13  17
ENDBRANCH  11  13
ENDBRANCH  10  11
ENDBRANCH   1  10
TORSDOF 0
ENDMDL
MODEL 4
REMARK VINA RESULT:    -2.348      1.960      3.717
REMARK INTER + INTRA:          -2.926
REMARK INTER:                  -4.879
REMARK INTRA:                   1.953
REMARK UNBOUND:                 0.382
REMARK SMILES CC1=CCC(=C(C)C)C(=O)CC(C)=CCC1
REMARK SMILES IDX 12 1 14 2 13 3 15 4 16 5 2 6 1 7 3 8 11 10 9 11 10 12 5 13
REMARK SMILES IDX 6 14 7 15 8 16 4 17
REMARK H PARENT
REMARK Flexibility Score: 60.00
ROOT
ATOM      1  C   UNL     1       6.500 -36.667  15.679  1.00  0.00    -0.070 C 
ATOM      2  C   UNL     1       6.810 -36.550  16.988  1.00  0.00    -0.027 C 
ATOM      3  C   UNL     1       6.013 -38.008  15.186  1.00  0.00     0.039 C 
ENDROOT
BRANCH   2   4
ATOM      4  C   UNL     1       7.402 -35.324  17.649  1.00  0.00     0.032 C 
BRANCH   4   5
ATOM      5  C   UNL     1       6.964 -33.980  17.032  1.00  0.00     0.034 C 
BRANCH   5   6
ATOM      6  C   UNL     1       8.101 -32.981  16.905  1.00  0.00    -0.077 C 
ATOM      7  C   UNL     1       8.688 -32.421  18.175  1.00  0.00     0.039 C 
ATOM      8  C   UNL     1       8.574 -32.510  15.725  1.00  0.00    -0.023 CG0
ATOM      9  G   UNL     1       8.152 -32.938  14.333  1.00  0.00     0.000 G0
ENDBRANCH   5   6
ENDBRANCH   4   5
ENDBRANCH   2   4
BRANCH   1  10
ATOM     10  C   UNL     1       6.704 -35.553  14.672  1.00  0.00     0.111 C 
BRANCH  10  11
ATOM     11  C   UNL     1       8.120 -35.519  14.162  1.00  0.00     0.163 C 
ATOM     12  O   UNL     1       8.726 -36.615  14.011  1.00  0.00    -0.294 OA
BRANCH  11  13
ATOM     13  C   UNL     1       8.845 -34.240  13.893  1.00  0.00    -0.002 C 
ATOM     14  C   UNL     1      10.102 -34.249  13.358  1.00  0.00    -0.069 C 
ATOM     15  C   UNL     1      10.922 -32.984  13.221  1.00  0.00     0.039 C 
ATOM     16  C   UNL     1      10.740 -35.533  12.875  1.00  0.00     0.039 C 
BRANCH  13  17
ATOM     17  C   UNL     1       8.164 -32.952  14.327  1.00  0.00     0.066 CG0
ATOM     18  G   UNL     1       8.591 -32.514  15.714  1.00  0.00     0.000 G0
ENDBRANCH  13  17
ENDBRANCH  11  13
ENDBRANCH  10  11
ENDBRANCH   1  10
TORSDOF 0
ENDMDL
MODEL 5
REMARK VINA RESULT:    -2.274      1.289      1.711
REMARK INTER + INTRA:          -2.823
REMARK INTER:                  -3.313
REMARK INTRA:                   0.490
REMARK UNBOUND:                 0.382
REMARK SMILES CC1=CCC(=C(C)C)C(=O)CC(C)=CCC1
REMARK SMILES IDX 12 1 14 2 13 3 15 4 16 5 2 6 1 7 3 8 11 10 9 11 10 12 5 13
REMARK SMILES IDX 6 14 7 15 8 16 4 17
REMARK H PARENT
REMARK Flexibility Score: 60.00
ROOT
ATOM      1  C   UNL     1       7.129 -35.701  16.572  1.00  0.00    -0.070 C 
ATOM      2  C   UNL     1       7.418 -36.482  15.509  1.00  0.00    -0.027 C 
ATOM      3  C   UNL     1       7.726 -36.074  17.906  1.00  0.00     0.039 C 
ENDROOT
BRANCH   2   4
ATOM      4  C   UNL     1       6.843 -36.329  14.118  1.00  0.00     0.032 C 
BRANCH   4   5
ATOM      5  C   UNL     1       7.702 -35.491  13.149  1.00  0.00     0.034 C 
BRANCH   5   6
ATOM      6  C   UNL     1       9.143 -35.343  13.605  1.00  0.00    -0.077 C 
ATOM      7  C   UNL     1      10.057 -36.531  13.443  1.00  0.00     0.039 C 
ATOM      8  C   UNL     1       9.643 -34.237  14.211  1.00  0.00    -0.023 CG0
ATOM      9  G   UNL     1       8.921 -32.927  14.462  1.00  0.00     0.000 G0
ENDBRANCH   5   6
ENDBRANCH   4   5
ENDBRANCH   2   4
BRANCH   1  10
ATOM     10  C   UNL     1       6.166 -34.532  16.508  1.00  0.00     0.111 C 
BRANCH  10  11
ATOM     11  C   UNL     1       6.691 -33.428  15.629  1.00  0.00     0.163 C 
ATOM     12  O   UNL     1       5.927 -32.959  14.742  1.00  0.00    -0.294 OA
BRANCH  11  13
ATOM     13  C   UNL     1       8.092 -32.919  15.732  1.00  0.00    -0.002 C 
ATOM     14  C   UNL     1       8.563 -32.401  16.905  1.00  0.00    -0.069 C 
ATOM     15  C   UNL     1       9.919 -31.736  17.000  1.00  0.00     0.039 C 
ATOM     16  C   UNL     1       7.745 -32.468  18.177  1.00  0.00     0.039 C 
BRANCH  13  17
ATOM     17  C   UNL     1       8.925 -32.917  14.460  1.00  0.00     0.066 CG0
ATOM     18  G   UNL     1       9.626 -34.241  14.228  1.00  0.00     0.000 G0
ENDBRANCH  13  17
ENDBRANCH  11  13
ENDBRANCH  10  11
ENDBRANCH   1  10
TORSDOF 0
ENDMDL
MODEL 6
REMARK VINA RESULT:    -1.615      2.093      5.192
REMARK INTER + INTRA:          -1.894
REMARK INTER:                  -2.656
REMARK INTRA:                   0.762
REMARK UNBOUND:                 0.382
REMARK SMILES CC1=CCC(=C(C)C)C(=O)CC(C)=CCC1
REMARK SMILES IDX 12 1 14 2 13 3 15 4 16 5 2 6 1 7 3 8 11 10 9 11 10 12 5 13
REMARK SMILES IDX 6 14 7 15 8 16 4 17
REMARK H PARENT
REMARK Flexibility Score: 60.00
ROOT
ATOM      1  C   UNL     1       9.644 -32.956  14.308  1.00  0.00    -0.070 C 
ATOM      2  C   UNL     1      10.070 -32.203  15.345  1.00  0.00    -0.027 C 
ATOM      3  C   UNL     1      10.650 -33.336  13.251  1.00  0.00     0.039 C 
ENDROOT
BRANCH   2   4
ATOM      4  C   UNL     1       9.198 -31.643  16.448  1.00  0.00     0.032 C 
BRANCH   4   5
ATOM      5  C   UNL     1       9.021 -32.570  17.668  1.00  0.00     0.034 C 
BRANCH   5   6
ATOM      6  C   UNL     1       7.616 -33.134  17.791  1.00  0.00    -0.077 C 
ATOM      7  C   UNL     1       6.592 -32.312  18.532  1.00  0.00     0.039 C 
ATOM      8  C   UNL     1       7.242 -34.357  17.340  1.00  0.00    -0.023 CG0
ATOM      9  G   UNL     1       8.089 -35.342  16.557  1.00  0.00     0.000 G0
ENDBRANCH   5   6
ENDBRANCH   4   5
ENDBRANCH   2   4
BRANCH   1  10
ATOM     10  C   UNL     1       8.195 -33.354  14.110  1.00  0.00     0.111 C 
BRANCH  10  11
ATOM     11  C   UNL     1       8.036 -34.850  14.037  1.00  0.00     0.163 C 
ATOM     12  O   UNL     1       8.296 -35.423  12.944  1.00  0.00    -0.294 OA
BRANCH  11  13
ATOM     13  C   UNL     1       7.524 -35.658  15.184  1.00  0.00    -0.002 C 
ATOM     14  C   UNL     1       6.523 -36.572  15.003  1.00  0.00    -0.069 C 
ATOM     15  C   UNL     1       5.876 -37.291  16.167  1.00  0.00     0.039 C 
ATOM     16  C   UNL     1       6.010 -36.910  13.621  1.00  0.00     0.039 C 
BRANCH  13  17
ATOM     17  C   UNL     1       8.094 -35.351  16.559  1.00  0.00     0.066 CG0
ATOM     18  G   UNL     1       7.243 -34.358  17.327  1.00  0.00     0.000 G0
ENDBRANCH  13  17
ENDBRANCH  11  13
ENDBRANCH  10  11
ENDBRANCH   1  10
TORSDOF 0
ENDMDL
MODEL 7
REMARK VINA RESULT:    -1.356      1.800      2.943
REMARK INTER + INTRA:          -1.528
REMARK INTER:                  -3.098
REMARK INTRA:                   1.570
REMARK UNBOUND:                 0.382
REMARK SMILES CC1=CCC(=C(C)C)C(=O)CC(C)=CCC1
REMARK SMILES IDX 12 1 14 2 13 3 15 4 16 5 2 6 1 7 3 8 11 10 9 11 10 12 5 13
REMARK SMILES IDX 6 14 7 15 8 16 4 17
REMARK H PARENT
REMARK Flexibility Score: 60.00
ROOT
ATOM      1  C   UNL     1       7.183 -32.658  17.446  1.00  0.00    -0.070 C 
ATOM      2  C   UNL     1       7.226 -33.850  18.079  1.00  0.00    -0.027 C 
ATOM      3  C   UNL     1       6.626 -31.477  18.202  1.00  0.00     0.039 C 
ENDROOT
BRANCH   2   4
ATOM      4  C   UNL     1       7.657 -35.163  17.461  1.00  0.00     0.032 C 
BRANCH   4   5
ATOM      5  C   UNL     1       6.575 -35.869  16.619  1.00  0.00     0.034 C 
BRANCH   5   6
ATOM      6  C   UNL     1       6.930 -35.961  15.145  1.00  0.00    -0.077 C 
ATOM      7  C   UNL     1       5.875 -36.476  14.200  1.00  0.00     0.039 C 
ATOM      8  C   UNL     1       8.154 -35.676  14.636  1.00  0.00    -0.023 CG0
ATOM      9  G   UNL     1       9.353 -35.131  15.387  1.00  0.00     0.000 G0
ENDBRANCH   5   6
ENDBRANCH   4   5
ENDBRANCH   2   4
BRANCH   1  10
ATOM     10  C   UNL     1       7.577 -32.472  15.995  1.00  0.00     0.111 C 
BRANCH  10  11
ATOM     11  C   UNL     1       9.065 -32.599  15.803  1.00  0.00     0.163 C 
ATOM     12  O   UNL     1       9.809 -31.721  16.320  1.00  0.00    -0.294 OA
BRANCH  11  13
ATOM     13  C   UNL     1       9.677 -33.683  14.976  1.00  0.00    -0.002 C 
ATOM     14  C   UNL     1      10.415 -33.382  13.866  1.00  0.00    -0.069 C 
ATOM     15  C   UNL     1      10.914 -34.455  12.922  1.00  0.00     0.039 C 
ATOM     16  C   UNL     1      10.770 -31.952  13.523  1.00  0.00     0.039 C 
BRANCH  13  17
ATOM     17  C   UNL     1       9.364 -35.117  15.370  1.00  0.00     0.066 CG0
ATOM     18  G   UNL     1       8.144 -35.659  14.649  1.00  0.00     0.000 G0
ENDBRANCH  13  17
ENDBRANCH  11  13
ENDBRANCH  10  11
ENDBRANCH   1  10
TORSDOF 0
ENDMDL
MODEL 8
REMARK VINA RESULT:    -0.873      1.754      4.059
REMARK INTER + INTRA:          -0.848
REMARK INTER:                  -2.534
REMARK INTRA:                   1.686
REMARK UNBOUND:                 0.382
REMARK SMILES CC1=CCC(=C(C)C)C(=O)CC(C)=CCC1
REMARK SMILES IDX 12 1 14 2 13 3 15 4 16 5 2 6 1 7 3 8 11 10 9 11 10 12 5 13
REMARK SMILES IDX 6 14 7 15 8 16 4 17
REMARK H PARENT
REMARK Flexibility Score: 60.00
ROOT
ATOM      1  C   UNL     1       8.507 -31.770  17.912  1.00  0.00    -0.070 C 
ATOM      2  C   UNL     1       9.503 -32.063  17.048  1.00  0.00    -0.027 C 
ATOM      3  C   UNL     1       8.831 -30.882  19.088  1.00  0.00     0.039 C 
ENDROOT
BRANCH   2   4
ATOM      4  C   UNL     1       9.402 -33.008  15.870  1.00  0.00     0.032 C 
BRANCH   4   5
ATOM      5  C   UNL     1       8.242 -32.708  14.897  1.00  0.00     0.034 C 
BRANCH   5   6
ATOM      6  C   UNL     1       7.692 -33.952  14.222  1.00  0.00    -0.077 C 
ATOM      7  C   UNL     1       8.305 -34.368  12.910  1.00  0.00     0.039 C 
ATOM      8  C   UNL     1       6.641 -34.671  14.688  1.00  0.00    -0.023 CG0
ATOM      9  G   UNL     1       5.885 -34.452  15.984  1.00  0.00     0.000 G0
ENDBRANCH   5   6
ENDBRANCH   4   5
ENDBRANCH   2   4
BRANCH   1  10
ATOM     10  C   UNL     1       7.116 -32.362  17.808  1.00  0.00     0.111 C 
BRANCH  10  11
ATOM     11  C   UNL     1       7.104 -33.821  18.181  1.00  0.00     0.163 C 
ATOM     12  O   UNL     1       7.538 -34.148  19.319  1.00  0.00    -0.294 OA
BRANCH  11  13
ATOM     13  C   UNL     1       6.660 -34.887  17.232  1.00  0.00    -0.002 C 
ATOM     14  C   UNL     1       7.024 -36.190  17.426  1.00  0.00    -0.069 C 
ATOM     15  C   UNL     1       6.725 -37.265  16.404  1.00  0.00     0.039 C 
ATOM     16  C   UNL     1       7.748 -36.624  18.682  1.00  0.00     0.039 C 
BRANCH  13  17
ATOM     17  C   UNL     1       5.878 -34.444  16.006  1.00  0.00     0.066 CG0
ATOM     18  G   UNL     1       6.645 -34.677  14.719  1.00  0.00     0.000 G0
ENDBRANCH  13  17
ENDBRANCH  11  13
ENDBRANCH  10  11
ENDBRANCH   1  10
TORSDOF 0
ENDMDL
MODEL 9
REMARK VINA RESULT:    -0.718      1.921      3.687
REMARK INTER + INTRA:          -0.630
REMARK INTER:                  -2.129
REMARK INTRA:                   1.499
REMARK UNBOUND:                 0.382
REMARK SMILES CC1=CCC(=C(C)C)C(=O)CC(C)=CCC1
REMARK SMILES IDX 12 1 14 2 13 3 15 4 16 5 2 6 1 7 3 8 11 10 9 11 10 12 5 13
REMARK SMILES IDX 6 14 7 15 8 16 4 17
REMARK H PARENT
REMARK Flexibility Score: 60.00
ROOT
ATOM      1  C   UNL     1       6.875 -36.125  14.251  1.00  0.00    -0.070 C 
ATOM      2  C   UNL     1       7.696 -36.575  15.224  1.00  0.00    -0.027 C 
ATOM      3  C   UNL     1       6.989 -36.755  12.885  1.00  0.00     0.039 C 
ENDROOT
BRANCH   2   4
ATOM      4  C   UNL     1       7.800 -36.008  16.624  1.00  0.00     0.032 C 
BRANCH   4   5
ATOM      5  C   UNL     1       6.598 -35.148  17.066  1.00  0.00     0.034 C 
BRANCH   5   6
ATOM      6  C   UNL     1       6.994 -33.973  17.942  1.00  0.00    -0.077 C 
ATOM      7  C   UNL     1       7.394 -34.263  19.366  1.00  0.00     0.039 C 
ATOM      8  C   UNL     1       6.944 -32.676  17.549  1.00  0.00    -0.023 CG0
ATOM      9  G   UNL     1       6.591 -32.151  16.171  1.00  0.00     0.000 G0
ENDBRANCH   5   6
ENDBRANCH   4   5
ENDBRANCH   2   4
BRANCH   1  10
ATOM     10  C   UNL     1       5.920 -34.964  14.439  1.00  0.00     0.111 C 
BRANCH  10  11
ATOM     11  C   UNL     1       6.561 -33.652  14.069  1.00  0.00     0.163 C 
ATOM     12  O   UNL     1       6.462 -33.257  12.875  1.00  0.00    -0.294 OA
BRANCH  11  13
ATOM     13  C   UNL     1       7.355 -32.845  15.044  1.00  0.00    -0.002 C 
ATOM     14  C   UNL     1       8.719 -32.812  14.977  1.00  0.00    -0.069 C 
ATOM     15  C   UNL     1       9.557 -32.135  16.041  1.00  0.00     0.039 C 
ATOM     16  C   UNL     1       9.464 -33.457  13.829  1.00  0.00     0.039 C 
BRANCH  13  17
ATOM     17  C   UNL     1       6.587 -32.149  16.157  1.00  0.00     0.066 CG0
ATOM     18  G   UNL     1       6.946 -32.688  17.528  1.00  0.00     0.000 G0
ENDBRANCH  13  17
ENDBRANCH  11  13
ENDBRANCH  10  11
ENDBRANCH   1  10
TORSDOF 0
ENDMDL
