MODEL 1
REMARK VINA RESULT:    -4.032      0.000      0.000
REMARK INTER + INTRA:          -4.829
REMARK INTER:                  -4.739
REMARK INTRA:                  -0.090
REMARK UNBOUND:                -0.090
REMARK SMILES Oc1ccc(-c2[o+]c3cc(O)cc(O)c3cc2O)cc1
REMARK SMILES IDX 6 1 7 2 8 3 9 4 10 5 12 6 13 7 15 8 16 9 17 10 5 11 4 12
REMARK SMILES IDX 3 13 2 14 19 15 20 16 1 17 18 19 11 21 14 23
REMARK H PARENT 1 18 18 20 11 22 14 24
REMARK Flexibility Score: inf
ROOT
ATOM      1  C   UNL     1      16.276  36.723  11.891  1.00  0.00     0.401 A 
ATOM      2  O   UNL     1      16.496  36.266  13.121  1.00  0.00    -0.202 OA
ATOM      3  C   UNL     1      16.577  34.973  13.417  1.00  0.00     0.368 A 
ATOM      4  C   UNL     1      16.807  34.592  14.741  1.00  0.00     0.162 A 
ATOM      5  C   UNL     1      16.894  33.242  15.081  1.00  0.00     0.128 A 
ATOM      6  C   UNL     1      16.750  32.263  14.091  1.00  0.00     0.093 A 
ATOM      7  C   UNL     1      16.518  32.620  12.757  1.00  0.00     0.136 A 
ATOM      8  C   UNL     1      16.432  33.992  12.407  1.00  0.00     0.125 A 
ATOM      9  C   UNL     1      16.216  34.443  11.094  1.00  0.00     0.078 A 
ATOM     10  C   UNL     1      16.147  35.812  10.825  1.00  0.00     0.223 A 
ENDROOT
BRANCH   1  11
ATOM     11  C   UNL     1      16.196  38.188  11.691  1.00  0.00     0.084 A 
ATOM     12  C   UNL     1      17.122  38.821  10.844  1.00  0.00     0.022 A 
ATOM     13  C   UNL     1      17.079  40.206  10.658  1.00  0.00     0.047 A 
ATOM     14  C   UNL     1      16.123  40.977  11.325  1.00  0.00     0.115 A 
ATOM     15  C   UNL     1      15.249  38.971  12.376  1.00  0.00     0.022 A 
ATOM     16  C   UNL     1      15.209  40.357  12.187  1.00  0.00     0.047 A 
BRANCH  14  17
ATOM     17  O   UNL     1      16.091  42.356  11.130  1.00  0.00    -0.508 OA
ATOM     18  H   UNL     1      15.772  42.760  10.257  1.00  0.00     0.293 HD
ENDBRANCH  14  17
ENDBRANCH   1  11
BRANCH  10  19
ATOM     19  O   UNL     1      15.983  36.261   9.515  1.00  0.00    -0.500 OA
ATOM     20  H   UNL     1      16.719  36.171   8.825  1.00  0.00     0.294 HD
ENDBRANCH  10  19
BRANCH   5  21
ATOM     21  O   UNL     1      17.124  32.881  16.407  1.00  0.00    -0.507 OA
ATOM     22  H   UNL     1      16.934  33.521  17.171  1.00  0.00     0.293 HD
ENDBRANCH   5  21
BRANCH   7  23
ATOM     23  O   UNL     1      16.383  31.584  11.827  1.00  0.00    -0.507 OA
ATOM     24  H   UNL     1      16.144  30.632  12.066  1.00  0.00     0.293 HD
ENDBRANCH   7  23
TORSDOF 5
ENDMDL
MODEL 2
REMARK VINA RESULT:    -2.993      7.981     10.509
REMARK INTER + INTRA:          -3.607
REMARK INTER:                  -3.563
REMARK INTRA:                  -0.045
REMARK UNBOUND:                -0.090
REMARK SMILES Oc1ccc(-c2[o+]c3cc(O)cc(O)c3cc2O)cc1
REMARK SMILES IDX 6 1 7 2 8 3 9 4 10 5 12 6 13 7 15 8 16 9 17 10 5 11 4 12
REMARK SMILES IDX 3 13 2 14 19 15 20 16 1 17 18 19 11 21 14 23
REMARK H PARENT 1 18 18 20 11 22 14 24
REMARK Flexibility Score: inf
ROOT
ATOM      1  C   UNL     1      15.538  45.054  11.308  1.00  0.00     0.401 A 
ATOM      2  O   UNL     1      15.797  45.893  10.308  1.00  0.00    -0.202 OA
ATOM      3  C   UNL     1      16.194  45.494   9.104  1.00  0.00     0.368 A 
ATOM      4  C   UNL     1      16.445  46.453   8.120  1.00  0.00     0.162 A 
ATOM      5  C   UNL     1      16.864  46.063   6.847  1.00  0.00     0.128 A 
ATOM      6  C   UNL     1      17.036  44.706   6.555  1.00  0.00     0.093 A 
ATOM      7  C   UNL     1      16.792  43.726   7.525  1.00  0.00     0.136 A 
ATOM      8  C   UNL     1      16.362  44.117   8.819  1.00  0.00     0.125 A 
ATOM      9  C   UNL     1      16.080  43.205   9.849  1.00  0.00     0.078 A 
ATOM     10  C   UNL     1      15.656  43.666  11.098  1.00  0.00     0.223 A 
ENDROOT
BRANCH   1  11
ATOM     11  C   UNL     1      15.113  45.621  12.607  1.00  0.00     0.084 A 
ATOM     12  C   UNL     1      15.798  45.256  13.779  1.00  0.00     0.022 A 
ATOM     13  C   UNL     1      15.400  45.762  15.019  1.00  0.00     0.047 A 
ATOM     14  C   UNL     1      14.305  46.627  15.108  1.00  0.00     0.115 A 
ATOM     15  C   UNL     1      13.999  46.476  12.705  1.00  0.00     0.022 A 
ATOM     16  C   UNL     1      13.603  46.981  13.948  1.00  0.00     0.047 A 
BRANCH  14  17
ATOM     17  O   UNL     1      13.920  47.125  16.351  1.00  0.00    -0.508 OA
ATOM     18  H   UNL     1      14.589  47.550  16.982  1.00  0.00     0.293 HD
ENDBRANCH  14  17
ENDBRANCH   1  11
BRANCH  10  19
ATOM     19  O   UNL     1      15.327  42.759  12.105  1.00  0.00    -0.500 OA
ATOM     20  H   UNL     1      15.090  43.064  13.041  1.00  0.00     0.294 HD
ENDBRANCH  10  19
BRANCH   5  21
ATOM     21  O   UNL     1      17.110  47.035   5.878  1.00  0.00    -0.507 OA
ATOM     22  H   UNL     1      18.049  47.367   5.687  1.00  0.00     0.293 HD
ENDBRANCH   5  21
BRANCH   7  23
ATOM     23  O   UNL     1      16.989  42.391   7.156  1.00  0.00    -0.507 OA
ATOM     24  H   UNL     1      16.961  41.612   7.798  1.00  0.00     0.293 HD
ENDBRANCH   7  23
TORSDOF 5
ENDMDL
MODEL 3
REMARK VINA RESULT:    -2.945      3.442      9.542
REMARK INTER + INTRA:          -3.551
REMARK INTER:                  -3.571
REMARK INTRA:                   0.020
REMARK UNBOUND:                -0.090
REMARK SMILES Oc1ccc(-c2[o+]c3cc(O)cc(O)c3cc2O)cc1
REMARK SMILES IDX 6 1 7 2 8 3 9 4 10 5 12 6 13 7 15 8 16 9 17 10 5 11 4 12
REMARK SMILES IDX 3 13 2 14 19 15 20 16 1 17 18 19 11 21 14 23
REMARK H PARENT 1 18 18 20 11 22 14 24
REMARK Flexibility Score: inf
ROOT
ATOM      1  C   UNL     1      16.555  41.919  10.711  1.00  0.00     0.401 A 
ATOM      2  O   UNL     1      16.345  42.286   9.450  1.00  0.00    -0.202 OA
ATOM      3  C   UNL     1      16.354  43.552   9.047  1.00  0.00     0.368 A 
ATOM      4  C   UNL     1      16.118  43.839   7.700  1.00  0.00     0.162 A 
ATOM      5  C   UNL     1      16.119  45.159   7.249  1.00  0.00     0.128 A 
ATOM      6  C   UNL     1      16.357  46.203   8.150  1.00  0.00     0.093 A 
ATOM      7  C   UNL     1      16.595  45.942   9.505  1.00  0.00     0.136 A 
ATOM      8  C   UNL     1      16.598  44.601   9.967  1.00  0.00     0.125 A 
ATOM      9  C   UNL     1      16.841  44.244  11.304  1.00  0.00     0.078 A 
ATOM     10  C   UNL     1      16.832  42.899  11.684  1.00  0.00     0.223 A 
ENDROOT
BRANCH   1  11
ATOM     11  C   UNL     1      16.509  40.476  11.038  1.00  0.00     0.084 A 
ATOM     12  C   UNL     1      17.124  39.551  10.176  1.00  0.00     0.022 A 
ATOM     13  C   UNL     1      17.074  38.183  10.453  1.00  0.00     0.047 A 
ATOM     14  C   UNL     1      16.398  37.717  11.584  1.00  0.00     0.115 A 
ATOM     15  C   UNL     1      15.813  40.000  12.164  1.00  0.00     0.022 A 
ATOM     16  C   UNL     1      15.764  38.629  12.438  1.00  0.00     0.047 A 
BRANCH  14  17
ATOM     17  O   UNL     1      16.356  36.350  11.849  1.00  0.00    -0.508 OA
ATOM     18  H   UNL     1      16.469  35.664  11.111  1.00  0.00     0.293 HD
ENDBRANCH  14  17
ENDBRANCH   1  11
BRANCH  10  19
ATOM     19  O   UNL     1      17.123  42.542  13.000  1.00  0.00    -0.500 OA
ATOM     20  H   UNL     1      17.647  41.704  13.221  1.00  0.00     0.294 HD
ENDBRANCH  10  19
BRANCH   5  21
ATOM     21  O   UNL     1      15.882  45.424   5.902  1.00  0.00    -0.507 OA
ATOM     22  H   UNL     1      14.971  45.726   5.574  1.00  0.00     0.293 HD
ENDBRANCH   5  21
BRANCH   7  23
ATOM     23  O   UNL     1      16.822  47.039  10.342  1.00  0.00    -0.507 OA
ATOM     24  H   UNL     1      16.464  47.969  10.173  1.00  0.00     0.293 HD
ENDBRANCH   7  23
TORSDOF 5
ENDMDL
MODEL 4
REMARK VINA RESULT:    -2.944     21.331     23.257
REMARK INTER + INTRA:          -3.550
REMARK INTER:                  -3.285
REMARK INTRA:                  -0.266
REMARK UNBOUND:                -0.090
REMARK SMILES Oc1ccc(-c2[o+]c3cc(O)cc(O)c3cc2O)cc1
REMARK SMILES IDX 6 1 7 2 8 3 9 4 10 5 12 6 13 7 15 8 16 9 17 10 5 11 4 12
REMARK SMILES IDX 3 13 2 14 19 15 20 16 1 17 18 19 11 21 14 23
REMARK H PARENT 1 18 18 20 11 22 14 24
REMARK Flexibility Score: inf
ROOT
ATOM      1  C   UNL     1      -1.693  40.152  24.273  1.00  0.00     0.401 A 
ATOM      2  O   UNL     1      -2.244  41.129  24.989  1.00  0.00    -0.202 OA
ATOM      3  C   UNL     1      -2.049  42.418  24.735  1.00  0.00     0.368 A 
ATOM      4  C   UNL     1      -2.670  43.372  25.546  1.00  0.00     0.162 A 
ATOM      5  C   UNL     1      -2.481  44.733  25.304  1.00  0.00     0.128 A 
ATOM      6  C   UNL     1      -1.666  45.147  24.245  1.00  0.00     0.093 A 
ATOM      7  C   UNL     1      -1.033  44.210  23.418  1.00  0.00     0.136 A 
ATOM      8  C   UNL     1      -1.224  42.825  23.658  1.00  0.00     0.125 A 
ATOM      9  C   UNL     1      -0.641  41.817  22.874  1.00  0.00     0.078 A 
ATOM     10  C   UNL     1      -0.880  40.472  23.169  1.00  0.00     0.223 A 
ENDROOT
BRANCH   1  11
ATOM     11  C   UNL     1      -1.978  38.752  24.662  1.00  0.00     0.084 A 
ATOM     12  C   UNL     1      -1.282  38.178  25.740  1.00  0.00     0.022 A 
ATOM     13  C   UNL     1      -1.519  36.851  26.110  1.00  0.00     0.047 A 
ATOM     14  C   UNL     1      -2.441  36.076  25.402  1.00  0.00     0.115 A 
ATOM     15  C   UNL     1      -2.890  37.961  23.940  1.00  0.00     0.022 A 
ATOM     16  C   UNL     1      -3.125  36.633  24.313  1.00  0.00     0.047 A 
BRANCH  14  17
ATOM     17  O   UNL     1      -2.669  34.756  25.782  1.00  0.00    -0.508 OA
ATOM     18  H   UNL     1      -2.631  34.470  26.754  1.00  0.00     0.293 HD
ENDBRANCH  14  17
ENDBRANCH   1  11
BRANCH  10  19
ATOM     19  O   UNL     1      -0.342  39.471  22.360  1.00  0.00    -0.500 OA
ATOM     20  H   UNL     1       0.046  39.676  21.448  1.00  0.00     0.294 HD
ENDBRANCH  10  19
BRANCH   5  21
ATOM     21  O   UNL     1      -3.109  45.669  26.125  1.00  0.00    -0.507 OA
ATOM     22  H   UNL     1      -4.051  45.993  25.934  1.00  0.00     0.293 HD
ENDBRANCH   5  21
BRANCH   7  23
ATOM     23  O   UNL     1      -0.233  44.703  22.383  1.00  0.00    -0.507 OA
ATOM     24  H   UNL     1       0.270  44.124  21.725  1.00  0.00     0.293 HD
ENDBRANCH   7  23
TORSDOF 5
ENDMDL
MODEL 5
REMARK VINA RESULT:    -2.848      4.969      6.564
REMARK INTER + INTRA:          -3.438
REMARK INTER:                  -3.207
REMARK INTRA:                  -0.231
REMARK UNBOUND:                -0.090
REMARK SMILES Oc1ccc(-c2[o+]c3cc(O)cc(O)c3cc2O)cc1
REMARK SMILES IDX 6 1 7 2 8 3 9 4 10 5 12 6 13 7 15 8 16 9 17 10 5 11 4 12
REMARK SMILES IDX 3 13 2 14 19 15 20 16 1 17 18 19 11 21 14 23
REMARK H PARENT 1 18 18 20 11 22 14 24
REMARK Flexibility Score: inf
ROOT
ATOM      1  C   UNL     1      12.234  35.015  13.569  1.00  0.00     0.401 A 
ATOM      2  O   UNL     1      12.991  36.095  13.396  1.00  0.00    -0.202 OA
ATOM      3  C   UNL     1      14.128  36.087  12.707  1.00  0.00     0.368 A 
ATOM      4  C   UNL     1      14.856  37.273  12.584  1.00  0.00     0.162 A 
ATOM      5  C   UNL     1      16.053  37.294  11.869  1.00  0.00     0.128 A 
ATOM      6  C   UNL     1      16.529  36.121  11.272  1.00  0.00     0.093 A 
ATOM      7  C   UNL     1      15.818  34.920  11.382  1.00  0.00     0.136 A 
ATOM      8  C   UNL     1      14.599  34.895  12.106  1.00  0.00     0.125 A 
ATOM      9  C   UNL     1      13.812  33.741  12.257  1.00  0.00     0.078 A 
ATOM     10  C   UNL     1      12.619  33.795  12.981  1.00  0.00     0.223 A 
ENDROOT
BRANCH   1  11
ATOM     11  C   UNL     1      10.994  35.149  14.367  1.00  0.00     0.084 A 
ATOM     12  C   UNL     1      11.079  35.255  15.766  1.00  0.00     0.022 A 
ATOM     13  C   UNL     1       9.920  35.361  16.540  1.00  0.00     0.047 A 
ATOM     14  C   UNL     1       8.662  35.346  15.930  1.00  0.00     0.115 A 
ATOM     15  C   UNL     1       9.724  35.115  13.760  1.00  0.00     0.022 A 
ATOM     16  C   UNL     1       8.566  35.220  14.538  1.00  0.00     0.047 A 
BRANCH  14  17
ATOM     17  O   UNL     1       7.516  35.453  16.714  1.00  0.00    -0.508 OA
ATOM     18  H   UNL     1       7.569  35.628  17.711  1.00  0.00     0.293 HD
ENDBRANCH  14  17
ENDBRANCH   1  11
BRANCH  10  19
ATOM     19  O   UNL     1      11.813  32.662  13.088  1.00  0.00    -0.500 OA
ATOM     20  H   UNL     1      11.038  32.619  13.739  1.00  0.00     0.294 HD
ENDBRANCH  10  19
BRANCH   5  21
ATOM     21  O   UNL     1      16.765  38.487  11.757  1.00  0.00    -0.507 OA
ATOM     22  H   UNL     1      16.833  38.983  10.874  1.00  0.00     0.293 HD
ENDBRANCH   5  21
BRANCH   7  23
ATOM     23  O   UNL     1      16.362  33.791  10.760  1.00  0.00    -0.507 OA
ATOM     24  H   UNL     1      17.070  33.200  11.170  1.00  0.00     0.293 HD
ENDBRANCH   7  23
TORSDOF 5
ENDMDL
