MODEL 1
REMARK VINA RESULT:    -3.526      0.000      0.000
REMARK INTER + INTRA:          -4.728
REMARK INTER:                  -4.557
REMARK INTRA:                  -0.171
REMARK UNBOUND:                -0.171
REMARK SMILES CCCCCCC(=O)[O-]
REMARK SMILES IDX 5 1 6 2 7 3 8 4 9 5 4 6 3 7 2 8 1 9
REMARK H PARENT
REMARK Flexibility Score: inf
ROOT
ATOM      1  C   UNL     1       1.461   7.019  -3.128  1.00  0.00     0.006 C 
ENDROOT
BRANCH   1   2
ATOM      2  C   UNL     1       2.537   6.320  -3.974  1.00  0.00     0.053 C 
BRANCH   2   3
ATOM      3  C   UNL     1       3.869   6.309  -3.290  1.00  0.00     0.041 C 
ATOM      4  O   UNL     1       4.917   6.069  -3.946  1.00  0.00    -0.550 OA
ATOM      5  O   UNL     1       3.951   6.532  -1.921  1.00  0.00    -0.550 OA
ENDBRANCH   2   3
ENDBRANCH   1   2
BRANCH   1   6
ATOM      6  C   UNL     1       1.359   8.541  -3.358  1.00  0.00     0.000 C 
BRANCH   6   7
ATOM      7  C   UNL     1       0.353   9.273  -2.449  1.00  0.00    -0.000 C 
BRANCH   7   8
ATOM      8  C   UNL     1      -0.604   8.357  -1.669  1.00  0.00    -0.003 C 
ATOM      9  C   UNL     1      -2.015   8.932  -1.549  1.00  0.00     0.004 C 
ENDBRANCH   7   8
ENDBRANCH   6   7
ENDBRANCH   1   6
TORSDOF 5
ENDMDL
MODEL 2
REMARK VINA RESULT:    -3.432      9.256     10.145
REMARK INTER + INTRA:          -4.606
REMARK INTER:                  -4.444
REMARK INTRA:                  -0.162
REMARK UNBOUND:                -0.171
REMARK SMILES CCCCCCC(=O)[O-]
REMARK SMILES IDX 5 1 6 2 7 3 8 4 9 5 4 6 3 7 2 8 1 9
REMARK H PARENT
REMARK Flexibility Score: inf
ROOT
ATOM      1  C   UNL     1      -0.471   3.788   5.441  1.00  0.00     0.006 C 
ENDROOT
BRANCH   1   2
ATOM      2  C   UNL     1       0.573   3.867   4.316  1.00  0.00     0.053 C 
BRANCH   2   3
ATOM      3  C   UNL     1      -0.065   3.990   2.967  1.00  0.00     0.041 C 
ATOM      4  O   UNL     1      -1.011   3.227   2.641  1.00  0.00    -0.550 OA
ATOM      5  O   UNL     1       0.408   4.927   2.056  1.00  0.00    -0.550 OA
ENDBRANCH   2   3
ENDBRANCH   1   2
BRANCH   1   6
ATOM      6  C   UNL     1      -0.141   2.765   6.547  1.00  0.00     0.000 C 
BRANCH   6   7
ATOM      7  C   UNL     1      -0.474   1.299   6.204  1.00  0.00    -0.000 C 
BRANCH   7   8
ATOM      8  C   UNL     1      -0.825   0.414   7.411  1.00  0.00    -0.003 C 
ATOM      9  C   UNL     1      -1.218   1.221   8.648  1.00  0.00     0.004 C 
ENDBRANCH   7   8
ENDBRANCH   6   7
ENDBRANCH   1   6
TORSDOF 5
ENDMDL
MODEL 3
REMARK VINA RESULT:    -3.287      2.427      4.823
REMARK INTER + INTRA:          -4.419
REMARK INTER:                  -4.227
REMARK INTRA:                  -0.192
REMARK UNBOUND:                -0.171
REMARK SMILES CCCCCCC(=O)[O-]
REMARK SMILES IDX 5 1 6 2 7 3 8 4 9 5 4 6 3 7 2 8 1 9
REMARK H PARENT
REMARK Flexibility Score: inf
ROOT
ATOM      1  C   UNL     1       2.321   6.381  -3.885  1.00  0.00     0.006 C 
ENDROOT
BRANCH   1   2
ATOM      2  C   UNL     1       1.660   7.679  -3.394  1.00  0.00     0.053 C 
BRANCH   2   3
ATOM      3  C   UNL     1       0.681   7.427  -2.290  1.00  0.00     0.041 C 
ATOM      4  O   UNL     1       0.770   6.384  -1.590  1.00  0.00    -0.550 OA
ATOM      5  O   UNL     1      -0.351   8.327  -2.054  1.00  0.00    -0.550 OA
ENDBRANCH   2   3
ENDBRANCH   1   2
BRANCH   1   6
ATOM      6  C   UNL     1       3.855   6.346  -3.723  1.00  0.00     0.000 C 
BRANCH   6   7
ATOM      7  C   UNL     1       4.382   6.857  -2.368  1.00  0.00    -0.000 C 
BRANCH   7   8
ATOM      8  C   UNL     1       5.074   5.794  -1.499  1.00  0.00    -0.003 C 
ATOM      9  C   UNL     1       6.243   6.355  -0.689  1.00  0.00     0.004 C 
ENDBRANCH   7   8
ENDBRANCH   6   7
ENDBRANCH   1   6
TORSDOF 5
ENDMDL
MODEL 4
REMARK VINA RESULT:    -3.268      8.494      9.405
REMARK INTER + INTRA:          -4.395
REMARK INTER:                  -4.146
REMARK INTRA:                  -0.249
REMARK UNBOUND:                -0.171
REMARK SMILES CCCCCCC(=O)[O-]
REMARK SMILES IDX 5 1 6 2 7 3 8 4 9 5 4 6 3 7 2 8 1 9
REMARK H PARENT
REMARK Flexibility Score: inf
ROOT
ATOM      1  C   UNL     1       0.621   3.845   5.182  1.00  0.00     0.006 C 
ENDROOT
BRANCH   1   2
ATOM      2  C   UNL     1      -0.210   4.748   4.257  1.00  0.00     0.053 C 
BRANCH   2   3
ATOM      3  C   UNL     1      -0.102   4.331   2.822  1.00  0.00     0.041 C 
ATOM      4  O   UNL     1       0.539   5.040   2.004  1.00  0.00    -0.550 OA
ATOM      5  O   UNL     1      -0.738   3.177   2.383  1.00  0.00    -0.550 OA
ENDBRANCH   2   3
ENDBRANCH   1   2
BRANCH   1   6
ATOM      6  C   UNL     1      -0.154   2.649   5.771  1.00  0.00     0.000 C 
BRANCH   6   7
ATOM      7  C   UNL     1      -0.387   2.706   7.293  1.00  0.00    -0.000 C 
BRANCH   7   8
ATOM      8  C   UNL     1      -0.367   4.118   7.900  1.00  0.00    -0.003 C 
ATOM      9  C   UNL     1      -1.731   4.807   7.854  1.00  0.00     0.004 C 
ENDBRANCH   7   8
ENDBRANCH   6   7
ENDBRANCH   1   6
TORSDOF 5
ENDMDL
MODEL 5
REMARK VINA RESULT:    -3.220      3.320      5.272
REMARK INTER + INTRA:          -4.332
REMARK INTER:                  -4.167
REMARK INTRA:                  -0.165
REMARK UNBOUND:                -0.171
REMARK SMILES CCCCCCC(=O)[O-]
REMARK SMILES IDX 5 1 6 2 7 3 8 4 9 5 4 6 3 7 2 8 1 9
REMARK H PARENT
REMARK Flexibility Score: inf
ROOT
ATOM      1  C   UNL     1       0.846   7.332  -1.552  1.00  0.00     0.006 C 
ENDROOT
BRANCH   1   2
ATOM      2  C   UNL     1       0.035   8.514  -2.106  1.00  0.00     0.053 C 
BRANCH   2   3
ATOM      3  C   UNL     1      -1.102   8.886  -1.205  1.00  0.00     0.041 C 
ATOM      4  O   UNL     1      -0.921   8.978   0.037  1.00  0.00    -0.550 OA
ATOM      5  O   UNL     1      -2.369   9.099  -1.734  1.00  0.00    -0.550 OA
ENDBRANCH   2   3
ENDBRANCH   1   2
BRANCH   1   6
ATOM      6  C   UNL     1       1.309   6.320  -2.619  1.00  0.00     0.000 C 
BRANCH   6   7
ATOM      7  C   UNL     1       2.243   6.893  -3.703  1.00  0.00    -0.000 C 
BRANCH   7   8
ATOM      8  C   UNL     1       3.633   6.238  -3.774  1.00  0.00    -0.003 C 
ATOM      9  C   UNL     1       4.412   6.349  -2.465  1.00  0.00     0.004 C 
ENDBRANCH   7   8
ENDBRANCH   6   7
ENDBRANCH   1   6
TORSDOF 5
ENDMDL
MODEL 6
REMARK VINA RESULT:    -3.193      7.493      8.530
REMARK INTER + INTRA:          -4.297
REMARK INTER:                  -3.887
REMARK INTRA:                  -0.411
REMARK UNBOUND:                -0.171
REMARK SMILES CCCCCCC(=O)[O-]
REMARK SMILES IDX 5 1 6 2 7 3 8 4 9 5 4 6 3 7 2 8 1 9
REMARK H PARENT
REMARK Flexibility Score: inf
ROOT
ATOM      1  C   UNL     1      -0.104   3.307   4.235  1.00  0.00     0.006 C 
ENDROOT
BRANCH   1   2
ATOM      2  C   UNL     1      -0.423   3.947   5.595  1.00  0.00     0.053 C 
BRANCH   2   3
ATOM      3  C   UNL     1       0.796   4.532   6.239  1.00  0.00     0.041 C 
ATOM      4  O   UNL     1       1.871   4.627   5.591  1.00  0.00    -0.550 OA
ATOM      5  O   UNL     1       0.753   4.942   7.566  1.00  0.00    -0.550 OA
ENDBRANCH   2   3
ENDBRANCH   1   2
BRANCH   1   6
ATOM      6  C   UNL     1      -0.698   4.054   3.023  1.00  0.00     0.000 C 
BRANCH   6   7
ATOM      7  C   UNL     1       0.114   5.274   2.545  1.00  0.00    -0.000 C 
BRANCH   7   8
ATOM      8  C   UNL     1      -0.365   6.628   3.094  1.00  0.00    -0.003 C 
ATOM      9  C   UNL     1       0.752   7.432   3.759  1.00  0.00     0.004 C 
ENDBRANCH   7   8
ENDBRANCH   6   7
ENDBRANCH   1   6
TORSDOF 5
ENDMDL
MODEL 7
REMARK VINA RESULT:    -3.192      8.437      9.662
REMARK INTER + INTRA:          -4.296
REMARK INTER:                  -4.013
REMARK INTRA:                  -0.283
REMARK UNBOUND:                -0.171
REMARK SMILES CCCCCCC(=O)[O-]
REMARK SMILES IDX 5 1 6 2 7 3 8 4 9 5 4 6 3 7 2 8 1 9
REMARK H PARENT
REMARK Flexibility Score: inf
ROOT
ATOM      1  C   UNL     1       0.404   3.914   5.445  1.00  0.00     0.006 C 
ENDROOT
BRANCH   1   2
ATOM      2  C   UNL     1      -0.339   3.823   6.788  1.00  0.00     0.053 C 
BRANCH   2   3
ATOM      3  C   UNL     1      -1.216   5.014   7.025  1.00  0.00     0.041 C 
ATOM      4  O   UNL     1      -0.934   6.123   6.501  1.00  0.00    -0.550 OA
ATOM      5  O   UNL     1      -2.328   4.906   7.851  1.00  0.00    -0.550 OA
ENDBRANCH   2   3
ENDBRANCH   1   2
BRANCH   1   6
ATOM      6  C   UNL     1      -0.261   3.131   4.295  1.00  0.00     0.000 C 
BRANCH   6   7
ATOM      7  C   UNL     1      -0.624   3.972   3.055  1.00  0.00    -0.000 C 
BRANCH   7   8
ATOM      8  C   UNL     1      -0.218   5.453   3.134  1.00  0.00    -0.003 C 
ATOM      9  C   UNL     1       0.706   5.879   1.993  1.00  0.00     0.004 C 
ENDBRANCH   7   8
ENDBRANCH   6   7
ENDBRANCH   1   6
TORSDOF 5
ENDMDL
MODEL 8
REMARK VINA RESULT:    -3.179      4.228      5.240
REMARK INTER + INTRA:          -4.280
REMARK INTER:                  -4.177
REMARK INTRA:                  -0.103
REMARK UNBOUND:                -0.171
REMARK SMILES CCCCCCC(=O)[O-]
REMARK SMILES IDX 5 1 6 2 7 3 8 4 9 5 4 6 3 7 2 8 1 9
REMARK H PARENT
REMARK Flexibility Score: inf
ROOT
ATOM      1  C   UNL     1       1.100   6.639   1.152  1.00  0.00     0.006 C 
ENDROOT
BRANCH   1   2
ATOM      2  C   UNL     1       0.229   6.276   2.364  1.00  0.00     0.053 C 
BRANCH   2   3
ATOM      3  C   UNL     1       0.263   4.808   2.659  1.00  0.00     0.041 C 
ATOM      4  O   UNL     1       1.362   4.196   2.704  1.00  0.00    -0.550 OA
ATOM      5  O   UNL     1      -0.923   4.109   2.851  1.00  0.00    -0.550 OA
ENDBRANCH   2   3
ENDBRANCH   1   2
BRANCH   1   6
ATOM      6  C   UNL     1       0.607   7.866   0.356  1.00  0.00     0.000 C 
BRANCH   6   7
ATOM      7  C   UNL     1       0.299   7.601  -1.130  1.00  0.00    -0.000 C 
BRANCH   7   8
ATOM      8  C   UNL     1      -0.421   8.748  -1.858  1.00  0.00    -0.003 C 
ATOM      9  C   UNL     1      -1.884   8.893  -1.442  1.00  0.00     0.004 C 
ENDBRANCH   7   8
ENDBRANCH   6   7
ENDBRANCH   1   6
TORSDOF 5
ENDMDL
MODEL 9
REMARK VINA RESULT:    -3.175      4.379      5.219
REMARK INTER + INTRA:          -4.275
REMARK INTER:                  -4.115
REMARK INTRA:                  -0.159
REMARK UNBOUND:                -0.171
REMARK SMILES CCCCCCC(=O)[O-]
REMARK SMILES IDX 5 1 6 2 7 3 8 4 9 5 4 6 3 7 2 8 1 9
REMARK H PARENT
REMARK Flexibility Score: inf
ROOT
ATOM      1  C   UNL     1       1.356   6.748   0.916  1.00  0.00     0.006 C 
ENDROOT
BRANCH   1   2
ATOM      2  C   UNL     1       1.393   7.736  -0.261  1.00  0.00     0.053 C 
BRANCH   2   3
ATOM      3  C   UNL     1       0.506   7.302  -1.386  1.00  0.00     0.041 C 
ATOM      4  O   UNL     1       0.795   6.280  -2.063  1.00  0.00    -0.550 OA
ATOM      5  O   UNL     1      -0.623   8.045  -1.710  1.00  0.00    -0.550 OA
ENDBRANCH   2   3
ENDBRANCH   1   2
BRANCH   1   6
ATOM      6  C   UNL     1       0.521   7.224   2.122  1.00  0.00     0.000 C 
BRANCH   6   7
ATOM      7  C   UNL     1      -0.220   6.110   2.886  1.00  0.00    -0.000 C 
BRANCH   7   8
ATOM      8  C   UNL     1       0.251   4.681   2.566  1.00  0.00    -0.003 C 
ATOM      9  C   UNL     1      -0.835   3.630   2.797  1.00  0.00     0.004 C 
ENDBRANCH   7   8
ENDBRANCH   6   7
ENDBRANCH   1   6
TORSDOF 5
ENDMDL
