MODEL 1
REMARK VINA RESULT:    -5.216      0.000      0.000
REMARK INTER + INTRA:          -7.959
REMARK INTER:                  -7.045
REMARK INTRA:                  -0.914
REMARK UNBOUND:                -0.914
REMARK SMILES CC(=O)CCC=C(C)CCC=C(C)C
REMARK SMILES IDX 7 1 6 2 8 3 9 4 10 5 11 6 13 7 12 8 14 9 5 10 4 11 2 12 3 13
REMARK SMILES IDX 1 14
REMARK H PARENT
REMARK Flexibility Score: inf
ROOT
ATOM      1  C   UNL     1      23.394  -4.310   7.426  1.00  0.00    -0.077 C 
ATOM      2  C   UNL     1      23.183  -3.559   6.321  1.00  0.00    -0.028 C 
ATOM      3  C   UNL     1      23.430  -3.703   8.808  1.00  0.00     0.039 C 
ENDROOT
BRANCH   1   4
ATOM      4  C   UNL     1      23.613  -5.798   7.266  1.00  0.00     0.034 C 
BRANCH   4   5
ATOM      5  C   UNL     1      24.325  -6.374   8.496  1.00  0.00     0.032 C 
BRANCH   5   6
ATOM      6  C   UNL     1      23.717  -7.693   8.897  1.00  0.00    -0.028 C 
ATOM      7  C   UNL     1      22.512  -6.717  10.864  1.00  0.00     0.039 C 
ATOM      8  C   UNL     1      22.880  -7.860   9.945  1.00  0.00    -0.080 C 
ATOM      9  C   UNL     1      22.317  -9.233  10.206  1.00  0.00     0.039 C 
ENDBRANCH   5   6
ENDBRANCH   4   5
ENDBRANCH   1   4
BRANCH   2  10
ATOM     10  C   UNL     1      22.857  -2.085   6.337  1.00  0.00     0.035 C 
BRANCH  10  11
ATOM     11  C   UNL     1      21.362  -1.837   6.099  1.00  0.00     0.079 C 
BRANCH  11  12
ATOM     12  C   UNL     1      20.625  -1.615   7.396  1.00  0.00     0.130 C 
ATOM     13  O   UNL     1      20.581  -0.493   7.878  1.00  0.00    -0.300 OA
ATOM     14  C   UNL     1      19.936  -2.743   8.105  1.00  0.00     0.087 C 
ENDBRANCH  11  12
ENDBRANCH  10  11
ENDBRANCH   2  10
TORSDOF 6
ENDMDL
MODEL 2
REMARK VINA RESULT:    -4.741      1.364      2.045
REMARK INTER + INTRA:          -7.318
REMARK INTER:                  -6.641
REMARK INTRA:                  -0.677
REMARK UNBOUND:                -0.914
REMARK SMILES CC(=O)CCC=C(C)CCC=C(C)C
REMARK SMILES IDX 7 1 6 2 8 3 9 4 10 5 11 6 13 7 12 8 14 9 5 10 4 11 2 12 3 13
REMARK SMILES IDX 1 14
REMARK H PARENT
REMARK Flexibility Score: inf
ROOT
ATOM      1  C   UNL     1      24.216  -5.073   7.046  1.00  0.00    -0.077 C 
ATOM      2  C   UNL     1      24.550  -3.939   7.703  1.00  0.00    -0.028 C 
ATOM      3  C   UNL     1      23.189  -5.082   5.939  1.00  0.00     0.039 C 
ENDROOT
BRANCH   1   4
ATOM      4  C   UNL     1      24.884  -6.371   7.445  1.00  0.00     0.034 C 
BRANCH   4   5
ATOM      5  C   UNL     1      23.878  -7.313   8.116  1.00  0.00     0.032 C 
BRANCH   5   6
ATOM      6  C   UNL     1      23.454  -6.775   9.458  1.00  0.00    -0.028 C 
ATOM      7  C   UNL     1      22.358  -8.920  10.145  1.00  0.00     0.039 C 
ATOM      8  C   UNL     1      22.792  -7.494  10.392  1.00  0.00    -0.080 C 
ATOM      9  C   UNL     1      22.465  -6.836  11.708  1.00  0.00     0.039 C 
ENDBRANCH   5   6
ENDBRANCH   4   5
ENDBRANCH   1   4
BRANCH   2  10
ATOM     10  C   UNL     1      24.036  -2.563   7.352  1.00  0.00     0.035 C 
BRANCH  10  11
ATOM     11  C   UNL     1      23.082  -2.029   8.428  1.00  0.00     0.079 C 
BRANCH  11  12
ATOM     12  C   UNL     1      21.639  -2.202   8.024  1.00  0.00     0.130 C 
ATOM     13  O   UNL     1      21.015  -3.174   8.424  1.00  0.00    -0.300 OA
ATOM     14  C   UNL     1      20.951  -1.201   7.144  1.00  0.00     0.087 C 
ENDBRANCH  11  12
ENDBRANCH  10  11
ENDBRANCH   2  10
TORSDOF 6
ENDMDL
MODEL 3
REMARK VINA RESULT:    -4.736      1.375      2.078
REMARK INTER + INTRA:          -7.311
REMARK INTER:                  -6.840
REMARK INTRA:                  -0.471
REMARK UNBOUND:                -0.914
REMARK SMILES CC(=O)CCC=C(C)CCC=C(C)C
REMARK SMILES IDX 7 1 6 2 8 3 9 4 10 5 11 6 13 7 12 8 14 9 5 10 4 11 2 12 3 13
REMARK SMILES IDX 1 14
REMARK H PARENT
REMARK Flexibility Score: inf
ROOT
ATOM      1  C   UNL     1      23.260  -4.464   7.525  1.00  0.00    -0.077 C 
ATOM      2  C   UNL     1      22.975  -3.842   6.358  1.00  0.00    -0.028 C 
ATOM      3  C   UNL     1      23.326  -3.714   8.833  1.00  0.00     0.039 C 
ENDROOT
BRANCH   1   4
ATOM      4  C   UNL     1      23.534  -5.952   7.511  1.00  0.00     0.034 C 
BRANCH   4   5
ATOM      5  C   UNL     1      23.870  -6.452   8.920  1.00  0.00     0.032 C 
BRANCH   5   6
ATOM      6  C   UNL     1      24.193  -7.924   8.903  1.00  0.00    -0.028 C 
ATOM      7  C   UNL     1      26.414  -7.581   7.795  1.00  0.00     0.039 C 
ATOM      8  C   UNL     1      25.344  -8.445   8.423  1.00  0.00    -0.080 C 
ATOM      9  C   UNL     1      25.548  -9.936   8.505  1.00  0.00     0.039 C 
ENDBRANCH   5   6
ENDBRANCH   4   5
ENDBRANCH   1   4
BRANCH   2  10
ATOM     10  C   UNL     1      22.590  -2.388   6.234  1.00  0.00     0.035 C 
BRANCH  10  11
ATOM     11  C   UNL     1      21.073  -2.219   6.086  1.00  0.00     0.079 C 
BRANCH  11  12
ATOM     12  C   UNL     1      20.437  -1.768   7.377  1.00  0.00     0.130 C 
ATOM     13  O   UNL     1      19.961  -2.599   8.135  1.00  0.00    -0.300 OA
ATOM     14  C   UNL     1      20.382  -0.317   7.753  1.00  0.00     0.087 C 
ENDBRANCH  11  12
ENDBRANCH  10  11
ENDBRANCH   2  10
TORSDOF 6
ENDMDL
MODEL 4
REMARK VINA RESULT:    -4.700      2.493      5.872
REMARK INTER + INTRA:          -7.263
REMARK INTER:                  -6.557
REMARK INTRA:                  -0.706
REMARK UNBOUND:                -0.914
REMARK SMILES CC(=O)CCC=C(C)CCC=C(C)C
REMARK SMILES IDX 7 1 6 2 8 3 9 4 10 5 11 6 13 7 12 8 14 9 5 10 4 11 2 12 3 13
REMARK SMILES IDX 1 14
REMARK H PARENT
REMARK Flexibility Score: inf
ROOT
ATOM      1  C   UNL     1      24.395  -4.852   7.426  1.00  0.00    -0.077 C 
ATOM      2  C   UNL     1      23.434  -5.230   8.299  1.00  0.00    -0.028 C 
ATOM      3  C   UNL     1      25.730  -5.555   7.354  1.00  0.00     0.039 C 
ENDROOT
BRANCH   1   4
ATOM      4  C   UNL     1      24.126  -3.681   6.507  1.00  0.00     0.034 C 
BRANCH   4   5
ATOM      5  C   UNL     1      22.623  -3.535   6.244  1.00  0.00     0.032 C 
BRANCH   5   6
ATOM      6  C   UNL     1      22.154  -2.142   6.580  1.00  0.00    -0.028 C 
ATOM      7  C   UNL     1      20.365  -2.952   8.134  1.00  0.00     0.039 C 
ATOM      8  C   UNL     1      21.156  -1.863   7.447  1.00  0.00    -0.080 C 
ATOM      9  C   UNL     1      20.819  -0.419   7.715  1.00  0.00     0.039 C 
ENDBRANCH   5   6
ENDBRANCH   4   5
ENDBRANCH   1   4
BRANCH   2  10
ATOM     10  C   UNL     1      23.526  -6.433   9.206  1.00  0.00     0.035 C 
BRANCH  10  11
ATOM     11  C   UNL     1      22.559  -6.318  10.392  1.00  0.00     0.079 C 
BRANCH  11  12
ATOM     12  C   UNL     1      22.558  -7.572  11.229  1.00  0.00     0.130 C 
ATOM     13  O   UNL     1      22.582  -7.482  12.448  1.00  0.00    -0.300 OA
ATOM     14  C   UNL     1      22.521  -8.932  10.597  1.00  0.00     0.087 C 
ENDBRANCH  11  12
ENDBRANCH  10  11
ENDBRANCH   2  10
TORSDOF 6
ENDMDL
MODEL 5
REMARK VINA RESULT:    -4.674      2.107      3.700
REMARK INTER + INTRA:          -7.227
REMARK INTER:                  -6.525
REMARK INTRA:                  -0.701
REMARK UNBOUND:                -0.914
REMARK SMILES CC(=O)CCC=C(C)CCC=C(C)C
REMARK SMILES IDX 7 1 6 2 8 3 9 4 10 5 11 6 13 7 12 8 14 9 5 10 4 11 2 12 3 13
REMARK SMILES IDX 1 14
REMARK H PARENT
REMARK Flexibility Score: inf
ROOT
ATOM      1  C   UNL     1      23.095  -7.191   9.846  1.00  0.00    -0.077 C 
ATOM      2  C   UNL     1      23.407  -6.318   8.860  1.00  0.00    -0.028 C 
ATOM      3  C   UNL     1      22.485  -6.737  11.150  1.00  0.00     0.039 C 
ENDROOT
BRANCH   1   4
ATOM      4  C   UNL     1      23.380  -8.662   9.635  1.00  0.00     0.034 C 
BRANCH   4   5
ATOM      5  C   UNL     1      23.958  -8.905   8.236  1.00  0.00     0.032 C 
BRANCH   5   6
ATOM      6  C   UNL     1      25.243  -9.687   8.316  1.00  0.00    -0.028 C 
ATOM      7  C   UNL     1      26.657  -7.729   7.651  1.00  0.00     0.039 C 
ATOM      8  C   UNL     1      26.468  -9.166   8.080  1.00  0.00    -0.080 C 
ATOM      9  C   UNL     1      27.672 -10.059   8.235  1.00  0.00     0.039 C 
ENDBRANCH   5   6
ENDBRANCH   4   5
ENDBRANCH   1   4
BRANCH   2  10
ATOM     10  C   UNL     1      23.094  -4.842   8.893  1.00  0.00     0.035 C 
BRANCH  10  11
ATOM     11  C   UNL     1      23.025  -4.250   7.480  1.00  0.00     0.079 C 
BRANCH  11  12
ATOM     12  C   UNL     1      22.274  -2.943   7.462  1.00  0.00     0.130 C 
ATOM     13  O   UNL     1      22.423  -2.151   8.381  1.00  0.00    -0.300 OA
ATOM     14  C   UNL     1      21.350  -2.589   6.335  1.00  0.00     0.087 C 
ENDBRANCH  11  12
ENDBRANCH  10  11
ENDBRANCH   2  10
TORSDOF 6
ENDMDL
MODEL 6
REMARK VINA RESULT:    -4.621      2.770      6.229
REMARK INTER + INTRA:          -7.156
REMARK INTER:                  -6.453
REMARK INTRA:                  -0.703
REMARK UNBOUND:                -0.914
REMARK SMILES CC(=O)CCC=C(C)CCC=C(C)C
REMARK SMILES IDX 7 1 6 2 8 3 9 4 10 5 11 6 13 7 12 8 14 9 5 10 4 11 2 12 3 13
REMARK SMILES IDX 1 14
REMARK H PARENT
REMARK Flexibility Score: inf
ROOT
ATOM      1  C   UNL     1      23.909  -5.942   8.904  1.00  0.00    -0.077 C 
ATOM      2  C   UNL     1      24.577  -6.991   8.370  1.00  0.00    -0.028 C 
ATOM      3  C   UNL     1      22.868  -6.123   9.982  1.00  0.00     0.039 C 
ENDROOT
BRANCH   1   4
ATOM      4  C   UNL     1      24.210  -4.550   8.392  1.00  0.00     0.034 C 
BRANCH   4   5
ATOM      5  C   UNL     1      23.050  -3.598   8.706  1.00  0.00     0.032 C 
BRANCH   5   6
ATOM      6  C   UNL     1      22.588  -2.888   7.459  1.00  0.00    -0.028 C 
ATOM      7  C   UNL     1      20.183  -2.893   8.160  1.00  0.00     0.039 C 
ATOM      8  C   UNL     1      21.305  -2.542   7.210  1.00  0.00    -0.080 C 
ATOM      9  C   UNL     1      20.995  -1.801   5.935  1.00  0.00     0.039 C 
ENDBRANCH   5   6
ENDBRANCH   4   5
ENDBRANCH   1   4
BRANCH   2  10
ATOM     10  C   UNL     1      24.449  -8.418   8.846  1.00  0.00     0.035 C 
BRANCH  10  11
ATOM     11  C   UNL     1      23.710  -9.287   7.821  1.00  0.00     0.079 C 
BRANCH  11  12
ATOM     12  C   UNL     1      22.370  -9.741   8.343  1.00  0.00     0.130 C 
ATOM     13  O   UNL     1      21.463  -9.970   7.556  1.00  0.00    -0.300 OA
ATOM     14  C   UNL     1      22.127  -9.925   9.812  1.00  0.00     0.087 C 
ENDBRANCH  11  12
ENDBRANCH  10  11
ENDBRANCH   2  10
TORSDOF 6
ENDMDL
MODEL 7
REMARK VINA RESULT:    -4.607      2.566      6.143
REMARK INTER + INTRA:          -7.137
REMARK INTER:                  -6.257
REMARK INTRA:                  -0.879
REMARK UNBOUND:                -0.914
REMARK SMILES CC(=O)CCC=C(C)CCC=C(C)C
REMARK SMILES IDX 7 1 6 2 8 3 9 4 10 5 11 6 13 7 12 8 14 9 5 10 4 11 2 12 3 13
REMARK SMILES IDX 1 14
REMARK H PARENT
REMARK Flexibility Score: inf
ROOT
ATOM      1  C   UNL     1      24.252  -4.900   7.399  1.00  0.00    -0.077 C 
ATOM      2  C   UNL     1      25.211  -5.716   7.892  1.00  0.00    -0.028 C 
ATOM      3  C   UNL     1      23.322  -5.337   6.293  1.00  0.00     0.039 C 
ENDROOT
BRANCH   1   4
ATOM      4  C   UNL     1      24.120  -3.504   7.967  1.00  0.00     0.034 C 
BRANCH   4   5
ATOM      5  C   UNL     1      23.672  -2.519   6.881  1.00  0.00     0.032 C 
BRANCH   5   6
ATOM      6  C   UNL     1      22.718  -1.498   7.444  1.00  0.00    -0.028 C 
ATOM      7  C   UNL     1      20.790  -2.313   6.069  1.00  0.00     0.039 C 
ATOM      8  C   UNL     1      21.412  -1.408   7.108  1.00  0.00    -0.080 C 
ATOM      9  C   UNL     1      20.566  -0.359   7.781  1.00  0.00     0.039 C 
ENDBRANCH   5   6
ENDBRANCH   4   5
ENDBRANCH   1   4
BRANCH   2  10
ATOM     10  C   UNL     1      25.397  -7.159   7.489  1.00  0.00     0.035 C 
BRANCH  10  11
ATOM     11  C   UNL     1      25.011  -8.114   8.626  1.00  0.00     0.079 C 
BRANCH  11  12
ATOM     12  C   UNL     1      23.514  -8.232   8.766  1.00  0.00     0.130 C 
ATOM     13  O   UNL     1      22.864  -8.742   7.865  1.00  0.00    -0.300 OA
ATOM     14  C   UNL     1      22.804  -7.740   9.992  1.00  0.00     0.087 C 
ENDBRANCH  11  12
ENDBRANCH  10  11
ENDBRANCH   2  10
TORSDOF 6
ENDMDL
MODEL 8
REMARK VINA RESULT:    -4.397      9.888     12.596
REMARK INTER + INTRA:          -6.853
REMARK INTER:                  -5.956
REMARK INTRA:                  -0.897
REMARK UNBOUND:                -0.914
REMARK SMILES CC(=O)CCC=C(C)CCC=C(C)C
REMARK SMILES IDX 7 1 6 2 8 3 9 4 10 5 11 6 13 7 12 8 14 9 5 10 4 11 2 12 3 13
REMARK SMILES IDX 1 14
REMARK H PARENT
REMARK Flexibility Score: inf
ROOT
ATOM      1  C   UNL     1      16.051  -6.308  16.391  1.00  0.00    -0.077 C 
ATOM      2  C   UNL     1      16.911  -7.221  16.897  1.00  0.00    -0.028 C 
ATOM      3  C   UNL     1      16.529  -5.004  15.798  1.00  0.00     0.039 C 
ENDROOT
BRANCH   1   4
ATOM      4  C   UNL     1      14.568  -6.600  16.434  1.00  0.00     0.034 C 
BRANCH   4   5
ATOM      5  C   UNL     1      14.024  -6.423  17.857  1.00  0.00     0.032 C 
BRANCH   5   6
ATOM      6  C   UNL     1      13.818  -4.963  18.173  1.00  0.00    -0.028 C 
ATOM      7  C   UNL     1      15.706  -4.894  19.817  1.00  0.00     0.039 C 
ATOM      8  C   UNL     1      14.583  -4.255  19.034  1.00  0.00    -0.080 C 
ATOM      9  C   UNL     1      14.284  -2.791  19.223  1.00  0.00     0.039 C 
ENDBRANCH   5   6
ENDBRANCH   4   5
ENDBRANCH   1   4
BRANCH   2  10
ATOM     10  C   UNL     1      18.416  -7.106  16.837  1.00  0.00     0.035 C 
BRANCH  10  11
ATOM     11  C   UNL     1      19.080  -7.799  18.033  1.00  0.00     0.079 C 
BRANCH  11  12
ATOM     12  C   UNL     1      20.198  -8.711  17.594  1.00  0.00     0.130 C 
ATOM     13  O   UNL     1      20.463  -9.701  18.260  1.00  0.00    -0.300 OA
ATOM     14  C   UNL     1      20.990  -8.431  16.352  1.00  0.00     0.087 C 
ENDBRANCH  11  12
ENDBRANCH  10  11
ENDBRANCH   2  10
TORSDOF 6
ENDMDL
MODEL 9
REMARK VINA RESULT:    -4.322     11.063     13.248
REMARK INTER + INTRA:          -6.752
REMARK INTER:                  -5.690
REMARK INTRA:                  -1.062
REMARK UNBOUND:                -0.914
REMARK SMILES CC(=O)CCC=C(C)CCC=C(C)C
REMARK SMILES IDX 7 1 6 2 8 3 9 4 10 5 11 6 13 7 12 8 14 9 5 10 4 11 2 12 3 13
REMARK SMILES IDX 1 14
REMARK H PARENT
REMARK Flexibility Score: inf
ROOT
ATOM      1  C   UNL     1      15.614  -6.736  19.832  1.00  0.00    -0.077 C 
ATOM      2  C   UNL     1      15.743  -5.422  20.125  1.00  0.00    -0.028 C 
ATOM      3  C   UNL     1      14.284  -7.446  19.918  1.00  0.00     0.039 C 
ENDROOT
BRANCH   1   4
ATOM      4  C   UNL     1      16.843  -7.516  19.420  1.00  0.00     0.034 C 
BRANCH   4   5
ATOM      5  C   UNL     1      16.813  -7.817  17.918  1.00  0.00     0.032 C 
BRANCH   5   6
ATOM      6  C   UNL     1      17.128  -6.579  17.117  1.00  0.00    -0.028 C 
ATOM      7  C   UNL     1      14.793  -6.366  16.236  1.00  0.00     0.039 C 
ATOM      8  C   UNL     1      16.224  -5.901  16.375  1.00  0.00    -0.080 C 
ATOM      9  C   UNL     1      16.673  -4.655  15.656  1.00  0.00     0.039 C 
ENDBRANCH   5   6
ENDBRANCH   4   5
ENDBRANCH   1   4
BRANCH   2  10
ATOM     10  C   UNL     1      14.593  -4.502  20.458  1.00  0.00     0.035 C 
BRANCH  10  11
ATOM     11  C   UNL     1      14.419  -3.413  19.392  1.00  0.00     0.079 C 
BRANCH  11  12
ATOM     12  C   UNL     1      14.770  -2.049  19.931  1.00  0.00     0.130 C 
ATOM     13  O   UNL     1      13.893  -1.351  20.419  1.00  0.00    -0.300 OA
ATOM     14  C   UNL     1      16.177  -1.531  19.885  1.00  0.00     0.087 C 
ENDBRANCH  11  12
ENDBRANCH  10  11
ENDBRANCH   2  10
TORSDOF 6
ENDMDL
