MODEL 1
REMARK VINA RESULT:    -2.981      0.000      0.000
REMARK INTER + INTRA:          -3.815
REMARK INTER:                  -3.591
REMARK INTRA:                  -0.224
REMARK UNBOUND:                -0.224
REMARK SMILES OCC(O)CO
REMARK SMILES IDX 3 1 5 2 6 3 2 5 1 6 4 8
REMARK H PARENT 6 4 1 7 4 9
REMARK Flexibility Score: inf
ROOT
ATOM      1  C   UNL     1      21.091  13.777 -16.756  1.00  0.00     0.165 C 
ENDROOT
BRANCH   1   2
ATOM      2  C   UNL     1      22.259  14.772 -16.823  1.00  0.00     0.190 C 
BRANCH   2   3
ATOM      3  O   UNL     1      21.983  15.905 -16.043  1.00  0.00    -0.394 OA
ATOM      4  H   UNL     1      21.038  15.824 -15.749  1.00  0.00     0.210 HD
ENDBRANCH   2   3
ENDBRANCH   1   2
BRANCH   1   5
ATOM      5  C   UNL     1      19.842  14.431 -16.143  1.00  0.00     0.190 C 
BRANCH   5   6
ATOM      6  O   UNL     1      19.858  14.332 -14.744  1.00  0.00    -0.394 OA
ATOM      7  H   UNL     1      19.604  15.225 -14.393  1.00  0.00     0.210 HD
ENDBRANCH   5   6
ENDBRANCH   1   5
BRANCH   1   8
ATOM      8  O   UNL     1      21.475  12.674 -15.976  1.00  0.00    -0.388 OA
ATOM      9  H   UNL     1      22.427  12.812 -15.732  1.00  0.00     0.211 HD
ENDBRANCH   1   8
TORSDOF 5
ENDMDL
MODEL 2
REMARK VINA RESULT:    -2.970      1.979      3.021
REMARK INTER + INTRA:          -3.801
REMARK INTER:                  -3.795
REMARK INTRA:                  -0.006
REMARK UNBOUND:                -0.224
REMARK SMILES OCC(O)CO
REMARK SMILES IDX 3 1 5 2 6 3 2 5 1 6 4 8
REMARK H PARENT 6 4 1 7 4 9
REMARK Flexibility Score: inf
ROOT
ATOM      1  C   UNL     1      20.636  15.993 -16.331  1.00  0.00     0.165 C 
ENDROOT
BRANCH   1   2
ATOM      2  C   UNL     1      20.060  14.585 -16.118  1.00  0.00     0.190 C 
BRANCH   2   3
ATOM      3  O   UNL     1      19.831  14.352 -14.754  1.00  0.00    -0.394 OA
ATOM      4  H   UNL     1      20.700  14.486 -14.293  1.00  0.00     0.210 HD
ENDBRANCH   2   3
ENDBRANCH   1   2
BRANCH   1   5
ATOM      5  C   UNL     1      20.387  16.480 -17.769  1.00  0.00     0.190 C 
BRANCH   5   6
ATOM      6  O   UNL     1      19.033  16.787 -17.967  1.00  0.00    -0.394 OA
ATOM      7  H   UNL     1      18.589  16.700 -17.084  1.00  0.00     0.210 HD
ENDBRANCH   5   6
ENDBRANCH   1   5
BRANCH   1   8
ATOM      8  O   UNL     1      22.016  15.966 -16.076  1.00  0.00    -0.388 OA
ATOM      9  H   UNL     1      22.428  15.396 -16.777  1.00  0.00     0.211 HD
ENDBRANCH   1   8
TORSDOF 5
ENDMDL
MODEL 3
REMARK VINA RESULT:    -2.953      0.852      2.417
REMARK INTER + INTRA:          -3.781
REMARK INTER:                  -3.577
REMARK INTRA:                  -0.204
REMARK UNBOUND:                -0.224
REMARK SMILES OCC(O)CO
REMARK SMILES IDX 3 1 5 2 6 3 2 5 1 6 4 8
REMARK H PARENT 6 4 1 7 4 9
REMARK Flexibility Score: inf
ROOT
ATOM      1  C   UNL     1      19.966  14.631 -16.158  1.00  0.00     0.165 C 
ENDROOT
BRANCH   1   2
ATOM      2  C   UNL     1      20.690  13.470 -16.856  1.00  0.00     0.190 C 
BRANCH   2   3
ATOM      3  O   UNL     1      21.529  12.802 -15.952  1.00  0.00    -0.394 OA
ATOM      4  H   UNL     1      21.673  11.891 -16.318  1.00  0.00     0.210 HD
ENDBRANCH   2   3
ENDBRANCH   1   2
BRANCH   1   5
ATOM      5  C   UNL     1      20.709  15.959 -16.377  1.00  0.00     0.190 C 
BRANCH   5   6
ATOM      6  O   UNL     1      22.061  15.843 -16.019  1.00  0.00    -0.394 OA
ATOM      7  H   UNL     1      22.459  15.168 -16.629  1.00  0.00     0.210 HD
ENDBRANCH   5   6
ENDBRANCH   1   5
BRANCH   1   8
ATOM      8  O   UNL     1      19.885  14.358 -14.782  1.00  0.00    -0.388 OA
ATOM      9  H   UNL     1      20.629  14.852 -14.347  1.00  0.00     0.211 HD
ENDBRANCH   1   8
TORSDOF 5
ENDMDL
MODEL 4
REMARK VINA RESULT:    -2.842      0.604      2.552
REMARK INTER + INTRA:          -3.647
REMARK INTER:                  -3.440
REMARK INTRA:                  -0.207
REMARK UNBOUND:                -0.224
REMARK SMILES OCC(O)CO
REMARK SMILES IDX 3 1 5 2 6 3 2 5 1 6 4 8
REMARK H PARENT 6 4 1 7 4 9
REMARK Flexibility Score: inf
ROOT
ATOM      1  C   UNL     1      21.275  14.951 -16.789  1.00  0.00     0.165 C 
ENDROOT
BRANCH   1   2
ATOM      2  C   UNL     1      19.873  14.679 -16.223  1.00  0.00     0.190 C 
BRANCH   2   3
ATOM      3  O   UNL     1      19.928  14.533 -14.829  1.00  0.00    -0.394 OA
ATOM      4  H   UNL     1      18.998  14.629 -14.496  1.00  0.00     0.210 HD
ENDBRANCH   2   3
ENDBRANCH   1   2
BRANCH   1   5
ATOM      5  C   UNL     1      22.086  13.650 -16.904  1.00  0.00     0.190 C 
BRANCH   5   6
ATOM      6  O   UNL     1      21.541  12.644 -16.093  1.00  0.00    -0.394 OA
ATOM      7  H   UNL     1      22.013  12.695 -15.221  1.00  0.00     0.210 HD
ENDBRANCH   5   6
ENDBRANCH   1   5
BRANCH   1   8
ATOM      8  O   UNL     1      21.944  15.850 -15.943  1.00  0.00    -0.388 OA
ATOM      9  H   UNL     1      22.618  15.323 -15.439  1.00  0.00     0.211 HD
ENDBRANCH   1   8
TORSDOF 5
ENDMDL
MODEL 5
REMARK VINA RESULT:    -2.775      1.954      2.409
REMARK INTER + INTRA:          -3.567
REMARK INTER:                  -3.544
REMARK INTRA:                  -0.023
REMARK UNBOUND:                -0.224
REMARK SMILES OCC(O)CO
REMARK SMILES IDX 3 1 5 2 6 3 2 5 1 6 4 8
REMARK H PARENT 6 4 1 7 4 9
REMARK Flexibility Score: inf
ROOT
ATOM      1  C   UNL     1      21.005  15.582 -16.940  1.00  0.00     0.165 C 
ENDROOT
BRANCH   1   2
ATOM      2  C   UNL     1      20.365  16.905 -17.387  1.00  0.00     0.190 C 
BRANCH   2   3
ATOM      3  O   UNL     1      19.090  16.675 -17.924  1.00  0.00    -0.394 OA
ATOM      4  H   UNL     1      18.960  17.345 -18.644  1.00  0.00     0.210 HD
ENDBRANCH   2   3
ENDBRANCH   1   2
BRANCH   1   5
ATOM      5  C   UNL     1      19.949  14.624 -16.364  1.00  0.00     0.190 C 
BRANCH   5   6
ATOM      6  O   UNL     1      20.033  14.566 -14.965  1.00  0.00    -0.394 OA
ATOM      7  H   UNL     1      20.989  14.419 -14.744  1.00  0.00     0.210 HD
ENDBRANCH   5   6
ENDBRANCH   1   5
BRANCH   1   8
ATOM      8  O   UNL     1      21.978  15.851 -15.964  1.00  0.00    -0.388 OA
ATOM      9  H   UNL     1      22.470  15.003 -15.808  1.00  0.00     0.211 HD
ENDBRANCH   1   8
TORSDOF 5
ENDMDL
MODEL 6
REMARK VINA RESULT:    -2.714      1.619      2.508
REMARK INTER + INTRA:          -3.493
REMARK INTER:                  -3.276
REMARK INTRA:                  -0.217
REMARK UNBOUND:                -0.224
REMARK SMILES OCC(O)CO
REMARK SMILES IDX 3 1 5 2 6 3 2 5 1 6 4 8
REMARK H PARENT 6 4 1 7 4 9
REMARK Flexibility Score: inf
ROOT
ATOM      1  C   UNL     1      19.814  14.007 -17.106  1.00  0.00     0.165 C 
ENDROOT
BRANCH   1   2
ATOM      2  C   UNL     1      20.079  12.555 -16.683  1.00  0.00     0.190 C 
BRANCH   2   3
ATOM      3  O   UNL     1      21.327  12.449 -16.052  1.00  0.00    -0.394 OA
ATOM      4  H   UNL     1      21.292  13.035 -15.252  1.00  0.00     0.210 HD
ENDBRANCH   2   3
ENDBRANCH   1   2
BRANCH   1   5
ATOM      5  C   UNL     1      20.196  14.988 -15.986  1.00  0.00     0.190 C 
BRANCH   5   6
ATOM      6  O   UNL     1      19.841  14.478 -14.729  1.00  0.00    -0.394 OA
ATOM      7  H   UNL     1      20.484  14.859 -14.076  1.00  0.00     0.210 HD
ENDBRANCH   5   6
ENDBRANCH   1   5
BRANCH   1   8
ATOM      8  O   UNL     1      18.452  14.153 -17.415  1.00  0.00    -0.388 OA
ATOM      9  H   UNL     1      18.345  13.899 -18.369  1.00  0.00     0.211 HD
ENDBRANCH   1   8
TORSDOF 5
ENDMDL
MODEL 7
REMARK VINA RESULT:    -2.696      1.536      2.068
REMARK INTER + INTRA:          -3.472
REMARK INTER:                  -3.259
REMARK INTRA:                  -0.213
REMARK UNBOUND:                -0.224
REMARK SMILES OCC(O)CO
REMARK SMILES IDX 3 1 5 2 6 3 2 5 1 6 4 8
REMARK H PARENT 6 4 1 7 4 9
REMARK Flexibility Score: inf
ROOT
ATOM      1  C   UNL     1      20.584  13.449 -16.803  1.00  0.00     0.165 C 
ENDROOT
BRANCH   1   2
ATOM      2  C   UNL     1      20.542  14.712 -15.931  1.00  0.00     0.190 C 
BRANCH   2   3
ATOM      3  O   UNL     1      19.827  14.468 -14.750  1.00  0.00    -0.394 OA
ATOM      4  H   UNL     1      19.057  13.893 -14.997  1.00  0.00     0.210 HD
ENDBRANCH   2   3
ENDBRANCH   1   2
BRANCH   1   5
ATOM      5  C   UNL     1      19.171  13.037 -17.250  1.00  0.00     0.190 C 
BRANCH   5   6
ATOM      6  O   UNL     1      18.345  14.161 -17.398  1.00  0.00    -0.394 OA
ATOM      7  H   UNL     1      17.706  14.145 -16.638  1.00  0.00     0.210 HD
ENDBRANCH   5   6
ENDBRANCH   1   5
BRANCH   1   8
ATOM      8  O   UNL     1      21.168  12.404 -16.067  1.00  0.00    -0.388 OA
ATOM      9  H   UNL     1      21.124  12.667 -15.111  1.00  0.00     0.211 HD
ENDBRANCH   1   8
TORSDOF 5
ENDMDL
MODEL 8
REMARK VINA RESULT:    -2.677      2.360      2.834
REMARK INTER + INTRA:          -3.449
REMARK INTER:                  -3.230
REMARK INTRA:                  -0.219
REMARK UNBOUND:                -0.224
REMARK SMILES OCC(O)CO
REMARK SMILES IDX 3 1 5 2 6 3 2 5 1 6 4 8
REMARK H PARENT 6 4 1 7 4 9
REMARK Flexibility Score: inf
ROOT
ATOM      1  C   UNL     1      19.735  14.537 -17.446  1.00  0.00     0.165 C 
ENDROOT
BRANCH   1   2
ATOM      2  C   UNL     1      20.148  14.579 -15.967  1.00  0.00     0.190 C 
BRANCH   2   3
ATOM      3  O   UNL     1      20.636  15.851 -15.632  1.00  0.00    -0.394 OA
ATOM      4  H   UNL     1      21.293  15.720 -14.901  1.00  0.00     0.210 HD
ENDBRANCH   2   3
ENDBRANCH   1   2
BRANCH   1   5
ATOM      5  C   UNL     1      20.052  15.868 -18.147  1.00  0.00     0.190 C 
BRANCH   5   6
ATOM      6  O   UNL     1      19.000  16.782 -17.988  1.00  0.00    -0.394 OA
ATOM      7  H   UNL     1      18.264  16.292 -17.536  1.00  0.00     0.210 HD
ENDBRANCH   5   6
ENDBRANCH   1   5
BRANCH   1   8
ATOM      8  O   UNL     1      18.357  14.278 -17.528  1.00  0.00    -0.388 OA
ATOM      9  H   UNL     1      18.259  13.339 -17.835  1.00  0.00     0.211 HD
ENDBRANCH   1   8
TORSDOF 5
ENDMDL
MODEL 9
REMARK VINA RESULT:    -2.618      1.461      2.183
REMARK INTER + INTRA:          -3.378
REMARK INTER:                  -3.169
REMARK INTRA:                  -0.209
REMARK UNBOUND:                -0.224
REMARK SMILES OCC(O)CO
REMARK SMILES IDX 3 1 5 2 6 3 2 5 1 6 4 8
REMARK H PARENT 6 4 1 7 4 9
REMARK Flexibility Score: inf
ROOT
ATOM      1  C   UNL     1      19.944  14.689 -16.594  1.00  0.00     0.165 C 
ENDROOT
BRANCH   1   2
ATOM      2  C   UNL     1      20.656  16.042 -16.443  1.00  0.00     0.190 C 
BRANCH   2   3
ATOM      3  O   UNL     1      21.979  15.854 -16.017  1.00  0.00    -0.394 OA
ATOM      4  H   UNL     1      21.947  15.743 -15.031  1.00  0.00     0.210 HD
ENDBRANCH   2   3
ENDBRANCH   1   2
BRANCH   1   5
ATOM      5  C   UNL     1      20.930  13.591 -17.024  1.00  0.00     0.190 C 
BRANCH   5   6
ATOM      6  O   UNL     1      21.367  12.847 -15.919  1.00  0.00    -0.394 OA
ATOM      7  H   UNL     1      21.504  13.493 -15.178  1.00  0.00     0.210 HD
ENDBRANCH   5   6
ENDBRANCH   1   5
BRANCH   1   8
ATOM      8  O   UNL     1      18.928  14.812 -17.555  1.00  0.00    -0.388 OA
ATOM      9  H   UNL     1      18.112  15.112 -17.074  1.00  0.00     0.211 HD
ENDBRANCH   1   8
TORSDOF 5
ENDMDL
