MODEL 1
REMARK VINA RESULT:    -3.937      0.000      0.000
REMARK INTER + INTRA:         -12.862
REMARK INTER:                  -9.000
REMARK INTRA:                  -3.862
REMARK UNBOUND:                -3.862
REMARK SMILES CCCCCCCCCCCCCCCCCCCCCCCC(=O)[O-]
REMARK SMILES IDX 13 1 14 2 15 3 16 4 17 5 18 6 19 7 20 8 21 9 22 10 23 11
REMARK SMILES IDX 24 12 25 13 26 14 12 15 11 16 10 17 9 18 8 19 7 20 6 21 5 22
REMARK SMILES IDX 4 23 3 24 2 25 1 26
REMARK H PARENT
REMARK Flexibility Score: inf
ROOT
ATOM      1  C   UNL     1      16.487  17.348  15.740  1.00  0.00     0.000 C 
ENDROOT
BRANCH   1   2
ATOM      2  C   UNL     1      16.637  17.739  14.258  1.00  0.00     0.000 C 
BRANCH   2   3
ATOM      3  C   UNL     1      17.189  19.155  14.007  1.00  0.00     0.000 C 
BRANCH   3   4
ATOM      4  C   UNL     1      18.011  19.699  15.185  1.00  0.00     0.000 C 
BRANCH   4   5
ATOM      5  C   UNL     1      19.455  20.002  14.758  1.00  0.00     0.000 C 
BRANCH   5   6
ATOM      6  C   UNL     1      20.488  19.195  15.565  1.00  0.00     0.000 C 
BRANCH   6   7
ATOM      7  C   UNL     1      20.018  17.763  15.910  1.00  0.00     0.000 C 
BRANCH   7   8
ATOM      8  C   UNL     1      19.916  17.495  17.421  1.00  0.00     0.000 C 
BRANCH   8   9
ATOM      9  C   UNL     1      21.086  18.096  18.210  1.00  0.00     0.000 C 
BRANCH   9  10
ATOM     10  C   UNL     1      21.788  17.023  19.056  1.00  0.00     0.006 C 
BRANCH  10  11
ATOM     11  C   UNL     1      21.417  17.122  20.541  1.00  0.00     0.053 C 
BRANCH  11  12
ATOM     12  C   UNL     1      20.187  16.328  20.862  1.00  0.00     0.041 C 
ATOM     13  O   UNL     1      19.358  16.760  21.705  1.00  0.00    -0.550 OA
ATOM     14  O   UNL     1      19.976  15.095  20.256  1.00  0.00    -0.550 OA
ENDBRANCH  11  12
ENDBRANCH  10  11
ENDBRANCH   9  10
ENDBRANCH   8   9
ENDBRANCH   7   8
ENDBRANCH   6   7
ENDBRANCH   5   6
ENDBRANCH   4   5
ENDBRANCH   3   4
ENDBRANCH   2   3
ENDBRANCH   1   2
BRANCH   1  15
ATOM     15  C   UNL     1      15.151  16.647  16.046  1.00  0.00     0.000 C 
BRANCH  15  16
ATOM     16  C   UNL     1      14.616  16.990  17.446  1.00  0.00     0.000 C 
BRANCH  16  17
ATOM     17  C   UNL     1      15.312  18.211  18.066  1.00  0.00     0.000 C 
BRANCH  17  18
ATOM     18  C   UNL     1      14.347  19.399  18.165  1.00  0.00    -0.000 C 
BRANCH  18  19
ATOM     19  C   UNL     1      14.713  20.490  17.148  1.00  0.00    -0.000 C 
BRANCH  19  20
ATOM     20  C   UNL     1      13.567  20.803  16.171  1.00  0.00    -0.000 C 
BRANCH  20  21
ATOM     21  C   UNL     1      13.783  20.285  14.736  1.00  0.00    -0.000 C 
BRANCH  21  22
ATOM     22  C   UNL     1      12.919  19.054  14.384  1.00  0.00    -0.000 C 
BRANCH  22  23
ATOM     23  C   UNL     1      11.901  18.723  15.487  1.00  0.00    -0.000 C 
BRANCH  23  24
ATOM     24  C   UNL     1      11.370  17.283  15.393  1.00  0.00    -0.000 C 
BRANCH  24  25
ATOM     25  C   UNL     1      10.996  16.676  16.762  1.00  0.00    -0.003 C 
ATOM     26  C   UNL     1      11.384  15.202  16.871  1.00  0.00     0.004 C 
ENDBRANCH  24  25
ENDBRANCH  23  24
ENDBRANCH  22  23
ENDBRANCH  21  22
ENDBRANCH  20  21
ENDBRANCH  19  20
ENDBRANCH  18  19
ENDBRANCH  17  18
ENDBRANCH  16  17
ENDBRANCH  15  16
ENDBRANCH   1  15
TORSDOF 22
ENDMDL
MODEL 2
REMARK VINA RESULT:    -3.916      1.669      4.569
REMARK INTER + INTRA:         -12.814
REMARK INTER:                  -9.135
REMARK INTRA:                  -3.679
REMARK UNBOUND:                -3.862
REMARK SMILES CCCCCCCCCCCCCCCCCCCCCCCC(=O)[O-]
REMARK SMILES IDX 13 1 14 2 15 3 16 4 17 5 18 6 19 7 20 8 21 9 22 10 23 11
REMARK SMILES IDX 24 12 25 13 26 14 12 15 11 16 10 17 9 18 8 19 7 20 6 21 5 22
REMARK SMILES IDX 4 23 3 24 2 25 1 26
REMARK H PARENT
REMARK Flexibility Score: inf
ROOT
ATOM      1  C   UNL     1      11.822  15.482  16.889  1.00  0.00     0.000 C 
ENDROOT
BRANCH   1   2
ATOM      2  C   UNL     1      13.096  15.557  17.751  1.00  0.00     0.000 C 
BRANCH   2   3
ATOM      3  C   UNL     1      14.149  16.576  17.275  1.00  0.00     0.000 C 
BRANCH   3   4
ATOM      4  C   UNL     1      14.805  16.186  15.942  1.00  0.00     0.000 C 
BRANCH   4   5
ATOM      5  C   UNL     1      16.178  16.858  15.785  1.00  0.00     0.000 C 
BRANCH   5   6
ATOM      6  C   UNL     1      16.487  17.836  16.933  1.00  0.00     0.000 C 
BRANCH   6   7
ATOM      7  C   UNL     1      17.632  18.823  16.609  1.00  0.00     0.000 C 
BRANCH   7   8
ATOM      8  C   UNL     1      18.556  18.346  15.476  1.00  0.00     0.000 C 
BRANCH   8   9
ATOM      9  C   UNL     1      19.984  18.060  15.958  1.00  0.00     0.000 C 
BRANCH   9  10
ATOM     10  C   UNL     1      19.981  17.082  17.142  1.00  0.00     0.006 C 
BRANCH  10  11
ATOM     11  C   UNL     1      20.803  17.604  18.327  1.00  0.00     0.053 C 
BRANCH  11  12
ATOM     12  C   UNL     1      21.216  16.496  19.248  1.00  0.00     0.041 C 
ATOM     13  O   UNL     1      20.421  15.551  19.496  1.00  0.00    -0.550 OA
ATOM     14  O   UNL     1      22.463  16.529  19.862  1.00  0.00    -0.550 OA
ENDBRANCH  11  12
ENDBRANCH  10  11
ENDBRANCH   9  10
ENDBRANCH   8   9
ENDBRANCH   7   8
ENDBRANCH   6   7
ENDBRANCH   5   6
ENDBRANCH   4   5
ENDBRANCH   3   4
ENDBRANCH   2   3
ENDBRANCH   1   2
BRANCH   1  15
ATOM     15  C   UNL     1      11.199  16.863  16.614  1.00  0.00     0.000 C 
BRANCH  15  16
ATOM     16  C   UNL     1      11.101  17.171  15.111  1.00  0.00     0.000 C 
BRANCH  16  17
ATOM     17  C   UNL     1      12.046  18.300  14.673  1.00  0.00     0.000 C 
BRANCH  17  18
ATOM     18  C   UNL     1      12.210  19.341  15.787  1.00  0.00    -0.000 C 
BRANCH  18  19
ATOM     19  C   UNL     1      13.638  19.908  15.803  1.00  0.00    -0.000 C 
BRANCH  19  20
ATOM     20  C   UNL     1      13.949  20.702  17.083  1.00  0.00    -0.000 C 
BRANCH  20  21
ATOM     21  C   UNL     1      14.024  19.854  18.367  1.00  0.00    -0.000 C 
BRANCH  21  22
ATOM     22  C   UNL     1      14.292  20.682  19.643  1.00  0.00    -0.000 C 
BRANCH  22  23
ATOM     23  C   UNL     1      15.397  20.066  20.515  1.00  0.00    -0.000 C 
BRANCH  23  24
ATOM     24  C   UNL     1      16.810  20.418  20.022  1.00  0.00    -0.000 C 
BRANCH  24  25
ATOM     25  C   UNL     1      17.899  19.454  20.538  1.00  0.00    -0.003 C 
ATOM     26  C   UNL     1      17.477  17.989  20.427  1.00  0.00     0.004 C 
ENDBRANCH  24  25
ENDBRANCH  23  24
ENDBRANCH  22  23
ENDBRANCH  21  22
ENDBRANCH  20  21
ENDBRANCH  19  20
ENDBRANCH  18  19
ENDBRANCH  17  18
ENDBRANCH  16  17
ENDBRANCH  15  16
ENDBRANCH   1  15
TORSDOF 22
ENDMDL
MODEL 3
REMARK VINA RESULT:    -3.837      4.477      9.023
REMARK INTER + INTRA:         -12.634
REMARK INTER:                  -9.003
REMARK INTRA:                  -3.631
REMARK UNBOUND:                -3.862
REMARK SMILES CCCCCCCCCCCCCCCCCCCCCCCC(=O)[O-]
REMARK SMILES IDX 13 1 14 2 15 3 16 4 17 5 18 6 19 7 20 8 21 9 22 10 23 11
REMARK SMILES IDX 24 12 25 13 26 14 12 15 11 16 10 17 9 18 8 19 7 20 6 21 5 22
REMARK SMILES IDX 4 23 3 24 2 25 1 26
REMARK H PARENT
REMARK Flexibility Score: inf
ROOT
ATOM      1  C   UNL     1      13.253  15.852  17.626  1.00  0.00     0.000 C 
ENDROOT
BRANCH   1   2
ATOM      2  C   UNL     1      11.983  15.541  16.811  1.00  0.00     0.000 C 
BRANCH   2   3
ATOM      3  C   UNL     1      11.106  16.762  16.475  1.00  0.00     0.000 C 
BRANCH   3   4
ATOM      4  C   UNL     1      10.990  17.022  14.965  1.00  0.00     0.000 C 
BRANCH   4   5
ATOM      5  C   UNL     1      11.758  18.291  14.563  1.00  0.00     0.000 C 
BRANCH   5   6
ATOM      6  C   UNL     1      11.633  19.411  15.613  1.00  0.00     0.000 C 
BRANCH   6   7
ATOM      7  C   UNL     1      10.968  20.695  15.067  1.00  0.00     0.000 C 
BRANCH   7   8
ATOM      8  C   UNL     1      10.392  20.537  13.650  1.00  0.00     0.000 C 
BRANCH   8   9
ATOM      9  C   UNL     1       8.859  20.594  13.624  1.00  0.00     0.000 C 
BRANCH   9  10
ATOM     10  C   UNL     1       8.291  19.646  12.556  1.00  0.00     0.006 C 
BRANCH  10  11
ATOM     11  C   UNL     1       9.382  18.786  11.905  1.00  0.00     0.053 C 
BRANCH  11  12
ATOM     12  C   UNL     1       8.928  17.373  11.701  1.00  0.00     0.041 C 
ATOM     13  O   UNL     1       7.700  17.111  11.609  1.00  0.00    -0.550 OA
ATOM     14  O   UNL     1       9.860  16.343  11.649  1.00  0.00    -0.550 OA
ENDBRANCH  11  12
ENDBRANCH  10  11
ENDBRANCH   9  10
ENDBRANCH   8   9
ENDBRANCH   7   8
ENDBRANCH   6   7
ENDBRANCH   5   6
ENDBRANCH   4   5
ENDBRANCH   3   4
ENDBRANCH   2   3
ENDBRANCH   1   2
BRANCH   1  15
ATOM     15  C   UNL     1      14.162  16.893  16.949  1.00  0.00     0.000 C 
BRANCH  15  16
ATOM     16  C   UNL     1      15.250  16.244  16.079  1.00  0.00     0.000 C 
BRANCH  16  17
ATOM     17  C   UNL     1      15.934  17.245  15.136  1.00  0.00     0.000 C 
BRANCH  17  18
ATOM     18  C   UNL     1      15.291  18.632  15.250  1.00  0.00    -0.000 C 
BRANCH  18  19
ATOM     19  C   UNL     1      15.990  19.640  14.324  1.00  0.00    -0.000 C 
BRANCH  19  20
ATOM     20  C   UNL     1      17.266  19.071  13.680  1.00  0.00    -0.000 C 
BRANCH  20  21
ATOM     21  C   UNL     1      18.541  19.895  13.936  1.00  0.00    -0.000 C 
BRANCH  21  22
ATOM     22  C   UNL     1      19.172  19.649  15.324  1.00  0.00    -0.000 C 
BRANCH  22  23
ATOM     23  C   UNL     1      19.546  18.174  15.540  1.00  0.00    -0.000 C 
BRANCH  23  24
ATOM     24  C   UNL     1      19.204  17.674  16.953  1.00  0.00    -0.000 C 
BRANCH  24  25
ATOM     25  C   UNL     1      18.723  18.794  17.900  1.00  0.00    -0.003 C 
ATOM     26  C   UNL     1      17.268  18.606  18.330  1.00  0.00     0.004 C 
ENDBRANCH  24  25
ENDBRANCH  23  24
ENDBRANCH  22  23
ENDBRANCH  21  22
ENDBRANCH  20  21
ENDBRANCH  19  20
ENDBRANCH  18  19
ENDBRANCH  17  18
ENDBRANCH  16  17
ENDBRANCH  15  16
ENDBRANCH   1  15
TORSDOF 22
ENDMDL
MODEL 4
REMARK VINA RESULT:    -3.831      2.244      3.976
REMARK INTER + INTRA:         -12.620
REMARK INTER:                  -8.956
REMARK INTRA:                  -3.664
REMARK UNBOUND:                -3.862
REMARK SMILES CCCCCCCCCCCCCCCCCCCCCCCC(=O)[O-]
REMARK SMILES IDX 13 1 14 2 15 3 16 4 17 5 18 6 19 7 20 8 21 9 22 10 23 11
REMARK SMILES IDX 24 12 25 13 26 14 12 15 11 16 10 17 9 18 8 19 7 20 6 21 5 22
REMARK SMILES IDX 4 23 3 24 2 25 1 26
REMARK H PARENT
REMARK Flexibility Score: inf
ROOT
ATOM      1  C   UNL     1      16.340  17.800  14.844  1.00  0.00     0.000 C 
ENDROOT
BRANCH   1   2
ATOM      2  C   UNL     1      15.225  18.861  14.890  1.00  0.00     0.000 C 
BRANCH   2   3
ATOM      3  C   UNL     1      15.702  20.301  15.158  1.00  0.00     0.000 C 
BRANCH   3   4
ATOM      4  C   UNL     1      15.071  20.920  16.415  1.00  0.00     0.000 C 
BRANCH   4   5
ATOM      5  C   UNL     1      13.919  20.049  16.940  1.00  0.00     0.000 C 
BRANCH   5   6
ATOM      6  C   UNL     1      14.157  19.570  18.384  1.00  0.00     0.000 C 
BRANCH   6   7
ATOM      7  C   UNL     1      15.617  19.748  18.860  1.00  0.00     0.000 C 
BRANCH   7   8
ATOM      8  C   UNL     1      16.433  18.445  18.844  1.00  0.00     0.000 C 
BRANCH   8   9
ATOM      9  C   UNL     1      17.946  18.693  18.910  1.00  0.00     0.000 C 
BRANCH   9  10
ATOM     10  C   UNL     1      18.565  18.698  17.504  1.00  0.00     0.006 C 
BRANCH  10  11
ATOM     11  C   UNL     1      19.368  17.422  17.220  1.00  0.00     0.053 C 
BRANCH  11  12
ATOM     12  C   UNL     1      20.426  17.189  18.255  1.00  0.00     0.041 C 
ATOM     13  O   UNL     1      21.408  17.972  18.343  1.00  0.00    -0.550 OA
ATOM     14  O   UNL     1      20.346  16.086  19.097  1.00  0.00    -0.550 OA
ENDBRANCH  11  12
ENDBRANCH  10  11
ENDBRANCH   9  10
ENDBRANCH   8   9
ENDBRANCH   7   8
ENDBRANCH   6   7
ENDBRANCH   5   6
ENDBRANCH   4   5
ENDBRANCH   3   4
ENDBRANCH   2   3
ENDBRANCH   1   2
BRANCH   1  15
ATOM     15  C   UNL     1      16.059  16.591  15.755  1.00  0.00     0.000 C 
BRANCH  15  16
ATOM     16  C   UNL     1      14.564  16.236  15.811  1.00  0.00     0.000 C 
BRANCH  16  17
ATOM     17  C   UNL     1      14.005  16.237  17.242  1.00  0.00     0.000 C 
BRANCH  17  18
ATOM     18  C   UNL     1      12.521  15.852  17.252  1.00  0.00    -0.000 C 
BRANCH  18  19
ATOM     19  C   UNL     1      11.639  17.056  16.888  1.00  0.00    -0.000 C 
BRANCH  19  20
ATOM     20  C   UNL     1      10.996  16.925  15.497  1.00  0.00    -0.000 C 
BRANCH  20  21
ATOM     21  C   UNL     1      11.722  17.689  14.374  1.00  0.00    -0.000 C 
BRANCH  21  22
ATOM     22  C   UNL     1      10.872  18.808  13.734  1.00  0.00    -0.000 C 
BRANCH  22  23
ATOM     23  C   UNL     1      10.529  18.511  12.266  1.00  0.00    -0.000 C 
BRANCH  23  24
ATOM     24  C   UNL     1       9.127  17.902  12.095  1.00  0.00    -0.000 C 
BRANCH  24  25
ATOM     25  C   UNL     1       9.141  16.371  11.906  1.00  0.00    -0.003 C 
ATOM     26  C   UNL     1       8.506  15.942  10.583  1.00  0.00     0.004 C 
ENDBRANCH  24  25
ENDBRANCH  23  24
ENDBRANCH  22  23
ENDBRANCH  21  22
ENDBRANCH  20  21
ENDBRANCH  19  20
ENDBRANCH  18  19
ENDBRANCH  17  18
ENDBRANCH  16  17
ENDBRANCH  15  16
ENDBRANCH   1  15
TORSDOF 22
ENDMDL
MODEL 5
REMARK VINA RESULT:    -3.811      5.400      8.647
REMARK INTER + INTRA:         -12.574
REMARK INTER:                  -9.047
REMARK INTRA:                  -3.527
REMARK UNBOUND:                -3.862
REMARK SMILES CCCCCCCCCCCCCCCCCCCCCCCC(=O)[O-]
REMARK SMILES IDX 13 1 14 2 15 3 16 4 17 5 18 6 19 7 20 8 21 9 22 10 23 11
REMARK SMILES IDX 24 12 25 13 26 14 12 15 11 16 10 17 9 18 8 19 7 20 6 21 5 22
REMARK SMILES IDX 4 23 3 24 2 25 1 26
REMARK H PARENT
REMARK Flexibility Score: inf
ROOT
ATOM      1  C   UNL     1       9.618  16.719  11.195  1.00  0.00     0.000 C 
ENDROOT
BRANCH   1   2
ATOM      2  C   UNL     1      10.126  16.896  12.638  1.00  0.00     0.000 C 
BRANCH   2   3
ATOM      3  C   UNL     1      10.945  18.177  12.891  1.00  0.00     0.000 C 
BRANCH   3   4
ATOM      4  C   UNL     1      10.248  19.157  13.846  1.00  0.00     0.000 C 
BRANCH   4   5
ATOM      5  C   UNL     1      11.055  20.457  13.988  1.00  0.00     0.000 C 
BRANCH   5   6
ATOM      6  C   UNL     1      12.563  20.197  14.157  1.00  0.00     0.000 C 
BRANCH   6   7
ATOM      7  C   UNL     1      13.089  20.519  15.574  1.00  0.00     0.000 C 
BRANCH   7   8
ATOM      8  C   UNL     1      14.172  19.544  16.066  1.00  0.00     0.000 C 
BRANCH   8   9
ATOM      9  C   UNL     1      14.180  18.224  15.285  1.00  0.00     0.000 C 
BRANCH   9  10
ATOM     10  C   UNL     1      13.778  17.048  16.187  1.00  0.00     0.006 C 
BRANCH  10  11
ATOM     11  C   UNL     1      12.519  16.332  15.680  1.00  0.00     0.053 C 
BRANCH  11  12
ATOM     12  C   UNL     1      11.321  16.649  16.522  1.00  0.00     0.041 C 
ATOM     13  O   UNL     1      11.294  17.702  17.211  1.00  0.00    -0.550 OA
ATOM     14  O   UNL     1      10.253  15.762  16.575  1.00  0.00    -0.550 OA
ENDBRANCH  11  12
ENDBRANCH  10  11
ENDBRANCH   9  10
ENDBRANCH   8   9
ENDBRANCH   7   8
ENDBRANCH   6   7
ENDBRANCH   5   6
ENDBRANCH   4   5
ENDBRANCH   3   4
ENDBRANCH   2   3
ENDBRANCH   1   2
BRANCH   1  15
ATOM     15  C   UNL     1       8.367  15.826  11.103  1.00  0.00     0.000 C 
BRANCH  15  16
ATOM     16  C   UNL     1       7.100  16.540  11.600  1.00  0.00     0.000 C 
BRANCH  16  17
ATOM     17  C   UNL     1       6.883  17.904  10.927  1.00  0.00     0.000 C 
BRANCH  17  18
ATOM     18  C   UNL     1       6.913  19.036  11.962  1.00  0.00    -0.000 C 
BRANCH  18  19
ATOM     19  C   UNL     1       7.748  20.221  11.455  1.00  0.00    -0.000 C 
BRANCH  19  20
ATOM     20  C   UNL     1       8.260  20.019  10.019  1.00  0.00    -0.000 C 
BRANCH  20  21
ATOM     21  C   UNL     1       9.790  20.088   9.863  1.00  0.00    -0.000 C 
BRANCH  21  22
ATOM     22  C   UNL     1      10.337  19.213   8.713  1.00  0.00    -0.000 C 
BRANCH  22  23
ATOM     23  C   UNL     1      11.386  19.953   7.868  1.00  0.00    -0.000 C 
BRANCH  23  24
ATOM     24  C   UNL     1      11.730  19.212   6.565  1.00  0.00    -0.000 C 
BRANCH  24  25
ATOM     25  C   UNL     1      13.198  18.741   6.497  1.00  0.00    -0.003 C 
ATOM     26  C   UNL     1      14.054  19.339   7.614  1.00  0.00     0.004 C 
ENDBRANCH  24  25
ENDBRANCH  23  24
ENDBRANCH  22  23
ENDBRANCH  21  22
ENDBRANCH  20  21
ENDBRANCH  19  20
ENDBRANCH  18  19
ENDBRANCH  17  18
ENDBRANCH  16  17
ENDBRANCH  15  16
ENDBRANCH   1  15
TORSDOF 22
ENDMDL
MODEL 6
REMARK VINA RESULT:    -3.796      1.483      6.612
REMARK INTER + INTRA:         -12.541
REMARK INTER:                  -8.825
REMARK INTRA:                  -3.717
REMARK UNBOUND:                -3.862
REMARK SMILES CCCCCCCCCCCCCCCCCCCCCCCC(=O)[O-]
REMARK SMILES IDX 13 1 14 2 15 3 16 4 17 5 18 6 19 7 20 8 21 9 22 10 23 11
REMARK SMILES IDX 24 12 25 13 26 14 12 15 11 16 10 17 9 18 8 19 7 20 6 21 5 22
REMARK SMILES IDX 4 23 3 24 2 25 1 26
REMARK H PARENT
REMARK Flexibility Score: inf
ROOT
ATOM      1  C   UNL     1      12.954  15.506  17.622  1.00  0.00     0.000 C 
ENDROOT
BRANCH   1   2
ATOM      2  C   UNL     1      11.748  15.492  16.664  1.00  0.00     0.000 C 
BRANCH   2   3
ATOM      3  C   UNL     1      11.096  16.865  16.413  1.00  0.00     0.000 C 
BRANCH   3   4
ATOM      4  C   UNL     1      11.230  17.337  14.957  1.00  0.00     0.000 C 
BRANCH   4   5
ATOM      5  C   UNL     1      11.481  18.852  14.890  1.00  0.00     0.000 C 
BRANCH   5   6
ATOM      6  C   UNL     1      12.782  19.198  14.143  1.00  0.00     0.000 C 
BRANCH   6   7
ATOM      7  C   UNL     1      13.802  19.973  15.008  1.00  0.00     0.000 C 
BRANCH   7   8
ATOM      8  C   UNL     1      13.382  20.110  16.481  1.00  0.00     0.000 C 
BRANCH   8   9
ATOM      9  C   UNL     1      14.568  20.395  17.411  1.00  0.00     0.000 C 
BRANCH   9  10
ATOM     10  C   UNL     1      14.321  19.817  18.813  1.00  0.00     0.006 C 
BRANCH  10  11
ATOM     11  C   UNL     1      15.330  20.341  19.842  1.00  0.00     0.053 C 
BRANCH  11  12
ATOM     12  C   UNL     1      16.563  19.491  19.894  1.00  0.00     0.041 C 
ATOM     13  O   UNL     1      16.473  18.264  20.161  1.00  0.00    -0.550 OA
ATOM     14  O   UNL     1      17.813  20.062  19.686  1.00  0.00    -0.550 OA
ENDBRANCH  11  12
ENDBRANCH  10  11
ENDBRANCH   9  10
ENDBRANCH   8   9
ENDBRANCH   7   8
ENDBRANCH   6   7
ENDBRANCH   5   6
ENDBRANCH   4   5
ENDBRANCH   3   4
ENDBRANCH   2   3
ENDBRANCH   1   2
BRANCH   1  15
ATOM     15  C   UNL     1      13.956  16.633  17.312  1.00  0.00     0.000 C 
BRANCH  15  16
ATOM     16  C   UNL     1      14.860  16.300  16.115  1.00  0.00     0.000 C 
BRANCH  16  17
ATOM     17  C   UNL     1      16.139  17.150  16.080  1.00  0.00     0.000 C 
BRANCH  17  18
ATOM     18  C   UNL     1      16.536  17.485  14.637  1.00  0.00    -0.000 C 
BRANCH  18  19
ATOM     19  C   UNL     1      17.493  18.686  14.595  1.00  0.00    -0.000 C 
BRANCH  19  20
ATOM     20  C   UNL     1      17.700  19.332  15.976  1.00  0.00    -0.000 C 
BRANCH  20  21
ATOM     21  C   UNL     1      19.166  19.407  16.441  1.00  0.00    -0.000 C 
BRANCH  21  22
ATOM     22  C   UNL     1      19.980  18.130  16.138  1.00  0.00    -0.000 C 
BRANCH  22  23
ATOM     23  C   UNL     1      19.746  17.029  17.184  1.00  0.00    -0.000 C 
BRANCH  23  24
ATOM     24  C   UNL     1      20.036  17.500  18.618  1.00  0.00    -0.000 C 
BRANCH  24  25
ATOM     25  C   UNL     1      20.690  16.414  19.500  1.00  0.00    -0.003 C 
ATOM     26  C   UNL     1      22.217  16.469  19.453  1.00  0.00     0.004 C 
ENDBRANCH  24  25
ENDBRANCH  23  24
ENDBRANCH  22  23
ENDBRANCH  21  22
ENDBRANCH  20  21
ENDBRANCH  19  20
ENDBRANCH  18  19
ENDBRANCH  17  18
ENDBRANCH  16  17
ENDBRANCH  15  16
ENDBRANCH   1  15
TORSDOF 22
ENDMDL
MODEL 7
REMARK VINA RESULT:    -3.796      4.855      9.033
REMARK INTER + INTRA:         -12.540
REMARK INTER:                  -8.978
REMARK INTRA:                  -3.562
REMARK UNBOUND:                -3.862
REMARK SMILES CCCCCCCCCCCCCCCCCCCCCCCC(=O)[O-]
REMARK SMILES IDX 13 1 14 2 15 3 16 4 17 5 18 6 19 7 20 8 21 9 22 10 23 11
REMARK SMILES IDX 24 12 25 13 26 14 12 15 11 16 10 17 9 18 8 19 7 20 6 21 5 22
REMARK SMILES IDX 4 23 3 24 2 25 1 26
REMARK H PARENT
REMARK Flexibility Score: inf
ROOT
ATOM      1  C   UNL     1      16.379  17.717  14.677  1.00  0.00     0.000 C 
ENDROOT
BRANCH   1   2
ATOM      2  C   UNL     1      16.039  16.839  15.895  1.00  0.00     0.000 C 
BRANCH   2   3
ATOM      3  C   UNL     1      14.605  16.277  15.918  1.00  0.00     0.000 C 
BRANCH   3   4
ATOM      4  C   UNL     1      13.954  16.343  17.307  1.00  0.00     0.000 C 
BRANCH   4   5
ATOM      5  C   UNL     1      12.473  15.937  17.243  1.00  0.00     0.000 C 
BRANCH   5   6
ATOM      6  C   UNL     1      11.582  17.055  16.671  1.00  0.00     0.000 C 
BRANCH   6   7
ATOM      7  C   UNL     1      10.885  16.670  15.346  1.00  0.00     0.000 C 
BRANCH   7   8
ATOM      8  C   UNL     1      11.409  17.445  14.126  1.00  0.00     0.000 C 
BRANCH   8   9
ATOM      9  C   UNL     1      10.327  17.681  13.065  1.00  0.00     0.000 C 
BRANCH   9  10
ATOM     10  C   UNL     1      10.223  16.483  12.109  1.00  0.00     0.006 C 
BRANCH  10  11
ATOM     11  C   UNL     1       9.670  16.884  10.735  1.00  0.00     0.053 C 
BRANCH  11  12
ATOM     12  C   UNL     1       8.190  16.671  10.648  1.00  0.00     0.041 C 
ATOM     13  O   UNL     1       7.616  15.887  11.448  1.00  0.00    -0.550 OA
ATOM     14  O   UNL     1       7.451  17.311   9.659  1.00  0.00    -0.550 OA
ENDBRANCH  11  12
ENDBRANCH  10  11
ENDBRANCH   9  10
ENDBRANCH   8   9
ENDBRANCH   7   8
ENDBRANCH   6   7
ENDBRANCH   5   6
ENDBRANCH   4   5
ENDBRANCH   3   4
ENDBRANCH   2   3
ENDBRANCH   1   2
BRANCH   1  15
ATOM     15  C   UNL     1      16.083  19.209  14.910  1.00  0.00     0.000 C 
BRANCH  15  16
ATOM     16  C   UNL     1      14.656  19.596  14.489  1.00  0.00     0.000 C 
BRANCH  16  17
ATOM     17  C   UNL     1      13.745  19.905  15.687  1.00  0.00     0.000 C 
BRANCH  17  18
ATOM     18  C   UNL     1      14.567  20.385  16.889  1.00  0.00    -0.000 C 
BRANCH  18  19
ATOM     19  C   UNL     1      14.060  19.746  18.191  1.00  0.00    -0.000 C 
BRANCH  19  20
ATOM     20  C   UNL     1      15.126  19.726  19.300  1.00  0.00    -0.000 C 
BRANCH  20  21
ATOM     21  C   UNL     1      16.087  18.523  19.250  1.00  0.00    -0.000 C 
BRANCH  21  22
ATOM     22  C   UNL     1      17.578  18.916  19.321  1.00  0.00    -0.000 C 
BRANCH  22  23
ATOM     23  C   UNL     1      18.220  19.021  17.929  1.00  0.00    -0.000 C 
BRANCH  23  24
ATOM     24  C   UNL     1      19.096  17.805  17.585  1.00  0.00    -0.000 C 
BRANCH  24  25
ATOM     25  C   UNL     1      20.331  18.161  16.731  1.00  0.00    -0.003 C 
ATOM     26  C   UNL     1      19.956  18.562  15.304  1.00  0.00     0.004 C 
ENDBRANCH  24  25
ENDBRANCH  23  24
ENDBRANCH  22  23
ENDBRANCH  21  22
ENDBRANCH  20  21
ENDBRANCH  19  20
ENDBRANCH  18  19
ENDBRANCH  17  18
ENDBRANCH  16  17
ENDBRANCH  15  16
ENDBRANCH   1  15
TORSDOF 22
ENDMDL
MODEL 8
REMARK VINA RESULT:    -3.771      2.386      4.193
REMARK INTER + INTRA:         -12.483
REMARK INTER:                  -9.563
REMARK INTRA:                  -2.919
REMARK UNBOUND:                -3.862
REMARK SMILES CCCCCCCCCCCCCCCCCCCCCCCC(=O)[O-]
REMARK SMILES IDX 13 1 14 2 15 3 16 4 17 5 18 6 19 7 20 8 21 9 22 10 23 11
REMARK SMILES IDX 24 12 25 13 26 14 12 15 11 16 10 17 9 18 8 19 7 20 6 21 5 22
REMARK SMILES IDX 4 23 3 24 2 25 1 26
REMARK H PARENT
REMARK Flexibility Score: inf
ROOT
ATOM      1  C   UNL     1      13.265  15.813  17.603  1.00  0.00     0.000 C 
ENDROOT
BRANCH   1   2
ATOM      2  C   UNL     1      13.600  17.316  17.619  1.00  0.00     0.000 C 
BRANCH   2   3
ATOM      3  C   UNL     1      14.887  17.708  16.868  1.00  0.00     0.000 C 
BRANCH   3   4
ATOM      4  C   UNL     1      15.410  16.595  15.948  1.00  0.00     0.000 C 
BRANCH   4   5
ATOM      5  C   UNL     1      16.389  17.156  14.904  1.00  0.00     0.000 C 
BRANCH   5   6
ATOM      6  C   UNL     1      16.458  18.694  14.931  1.00  0.00     0.000 C 
BRANCH   6   7
ATOM      7  C   UNL     1      17.298  19.293  13.780  1.00  0.00     0.000 C 
BRANCH   7   8
ATOM      8  C   UNL     1      18.749  19.615  14.179  1.00  0.00     0.000 C 
BRANCH   8   9
ATOM      9  C   UNL     1      19.041  19.304  15.653  1.00  0.00     0.000 C 
BRANCH   9  10
ATOM     10  C   UNL     1      19.978  18.095  15.785  1.00  0.00     0.006 C 
BRANCH  10  11
ATOM     11  C   UNL     1      19.661  17.248  17.024  1.00  0.00     0.053 C 
BRANCH  11  12
ATOM     12  C   UNL     1      20.728  17.368  18.069  1.00  0.00     0.041 C 
ATOM     13  O   UNL     1      20.946  16.415  18.862  1.00  0.00    -0.550 OA
ATOM     14  O   UNL     1      21.455  18.547  18.190  1.00  0.00    -0.550 OA
ENDBRANCH  11  12
ENDBRANCH  10  11
ENDBRANCH   9  10
ENDBRANCH   8   9
ENDBRANCH   7   8
ENDBRANCH   6   7
ENDBRANCH   5   6
ENDBRANCH   4   5
ENDBRANCH   3   4
ENDBRANCH   2   3
ENDBRANCH   1   2
BRANCH   1  15
ATOM     15  C   UNL     1      11.877  15.512  17.010  1.00  0.00     0.000 C 
BRANCH  15  16
ATOM     16  C   UNL     1      11.126  16.789  16.601  1.00  0.00     0.000 C 
BRANCH  16  17
ATOM     17  C   UNL     1      10.987  16.936  15.078  1.00  0.00     0.000 C 
BRANCH  17  18
ATOM     18  C   UNL     1      11.972  17.979  14.537  1.00  0.00    -0.000 C 
BRANCH  18  19
ATOM     19  C   UNL     1      11.665  19.372  15.107  1.00  0.00    -0.000 C 
BRANCH  19  20
ATOM     20  C   UNL     1      11.208  20.370  14.029  1.00  0.00    -0.000 C 
BRANCH  20  21
ATOM     21  C   UNL     1       9.681  20.499  13.874  1.00  0.00    -0.000 C 
BRANCH  21  22
ATOM     22  C   UNL     1       9.088  19.582  12.781  1.00  0.00    -0.000 C 
BRANCH  22  23
ATOM     23  C   UNL     1      10.100  19.274  11.667  1.00  0.00    -0.000 C 
BRANCH  23  24
ATOM     24  C   UNL     1       9.709  18.045  10.830  1.00  0.00    -0.000 C 
BRANCH  24  25
ATOM     25  C   UNL     1       9.874  16.710  11.587  1.00  0.00    -0.003 C 
ATOM     26  C   UNL     1       8.555  15.948  11.716  1.00  0.00     0.004 C 
ENDBRANCH  24  25
ENDBRANCH  23  24
ENDBRANCH  22  23
ENDBRANCH  21  22
ENDBRANCH  20  21
ENDBRANCH  19  20
ENDBRANCH  18  19
ENDBRANCH  17  18
ENDBRANCH  16  17
ENDBRANCH  15  16
ENDBRANCH   1  15
TORSDOF 22
ENDMDL
MODEL 9
REMARK VINA RESULT:    -3.757      4.538      8.960
REMARK INTER + INTRA:         -12.452
REMARK INTER:                  -8.559
REMARK INTRA:                  -3.893
REMARK UNBOUND:                -3.862
REMARK SMILES CCCCCCCCCCCCCCCCCCCCCCCC(=O)[O-]
REMARK SMILES IDX 13 1 14 2 15 3 16 4 17 5 18 6 19 7 20 8 21 9 22 10 23 11
REMARK SMILES IDX 24 12 25 13 26 14 12 15 11 16 10 17 9 18 8 19 7 20 6 21 5 22
REMARK SMILES IDX 4 23 3 24 2 25 1 26
REMARK H PARENT
REMARK Flexibility Score: inf
ROOT
ATOM      1  C   UNL     1      14.533  16.289  16.298  1.00  0.00     0.000 C 
ENDROOT
BRANCH   1   2
ATOM      2  C   UNL     1      13.583  16.230  17.508  1.00  0.00     0.000 C 
BRANCH   2   3
ATOM      3  C   UNL     1      12.250  15.498  17.258  1.00  0.00     0.000 C 
BRANCH   3   4
ATOM      4  C   UNL     1      11.093  16.452  16.925  1.00  0.00     0.000 C 
BRANCH   4   5
ATOM      5  C   UNL     1      10.623  16.264  15.473  1.00  0.00     0.000 C 
BRANCH   5   6
ATOM      6  C   UNL     1      11.433  17.116  14.479  1.00  0.00     0.000 C 
BRANCH   6   7
ATOM      7  C   UNL     1      11.224  18.637  14.658  1.00  0.00     0.000 C 
BRANCH   7   8
ATOM      8  C   UNL     1      10.902  19.373  13.347  1.00  0.00     0.000 C 
BRANCH   8   9
ATOM      9  C   UNL     1       9.394  19.521  13.106  1.00  0.00     0.000 C 
BRANCH   9  10
ATOM     10  C   UNL     1       8.999  18.960  11.731  1.00  0.00     0.006 C 
BRANCH  10  11
ATOM     11  C   UNL     1       9.890  17.785  11.307  1.00  0.00     0.053 C 
BRANCH  11  12
ATOM     12  C   UNL     1       9.117  16.504  11.221  1.00  0.00     0.041 C 
ATOM     13  O   UNL     1       8.889  15.833  12.261  1.00  0.00    -0.550 OA
ATOM     14  O   UNL     1       8.683  16.034   9.987  1.00  0.00    -0.550 OA
ENDBRANCH  11  12
ENDBRANCH  10  11
ENDBRANCH   9  10
ENDBRANCH   8   9
ENDBRANCH   7   8
ENDBRANCH   6   7
ENDBRANCH   5   6
ENDBRANCH   4   5
ENDBRANCH   3   4
ENDBRANCH   2   3
ENDBRANCH   1   2
BRANCH   1  15
ATOM     15  C   UNL     1      14.758  17.721  15.778  1.00  0.00     0.000 C 
BRANCH  15  16
ATOM     16  C   UNL     1      14.260  18.787  16.767  1.00  0.00     0.000 C 
BRANCH  16  17
ATOM     17  C   UNL     1      14.917  20.158  16.544  1.00  0.00     0.000 C 
BRANCH  17  18
ATOM     18  C   UNL     1      15.809  20.537  17.732  1.00  0.00    -0.000 C 
BRANCH  18  19
ATOM     19  C   UNL     1      15.786  19.441  18.808  1.00  0.00    -0.000 C 
BRANCH  19  20
ATOM     20  C   UNL     1      17.121  18.684  18.916  1.00  0.00    -0.000 C 
BRANCH  20  21
ATOM     21  C   UNL     1      18.127  18.985  17.789  1.00  0.00    -0.000 C 
BRANCH  21  22
ATOM     22  C   UNL     1      18.412  17.776  16.872  1.00  0.00    -0.000 C 
BRANCH  22  23
ATOM     23  C   UNL     1      18.352  18.149  15.382  1.00  0.00    -0.000 C 
BRANCH  23  24
ATOM     24  C   UNL     1      18.396  19.668  15.147  1.00  0.00    -0.000 C 
BRANCH  24  25
ATOM     25  C   UNL     1      17.765  20.100  13.807  1.00  0.00    -0.003 C 
ATOM     26  C   UNL     1      17.020  18.956  13.119  1.00  0.00     0.004 C 
ENDBRANCH  24  25
ENDBRANCH  23  24
ENDBRANCH  22  23
ENDBRANCH  21  22
ENDBRANCH  20  21
ENDBRANCH  19  20
ENDBRANCH  18  19
ENDBRANCH  17  18
ENDBRANCH  16  17
ENDBRANCH  15  16
ENDBRANCH   1  15
TORSDOF 22
ENDMDL
