MODEL 1
REMARK VINA RESULT:    -1.914      0.000      0.000
REMARK INTER + INTRA:          -5.462
REMARK INTER:                  -3.481
REMARK INTRA:                  -1.980
REMARK UNBOUND:                -1.980
REMARK SMILES CCCCCCCCCCCCCCCC(=O)[O-]
REMARK SMILES IDX 9 1 10 2 11 3 12 4 13 5 14 6 15 7 16 8 17 9 18 10 8 11 7 12
REMARK SMILES IDX 6 13 5 14 4 15 3 16 2 17 1 18
REMARK H PARENT
REMARK Flexibility Score: inf
ROOT
ATOM      1  C   UNL     1     115.505  14.811  25.333  1.00  0.00     0.000 C 
ENDROOT
BRANCH   1   2
ATOM      2  C   UNL     1     116.337  13.518  25.398  1.00  0.00     0.000 C 
BRANCH   2   3
ATOM      3  C   UNL     1     115.560  12.280  24.917  1.00  0.00     0.000 C 
BRANCH   3   4
ATOM      4  C   UNL     1     115.672  11.983  23.410  1.00  0.00     0.000 C 
BRANCH   4   5
ATOM      5  C   UNL     1     116.957  12.544  22.782  1.00  0.00     0.000 C 
BRANCH   5   6
ATOM      6  C   UNL     1     116.630  13.512  21.636  1.00  0.00     0.006 C 
BRANCH   6   7
ATOM      7  C   UNL     1     117.886  14.187  21.070  1.00  0.00     0.053 C 
BRANCH   7   8
ATOM      8  C   UNL     1     118.230  15.437  21.820  1.00  0.00     0.041 C 
ATOM      9  O   UNL     1     117.414  16.394  21.868  1.00  0.00    -0.550 OA
ATOM     10  O   UNL     1     119.468  15.557  22.439  1.00  0.00    -0.550 OA
ENDBRANCH   7   8
ENDBRANCH   6   7
ENDBRANCH   5   6
ENDBRANCH   4   5
ENDBRANCH   3   4
ENDBRANCH   2   3
ENDBRANCH   1   2
BRANCH   1  11
ATOM     11  C   UNL     1     116.380  16.068  25.205  1.00  0.00     0.000 C 
BRANCH  11  12
ATOM     12  C   UNL     1     117.286  16.284  26.430  1.00  0.00    -0.000 C 
BRANCH  12  13
ATOM     13  C   UNL     1     116.528  16.886  27.623  1.00  0.00    -0.000 C 
BRANCH  13  14
ATOM     14  C   UNL     1     116.561  15.976  28.864  1.00  0.00    -0.000 C 
BRANCH  14  15
ATOM     15  C   UNL     1     117.499  14.770  28.691  1.00  0.00    -0.000 C 
BRANCH  15  16
ATOM     16  C   UNL     1     116.899  13.418  29.123  1.00  0.00    -0.000 C 
BRANCH  16  17
ATOM     17  C   UNL     1     115.360  13.354  29.010  1.00  0.00    -0.003 C 
ATOM     18  C   UNL     1     114.859  11.966  28.613  1.00  0.00     0.004 C 
ENDBRANCH  16  17
ENDBRANCH  15  16
ENDBRANCH  14  15
ENDBRANCH  13  14
ENDBRANCH  12  13
ENDBRANCH  11  12
ENDBRANCH   1  11
TORSDOF 14
ENDMDL
MODEL 2
REMARK VINA RESULT:    -1.903      1.658      2.983
REMARK INTER + INTRA:          -5.440
REMARK INTER:                  -3.356
REMARK INTRA:                  -2.084
REMARK UNBOUND:                -1.980
REMARK SMILES CCCCCCCCCCCCCCCC(=O)[O-]
REMARK SMILES IDX 9 1 10 2 11 3 12 4 13 5 14 6 15 7 16 8 17 9 18 10 8 11 7 12
REMARK SMILES IDX 6 13 5 14 4 15 3 16 2 17 1 18
REMARK H PARENT
REMARK Flexibility Score: inf
ROOT
ATOM      1  C   UNL     1     116.409  12.350  23.686  1.00  0.00     0.000 C 
ENDROOT
BRANCH   1   2
ATOM      2  C   UNL     1     115.808  13.286  22.624  1.00  0.00     0.000 C 
BRANCH   2   3
ATOM      3  C   UNL     1     116.861  13.840  21.647  1.00  0.00     0.000 C 
BRANCH   3   4
ATOM      4  C   UNL     1     118.050  14.562  22.308  1.00  0.00     0.000 C 
BRANCH   4   5
ATOM      5  C   UNL     1     117.649  15.882  22.985  1.00  0.00     0.000 C 
BRANCH   5   6
ATOM      6  C   UNL     1     118.851  16.522  23.694  1.00  0.00     0.006 C 
BRANCH   6   7
ATOM      7  C   UNL     1     120.150  16.363  22.892  1.00  0.00     0.053 C 
BRANCH   7   8
ATOM      8  C   UNL     1     120.308  17.448  21.872  1.00  0.00     0.041 C 
ATOM      9  O   UNL     1     120.457  17.158  20.656  1.00  0.00    -0.550 OA
ATOM     10  O   UNL     1     120.325  18.779  22.269  1.00  0.00    -0.550 OA
ENDBRANCH   7   8
ENDBRANCH   6   7
ENDBRANCH   5   6
ENDBRANCH   4   5
ENDBRANCH   3   4
ENDBRANCH   2   3
ENDBRANCH   1   2
BRANCH   1  11
ATOM     11  C   UNL     1     116.136  12.832  25.119  1.00  0.00     0.000 C 
BRANCH  11  12
ATOM     12  C   UNL     1     115.090  13.960  25.173  1.00  0.00    -0.000 C 
BRANCH  12  13
ATOM     13  C   UNL     1     115.520  15.116  26.090  1.00  0.00    -0.000 C 
BRANCH  13  14
ATOM     14  C   UNL     1     116.996  15.015  26.516  1.00  0.00    -0.000 C 
BRANCH  14  15
ATOM     15  C   UNL     1     117.212  15.376  27.995  1.00  0.00    -0.000 C 
BRANCH  15  16
ATOM     16  C   UNL     1     116.292  14.632  28.982  1.00  0.00    -0.000 C 
BRANCH  16  17
ATOM     17  C   UNL     1     116.615  13.129  29.124  1.00  0.00    -0.003 C 
ATOM     18  C   UNL     1     115.434  12.237  28.741  1.00  0.00     0.004 C 
ENDBRANCH  16  17
ENDBRANCH  15  16
ENDBRANCH  14  15
ENDBRANCH  13  14
ENDBRANCH  12  13
ENDBRANCH  11  12
ENDBRANCH   1  11
TORSDOF 14
ENDMDL
MODEL 3
REMARK VINA RESULT:    -1.895      2.724      5.462
REMARK INTER + INTRA:          -5.427
REMARK INTER:                  -2.937
REMARK INTRA:                  -2.489
REMARK UNBOUND:                -1.980
REMARK SMILES CCCCCCCCCCCCCCCC(=O)[O-]
REMARK SMILES IDX 9 1 10 2 11 3 12 4 13 5 14 6 15 7 16 8 17 9 18 10 8 11 7 12
REMARK SMILES IDX 6 13 5 14 4 15 3 16 2 17 1 18
REMARK H PARENT
REMARK Flexibility Score: inf
ROOT
ATOM      1  C   UNL     1     116.496  15.215  22.303  1.00  0.00     0.000 C 
ENDROOT
BRANCH   1   2
ATOM      2  C   UNL     1     116.818  13.820  22.866  1.00  0.00     0.000 C 
BRANCH   2   3
ATOM      3  C   UNL     1     116.386  13.652  24.334  1.00  0.00     0.000 C 
BRANCH   3   4
ATOM      4  C   UNL     1     115.319  14.651  24.820  1.00  0.00     0.000 C 
BRANCH   4   5
ATOM      5  C   UNL     1     115.359  14.880  26.339  1.00  0.00     0.000 C 
BRANCH   5   6
ATOM      6  C   UNL     1     116.637  14.287  26.949  1.00  0.00     0.006 C 
BRANCH   6   7
ATOM      7  C   UNL     1     116.821  14.694  28.418  1.00  0.00     0.053 C 
BRANCH   7   8
ATOM      8  C   UNL     1     117.569  15.984  28.547  1.00  0.00     0.041 C 
ATOM      9  O   UNL     1     116.946  17.065  28.715  1.00  0.00    -0.550 OA
ATOM     10  O   UNL     1     118.955  15.996  28.450  1.00  0.00    -0.550 OA
ENDBRANCH   7   8
ENDBRANCH   6   7
ENDBRANCH   5   6
ENDBRANCH   4   5
ENDBRANCH   3   4
ENDBRANCH   2   3
ENDBRANCH   1   2
BRANCH   1  11
ATOM     11  C   UNL     1     117.663  15.810  21.499  1.00  0.00     0.000 C 
BRANCH  11  12
ATOM     12  C   UNL     1     119.036  15.414  22.071  1.00  0.00    -0.000 C 
BRANCH  12  13
ATOM     13  C   UNL     1     119.841  16.628  22.559  1.00  0.00    -0.000 C 
BRANCH  13  14
ATOM     14  C   UNL     1     120.112  16.588  24.074  1.00  0.00    -0.000 C 
BRANCH  14  15
ATOM     15  C   UNL     1     118.825  16.450  24.903  1.00  0.00    -0.000 C 
BRANCH  15  16
ATOM     16  C   UNL     1     118.213  17.784  25.373  1.00  0.00    -0.000 C 
BRANCH  16  17
ATOM     17  C   UNL     1     117.329  18.472  24.311  1.00  0.00    -0.003 C 
ATOM     18  C   UNL     1     115.851  18.109  24.454  1.00  0.00     0.004 C 
ENDBRANCH  16  17
ENDBRANCH  15  16
ENDBRANCH  14  15
ENDBRANCH  13  14
ENDBRANCH  12  13
ENDBRANCH  11  12
ENDBRANCH   1  11
TORSDOF 14
ENDMDL
MODEL 4
REMARK VINA RESULT:    -1.882      2.476      4.654
REMARK INTER + INTRA:          -5.403
REMARK INTER:                  -2.951
REMARK INTRA:                  -2.452
REMARK UNBOUND:                -1.980
REMARK SMILES CCCCCCCCCCCCCCCC(=O)[O-]
REMARK SMILES IDX 9 1 10 2 11 3 12 4 13 5 14 6 15 7 16 8 17 9 18 10 8 11 7 12
REMARK SMILES IDX 6 13 5 14 4 15 3 16 2 17 1 18
REMARK H PARENT
REMARK Flexibility Score: inf
ROOT
ATOM      1  C   UNL     1     116.210  14.380  22.280  1.00  0.00     0.000 C 
ENDROOT
BRANCH   1   2
ATOM      2  C   UNL     1     117.743  14.394  22.412  1.00  0.00     0.000 C 
BRANCH   2   3
ATOM      3  C   UNL     1     118.329  15.817  22.438  1.00  0.00     0.000 C 
BRANCH   3   4
ATOM      4  C   UNL     1     119.808  15.922  22.020  1.00  0.00     0.000 C 
BRANCH   4   5
ATOM      5  C   UNL     1     120.734  16.305  23.184  1.00  0.00     0.000 C 
BRANCH   5   6
ATOM      6  C   UNL     1     119.921  16.672  24.435  1.00  0.00     0.006 C 
BRANCH   6   7
ATOM      7  C   UNL     1     120.282  18.062  24.975  1.00  0.00     0.053 C 
BRANCH   7   8
ATOM      8  C   UNL     1     119.789  19.153  24.075  1.00  0.00     0.041 C 
ATOM      9  O   UNL     1     120.556  20.094  23.740  1.00  0.00    -0.550 OA
ATOM     10  O   UNL     1     118.472  19.146  23.632  1.00  0.00    -0.550 OA
ENDBRANCH   7   8
ENDBRANCH   6   7
ENDBRANCH   5   6
ENDBRANCH   4   5
ENDBRANCH   3   4
ENDBRANCH   2   3
ENDBRANCH   1   2
BRANCH   1  11
ATOM     11  C   UNL     1     115.552  13.306  23.161  1.00  0.00     0.000 C 
BRANCH  11  12
ATOM     12  C   UNL     1     116.376  12.991  24.422  1.00  0.00    -0.000 C 
BRANCH  12  13
ATOM     13  C   UNL     1     115.571  13.195  25.716  1.00  0.00    -0.000 C 
BRANCH  13  14
ATOM     14  C   UNL     1     116.304  14.087  26.734  1.00  0.00    -0.000 C 
BRANCH  14  15
ATOM     15  C   UNL     1     117.087  15.229  26.067  1.00  0.00    -0.000 C 
BRANCH  15  16
ATOM     16  C   UNL     1     116.406  16.610  26.144  1.00  0.00    -0.000 C 
BRANCH  16  17
ATOM     17  C   UNL     1     115.781  17.072  24.810  1.00  0.00    -0.003 C 
ATOM     18  C   UNL     1     114.331  16.616  24.653  1.00  0.00     0.004 C 
ENDBRANCH  16  17
ENDBRANCH  15  16
ENDBRANCH  14  15
ENDBRANCH  13  14
ENDBRANCH  12  13
ENDBRANCH  11  12
ENDBRANCH   1  11
TORSDOF 14
ENDMDL
MODEL 5
REMARK VINA RESULT:    -1.863      1.953      3.622
REMARK INTER + INTRA:          -5.368
REMARK INTER:                  -2.699
REMARK INTRA:                  -2.669
REMARK UNBOUND:                -1.980
REMARK SMILES CCCCCCCCCCCCCCCC(=O)[O-]
REMARK SMILES IDX 9 1 10 2 11 3 12 4 13 5 14 6 15 7 16 8 17 9 18 10 8 11 7 12
REMARK SMILES IDX 6 13 5 14 4 15 3 16 2 17 1 18
REMARK H PARENT
REMARK Flexibility Score: inf
ROOT
ATOM      1  C   UNL     1     116.898  14.562  27.100  1.00  0.00     0.000 C 
ENDROOT
BRANCH   1   2
ATOM      2  C   UNL     1     115.418  14.872  26.818  1.00  0.00     0.000 C 
BRANCH   2   3
ATOM      3  C   UNL     1     115.048  14.729  25.331  1.00  0.00     0.000 C 
BRANCH   3   4
ATOM      4  C   UNL     1     116.134  14.092  24.445  1.00  0.00     0.000 C 
BRANCH   4   5
ATOM      5  C   UNL     1     116.353  14.847  23.125  1.00  0.00     0.000 C 
BRANCH   5   6
ATOM      6  C   UNL     1     117.601  14.328  22.397  1.00  0.00     0.006 C 
BRANCH   6   7
ATOM      7  C   UNL     1     118.711  15.386  22.322  1.00  0.00     0.053 C 
BRANCH   7   8
ATOM      8  C   UNL     1     119.341  15.434  20.964  1.00  0.00     0.041 C 
ATOM      9  O   UNL     1     119.025  14.587  20.088  1.00  0.00    -0.550 OA
ATOM     10  O   UNL     1     120.302  16.395  20.678  1.00  0.00    -0.550 OA
ENDBRANCH   7   8
ENDBRANCH   6   7
ENDBRANCH   5   6
ENDBRANCH   4   5
ENDBRANCH   3   4
ENDBRANCH   2   3
ENDBRANCH   1   2
BRANCH   1  11
ATOM     11  C   UNL     1     117.521  15.533  28.114  1.00  0.00     0.000 C 
BRANCH  11  12
ATOM     12  C   UNL     1     118.690  16.339  27.519  1.00  0.00    -0.000 C 
BRANCH  12  13
ATOM     13  C   UNL     1     118.648  16.388  25.984  1.00  0.00    -0.000 C 
BRANCH  13  14
ATOM     14  C   UNL     1     118.466  17.818  25.443  1.00  0.00    -0.000 C 
BRANCH  14  15
ATOM     15  C   UNL     1     117.201  17.969  24.583  1.00  0.00    -0.000 C 
BRANCH  15  16
ATOM     16  C   UNL     1     115.919  18.301  25.371  1.00  0.00    -0.000 C 
BRANCH  16  17
ATOM     17  C   UNL     1     116.180  19.036  26.704  1.00  0.00    -0.003 C 
ATOM     18  C   UNL     1     115.341  18.479  27.854  1.00  0.00     0.004 C 
ENDBRANCH  16  17
ENDBRANCH  15  16
ENDBRANCH  14  15
ENDBRANCH  13  14
ENDBRANCH  12  13
ENDBRANCH  11  12
ENDBRANCH   1  11
TORSDOF 14
ENDMDL
MODEL 6
REMARK VINA RESULT:    -1.847      1.606      3.329
REMARK INTER + INTRA:          -5.339
REMARK INTER:                  -2.579
REMARK INTRA:                  -2.760
REMARK UNBOUND:                -1.980
REMARK SMILES CCCCCCCCCCCCCCCC(=O)[O-]
REMARK SMILES IDX 9 1 10 2 11 3 12 4 13 5 14 6 15 7 16 8 17 9 18 10 8 11 7 12
REMARK SMILES IDX 6 13 5 14 4 15 3 16 2 17 1 18
REMARK H PARENT
REMARK Flexibility Score: inf
ROOT
ATOM      1  C   UNL     1     113.286  14.226  27.626  1.00  0.00     0.000 C 
ENDROOT
BRANCH   1   2
ATOM      2  C   UNL     1     112.880  13.392  26.398  1.00  0.00     0.000 C 
BRANCH   2   3
ATOM      3  C   UNL     1     113.934  13.425  25.276  1.00  0.00     0.000 C 
BRANCH   3   4
ATOM      4  C   UNL     1     115.051  12.372  25.399  1.00  0.00     0.000 C 
BRANCH   4   5
ATOM      5  C   UNL     1     116.309  12.736  24.596  1.00  0.00     0.000 C 
BRANCH   5   6
ATOM      6  C   UNL     1     116.039  13.923  23.661  1.00  0.00     0.006 C 
BRANCH   6   7
ATOM      7  C   UNL     1     117.172  14.134  22.648  1.00  0.00     0.053 C 
BRANCH   7   8
ATOM      8  C   UNL     1     117.628  15.560  22.614  1.00  0.00     0.041 C 
ATOM      9  O   UNL     1     118.470  15.977  23.453  1.00  0.00    -0.550 OA
ATOM     10  O   UNL     1     117.098  16.437  21.677  1.00  0.00    -0.550 OA
ENDBRANCH   7   8
ENDBRANCH   6   7
ENDBRANCH   5   6
ENDBRANCH   4   5
ENDBRANCH   3   4
ENDBRANCH   2   3
ENDBRANCH   1   2
BRANCH   1  11
ATOM     11  C   UNL     1     113.669  13.352  28.831  1.00  0.00     0.000 C 
BRANCH  11  12
ATOM     12  C   UNL     1     115.183  13.362  29.110  1.00  0.00    -0.000 C 
BRANCH  12  13
ATOM     13  C   UNL     1     115.842  14.696  28.726  1.00  0.00    -0.000 C 
BRANCH  13  14
ATOM     14  C   UNL     1     117.066  14.509  27.812  1.00  0.00    -0.000 C 
BRANCH  14  15
ATOM     15  C   UNL     1     117.194  15.622  26.758  1.00  0.00    -0.000 C 
BRANCH  15  16
ATOM     16  C   UNL     1     116.056  16.661  26.775  1.00  0.00    -0.000 C 
BRANCH  16  17
ATOM     17  C   UNL     1     115.578  17.084  25.369  1.00  0.00    -0.003 C 
ATOM     18  C   UNL     1     114.058  17.025  25.225  1.00  0.00     0.004 C 
ENDBRANCH  16  17
ENDBRANCH  15  16
ENDBRANCH  14  15
ENDBRANCH  13  14
ENDBRANCH  12  13
ENDBRANCH  11  12
ENDBRANCH   1  11
TORSDOF 14
ENDMDL
MODEL 7
REMARK VINA RESULT:    -1.837      2.164      4.587
REMARK INTER + INTRA:          -5.321
REMARK INTER:                  -2.590
REMARK INTRA:                  -2.732
REMARK UNBOUND:                -1.980
REMARK SMILES CCCCCCCCCCCCCCCC(=O)[O-]
REMARK SMILES IDX 9 1 10 2 11 3 12 4 13 5 14 6 15 7 16 8 17 9 18 10 8 11 7 12
REMARK SMILES IDX 6 13 5 14 4 15 3 16 2 17 1 18
REMARK H PARENT
REMARK Flexibility Score: inf
ROOT
ATOM      1  C   UNL     1     118.824  16.375  27.015  1.00  0.00     0.000 C 
ENDROOT
BRANCH   1   2
ATOM      2  C   UNL     1     117.447  15.945  27.550  1.00  0.00     0.000 C 
BRANCH   2   3
ATOM      3  C   UNL     1     116.846  14.760  26.771  1.00  0.00     0.000 C 
BRANCH   3   4
ATOM      4  C   UNL     1     115.378  14.436  27.107  1.00  0.00     0.000 C 
BRANCH   4   5
ATOM      5  C   UNL     1     114.843  13.215  26.343  1.00  0.00     0.000 C 
BRANCH   5   6
ATOM      6  C   UNL     1     115.878  12.708  25.327  1.00  0.00     0.006 C 
BRANCH   6   7
ATOM      7  C   UNL     1     115.258  12.455  23.947  1.00  0.00     0.053 C 
BRANCH   7   8
ATOM      8  C   UNL     1     116.284  12.524  22.857  1.00  0.00     0.041 C 
ATOM      9  O   UNL     1     117.358  11.875  22.955  1.00  0.00    -0.550 OA
ATOM     10  O   UNL     1     116.066  13.332  21.748  1.00  0.00    -0.550 OA
ENDBRANCH   7   8
ENDBRANCH   6   7
ENDBRANCH   5   6
ENDBRANCH   4   5
ENDBRANCH   3   4
ENDBRANCH   2   3
ENDBRANCH   1   2
BRANCH   1  11
ATOM     11  C   UNL     1     118.820  17.810  26.464  1.00  0.00     0.000 C 
BRANCH  11  12
ATOM     12  C   UNL     1     118.755  17.852  24.927  1.00  0.00    -0.000 C 
BRANCH  12  13
ATOM     13  C   UNL     1     119.077  16.492  24.289  1.00  0.00    -0.000 C 
BRANCH  13  14
ATOM     14  C   UNL     1     117.919  15.953  23.429  1.00  0.00    -0.000 C 
BRANCH  14  15
ATOM     15  C   UNL     1     116.685  16.869  23.456  1.00  0.00    -0.000 C 
BRANCH  15  16
ATOM     16  C   UNL     1     115.358  16.155  23.779  1.00  0.00    -0.000 C 
BRANCH  16  17
ATOM     17  C   UNL     1     114.372  17.014  24.601  1.00  0.00    -0.003 C 
ATOM     18  C   UNL     1     115.085  17.986  25.541  1.00  0.00     0.004 C 
ENDBRANCH  16  17
ENDBRANCH  15  16
ENDBRANCH  14  15
ENDBRANCH  13  14
ENDBRANCH  12  13
ENDBRANCH  11  12
ENDBRANCH   1  11
TORSDOF 14
ENDMDL
MODEL 8
REMARK VINA RESULT:    -1.836      2.512      4.958
REMARK INTER + INTRA:          -5.319
REMARK INTER:                  -2.609
REMARK INTRA:                  -2.710
REMARK UNBOUND:                -1.980
REMARK SMILES CCCCCCCCCCCCCCCC(=O)[O-]
REMARK SMILES IDX 9 1 10 2 11 3 12 4 13 5 14 6 15 7 16 8 17 9 18 10 8 11 7 12
REMARK SMILES IDX 6 13 5 14 4 15 3 16 2 17 1 18
REMARK H PARENT
REMARK Flexibility Score: inf
ROOT
ATOM      1  C   UNL     1     115.643  15.355  25.735  1.00  0.00     0.000 C 
ENDROOT
BRANCH   1   2
ATOM      2  C   UNL     1     116.780  16.347  25.434  1.00  0.00     0.000 C 
BRANCH   2   3
ATOM      3  C   UNL     1     117.866  15.754  24.519  1.00  0.00     0.000 C 
BRANCH   3   4
ATOM      4  C   UNL     1     117.829  16.243  23.059  1.00  0.00     0.000 C 
BRANCH   4   5
ATOM      5  C   UNL     1     118.911  15.595  22.181  1.00  0.00     0.000 C 
BRANCH   5   6
ATOM      6  C   UNL     1     118.477  15.565  20.709  1.00  0.00     0.006 C 
BRANCH   6   7
ATOM      7  C   UNL     1     119.153  14.430  19.928  1.00  0.00     0.053 C 
BRANCH   7   8
ATOM      8  C   UNL     1     118.245  13.855  18.885  1.00  0.00     0.041 C 
ATOM      9  O   UNL     1     117.802  14.583  17.959  1.00  0.00    -0.550 OA
ATOM     10  O   UNL     1     117.863  12.522  18.956  1.00  0.00    -0.550 OA
ENDBRANCH   7   8
ENDBRANCH   6   7
ENDBRANCH   5   6
ENDBRANCH   4   5
ENDBRANCH   3   4
ENDBRANCH   2   3
ENDBRANCH   1   2
BRANCH   1  11
ATOM     11  C   UNL     1     116.122  13.894  25.741  1.00  0.00     0.000 C 
BRANCH  11  12
ATOM     12  C   UNL     1     114.997  12.903  25.391  1.00  0.00    -0.000 C 
BRANCH  12  13
ATOM     13  C   UNL     1     115.428  11.875  24.333  1.00  0.00    -0.000 C 
BRANCH  13  14
ATOM     14  C   UNL     1     116.865  12.109  23.832  1.00  0.00    -0.000 C 
BRANCH  14  15
ATOM     15  C   UNL     1     116.915  12.555  22.362  1.00  0.00    -0.000 C 
BRANCH  15  16
ATOM     16  C   UNL     1     115.538  12.711  21.687  1.00  0.00    -0.000 C 
BRANCH  16  17
ATOM     17  C   UNL     1     115.237  14.149  21.212  1.00  0.00    -0.003 C 
ATOM     18  C   UNL     1     114.413  14.940  22.228  1.00  0.00     0.004 C 
ENDBRANCH  16  17
ENDBRANCH  15  16
ENDBRANCH  14  15
ENDBRANCH  13  14
ENDBRANCH  12  13
ENDBRANCH  11  12
ENDBRANCH   1  11
TORSDOF 14
ENDMDL
MODEL 9
REMARK VINA RESULT:    -1.818      1.439      3.241
REMARK INTER + INTRA:          -5.286
REMARK INTER:                  -3.199
REMARK INTRA:                  -2.087
REMARK UNBOUND:                -1.980
REMARK SMILES CCCCCCCCCCCCCCCC(=O)[O-]
REMARK SMILES IDX 9 1 10 2 11 3 12 4 13 5 14 6 15 7 16 8 17 9 18 10 8 11 7 12
REMARK SMILES IDX 6 13 5 14 4 15 3 16 2 17 1 18
REMARK H PARENT
REMARK Flexibility Score: inf
ROOT
ATOM      1  C   UNL     1     116.253  13.894  26.474  1.00  0.00     0.000 C 
ENDROOT
BRANCH   1   2
ATOM      2  C   UNL     1     114.937  13.108  26.343  1.00  0.00     0.000 C 
BRANCH   2   3
ATOM      3  C   UNL     1     114.880  12.241  25.073  1.00  0.00     0.000 C 
BRANCH   3   4
ATOM      4  C   UNL     1     116.189  12.179  24.264  1.00  0.00     0.000 C 
BRANCH   4   5
ATOM      5  C   UNL     1     116.040  12.730  22.838  1.00  0.00     0.000 C 
BRANCH   5   6
ATOM      6  C   UNL     1     117.349  13.378  22.361  1.00  0.00     0.006 C 
BRANCH   6   7
ATOM      7  C   UNL     1     117.285  13.795  20.886  1.00  0.00     0.053 C 
BRANCH   7   8
ATOM      8  C   UNL     1     118.369  14.768  20.537  1.00  0.00     0.041 C 
ATOM      9  O   UNL     1     119.317  14.419  19.786  1.00  0.00    -0.550 OA
ATOM     10  O   UNL     1     118.347  16.052  21.068  1.00  0.00    -0.550 OA
ENDBRANCH   7   8
ENDBRANCH   6   7
ENDBRANCH   5   6
ENDBRANCH   4   5
ENDBRANCH   3   4
ENDBRANCH   2   3
ENDBRANCH   1   2
BRANCH   1  11
ATOM     11  C   UNL     1     116.601  14.222  27.934  1.00  0.00     0.000 C 
BRANCH  11  12
ATOM     12  C   UNL     1     117.751  15.238  28.053  1.00  0.00    -0.000 C 
BRANCH  12  13
ATOM     13  C   UNL     1     117.592  16.421  27.085  1.00  0.00    -0.000 C 
BRANCH  13  14
ATOM     14  C   UNL     1     118.753  16.522  26.079  1.00  0.00    -0.000 C 
BRANCH  14  15
ATOM     15  C   UNL     1     118.292  16.342  24.623  1.00  0.00    -0.000 C 
BRANCH  15  16
ATOM     16  C   UNL     1     117.063  17.183  24.226  1.00  0.00    -0.000 C 
BRANCH  16  17
ATOM     17  C   UNL     1     115.884  16.346  23.684  1.00  0.00    -0.003 C 
ATOM     18  C   UNL     1     114.622  16.494  24.533  1.00  0.00     0.004 C 
ENDBRANCH  16  17
ENDBRANCH  15  16
ENDBRANCH  14  15
ENDBRANCH  13  14
ENDBRANCH  12  13
ENDBRANCH  11  12
ENDBRANCH   1  11
TORSDOF 14
ENDMDL
