MODEL 1
REMARK VINA RESULT:    -3.439      0.000      0.000
REMARK INTER + INTRA:          -4.949
REMARK INTER:                  -4.445
REMARK INTRA:                  -0.504
REMARK UNBOUND:                -0.504
REMARK SMILES C=CC(=O)CCCCC
REMARK SMILES IDX 6 1 7 2 8 3 9 4 5 5 3 6 4 7 2 8 1 9
REMARK H PARENT
REMARK Flexibility Score: inf
ROOT
ATOM      1  C   UNL     1     -23.655   0.611  -2.146  1.00  0.00     0.008 C 
ENDROOT
BRANCH   1   2
ATOM      2  C   UNL     1     -24.865   0.118  -2.955  1.00  0.00     0.000 C 
BRANCH   2   3
ATOM      3  C   UNL     1     -26.200   0.611  -2.379  1.00  0.00    -0.003 C 
ATOM      4  C   UNL     1     -26.967  -0.487  -1.640  1.00  0.00     0.004 C 
ENDBRANCH   2   3
ENDBRANCH   1   2
BRANCH   1   5
ATOM      5  C   UNL     1     -23.143  -0.482  -1.202  1.00  0.00     0.080 C 
BRANCH   5   6
ATOM      6  C   UNL     1     -22.907   0.075   0.170  1.00  0.00     0.155 C 
ATOM      7  O   UNL     1     -21.761   0.504   0.475  1.00  0.00    -0.295 OA
BRANCH   6   8
ATOM      8  C   UNL     1     -24.021   0.158   1.135  1.00  0.00     0.039 C 
ATOM      9  C   UNL     1     -24.733   1.271   1.311  1.00  0.00     0.012 C 
ENDBRANCH   6   8
ENDBRANCH   5   6
ENDBRANCH   1   5
TORSDOF 5
ENDMDL
MODEL 2
REMARK VINA RESULT:    -3.386      4.868      6.825
REMARK INTER + INTRA:          -4.880
REMARK INTER:                  -4.395
REMARK INTRA:                  -0.485
REMARK UNBOUND:                -0.504
REMARK SMILES C=CC(=O)CCCCC
REMARK SMILES IDX 6 1 7 2 8 3 9 4 5 5 3 6 4 7 2 8 1 9
REMARK H PARENT
REMARK Flexibility Score: inf
ROOT
ATOM      1  C   UNL     1     -26.564  -1.720  -4.411  1.00  0.00     0.008 C 
ENDROOT
BRANCH   1   2
ATOM      2  C   UNL     1     -26.036  -0.278  -4.443  1.00  0.00     0.000 C 
BRANCH   2   3
ATOM      3  C   UNL     1     -26.598   0.581  -3.302  1.00  0.00    -0.003 C 
ATOM      4  C   UNL     1     -27.525  -0.202  -2.372  1.00  0.00     0.004 C 
ENDBRANCH   2   3
ENDBRANCH   1   2
BRANCH   1   5
ATOM      5  C   UNL     1     -27.046  -2.159  -5.798  1.00  0.00     0.080 C 
BRANCH   5   6
ATOM      6  C   UNL     1     -28.276  -1.398  -6.194  1.00  0.00     0.155 C 
ATOM      7  O   UNL     1     -29.282  -1.410  -5.434  1.00  0.00    -0.295 OA
BRANCH   6   8
ATOM      8  C   UNL     1     -28.286  -0.608  -7.442  1.00  0.00     0.039 C 
ATOM      9  C   UNL     1     -27.167  -0.260  -8.076  1.00  0.00     0.012 C 
ENDBRANCH   6   8
ENDBRANCH   5   6
ENDBRANCH   1   5
TORSDOF 5
ENDMDL
MODEL 3
REMARK VINA RESULT:    -3.314      1.975      3.719
REMARK INTER + INTRA:          -4.787
REMARK INTER:                  -4.239
REMARK INTRA:                  -0.549
REMARK UNBOUND:                -0.504
REMARK SMILES C=CC(=O)CCCCC
REMARK SMILES IDX 6 1 7 2 8 3 9 4 5 5 3 6 4 7 2 8 1 9
REMARK H PARENT
REMARK Flexibility Score: inf
ROOT
ATOM      1  C   UNL     1     -23.473   0.634  -1.283  1.00  0.00     0.008 C 
ENDROOT
BRANCH   1   2
ATOM      2  C   UNL     1     -22.886   0.035   0.004  1.00  0.00     0.000 C 
BRANCH   2   3
ATOM      3  C   UNL     1     -23.884   0.048   1.170  1.00  0.00    -0.003 C 
ATOM      4  C   UNL     1     -24.818   1.259   1.136  1.00  0.00     0.004 C 
ENDBRANCH   2   3
ENDBRANCH   1   2
BRANCH   1   5
ATOM      5  C   UNL     1     -23.516  -0.409  -2.404  1.00  0.00     0.080 C 
BRANCH   5   6
ATOM      6  C   UNL     1     -24.930  -0.816  -2.692  1.00  0.00     0.155 C 
ATOM      7  O   UNL     1     -25.151  -1.900  -3.298  1.00  0.00    -0.295 OA
BRANCH   6   8
ATOM      8  C   UNL     1     -26.050   0.026  -2.227  1.00  0.00     0.039 C 
ATOM      9  C   UNL     1     -27.023  -0.445  -1.448  1.00  0.00     0.012 C 
ENDBRANCH   6   8
ENDBRANCH   5   6
ENDBRANCH   1   5
TORSDOF 5
ENDMDL
MODEL 4
REMARK VINA RESULT:    -3.305      2.214      4.387
REMARK INTER + INTRA:          -4.776
REMARK INTER:                  -4.227
REMARK INTRA:                  -0.548
REMARK UNBOUND:                -0.504
REMARK SMILES C=CC(=O)CCCCC
REMARK SMILES IDX 6 1 7 2 8 3 9 4 5 5 3 6 4 7 2 8 1 9
REMARK H PARENT
REMARK Flexibility Score: inf
ROOT
ATOM      1  C   UNL     1     -24.855   1.062   0.267  1.00  0.00     0.008 C 
ENDROOT
BRANCH   1   2
ATOM      2  C   UNL     1     -24.122   0.203   1.308  1.00  0.00     0.000 C 
BRANCH   2   3
ATOM      3  C   UNL     1     -22.714  -0.204   0.852  1.00  0.00    -0.003 C 
ATOM      4  C   UNL     1     -21.821   0.999   0.546  1.00  0.00     0.004 C 
ENDBRANCH   2   3
ENDBRANCH   1   2
BRANCH   1   5
ATOM      5  C   UNL     1     -25.859   0.222  -0.529  1.00  0.00     0.080 C 
BRANCH   5   6
ATOM      6  C   UNL     1     -25.608   0.357  -2.002  1.00  0.00     0.155 C 
ATOM      7  O   UNL     1     -26.588   0.461  -2.789  1.00  0.00    -0.295 OA
BRANCH   6   8
ATOM      8  C   UNL     1     -24.224   0.411  -2.514  1.00  0.00     0.039 C 
ATOM      9  C   UNL     1     -23.543  -0.684  -2.849  1.00  0.00     0.012 C 
ENDBRANCH   6   8
ENDBRANCH   5   6
ENDBRANCH   1   5
TORSDOF 5
ENDMDL
MODEL 5
REMARK VINA RESULT:    -3.250      1.637      2.553
REMARK INTER + INTRA:          -4.704
REMARK INTER:                  -4.128
REMARK INTRA:                  -0.575
REMARK UNBOUND:                -0.504
REMARK SMILES C=CC(=O)CCCCC
REMARK SMILES IDX 6 1 7 2 8 3 9 4 5 5 3 6 4 7 2 8 1 9
REMARK H PARENT
REMARK Flexibility Score: inf
ROOT
ATOM      1  C   UNL     1     -25.437   0.991  -1.499  1.00  0.00     0.008 C 
ENDROOT
BRANCH   1   2
ATOM      2  C   UNL     1     -25.242   0.002  -2.657  1.00  0.00     0.000 C 
BRANCH   2   3
ATOM      3  C   UNL     1     -23.764  -0.195  -3.024  1.00  0.00    -0.003 C 
ATOM      4  C   UNL     1     -23.237  -1.577  -2.637  1.00  0.00     0.004 C 
ENDBRANCH   2   3
ENDBRANCH   1   2
BRANCH   1   5
ATOM      5  C   UNL     1     -25.602   0.251  -0.167  1.00  0.00     0.080 C 
BRANCH   5   6
ATOM      6  C   UNL     1     -24.541   0.673   0.805  1.00  0.00     0.155 C 
ATOM      7  O   UNL     1     -24.782   1.605   1.618  1.00  0.00    -0.295 OA
BRANCH   6   8
ATOM      8  C   UNL     1     -23.244  -0.032   0.834  1.00  0.00     0.039 C 
ATOM      9  C   UNL     1     -22.105   0.553   0.466  1.00  0.00     0.012 C 
ENDBRANCH   6   8
ENDBRANCH   5   6
ENDBRANCH   1   5
TORSDOF 5
ENDMDL
MODEL 6
REMARK VINA RESULT:    -3.227      2.626      4.096
REMARK INTER + INTRA:          -4.674
REMARK INTER:                  -4.057
REMARK INTRA:                  -0.617
REMARK UNBOUND:                -0.504
REMARK SMILES C=CC(=O)CCCCC
REMARK SMILES IDX 6 1 7 2 8 3 9 4 5 5 3 6 4 7 2 8 1 9
REMARK H PARENT
REMARK Flexibility Score: inf
ROOT
ATOM      1  C   UNL     1     -26.454  -0.547  -2.210  1.00  0.00     0.008 C 
ENDROOT
BRANCH   1   2
ATOM      2  C   UNL     1     -27.703  -0.099  -2.982  1.00  0.00     0.000 C 
BRANCH   2   3
ATOM      3  C   UNL     1     -27.740  -0.646  -4.416  1.00  0.00    -0.003 C 
ATOM      4  C   UNL     1     -26.776  -1.814  -4.628  1.00  0.00     0.004 C 
ENDBRANCH   2   3
ENDBRANCH   1   2
BRANCH   1   5
ATOM      5  C   UNL     1     -25.489   0.624  -1.999  1.00  0.00     0.080 C 
BRANCH   5   6
ATOM      6  C   UNL     1     -24.483   0.687  -3.109  1.00  0.00     0.155 C 
ATOM      7  O   UNL     1     -23.495  -0.096  -3.093  1.00  0.00    -0.295 OA
BRANCH   6   8
ATOM      8  C   UNL     1     -24.679   1.627  -4.231  1.00  0.00     0.039 C 
ATOM      9  C   UNL     1     -24.644   1.237  -5.504  1.00  0.00     0.012 C 
ENDBRANCH   6   8
ENDBRANCH   5   6
ENDBRANCH   1   5
TORSDOF 5
ENDMDL
MODEL 7
REMARK VINA RESULT:    -3.210      2.083      3.698
REMARK INTER + INTRA:          -4.653
REMARK INTER:                  -4.053
REMARK INTRA:                  -0.599
REMARK UNBOUND:                -0.504
REMARK SMILES C=CC(=O)CCCCC
REMARK SMILES IDX 6 1 7 2 8 3 9 4 5 5 3 6 4 7 2 8 1 9
REMARK H PARENT
REMARK Flexibility Score: inf
ROOT
ATOM      1  C   UNL     1     -23.307  -0.494  -1.406  1.00  0.00     0.008 C 
ENDROOT
BRANCH   1   2
ATOM      2  C   UNL     1     -22.976   0.510  -0.292  1.00  0.00     0.000 C 
BRANCH   2   3
ATOM      3  C   UNL     1     -23.768   0.244   0.997  1.00  0.00    -0.003 C 
ATOM      4  C   UNL     1     -24.840   1.301   1.260  1.00  0.00     0.004 C 
ENDBRANCH   2   3
ENDBRANCH   1   2
BRANCH   1   5
ATOM      5  C   UNL     1     -23.736   0.229  -2.687  1.00  0.00     0.080 C 
BRANCH   5   6
ATOM      6  C   UNL     1     -25.059   0.908  -2.491  1.00  0.00     0.155 C 
ATOM      7  O   UNL     1     -26.016   0.263  -1.981  1.00  0.00    -0.295 OA
BRANCH   6   8
ATOM      8  C   UNL     1     -25.220   2.330  -2.853  1.00  0.00     0.039 C 
ATOM      9  C   UNL     1     -25.049   3.315  -1.972  1.00  0.00     0.012 C 
ENDBRANCH   6   8
ENDBRANCH   5   6
ENDBRANCH   1   5
TORSDOF 5
ENDMDL
MODEL 8
REMARK VINA RESULT:    -3.192      3.100      5.026
REMARK INTER + INTRA:          -4.630
REMARK INTER:                  -4.075
REMARK INTRA:                  -0.555
REMARK UNBOUND:                -0.504
REMARK SMILES C=CC(=O)CCCCC
REMARK SMILES IDX 6 1 7 2 8 3 9 4 5 5 3 6 4 7 2 8 1 9
REMARK H PARENT
REMARK Flexibility Score: inf
ROOT
ATOM      1  C   UNL     1     -26.071   0.924  -2.672  1.00  0.00     0.008 C 
ENDROOT
BRANCH   1   2
ATOM      2  C   UNL     1     -25.220   0.278  -1.569  1.00  0.00     0.000 C 
BRANCH   2   3
ATOM      3  C   UNL     1     -23.731   0.205  -1.939  1.00  0.00    -0.003 C 
ATOM      4  C   UNL     1     -23.332  -1.151  -2.521  1.00  0.00     0.004 C 
ENDBRANCH   2   3
ENDBRANCH   1   2
BRANCH   1   5
ATOM      5  C   UNL     1     -27.096  -0.070  -3.228  1.00  0.00     0.080 C 
BRANCH   5   6
ATOM      6  C   UNL     1     -26.550  -0.768  -4.439  1.00  0.00     0.155 C 
ATOM      7  O   UNL     1     -25.926  -0.101  -5.308  1.00  0.00    -0.295 OA
BRANCH   6   8
ATOM      8  C   UNL     1     -26.706  -2.229  -4.582  1.00  0.00     0.039 C 
ATOM      9  C   UNL     1     -26.200  -3.092  -3.702  1.00  0.00     0.012 C 
ENDBRANCH   6   8
ENDBRANCH   5   6
ENDBRANCH   1   5
TORSDOF 5
ENDMDL
MODEL 9
REMARK VINA RESULT:    -3.191      1.635      2.018
REMARK INTER + INTRA:          -4.628
REMARK INTER:                  -4.095
REMARK INTRA:                  -0.533
REMARK UNBOUND:                -0.504
REMARK SMILES C=CC(=O)CCCCC
REMARK SMILES IDX 6 1 7 2 8 3 9 4 5 5 3 6 4 7 2 8 1 9
REMARK H PARENT
REMARK Flexibility Score: inf
ROOT
ATOM      1  C   UNL     1     -24.977   0.449  -2.531  1.00  0.00     0.008 C 
ENDROOT
BRANCH   1   2
ATOM      2  C   UNL     1     -24.768   1.704  -3.390  1.00  0.00     0.000 C 
BRANCH   2   3
ATOM      3  C   UNL     1     -25.600   2.899  -2.901  1.00  0.00    -0.003 C 
ATOM      4  C   UNL     1     -24.916   3.675  -1.775  1.00  0.00     0.004 C 
ENDBRANCH   2   3
ENDBRANCH   1   2
BRANCH   1   5
ATOM      5  C   UNL     1     -23.645  -0.064  -1.975  1.00  0.00     0.080 C 
BRANCH   5   6
ATOM      6  C   UNL     1     -23.608   0.076  -0.482  1.00  0.00     0.155 C 
ATOM      7  O   UNL     1     -22.526  -0.131   0.132  1.00  0.00    -0.295 OA
BRANCH   6   8
ATOM      8  C   UNL     1     -24.819   0.495   0.251  1.00  0.00     0.039 C 
ATOM      9  C   UNL     1     -24.781   1.381   1.246  1.00  0.00     0.012 C 
ENDBRANCH   6   8
ENDBRANCH   5   6
ENDBRANCH   1   5
TORSDOF 5
ENDMDL
