MODEL 1
REMARK VINA RESULT:    -3.637      0.000      0.000
REMARK INTER + INTRA:          -4.620
REMARK INTER:                  -4.487
REMARK INTRA:                  -0.133
REMARK UNBOUND:                -0.133
REMARK SMILES CCCCCC(=O)[O-]
REMARK SMILES IDX 4 1 5 2 6 3 7 4 8 5 3 6 2 7 1 8
REMARK H PARENT
REMARK Flexibility Score: inf
ROOT
ATOM      1  C   UNL     1      11.629 -30.017  22.061  1.00  0.00     0.006 C 
ENDROOT
BRANCH   1   2
ATOM      2  C   UNL     1      12.723 -31.032  22.417  1.00  0.00     0.053 C 
BRANCH   2   3
ATOM      3  C   UNL     1      13.630 -31.251  21.248  1.00  0.00     0.041 C 
ATOM      4  O   UNL     1      13.354 -32.127  20.386  1.00  0.00    -0.550 OA
ATOM      5  O   UNL     1      14.808 -30.522  21.134  1.00  0.00    -0.550 OA
ENDBRANCH   2   3
ENDBRANCH   1   2
BRANCH   1   6
ATOM      6  C   UNL     1      11.500 -28.897  23.106  1.00  0.00     0.000 C 
BRANCH   6   7
ATOM      7  C   UNL     1      12.640 -28.914  24.134  1.00  0.00    -0.003 C 
ATOM      8  C   UNL     1      12.689 -27.606  24.919  1.00  0.00     0.004 C 
ENDBRANCH   6   7
ENDBRANCH   1   6
TORSDOF 4
ENDMDL
MODEL 2
REMARK VINA RESULT:    -3.626      1.527      2.061
REMARK INTER + INTRA:          -4.606
REMARK INTER:                  -4.518
REMARK INTRA:                  -0.088
REMARK UNBOUND:                -0.133
REMARK SMILES CCCCCC(=O)[O-]
REMARK SMILES IDX 4 1 5 2 6 3 7 4 8 5 3 6 2 7 1 8
REMARK H PARENT
REMARK Flexibility Score: inf
ROOT
ATOM      1  C   UNL     1      11.515 -28.713  23.250  1.00  0.00     0.006 C 
ENDROOT
BRANCH   1   2
ATOM      2  C   UNL     1      12.599 -29.752  22.936  1.00  0.00     0.053 C 
BRANCH   2   3
ATOM      3  C   UNL     1      12.182 -30.608  21.782  1.00  0.00     0.041 C 
ATOM      4  O   UNL     1      12.997 -31.414  21.262  1.00  0.00    -0.550 OA
ATOM      5  O   UNL     1      10.906 -30.480  21.247  1.00  0.00    -0.550 OA
ENDBRANCH   2   3
ENDBRANCH   1   2
BRANCH   1   6
ATOM      6  C   UNL     1      11.948 -27.719  24.341  1.00  0.00     0.000 C 
BRANCH   6   7
ATOM      7  C   UNL     1      13.429 -27.331  24.231  1.00  0.00    -0.003 C 
ATOM      8  C   UNL     1      13.772 -26.198  25.195  1.00  0.00     0.004 C 
ENDBRANCH   6   7
ENDBRANCH   1   6
TORSDOF 4
ENDMDL
MODEL 3
REMARK VINA RESULT:    -3.600      0.787      1.449
REMARK INTER + INTRA:          -4.575
REMARK INTER:                  -4.475
REMARK INTRA:                  -0.100
REMARK UNBOUND:                -0.133
REMARK SMILES CCCCCC(=O)[O-]
REMARK SMILES IDX 4 1 5 2 6 3 7 4 8 5 3 6 2 7 1 8
REMARK H PARENT
REMARK Flexibility Score: inf
ROOT
ATOM      1  C   UNL     1      12.272 -29.617  22.935  1.00  0.00     0.006 C 
ENDROOT
BRANCH   1   2
ATOM      2  C   UNL     1      12.038 -30.649  21.824  1.00  0.00     0.053 C 
BRANCH   2   3
ATOM      3  C   UNL     1      13.335 -31.017  21.175  1.00  0.00     0.041 C 
ATOM      4  O   UNL     1      14.320 -30.236  21.236  1.00  0.00    -0.550 OA
ATOM      5  O   UNL     1      13.441 -32.202  20.457  1.00  0.00    -0.550 OA
ENDBRANCH   2   3
ENDBRANCH   1   2
BRANCH   1   6
ATOM      6  C   UNL     1      11.242 -28.476  22.907  1.00  0.00     0.000 C 
BRANCH   6   7
ATOM      7  C   UNL     1      11.602 -27.331  23.865  1.00  0.00    -0.003 C 
ATOM      8  C   UNL     1      12.737 -27.737  24.801  1.00  0.00     0.004 C 
ENDBRANCH   6   7
ENDBRANCH   1   6
TORSDOF 4
ENDMDL
MODEL 4
REMARK VINA RESULT:    -3.539      9.567     10.504
REMARK INTER + INTRA:          -4.499
REMARK INTER:                  -4.351
REMARK INTRA:                  -0.148
REMARK UNBOUND:                -0.133
REMARK SMILES CCCCCC(=O)[O-]
REMARK SMILES IDX 4 1 5 2 6 3 7 4 8 5 3 6 2 7 1 8
REMARK H PARENT
REMARK Flexibility Score: inf
ROOT
ATOM      1  C   UNL     1      20.742 -25.749  20.101  1.00  0.00     0.006 C 
ENDROOT
BRANCH   1   2
ATOM      2  C   UNL     1      21.935 -25.074  20.789  1.00  0.00     0.053 C 
BRANCH   2   3
ATOM      3  C   UNL     1      23.082 -24.947  19.836  1.00  0.00     0.041 C 
ATOM      4  O   UNL     1      23.280 -25.831  18.961  1.00  0.00    -0.550 OA
ATOM      5  O   UNL     1      23.963 -23.878  19.945  1.00  0.00    -0.550 OA
ENDBRANCH   2   3
ENDBRANCH   1   2
BRANCH   1   6
ATOM      6  C   UNL     1      20.267 -27.008  20.845  1.00  0.00     0.000 C 
BRANCH   6   7
ATOM      7  C   UNL     1      21.311 -28.133  20.828  1.00  0.00    -0.003 C 
ATOM      8  C   UNL     1      20.664 -29.486  21.110  1.00  0.00     0.004 C 
ENDBRANCH   6   7
ENDBRANCH   1   6
TORSDOF 4
ENDMDL
MODEL 5
REMARK VINA RESULT:    -3.539      2.599      4.152
REMARK INTER + INTRA:          -4.499
REMARK INTER:                  -4.271
REMARK INTRA:                  -0.228
REMARK UNBOUND:                -0.133
REMARK SMILES CCCCCC(=O)[O-]
REMARK SMILES IDX 4 1 5 2 6 3 7 4 8 5 3 6 2 7 1 8
REMARK H PARENT
REMARK Flexibility Score: inf
ROOT
ATOM      1  C   UNL     1      13.241 -30.384  23.593  1.00  0.00     0.006 C 
ENDROOT
BRANCH   1   2
ATOM      2  C   UNL     1      12.704 -29.079  24.194  1.00  0.00     0.053 C 
BRANCH   2   3
ATOM      3  C   UNL     1      11.612 -28.522  23.337  1.00  0.00     0.041 C 
ATOM      4  O   UNL     1      11.238 -27.328  23.482  1.00  0.00    -0.550 OA
ATOM      5  O   UNL     1      10.971 -29.335  22.410  1.00  0.00    -0.550 OA
ENDBRANCH   2   3
ENDBRANCH   1   2
BRANCH   1   6
ATOM      6  C   UNL     1      14.546 -30.179  22.806  1.00  0.00     0.000 C 
BRANCH   6   7
ATOM      7  C   UNL     1      14.364 -30.388  21.296  1.00  0.00    -0.003 C 
ATOM      8  C   UNL     1      13.362 -31.504  21.013  1.00  0.00     0.004 C 
ENDBRANCH   6   7
ENDBRANCH   1   6
TORSDOF 4
ENDMDL
MODEL 6
REMARK VINA RESULT:    -3.528      1.279      1.744
REMARK INTER + INTRA:          -4.485
REMARK INTER:                  -4.398
REMARK INTRA:                  -0.087
REMARK UNBOUND:                -0.133
REMARK SMILES CCCCCC(=O)[O-]
REMARK SMILES IDX 4 1 5 2 6 3 7 4 8 5 3 6 2 7 1 8
REMARK H PARENT
REMARK Flexibility Score: inf
ROOT
ATOM      1  C   UNL     1      12.621 -30.651  22.156  1.00  0.00     0.006 C 
ENDROOT
BRANCH   1   2
ATOM      2  C   UNL     1      13.126 -31.375  20.901  1.00  0.00     0.053 C 
BRANCH   2   3
ATOM      3  C   UNL     1      14.087 -32.458  21.276  1.00  0.00     0.041 C 
ATOM      4  O   UNL     1      14.438 -33.318  20.425  1.00  0.00    -0.550 OA
ATOM      5  O   UNL     1      14.558 -32.550  22.580  1.00  0.00    -0.550 OA
ENDBRANCH   2   3
ENDBRANCH   1   2
BRANCH   1   6
ATOM      6  C   UNL     1      11.215 -30.058  21.970  1.00  0.00     0.000 C 
BRANCH   6   7
ATOM      7  C   UNL     1      11.017 -28.751  22.750  1.00  0.00    -0.003 C 
ATOM      8  C   UNL     1      12.039 -28.625  23.877  1.00  0.00     0.004 C 
ENDBRANCH   6   7
ENDBRANCH   1   6
TORSDOF 4
ENDMDL
MODEL 7
REMARK VINA RESULT:    -3.517      2.892      4.158
REMARK INTER + INTRA:          -4.472
REMARK INTER:                  -4.216
REMARK INTRA:                  -0.257
REMARK UNBOUND:                -0.133
REMARK SMILES CCCCCC(=O)[O-]
REMARK SMILES IDX 4 1 5 2 6 3 7 4 8 5 3 6 2 7 1 8
REMARK H PARENT
REMARK Flexibility Score: inf
ROOT
ATOM      1  C   UNL     1      14.004 -29.863  23.537  1.00  0.00     0.006 C 
ENDROOT
BRANCH   1   2
ATOM      2  C   UNL     1      13.710 -28.408  23.151  1.00  0.00     0.053 C 
BRANCH   2   3
ATOM      3  C   UNL     1      12.602 -27.859  23.994  1.00  0.00     0.041 C 
ATOM      4  O   UNL     1      11.480 -27.609  23.482  1.00  0.00    -0.550 OA
ATOM      5  O   UNL     1      12.824 -27.576  25.336  1.00  0.00    -0.550 OA
ENDBRANCH   2   3
ENDBRANCH   1   2
BRANCH   1   6
ATOM      6  C   UNL     1      12.866 -30.819  23.146  1.00  0.00     0.000 C 
BRANCH   6   7
ATOM      7  C   UNL     1      12.519 -30.744  21.652  1.00  0.00    -0.003 C 
ATOM      8  C   UNL     1      11.030 -30.480  21.447  1.00  0.00     0.004 C 
ENDBRANCH   6   7
ENDBRANCH   1   6
TORSDOF 4
ENDMDL
MODEL 8
REMARK VINA RESULT:    -3.446      2.932      4.042
REMARK INTER + INTRA:          -4.384
REMARK INTER:                  -4.333
REMARK INTRA:                  -0.051
REMARK UNBOUND:                -0.133
REMARK SMILES CCCCCC(=O)[O-]
REMARK SMILES IDX 4 1 5 2 6 3 7 4 8 5 3 6 2 7 1 8
REMARK H PARENT
REMARK Flexibility Score: inf
ROOT
ATOM      1  C   UNL     1      14.207 -32.711  21.247  1.00  0.00     0.006 C 
ENDROOT
BRANCH   1   2
ATOM      2  C   UNL     1      14.556 -33.720  20.146  1.00  0.00     0.053 C 
BRANCH   2   3
ATOM      3  C   UNL     1      15.484 -34.768  20.675  1.00  0.00     0.041 C 
ATOM      4  O   UNL     1      15.870 -35.708  19.931  1.00  0.00    -0.550 OA
ATOM      5  O   UNL     1      15.883 -34.736  22.005  1.00  0.00    -0.550 OA
ENDBRANCH   2   3
ENDBRANCH   1   2
BRANCH   1   6
ATOM      6  C   UNL     1      13.316 -31.566  20.738  1.00  0.00     0.000 C 
BRANCH   6   7
ATOM      7  C   UNL     1      12.730 -30.722  21.878  1.00  0.00    -0.003 C 
ATOM      8  C   UNL     1      11.246 -30.448  21.650  1.00  0.00     0.004 C 
ENDBRANCH   6   7
ENDBRANCH   1   6
TORSDOF 4
ENDMDL
MODEL 9
REMARK VINA RESULT:    -3.432      1.771      2.447
REMARK INTER + INTRA:          -4.367
REMARK INTER:                  -4.189
REMARK INTRA:                  -0.179
REMARK UNBOUND:                -0.133
REMARK SMILES CCCCCC(=O)[O-]
REMARK SMILES IDX 4 1 5 2 6 3 7 4 8 5 3 6 2 7 1 8
REMARK H PARENT
REMARK Flexibility Score: inf
ROOT
ATOM      1  C   UNL     1      14.443 -30.423  21.274  1.00  0.00     0.006 C 
ENDROOT
BRANCH   1   2
ATOM      2  C   UNL     1      13.417 -31.549  21.102  1.00  0.00     0.053 C 
BRANCH   2   3
ATOM      3  C   UNL     1      14.110 -32.858  20.891  1.00  0.00     0.041 C 
ATOM      4  O   UNL     1      14.769 -33.386  21.825  1.00  0.00    -0.550 OA
ATOM      5  O   UNL     1      14.071 -33.473  19.645  1.00  0.00    -0.550 OA
ENDBRANCH   2   3
ENDBRANCH   1   2
BRANCH   1   6
ATOM      6  C   UNL     1      14.608 -29.993  22.741  1.00  0.00     0.000 C 
BRANCH   6   7
ATOM      7  C   UNL     1      13.387 -30.346  23.601  1.00  0.00    -0.003 C 
ATOM      8  C   UNL     1      12.738 -29.089  24.174  1.00  0.00     0.004 C 
ENDBRANCH   6   7
ENDBRANCH   1   6
TORSDOF 4
ENDMDL
