MODEL 1
REMARK VINA RESULT:    -5.157      0.000      0.000
REMARK INTER + INTRA:          -5.308
REMARK INTER:                  -5.308
REMARK INTRA:                   0.000
REMARK UNBOUND:                 0.000
REMARK SMILES O=c1ccc2ccc(O)cc2o1
REMARK SMILES IDX 6 1 7 2 8 3 10 4 11 5 5 6 4 7 3 8 2 9 1 10 12 11 9 12
REMARK H PARENT 9 13
REMARK Flexibility Score: inf
ROOT
ATOM      1  C   UNL     1      18.579 -45.115  32.942  1.00  0.00     0.016 A 
ATOM      2  C   UNL     1      19.746 -44.763  32.257  1.00  0.00     0.047 A 
ATOM      3  C   UNL     1      19.693 -44.418  30.898  1.00  0.00     0.119 A 
ATOM      4  C   UNL     1      18.467 -44.427  30.222  1.00  0.00     0.094 A 
ATOM      5  C   UNL     1      17.294 -44.777  30.899  1.00  0.00     0.142 A 
ATOM      6  C   UNL     1      17.349 -45.123  32.267  1.00  0.00     0.018 A 
ATOM      7  C   UNL     1      16.160 -45.469  32.917  1.00  0.00     0.019 A 
ATOM      8  C   UNL     1      14.963 -45.462  32.201  1.00  0.00     0.094 A 
ATOM      9  C   UNL     1      14.984 -45.108  30.848  1.00  0.00     0.336 A 
ATOM     10  O   UNL     1      13.913 -45.095  30.185  1.00  0.00    -0.246 OA
ATOM     11  O   UNL     1      16.130 -44.783  30.254  1.00  0.00    -0.423 OA
ENDROOT
BRANCH   3  12
ATOM     12  O   UNL     1      20.852 -44.068  30.210  1.00  0.00    -0.508 OA
ATOM     13  H   UNL     1      20.936 -43.178  29.732  1.00  0.00     0.293 HD
ENDBRANCH   3  12
TORSDOF 1
ENDMDL
MODEL 2
REMARK VINA RESULT:    -4.958      4.741      6.151
REMARK INTER + INTRA:          -5.103
REMARK INTER:                  -5.103
REMARK INTRA:                   0.000
REMARK UNBOUND:                 0.000
REMARK SMILES O=c1ccc2ccc(O)cc2o1
REMARK SMILES IDX 6 1 7 2 8 3 10 4 11 5 5 6 4 7 3 8 2 9 1 10 12 11 9 12
REMARK H PARENT 9 13
REMARK Flexibility Score: inf
ROOT
ATOM      1  C   UNL     1      18.429 -41.814  24.821  1.00  0.00     0.016 A 
ATOM      2  C   UNL     1      18.610 -40.478  25.189  1.00  0.00     0.047 A 
ATOM      3  C   UNL     1      18.395 -40.073  26.516  1.00  0.00     0.119 A 
ATOM      4  C   UNL     1      17.997 -41.010  27.476  1.00  0.00     0.094 A 
ATOM      5  C   UNL     1      17.813 -42.350  27.117  1.00  0.00     0.142 A 
ATOM      6  C   UNL     1      18.030 -42.755  25.782  1.00  0.00     0.018 A 
ATOM      7  C   UNL     1      17.838 -44.101  25.453  1.00  0.00     0.019 A 
ATOM      8  C   UNL     1      17.441 -44.997  26.445  1.00  0.00     0.094 A 
ATOM      9  C   UNL     1      17.245 -44.525  27.747  1.00  0.00     0.336 A 
ATOM     10  O   UNL     1      16.887 -45.318  28.657  1.00  0.00    -0.246 OA
ATOM     11  O   UNL     1      17.435 -43.239  28.033  1.00  0.00    -0.423 OA
ENDROOT
BRANCH   3  12
ATOM     12  O   UNL     1      18.574 -38.743  26.889  1.00  0.00    -0.508 OA
ATOM     13  H   UNL     1      18.608 -38.466  27.863  1.00  0.00     0.293 HD
ENDBRANCH   3  12
TORSDOF 1
ENDMDL
MODEL 3
REMARK VINA RESULT:    -4.950      4.681      6.572
REMARK INTER + INTRA:          -5.095
REMARK INTER:                  -5.095
REMARK INTRA:                   0.000
REMARK UNBOUND:                 0.000
REMARK SMILES O=c1ccc2ccc(O)cc2o1
REMARK SMILES IDX 6 1 7 2 8 3 10 4 11 5 5 6 4 7 3 8 2 9 1 10 12 11 9 12
REMARK H PARENT 9 13
REMARK Flexibility Score: inf
ROOT
ATOM      1  C   UNL     1      17.877 -44.094  25.389  1.00  0.00     0.016 A 
ATOM      2  C   UNL     1      17.460 -45.085  26.284  1.00  0.00     0.047 A 
ATOM      3  C   UNL     1      17.179 -44.760  27.620  1.00  0.00     0.119 A 
ATOM      4  C   UNL     1      17.319 -43.439  28.062  1.00  0.00     0.094 A 
ATOM      5  C   UNL     1      17.736 -42.441  27.174  1.00  0.00     0.142 A 
ATOM      6  C   UNL     1      18.016 -42.770  25.830  1.00  0.00     0.018 A 
ATOM      7  C   UNL     1      18.432 -41.751  24.966  1.00  0.00     0.019 A 
ATOM      8  C   UNL     1      18.555 -40.450  25.453  1.00  0.00     0.094 A 
ATOM      9  C   UNL     1      18.259 -40.198  26.797  1.00  0.00     0.336 A 
ATOM     10  O   UNL     1      18.364 -39.029  27.255  1.00  0.00    -0.246 OA
ATOM     11  O   UNL     1      17.866 -41.186  27.597  1.00  0.00    -0.423 OA
ENDROOT
BRANCH   3  12
ATOM     12  O   UNL     1      16.764 -45.742  28.516  1.00  0.00    -0.508 OA
ATOM     13  H   UNL     1      15.855 -45.701  28.963  1.00  0.00     0.293 HD
ENDBRANCH   3  12
TORSDOF 1
ENDMDL
MODEL 4
REMARK VINA RESULT:    -4.823      2.015      4.568
REMARK INTER + INTRA:          -4.964
REMARK INTER:                  -4.964
REMARK INTRA:                   0.000
REMARK UNBOUND:                 0.000
REMARK SMILES O=c1ccc2ccc(O)cc2o1
REMARK SMILES IDX 6 1 7 2 8 3 10 4 11 5 5 6 4 7 3 8 2 9 1 10 12 11 9 12
REMARK H PARENT 9 13
REMARK Flexibility Score: inf
ROOT
ATOM      1  C   UNL     1      16.479 -45.580  32.924  1.00  0.00     0.016 A 
ATOM      2  C   UNL     1      15.184 -45.137  33.210  1.00  0.00     0.047 A 
ATOM      3  C   UNL     1      14.830 -43.797  32.992  1.00  0.00     0.119 A 
ATOM      4  C   UNL     1      15.776 -42.897  32.487  1.00  0.00     0.094 A 
ATOM      5  C   UNL     1      17.075 -43.331  32.198  1.00  0.00     0.142 A 
ATOM      6  C   UNL     1      17.429 -44.681  32.417  1.00  0.00     0.018 A 
ATOM      7  C   UNL     1      18.734 -45.085  32.118  1.00  0.00     0.019 A 
ATOM      8  C   UNL     1      19.641 -44.152  31.616  1.00  0.00     0.094 A 
ATOM      9  C   UNL     1      19.219 -42.832  31.424  1.00  0.00     0.336 A 
ATOM     10  O   UNL     1      20.023 -41.975  30.971  1.00  0.00    -0.246 OA
ATOM     11  O   UNL     1      17.971 -42.474  31.716  1.00  0.00    -0.423 OA
ENDROOT
BRANCH   3  12
ATOM     12  O   UNL     1      13.542 -43.349  33.276  1.00  0.00    -0.508 OA
ATOM     13  H   UNL     1      12.750 -43.617  32.703  1.00  0.00     0.293 HD
ENDBRANCH   3  12
TORSDOF 1
ENDMDL
MODEL 5
REMARK VINA RESULT:    -4.807      1.939      2.947
REMARK INTER + INTRA:          -4.947
REMARK INTER:                  -4.947
REMARK INTRA:                   0.000
REMARK UNBOUND:                 0.000
REMARK SMILES O=c1ccc2ccc(O)cc2o1
REMARK SMILES IDX 6 1 7 2 8 3 10 4 11 5 5 6 4 7 3 8 2 9 1 10 12 11 9 12
REMARK H PARENT 9 13
REMARK Flexibility Score: inf
ROOT
ATOM      1  C   UNL     1      16.143 -45.444  28.756  1.00  0.00     0.016 A 
ATOM      2  C   UNL     1      17.532 -45.414  28.923  1.00  0.00     0.047 A 
ATOM      3  C   UNL     1      18.096 -44.787  30.045  1.00  0.00     0.119 A 
ATOM      4  C   UNL     1      17.267 -44.188  31.001  1.00  0.00     0.094 A 
ATOM      5  C   UNL     1      15.878 -44.214  30.842  1.00  0.00     0.142 A 
ATOM      6  C   UNL     1      15.312 -44.845  29.713  1.00  0.00     0.018 A 
ATOM      7  C   UNL     1      13.919 -44.854  29.581  1.00  0.00     0.019 A 
ATOM      8  C   UNL     1      13.136 -44.244  30.561  1.00  0.00     0.094 A 
ATOM      9  C   UNL     1      13.766 -43.639  31.653  1.00  0.00     0.336 A 
ATOM     10  O   UNL     1      13.076 -43.083  32.548  1.00  0.00    -0.246 OA
ATOM     11  O   UNL     1      15.093 -43.644  31.754  1.00  0.00    -0.423 OA
ENDROOT
BRANCH   3  12
ATOM     12  O   UNL     1      19.477 -44.754  30.217  1.00  0.00    -0.508 OA
ATOM     13  H   UNL     1      19.913 -45.089  31.069  1.00  0.00     0.293 HD
ENDBRANCH   3  12
TORSDOF 1
ENDMDL
MODEL 6
REMARK VINA RESULT:    -4.750      2.603      3.530
REMARK INTER + INTRA:          -4.889
REMARK INTER:                  -4.889
REMARK INTRA:                   0.000
REMARK UNBOUND:                 0.000
REMARK SMILES O=c1ccc2ccc(O)cc2o1
REMARK SMILES IDX 6 1 7 2 8 3 10 4 11 5 5 6 4 7 3 8 2 9 1 10 12 11 9 12
REMARK H PARENT 9 13
REMARK Flexibility Score: inf
ROOT
ATOM      1  C   UNL     1      14.796 -45.279  29.737  1.00  0.00     0.016 A 
ATOM      2  C   UNL     1      15.627 -45.446  28.625  1.00  0.00     0.047 A 
ATOM      3  C   UNL     1      16.915 -44.890  28.613  1.00  0.00     0.119 A 
ATOM      4  C   UNL     1      17.372 -44.163  29.718  1.00  0.00     0.094 A 
ATOM      5  C   UNL     1      16.548 -43.990  30.835  1.00  0.00     0.142 A 
ATOM      6  C   UNL     1      15.252 -44.552  30.846  1.00  0.00     0.018 A 
ATOM      7  C   UNL     1      14.451 -44.362  31.976  1.00  0.00     0.019 A 
ATOM      8  C   UNL     1      14.951 -43.630  33.053  1.00  0.00     0.094 A 
ATOM      9  C   UNL     1      16.245 -43.104  32.974  1.00  0.00     0.336 A 
ATOM     10  O   UNL     1      16.714 -42.441  33.936  1.00  0.00    -0.246 OA
ATOM     11  O   UNL     1      16.986 -43.299  31.886  1.00  0.00    -0.423 OA
ENDROOT
BRANCH   3  12
ATOM     12  O   UNL     1      17.748 -45.052  27.508  1.00  0.00    -0.508 OA
ATOM     13  H   UNL     1      17.535 -45.724  26.779  1.00  0.00     0.293 HD
ENDBRANCH   3  12
TORSDOF 1
ENDMDL
MODEL 7
REMARK VINA RESULT:    -4.689      2.916      3.958
REMARK INTER + INTRA:          -4.826
REMARK INTER:                  -4.826
REMARK INTRA:                   0.000
REMARK UNBOUND:                 0.000
REMARK SMILES O=c1ccc2ccc(O)cc2o1
REMARK SMILES IDX 6 1 7 2 8 3 10 4 11 5 5 6 4 7 3 8 2 9 1 10 12 11 9 12
REMARK H PARENT 9 13
REMARK Flexibility Score: inf
ROOT
ATOM      1  C   UNL     1      16.206 -44.634  31.073  1.00  0.00     0.016 A 
ATOM      2  C   UNL     1      16.592 -43.932  32.219  1.00  0.00     0.047 A 
ATOM      3  C   UNL     1      15.645 -43.207  32.958  1.00  0.00     0.119 A 
ATOM      4  C   UNL     1      14.307 -43.184  32.547  1.00  0.00     0.094 A 
ATOM      5  C   UNL     1      13.911 -43.883  31.402  1.00  0.00     0.142 A 
ATOM      6  C   UNL     1      14.866 -44.613  30.660  1.00  0.00     0.018 A 
ATOM      7  C   UNL     1      14.440 -45.302  29.519  1.00  0.00     0.019 A 
ATOM      8  C   UNL     1      13.096 -45.249  29.151  1.00  0.00     0.094 A 
ATOM      9  C   UNL     1      12.206 -44.506  29.934  1.00  0.00     0.336 A 
ATOM     10  O   UNL     1      10.989 -44.447  29.618  1.00  0.00    -0.246 OA
ATOM     11  O   UNL     1      12.638 -43.860  31.015  1.00  0.00    -0.423 OA
ENDROOT
BRANCH   3  12
ATOM     12  O   UNL     1      16.023 -42.505  34.100  1.00  0.00    -0.508 OA
ATOM     13  H   UNL     1      16.883 -42.719  34.593  1.00  0.00     0.293 HD
ENDBRANCH   3  12
TORSDOF 1
ENDMDL
MODEL 8
REMARK VINA RESULT:    -4.648      2.355      3.506
REMARK INTER + INTRA:          -4.784
REMARK INTER:                  -4.784
REMARK INTRA:                   0.000
REMARK UNBOUND:                 0.000
REMARK SMILES O=c1ccc2ccc(O)cc2o1
REMARK SMILES IDX 6 1 7 2 8 3 10 4 11 5 5 6 4 7 3 8 2 9 1 10 12 11 9 12
REMARK H PARENT 9 13
REMARK Flexibility Score: inf
ROOT
ATOM      1  C   UNL     1      17.647 -45.150  31.752  1.00  0.00     0.016 A 
ATOM      2  C   UNL     1      17.213 -44.446  32.879  1.00  0.00     0.047 A 
ATOM      3  C   UNL     1      16.296 -43.392  32.746  1.00  0.00     0.119 A 
ATOM      4  C   UNL     1      15.813 -43.042  31.480  1.00  0.00     0.094 A 
ATOM      5  C   UNL     1      16.242 -43.741  30.346  1.00  0.00     0.142 A 
ATOM      6  C   UNL     1      17.164 -44.802  30.483  1.00  0.00     0.018 A 
ATOM      7  C   UNL     1      17.575 -45.482  29.331  1.00  0.00     0.019 A 
ATOM      8  C   UNL     1      17.065 -45.096  28.092  1.00  0.00     0.094 A 
ATOM      9  C   UNL     1      16.153 -44.037  28.033  1.00  0.00     0.336 A 
ATOM     10  O   UNL     1      15.681 -43.675  26.922  1.00  0.00    -0.246 OA
ATOM     11  O   UNL     1      15.779 -43.407  29.144  1.00  0.00    -0.423 OA
ENDROOT
BRANCH   3  12
ATOM     12  O   UNL     1      15.859 -42.686  33.865  1.00  0.00    -0.508 OA
ATOM     13  H   UNL     1      16.469 -42.521  34.657  1.00  0.00     0.293 HD
ENDBRANCH   3  12
TORSDOF 1
ENDMDL
MODEL 9
REMARK VINA RESULT:    -4.607      3.738      4.976
REMARK INTER + INTRA:          -4.741
REMARK INTER:                  -4.741
REMARK INTRA:                   0.000
REMARK UNBOUND:                 0.000
REMARK SMILES O=c1ccc2ccc(O)cc2o1
REMARK SMILES IDX 6 1 7 2 8 3 10 4 11 5 5 6 4 7 3 8 2 9 1 10 12 11 9 12
REMARK H PARENT 9 13
REMARK Flexibility Score: inf
ROOT
ATOM      1  C   UNL     1      17.857 -43.872  25.731  1.00  0.00     0.016 A 
ATOM      2  C   UNL     1      18.260 -42.607  25.292  1.00  0.00     0.047 A 
ATOM      3  C   UNL     1      18.313 -41.530  26.190  1.00  0.00     0.119 A 
ATOM      4  C   UNL     1      17.961 -41.721  27.532  1.00  0.00     0.094 A 
ATOM      5  C   UNL     1      17.556 -42.983  27.979  1.00  0.00     0.142 A 
ATOM      6  C   UNL     1      17.504 -44.066  27.074  1.00  0.00     0.018 A 
ATOM      7  C   UNL     1      17.095 -45.316  27.552  1.00  0.00     0.019 A 
ATOM      8  C   UNL     1      16.755 -45.455  28.897  1.00  0.00     0.094 A 
ATOM      9  C   UNL     1      16.832 -44.339  29.736  1.00  0.00     0.336 A 
ATOM     10  O   UNL     1      16.529 -44.446  30.954  1.00  0.00    -0.246 OA
ATOM     11  O   UNL     1      17.223 -43.161  29.256  1.00  0.00    -0.423 OA
ENDROOT
BRANCH   3  12
ATOM     12  O   UNL     1      18.713 -40.268  25.759  1.00  0.00    -0.508 OA
ATOM     13  H   UNL     1      19.691 -40.001  25.737  1.00  0.00     0.293 HD
ENDBRANCH   3  12
TORSDOF 1
ENDMDL
