MODEL 1
REMARK VINA RESULT:     2.092      0.000      0.000
REMARK INTER + INTRA:           3.177
REMARK INTER:                   3.192
REMARK INTRA:                  -0.015
REMARK UNBOUND:                -0.015
REMARK SMILES OC[C@H]1O[C@@H](O[C@@]2(CO)O[C@H](CO)[C@H](O)[C@@H]2O)[C@@H](O)[C@@H](O)[C@H]1O
REMARK SMILES IDX 6 1 5 2 3 3 22 4 4 5 20 6 18 7 2 8 1 9 23 11 21 13 19 15
REMARK SMILES IDX 7 17 16 18 10 19 14 20 11 21 8 22 9 23 17 25 15 27 12 29
REMARK SMILES IDX 13 30
REMARK H PARENT 1 10 23 12 21 14 19 16 9 24 17 26 15 28 13 31
REMARK Flexibility Score: inf
ROOT
ATOM      1  O   UNL     1     -32.462 -21.500  28.803  1.00  0.00    -0.313 OA
ENDROOT
BRANCH   1   2
ATOM      2  C   UNL     1     -33.188 -20.278  28.817  1.00  0.00     0.285 C 
ATOM      3  C   UNL     1     -33.430 -18.228  27.709  1.00  0.00     0.178 C 
ATOM      4  C   UNL     1     -32.428 -17.419  28.583  1.00  0.00     0.177 C 
ATOM      5  O   UNL     1     -32.988 -19.567  27.596  1.00  0.00    -0.341 OA
ATOM      6  C   UNL     1     -31.778 -18.328  29.661  1.00  0.00     0.179 C 
ATOM      7  C   UNL     1     -32.749 -19.447  30.067  1.00  0.00     0.202 C 
BRANCH   3   8
ATOM      8  C   UNL     1     -33.620 -17.644  26.301  1.00  0.00     0.191 C 
BRANCH   8   9
ATOM      9  O   UNL     1     -33.998 -18.644  25.392  1.00  0.00    -0.394 OA
ATOM     10  H   UNL     1     -34.789 -19.098  25.784  1.00  0.00     0.210 HD
ENDBRANCH   8   9
ENDBRANCH   3   8
BRANCH   4  11
ATOM     11  O   UNL     1     -31.432 -16.818  27.791  1.00  0.00    -0.387 OA
ATOM     12  H   UNL     1     -31.707 -16.938  26.844  1.00  0.00     0.211 HD
ENDBRANCH   4  11
BRANCH   6  13
ATOM     13  O   UNL     1     -30.590 -18.906  29.176  1.00  0.00    -0.387 OA
ATOM     14  H   UNL     1     -30.116 -18.204  28.660  1.00  0.00     0.211 HD
ENDBRANCH   6  13
BRANCH   7  15
ATOM     15  O   UNL     1     -32.150 -20.259  31.045  1.00  0.00    -0.385 OA
ATOM     16  H   UNL     1     -31.363 -19.757  31.388  1.00  0.00     0.211 HD
ENDBRANCH   7  15
ENDBRANCH   1   2
BRANCH   1  17
ATOM     17  C   UNL     1     -32.925 -22.488  27.880  1.00  0.00     0.224 C 
ATOM     18  C   UNL     1     -33.181 -21.750  26.546  1.00  0.00     0.208 C 
ATOM     19  O   UNL     1     -34.167 -23.023  28.314  1.00  0.00    -0.337 OA
ATOM     20  C   UNL     1     -34.475 -22.348  26.053  1.00  0.00     0.180 C 
ATOM     21  C   UNL     1     -35.159 -22.671  27.375  1.00  0.00     0.179 C 
BRANCH  17  22
ATOM     22  C   UNL     1     -31.911 -23.657  27.681  1.00  0.00     0.225 C 
BRANCH  22  23
ATOM     23  O   UNL     1     -32.532 -24.793  27.135  1.00  0.00    -0.391 OA
ATOM     24  H   UNL     1     -33.436 -24.514  26.837  1.00  0.00     0.210 HD
ENDBRANCH  22  23
ENDBRANCH  17  22
BRANCH  18  25
ATOM     25  O   UNL     1     -32.132 -21.894  25.619  1.00  0.00    -0.385 OA
ATOM     26  H   UNL     1     -32.303 -21.240  24.893  1.00  0.00     0.211 HD
ENDBRANCH  18  25
BRANCH  20  27
ATOM     27  O   UNL     1     -34.236 -23.516  25.306  1.00  0.00    -0.387 OA
ATOM     28  H   UNL     1     -33.461 -23.323  24.717  1.00  0.00     0.211 HD
ENDBRANCH  20  27
BRANCH  21  29
ATOM     29  C   UNL     1     -36.211 -23.786  27.281  1.00  0.00     0.191 C 
BRANCH  29  30
ATOM     30  O   UNL     1     -37.505 -23.245  27.260  1.00  0.00    -0.394 OA
ATOM     31  H   UNL     1     -37.700 -22.933  28.181  1.00  0.00     0.210 HD
ENDBRANCH  29  30
ENDBRANCH  21  29
ENDBRANCH   1  17
TORSDOF 13
ENDMDL
MODEL 2
REMARK VINA RESULT:     5.036      1.463      1.984
REMARK INTER + INTRA:           7.671
REMARK INTER:                   8.347
REMARK INTRA:                  -0.676
REMARK UNBOUND:                -0.015
REMARK SMILES OC[C@H]1O[C@@H](O[C@@]2(CO)O[C@H](CO)[C@H](O)[C@@H]2O)[C@@H](O)[C@@H](O)[C@H]1O
REMARK SMILES IDX 6 1 5 2 3 3 22 4 4 5 20 6 18 7 2 8 1 9 23 11 21 13 19 15
REMARK SMILES IDX 7 17 16 18 10 19 14 20 11 21 8 22 9 23 17 25 15 27 12 29
REMARK SMILES IDX 13 30
REMARK H PARENT 1 10 23 12 21 14 19 16 9 24 17 26 15 28 13 31
REMARK Flexibility Score: inf
ROOT
ATOM      1  O   UNL     1     -31.543 -20.398  29.098  1.00  0.00    -0.313 OA
ENDROOT
BRANCH   1   2
ATOM      2  C   UNL     1     -32.617 -19.467  29.068  1.00  0.00     0.285 C 
ATOM      3  C   UNL     1     -33.831 -18.051  27.650  1.00  0.00     0.178 C 
ATOM      4  C   UNL     1     -32.981 -16.769  27.887  1.00  0.00     0.177 C 
ATOM      5  O   UNL     1     -32.999 -19.193  27.720  1.00  0.00    -0.341 OA
ATOM      6  C   UNL     1     -31.801 -17.061  28.853  1.00  0.00     0.179 C 
ATOM      7  C   UNL     1     -32.185 -18.177  29.837  1.00  0.00     0.202 C 
BRANCH   3   8
ATOM      8  C   UNL     1     -34.569 -18.053  26.303  1.00  0.00     0.191 C 
BRANCH   8   9
ATOM      9  O   UNL     1     -34.099 -19.085  25.476  1.00  0.00    -0.394 OA
ATOM     10  H   UNL     1     -33.128 -18.924  25.346  1.00  0.00     0.210 HD
ENDBRANCH   8   9
ENDBRANCH   3   8
BRANCH   4  11
ATOM     11  O   UNL     1     -32.496 -16.249  26.672  1.00  0.00    -0.387 OA
ATOM     12  H   UNL     1     -33.288 -15.950  26.152  1.00  0.00     0.211 HD
ENDBRANCH   4  11
BRANCH   6  13
ATOM     13  O   UNL     1     -30.656 -17.455  28.137  1.00  0.00    -0.387 OA
ATOM     14  H   UNL     1     -30.082 -16.651  28.041  1.00  0.00     0.211 HD
ENDBRANCH   6  13
BRANCH   7  15
ATOM     15  O   UNL     1     -31.111 -18.427  30.708  1.00  0.00    -0.385 OA
ATOM     16  H   UNL     1     -30.294 -18.486  30.143  1.00  0.00     0.211 HD
ENDBRANCH   7  15
ENDBRANCH   1   2
BRANCH   1  17
ATOM     17  C   UNL     1     -31.909 -21.775  28.980  1.00  0.00     0.224 C 
ATOM     18  C   UNL     1     -31.485 -22.216  27.560  1.00  0.00     0.208 C 
ATOM     19  O   UNL     1     -33.319 -21.918  29.066  1.00  0.00    -0.337 OA
ATOM     20  C   UNL     1     -32.643 -23.063  27.092  1.00  0.00     0.180 C 
ATOM     21  C   UNL     1     -33.798 -22.396  27.827  1.00  0.00     0.179 C 
BRANCH  17  22
ATOM     22  C   UNL     1     -31.240 -22.677  30.063  1.00  0.00     0.225 C 
BRANCH  22  23
ATOM     23  O   UNL     1     -29.986 -22.176  30.451  1.00  0.00    -0.391 OA
ATOM     24  H   UNL     1     -29.439 -22.953  30.733  1.00  0.00     0.210 HD
ENDBRANCH  22  23
ENDBRANCH  17  22
BRANCH  18  25
ATOM     25  O   UNL     1     -30.262 -22.911  27.534  1.00  0.00    -0.385 OA
ATOM     26  H   UNL     1     -30.365 -23.689  28.142  1.00  0.00     0.211 HD
ENDBRANCH  18  25
BRANCH  20  27
ATOM     27  O   UNL     1     -32.484 -24.400  27.503  1.00  0.00    -0.387 OA
ATOM     28  H   UNL     1     -33.256 -24.904  27.135  1.00  0.00     0.211 HD
ENDBRANCH  20  27
BRANCH  21  29
ATOM     29  C   UNL     1     -35.011 -23.309  28.051  1.00  0.00     0.191 C 
BRANCH  29  30
ATOM     30  O   UNL     1     -35.866 -23.278  26.940  1.00  0.00    -0.394 OA
ATOM     31  H   UNL     1     -36.086 -24.221  26.722  1.00  0.00     0.210 HD
ENDBRANCH  29  30
ENDBRANCH  21  29
ENDBRANCH   1  17
TORSDOF 13
ENDMDL
