MODEL 1
REMARK VINA RESULT:    -4.003      0.000      0.000
REMARK INTER + INTRA:          -5.076
REMARK INTER:                  -4.939
REMARK INTRA:                  -0.137
REMARK UNBOUND:                -0.137
REMARK SMILES CCCCCC(=O)[O-]
REMARK SMILES IDX 4 1 5 2 6 3 7 4 8 5 3 6 2 7 1 8
REMARK H PARENT
REMARK Flexibility Score: inf
ROOT
ATOM      1  C   UNL     1     -22.934 -29.299  40.463  1.00  0.00     0.006 C 
ENDROOT
BRANCH   1   2
ATOM      2  C   UNL     1     -24.238 -29.039  41.221  1.00  0.00     0.053 C 
BRANCH   2   3
ATOM      3  C   UNL     1     -25.392 -28.968  40.271  1.00  0.00     0.041 C 
ATOM      4  O   UNL     1     -26.076 -27.915  40.183  1.00  0.00    -0.550 OA
ATOM      5  O   UNL     1     -25.742 -30.082  39.518  1.00  0.00    -0.550 OA
ENDBRANCH   2   3
ENDBRANCH   1   2
BRANCH   1   6
ATOM      6  C   UNL     1     -22.436 -28.022  39.771  1.00  0.00     0.000 C 
BRANCH   6   7
ATOM      7  C   UNL     1     -22.214 -28.215  38.263  1.00  0.00    -0.003 C 
ATOM      8  C   UNL     1     -21.134 -27.289  37.702  1.00  0.00     0.004 C 
ENDBRANCH   6   7
ENDBRANCH   1   6
TORSDOF 4
ENDMDL
MODEL 2
REMARK VINA RESULT:    -3.919      0.841      1.754
REMARK INTER + INTRA:          -4.972
REMARK INTER:                  -4.829
REMARK INTRA:                  -0.144
REMARK UNBOUND:                -0.137
REMARK SMILES CCCCCC(=O)[O-]
REMARK SMILES IDX 4 1 5 2 6 3 7 4 8 5 3 6 2 7 1 8
REMARK H PARENT
REMARK Flexibility Score: inf
ROOT
ATOM      1  C   UNL     1     -22.578 -28.164  39.674  1.00  0.00     0.006 C 
ENDROOT
BRANCH   1   2
ATOM      2  C   UNL     1     -23.337 -29.406  40.150  1.00  0.00     0.053 C 
BRANCH   2   3
ATOM      3  C   UNL     1     -24.714 -29.436  39.566  1.00  0.00     0.041 C 
ATOM      4  O   UNL     1     -25.051 -30.365  38.786  1.00  0.00    -0.550 OA
ATOM      5  O   UNL     1     -25.609 -28.410  39.842  1.00  0.00    -0.550 OA
ENDBRANCH   2   3
ENDBRANCH   1   2
BRANCH   1   6
ATOM      6  C   UNL     1     -22.234 -28.270  38.181  1.00  0.00     0.000 C 
BRANCH   6   7
ATOM      7  C   UNL     1     -21.141 -27.279  37.754  1.00  0.00    -0.003 C 
ATOM      8  C   UNL     1     -20.619 -26.437  38.919  1.00  0.00     0.004 C 
ENDBRANCH   6   7
ENDBRANCH   1   6
TORSDOF 4
ENDMDL
MODEL 3
REMARK VINA RESULT:    -3.871      0.533      1.235
REMARK INTER + INTRA:          -4.912
REMARK INTER:                  -4.779
REMARK INTRA:                  -0.134
REMARK UNBOUND:                -0.137
REMARK SMILES CCCCCC(=O)[O-]
REMARK SMILES IDX 4 1 5 2 6 3 7 4 8 5 3 6 2 7 1 8
REMARK H PARENT
REMARK Flexibility Score: inf
ROOT
ATOM      1  C   UNL     1     -23.048 -29.092  40.507  1.00  0.00     0.006 C 
ENDROOT
BRANCH   1   2
ATOM      2  C   UNL     1     -24.210 -28.543  41.340  1.00  0.00     0.053 C 
BRANCH   2   3
ATOM      3  C   UNL     1     -25.435 -28.393  40.495  1.00  0.00     0.041 C 
ATOM      4  O   UNL     1     -25.636 -29.171  39.526  1.00  0.00    -0.550 OA
ATOM      5  O   UNL     1     -26.332 -27.362  40.748  1.00  0.00    -0.550 OA
ENDBRANCH   2   3
ENDBRANCH   1   2
BRANCH   1   6
ATOM      6  C   UNL     1     -22.301 -27.957  39.791  1.00  0.00     0.000 C 
BRANCH   6   7
ATOM      7  C   UNL     1     -22.140 -28.212  38.285  1.00  0.00    -0.003 C 
ATOM      8  C   UNL     1     -21.147 -27.254  37.626  1.00  0.00     0.004 C 
ENDBRANCH   6   7
ENDBRANCH   1   6
TORSDOF 4
ENDMDL
MODEL 4
REMARK VINA RESULT:    -3.851      1.343      1.702
REMARK INTER + INTRA:          -4.888
REMARK INTER:                  -4.738
REMARK INTRA:                  -0.150
REMARK UNBOUND:                -0.137
REMARK SMILES CCCCCC(=O)[O-]
REMARK SMILES IDX 4 1 5 2 6 3 7 4 8 5 3 6 2 7 1 8
REMARK H PARENT
REMARK Flexibility Score: inf
ROOT
ATOM      1  C   UNL     1     -22.664 -28.759  39.603  1.00  0.00     0.006 C 
ENDROOT
BRANCH   1   2
ATOM      2  C   UNL     1     -24.130 -28.972  39.990  1.00  0.00     0.053 C 
BRANCH   2   3
ATOM      3  C   UNL     1     -24.906 -29.509  38.829  1.00  0.00     0.041 C 
ATOM      4  O   UNL     1     -25.849 -30.322  39.019  1.00  0.00    -0.550 OA
ATOM      5  O   UNL     1     -24.555 -29.152  37.533  1.00  0.00    -0.550 OA
ENDBRANCH   2   3
ENDBRANCH   1   2
BRANCH   1   6
ATOM      6  C   UNL     1     -22.167 -27.383  40.069  1.00  0.00     0.000 C 
BRANCH   6   7
ATOM      7  C   UNL     1     -21.152 -26.761  39.098  1.00  0.00    -0.003 C 
ATOM      8  C   UNL     1     -21.260 -27.332  37.684  1.00  0.00     0.004 C 
ENDBRANCH   6   7
ENDBRANCH   1   6
TORSDOF 4
ENDMDL
MODEL 5
REMARK VINA RESULT:    -3.790      1.697      2.409
REMARK INTER + INTRA:          -4.812
REMARK INTER:                  -4.697
REMARK INTRA:                  -0.116
REMARK UNBOUND:                -0.137
REMARK SMILES CCCCCC(=O)[O-]
REMARK SMILES IDX 4 1 5 2 6 3 7 4 8 5 3 6 2 7 1 8
REMARK H PARENT
REMARK Flexibility Score: inf
ROOT
ATOM      1  C   UNL     1     -22.132 -28.184  38.206  1.00  0.00     0.006 C 
ENDROOT
BRANCH   1   2
ATOM      2  C   UNL     1     -22.620 -28.629  39.588  1.00  0.00     0.053 C 
BRANCH   2   3
ATOM      3  C   UNL     1     -23.984 -29.236  39.492  1.00  0.00     0.041 C 
ATOM      4  O   UNL     1     -24.570 -29.306  38.380  1.00  0.00    -0.550 OA
ATOM      5  O   UNL     1     -24.629 -29.681  40.639  1.00  0.00    -0.550 OA
ENDBRANCH   2   3
ENDBRANCH   1   2
BRANCH   1   6
ATOM      6  C   UNL     1     -21.112 -27.042  38.325  1.00  0.00     0.000 C 
BRANCH   6   7
ATOM      7  C   UNL     1     -21.079 -26.423  39.730  1.00  0.00    -0.003 C 
ATOM      8  C   UNL     1     -20.086 -25.265  39.842  1.00  0.00     0.004 C 
ENDBRANCH   6   7
ENDBRANCH   1   6
TORSDOF 4
ENDMDL
MODEL 6
REMARK VINA RESULT:    -3.600      3.779      4.972
REMARK INTER + INTRA:          -4.579
REMARK INTER:                  -4.472
REMARK INTRA:                  -0.107
REMARK UNBOUND:                -0.137
REMARK SMILES CCCCCC(=O)[O-]
REMARK SMILES IDX 4 1 5 2 6 3 7 4 8 5 3 6 2 7 1 8
REMARK H PARENT
REMARK Flexibility Score: inf
ROOT
ATOM      1  C   UNL     1     -21.111 -26.991  38.518  1.00  0.00     0.006 C 
ENDROOT
BRANCH   1   2
ATOM      2  C   UNL     1     -21.164 -26.470  39.957  1.00  0.00     0.053 C 
BRANCH   2   3
ATOM      3  C   UNL     1     -20.462 -25.154  40.065  1.00  0.00     0.041 C 
ATOM      4  O   UNL     1     -21.095 -24.124  40.417  1.00  0.00    -0.550 OA
ATOM      5  O   UNL     1     -19.118 -25.053  39.728  1.00  0.00    -0.550 OA
ENDBRANCH   2   3
ENDBRANCH   1   2
BRANCH   1   6
ATOM      6  C   UNL     1     -22.130 -28.119  38.303  1.00  0.00     0.000 C 
BRANCH   6   7
ATOM      7  C   UNL     1     -22.654 -28.702  39.624  1.00  0.00    -0.003 C 
ATOM      8  C   UNL     1     -24.060 -29.288  39.495  1.00  0.00     0.004 C 
ENDBRANCH   6   7
ENDBRANCH   1   6
TORSDOF 4
ENDMDL
MODEL 7
REMARK VINA RESULT:    -3.591      1.865      2.379
REMARK INTER + INTRA:          -4.568
REMARK INTER:                  -4.347
REMARK INTRA:                  -0.221
REMARK UNBOUND:                -0.137
REMARK SMILES CCCCCC(=O)[O-]
REMARK SMILES IDX 4 1 5 2 6 3 7 4 8 5 3 6 2 7 1 8
REMARK H PARENT
REMARK Flexibility Score: inf
ROOT
ATOM      1  C   UNL     1     -24.113 -28.734  41.496  1.00  0.00     0.006 C 
ENDROOT
BRANCH   1   2
ATOM      2  C   UNL     1     -25.292 -28.259  40.642  1.00  0.00     0.053 C 
BRANCH   2   3
ATOM      3  C   UNL     1     -25.769 -26.919  41.105  1.00  0.00     0.041 C 
ATOM      4  O   UNL     1     -26.994 -26.630  41.055  1.00  0.00    -0.550 OA
ATOM      5  O   UNL     1     -24.856 -25.969  41.546  1.00  0.00    -0.550 OA
ENDBRANCH   2   3
ENDBRANCH   1   2
BRANCH   1   6
ATOM      6  C   UNL     1     -22.985 -29.290  40.616  1.00  0.00     0.000 C 
BRANCH   6   7
ATOM      7  C   UNL     1     -22.562 -28.313  39.509  1.00  0.00    -0.003 C 
ATOM      8  C   UNL     1     -21.818 -27.092  40.051  1.00  0.00     0.004 C 
ENDBRANCH   6   7
ENDBRANCH   1   6
TORSDOF 4
ENDMDL
MODEL 8
REMARK VINA RESULT:    -3.527      2.467      3.726
REMARK INTER + INTRA:          -4.488
REMARK INTER:                  -4.229
REMARK INTRA:                  -0.259
REMARK UNBOUND:                -0.137
REMARK SMILES CCCCCC(=O)[O-]
REMARK SMILES IDX 4 1 5 2 6 3 7 4 8 5 3 6 2 7 1 8
REMARK H PARENT
REMARK Flexibility Score: inf
ROOT
ATOM      1  C   UNL     1     -25.480 -29.051  40.402  1.00  0.00     0.006 C 
ENDROOT
BRANCH   1   2
ATOM      2  C   UNL     1     -24.560 -29.137  39.181  1.00  0.00     0.053 C 
BRANCH   2   3
ATOM      3  C   UNL     1     -23.145 -28.842  39.569  1.00  0.00     0.041 C 
ATOM      4  O   UNL     1     -22.330 -28.412  38.711  1.00  0.00    -0.550 OA
ATOM      5  O   UNL     1     -22.714 -29.090  40.866  1.00  0.00    -0.550 OA
ENDBRANCH   2   3
ENDBRANCH   1   2
BRANCH   1   6
ATOM      6  C   UNL     1     -25.999 -27.620  40.599  1.00  0.00     0.000 C 
BRANCH   6   7
ATOM      7  C   UNL     1     -25.447 -26.960  41.872  1.00  0.00    -0.003 C 
ATOM      8  C   UNL     1     -24.407 -25.880  41.574  1.00  0.00     0.004 C 
ENDBRANCH   6   7
ENDBRANCH   1   6
TORSDOF 4
ENDMDL
MODEL 9
REMARK VINA RESULT:    -3.441      2.789      3.582
REMARK INTER + INTRA:          -4.383
REMARK INTER:                  -4.311
REMARK INTRA:                  -0.072
REMARK UNBOUND:                -0.137
REMARK SMILES CCCCCC(=O)[O-]
REMARK SMILES IDX 4 1 5 2 6 3 7 4 8 5 3 6 2 7 1 8
REMARK H PARENT
REMARK Flexibility Score: inf
ROOT
ATOM      1  C   UNL     1     -25.581 -28.283  40.792  1.00  0.00     0.006 C 
ENDROOT
BRANCH   1   2
ATOM      2  C   UNL     1     -24.908 -29.597  40.386  1.00  0.00     0.053 C 
BRANCH   2   3
ATOM      3  C   UNL     1     -25.285 -29.969  38.987  1.00  0.00     0.041 C 
ATOM      4  O   UNL     1     -24.725 -29.407  38.009  1.00  0.00    -0.550 OA
ATOM      5  O   UNL     1     -26.291 -30.900  38.762  1.00  0.00    -0.550 OA
ENDBRANCH   2   3
ENDBRANCH   1   2
BRANCH   1   6
ATOM      6  C   UNL     1     -24.556 -27.298  41.374  1.00  0.00     0.000 C 
BRANCH   6   7
ATOM      7  C   UNL     1     -25.192 -26.281  42.334  1.00  0.00    -0.003 C 
ATOM      8  C   UNL     1     -26.007 -25.211  41.607  1.00  0.00     0.004 C 
ENDBRANCH   6   7
ENDBRANCH   1   6
TORSDOF 4
ENDMDL
