MODEL 1
REMARK VINA RESULT:    -2.818      0.000      0.000
REMARK INTER + INTRA:          -4.581
REMARK INTER:                  -3.971
REMARK INTRA:                  -0.610
REMARK UNBOUND:                -0.610
REMARK SMILES C=CC(=C)CCC=C(C)CCC=C(C)C
REMARK SMILES IDX 8 1 7 2 9 3 10 4 11 5 12 6 14 7 13 8 15 9 6 10 5 11 3 12
REMARK SMILES IDX 4 13 2 14 1 15
REMARK H PARENT
REMARK Flexibility Score: inf
ROOT
ATOM      1  C   UNL     1     -14.397  -2.246  17.874  1.00  0.00    -0.077 C 
ATOM      2  C   UNL     1     -14.260  -2.376  19.214  1.00  0.00    -0.028 C 
ATOM      3  C   UNL     1     -15.617  -1.605  17.256  1.00  0.00     0.039 C 
ENDROOT
BRANCH   1   4
ATOM      4  C   UNL     1     -13.285  -2.737  16.974  1.00  0.00     0.034 C 
BRANCH   4   5
ATOM      5  C   UNL     1     -13.845  -3.223  15.632  1.00  0.00     0.032 C 
BRANCH   5   6
ATOM      6  C   UNL     1     -13.908  -4.729  15.592  1.00  0.00    -0.028 C 
ATOM      7  C   UNL     1     -16.308  -4.768  14.875  1.00  0.00     0.039 C 
ATOM      8  C   UNL     1     -15.015  -5.438  15.278  1.00  0.00    -0.080 C 
ATOM      9  C   UNL     1     -14.938  -6.943  15.316  1.00  0.00     0.039 C 
ENDBRANCH   5   6
ENDBRANCH   4   5
ENDBRANCH   1   4
BRANCH   2  10
ATOM     10  C   UNL     1     -15.309  -1.975  20.220  1.00  0.00     0.032 C 
BRANCH  10  11
ATOM     11  C   UNL     1     -15.011  -2.601  21.587  1.00  0.00     0.039 C 
BRANCH  11  12
ATOM     12  C   UNL     1     -13.816  -1.933  22.235  1.00  0.00    -0.055 C 
ATOM     13  C   UNL     1     -12.594  -2.422  22.000  1.00  0.00     0.012 C 
BRANCH  12  14
ATOM     14  C   UNL     1     -13.959  -0.780  23.161  1.00  0.00    -0.005 C 
ATOM     15  C   UNL     1     -15.089  -0.467  23.795  1.00  0.00     0.009 C 
ENDBRANCH  12  14
ENDBRANCH  11  12
ENDBRANCH  10  11
ENDBRANCH   2  10
TORSDOF 7
ENDMDL
MODEL 2
REMARK VINA RESULT:    -2.452      1.721      3.837
REMARK INTER + INTRA:          -4.065
REMARK INTER:                  -3.740
REMARK INTRA:                  -0.325
REMARK UNBOUND:                -0.610
REMARK SMILES C=CC(=C)CCC=C(C)CCC=C(C)C
REMARK SMILES IDX 8 1 7 2 9 3 10 4 11 5 12 6 14 7 13 8 15 9 6 10 5 11 3 12
REMARK SMILES IDX 4 13 2 14 1 15
REMARK H PARENT
REMARK Flexibility Score: inf
ROOT
ATOM      1  C   UNL     1     -14.569  -2.680  17.098  1.00  0.00    -0.077 C 
ATOM      2  C   UNL     1     -14.916  -2.504  18.394  1.00  0.00    -0.028 C 
ATOM      3  C   UNL     1     -13.126  -2.795  16.669  1.00  0.00     0.039 C 
ENDROOT
BRANCH   1   4
ATOM      4  C   UNL     1     -15.660  -2.787  16.057  1.00  0.00     0.034 C 
BRANCH   4   5
ATOM      5  C   UNL     1     -16.595  -1.574  16.121  1.00  0.00     0.032 C 
BRANCH   5   6
ATOM      6  C   UNL     1     -15.866  -0.363  16.648  1.00  0.00    -0.028 C 
ATOM      7  C   UNL     1     -17.930   0.640  17.652  1.00  0.00     0.039 C 
ATOM      8  C   UNL     1     -16.457   0.652  17.316  1.00  0.00    -0.080 C 
ATOM      9  C   UNL     1     -15.605   1.818  17.751  1.00  0.00     0.039 C 
ENDBRANCH   5   6
ENDBRANCH   4   5
ENDBRANCH   1   4
BRANCH   2  10
ATOM     10  C   UNL     1     -13.932  -2.333  19.524  1.00  0.00     0.032 C 
BRANCH  10  11
ATOM     11  C   UNL     1     -14.664  -2.012  20.832  1.00  0.00     0.039 C 
BRANCH  11  12
ATOM     12  C   UNL     1     -13.686  -1.910  21.983  1.00  0.00    -0.055 C 
ATOM     13  C   UNL     1     -12.579  -2.660  21.962  1.00  0.00     0.012 C 
BRANCH  12  14
ATOM     14  C   UNL     1     -13.937  -1.041  23.162  1.00  0.00    -0.005 C 
ATOM     15  C   UNL     1     -15.151  -0.668  23.569  1.00  0.00     0.009 C 
ENDBRANCH  12  14
ENDBRANCH  11  12
ENDBRANCH  10  11
ENDBRANCH   2  10
TORSDOF 7
ENDMDL
MODEL 3
REMARK VINA RESULT:    -2.084      0.766      6.992
REMARK INTER + INTRA:          -3.546
REMARK INTER:                  -2.859
REMARK INTRA:                  -0.688
REMARK UNBOUND:                -0.610
REMARK SMILES C=CC(=C)CCC=C(C)CCC=C(C)C
REMARK SMILES IDX 8 1 7 2 9 3 10 4 11 5 12 6 14 7 13 8 15 9 6 10 5 11 3 12
REMARK SMILES IDX 4 13 2 14 1 15
REMARK H PARENT
REMARK Flexibility Score: inf
ROOT
ATOM      1  C   UNL     1     -15.275  -1.958  17.254  1.00  0.00    -0.077 C 
ATOM      2  C   UNL     1     -14.246  -2.792  16.980  1.00  0.00    -0.028 C 
ATOM      3  C   UNL     1     -16.321  -1.615  16.220  1.00  0.00     0.039 C 
ENDROOT
BRANCH   1   4
ATOM      4  C   UNL     1     -15.392  -1.374  18.645  1.00  0.00     0.034 C 
BRANCH   4   5
ATOM      5  C   UNL     1     -14.787  -2.323  19.686  1.00  0.00     0.032 C 
BRANCH   5   6
ATOM      6  C   UNL     1     -14.963  -1.772  21.079  1.00  0.00    -0.028 C 
ATOM      7  C   UNL     1     -12.665  -2.452  21.809  1.00  0.00     0.039 C 
ATOM      8  C   UNL     1     -14.027  -1.845  22.051  1.00  0.00    -0.080 C 
ATOM      9  C   UNL     1     -14.359  -1.283  23.410  1.00  0.00     0.039 C 
ENDBRANCH   5   6
ENDBRANCH   4   5
ENDBRANCH   1   4
BRANCH   2  10
ATOM     10  C   UNL     1     -13.984  -3.404  15.627  1.00  0.00     0.032 C 
BRANCH  10  11
ATOM     11  C   UNL     1     -13.812  -4.923  15.747  1.00  0.00     0.039 C 
BRANCH  11  12
ATOM     12  C   UNL     1     -14.996  -5.646  15.142  1.00  0.00    -0.055 C 
ATOM     13  C   UNL     1     -16.110  -4.956  14.875  1.00  0.00     0.012 C 
BRANCH  12  14
ATOM     14  C   UNL     1     -14.981  -7.109  14.877  1.00  0.00    -0.005 C 
ATOM     15  C   UNL     1     -14.403  -8.006  15.676  1.00  0.00     0.009 C 
ENDBRANCH  12  14
ENDBRANCH  11  12
ENDBRANCH  10  11
ENDBRANCH   2  10
TORSDOF 7
ENDMDL
MODEL 4
REMARK VINA RESULT:    -2.071      1.071      1.886
REMARK INTER + INTRA:          -3.529
REMARK INTER:                  -2.774
REMARK INTRA:                  -0.755
REMARK UNBOUND:                -0.610
REMARK SMILES C=CC(=C)CCC=C(C)CCC=C(C)C
REMARK SMILES IDX 8 1 7 2 9 3 10 4 11 5 12 6 14 7 13 8 15 9 6 10 5 11 3 12
REMARK SMILES IDX 4 13 2 14 1 15
REMARK H PARENT
REMARK Flexibility Score: inf
ROOT
ATOM      1  C   UNL     1     -15.857  -1.048  17.706  1.00  0.00    -0.077 C 
ATOM      2  C   UNL     1     -15.239  -2.006  18.436  1.00  0.00    -0.028 C 
ATOM      3  C   UNL     1     -15.538   0.417  17.882  1.00  0.00     0.039 C 
ENDROOT
BRANCH   1   4
ATOM      4  C   UNL     1     -16.876  -1.463  16.669  1.00  0.00     0.034 C 
BRANCH   4   5
ATOM      5  C   UNL     1     -16.185  -1.992  15.407  1.00  0.00     0.032 C 
BRANCH   5   6
ATOM      6  C   UNL     1     -16.112  -3.499  15.428  1.00  0.00    -0.028 C 
ATOM      7  C   UNL     1     -13.635  -3.533  15.795  1.00  0.00     0.039 C 
ATOM      8  C   UNL     1     -14.970  -4.205  15.576  1.00  0.00    -0.080 C 
ATOM      9  C   UNL     1     -15.046  -5.710  15.539  1.00  0.00     0.039 C 
ENDBRANCH   5   6
ENDBRANCH   4   5
ENDBRANCH   1   4
BRANCH   2  10
ATOM     10  C   UNL     1     -14.242  -1.730  19.533  1.00  0.00     0.032 C 
BRANCH  10  11
ATOM     11  C   UNL     1     -14.849  -2.042  20.905  1.00  0.00     0.039 C 
BRANCH  11  12
ATOM     12  C   UNL     1     -13.799  -1.948  21.991  1.00  0.00    -0.055 C 
ATOM     13  C   UNL     1     -12.664  -2.644  21.858  1.00  0.00     0.012 C 
BRANCH  12  14
ATOM     14  C   UNL     1     -14.004  -1.145  23.225  1.00  0.00    -0.005 C 
ATOM     15  C   UNL     1     -15.159  -0.566  23.555  1.00  0.00     0.009 C 
ENDBRANCH  12  14
ENDBRANCH  11  12
ENDBRANCH  10  11
ENDBRANCH   2  10
TORSDOF 7
ENDMDL
MODEL 5
REMARK VINA RESULT:    -0.842      1.959      6.125
REMARK INTER + INTRA:          -1.796
REMARK INTER:                  -1.845
REMARK INTRA:                   0.049
REMARK UNBOUND:                -0.610
REMARK SMILES C=CC(=C)CCC=C(C)CCC=C(C)C
REMARK SMILES IDX 8 1 7 2 9 3 10 4 11 5 12 6 14 7 13 8 15 9 6 10 5 11 3 12
REMARK SMILES IDX 4 13 2 14 1 15
REMARK H PARENT
REMARK Flexibility Score: inf
ROOT
ATOM      1  C   UNL     1     -14.161  -2.358  17.919  1.00  0.00    -0.077 C 
ATOM      2  C   UNL     1     -15.407  -1.951  17.587  1.00  0.00    -0.028 C 
ATOM      3  C   UNL     1     -13.152  -2.769  16.873  1.00  0.00     0.039 C 
ENDROOT
BRANCH   1   4
ATOM      4  C   UNL     1     -13.761  -2.376  19.378  1.00  0.00     0.034 C 
BRANCH   4   5
ATOM      5  C   UNL     1     -14.951  -2.767  20.262  1.00  0.00     0.032 C 
BRANCH   5   6
ATOM      6  C   UNL     1     -15.048  -1.860  21.462  1.00  0.00    -0.028 C 
ATOM      7  C   UNL     1     -12.721  -2.373  22.237  1.00  0.00     0.039 C 
ATOM      8  C   UNL     1     -14.062  -1.691  22.372  1.00  0.00    -0.080 C 
ATOM      9  C   UNL     1     -14.316  -0.777  23.544  1.00  0.00     0.039 C 
ENDBRANCH   5   6
ENDBRANCH   4   5
ENDBRANCH   1   4
BRANCH   2  10
ATOM     10  C   UNL     1     -15.951  -1.930  16.181  1.00  0.00     0.032 C 
BRANCH  10  11
ATOM     11  C   UNL     1     -17.040  -0.860  16.039  1.00  0.00     0.039 C 
BRANCH  11  12
ATOM     12  C   UNL     1     -16.841   0.245  17.055  1.00  0.00    -0.055 C 
ATOM     13  C   UNL     1     -17.867   0.601  17.835  1.00  0.00     0.012 C 
BRANCH  12  14
ATOM     14  C   UNL     1     -15.558   0.984  17.182  1.00  0.00    -0.005 C 
ATOM     15  C   UNL     1     -15.428   2.151  17.813  1.00  0.00     0.009 C 
ENDBRANCH  12  14
ENDBRANCH  11  12
ENDBRANCH  10  11
ENDBRANCH   2  10
TORSDOF 7
ENDMDL
MODEL 6
REMARK VINA RESULT:    -0.826      1.793      6.675
REMARK INTER + INTRA:          -1.774
REMARK INTER:                  -1.231
REMARK INTRA:                  -0.543
REMARK UNBOUND:                -0.610
REMARK SMILES C=CC(=C)CCC=C(C)CCC=C(C)C
REMARK SMILES IDX 8 1 7 2 9 3 10 4 11 5 12 6 14 7 13 8 15 9 6 10 5 11 3 12
REMARK SMILES IDX 4 13 2 14 1 15
REMARK H PARENT
REMARK Flexibility Score: inf
ROOT
ATOM      1  C   UNL     1     -14.264  -2.435  18.924  1.00  0.00    -0.077 C 
ATOM      2  C   UNL     1     -13.674  -2.654  17.727  1.00  0.00    -0.028 C 
ATOM      3  C   UNL     1     -15.760  -2.535  19.105  1.00  0.00     0.039 C 
ENDROOT
BRANCH   1   4
ATOM      4  C   UNL     1     -13.396  -2.106  20.118  1.00  0.00     0.034 C 
BRANCH   4   5
ATOM      5  C   UNL     1     -13.968  -2.730  21.396  1.00  0.00     0.032 C 
BRANCH   5   6
ATOM      6  C   UNL     1     -14.826  -1.738  22.140  1.00  0.00    -0.028 C 
ATOM      7  C   UNL     1     -13.008  -1.138  23.756  1.00  0.00     0.039 C 
ATOM      8  C   UNL     1     -14.416  -1.033  23.218  1.00  0.00    -0.080 C 
ATOM      9  C   UNL     1     -15.398  -0.103  23.883  1.00  0.00     0.039 C 
ENDBRANCH   5   6
ENDBRANCH   4   5
ENDBRANCH   1   4
BRANCH   2  10
ATOM     10  C   UNL     1     -14.420  -2.942  16.449  1.00  0.00     0.032 C 
BRANCH  10  11
ATOM     11  C   UNL     1     -14.919  -1.641  15.811  1.00  0.00     0.039 C 
BRANCH  11  12
ATOM     12  C   UNL     1     -16.419  -1.507  15.967  1.00  0.00    -0.055 C 
ATOM     13  C   UNL     1     -17.218  -2.353  15.306  1.00  0.00     0.012 C 
BRANCH  12  14
ATOM     14  C   UNL     1     -17.038  -0.438  16.792  1.00  0.00    -0.005 C 
ATOM     15  C   UNL     1     -16.365   0.592  17.307  1.00  0.00     0.009 C 
ENDBRANCH  12  14
ENDBRANCH  11  12
ENDBRANCH  10  11
ENDBRANCH   2  10
TORSDOF 7
ENDMDL
MODEL 7
REMARK VINA RESULT:    -0.811      0.977      7.056
REMARK INTER + INTRA:          -1.753
REMARK INTER:                  -1.873
REMARK INTRA:                   0.120
REMARK UNBOUND:                -0.610
REMARK SMILES C=CC(=C)CCC=C(C)CCC=C(C)C
REMARK SMILES IDX 8 1 7 2 9 3 10 4 11 5 12 6 14 7 13 8 15 9 6 10 5 11 3 12
REMARK SMILES IDX 4 13 2 14 1 15
REMARK H PARENT
REMARK Flexibility Score: inf
ROOT
ATOM      1  C   UNL     1     -14.689  -1.983  18.406  1.00  0.00    -0.077 C 
ATOM      2  C   UNL     1     -14.178  -2.396  17.224  1.00  0.00    -0.028 C 
ATOM      3  C   UNL     1     -16.119  -1.515  18.536  1.00  0.00     0.039 C 
ENDROOT
BRANCH   1   4
ATOM      4  C   UNL     1     -13.807  -2.014  19.635  1.00  0.00     0.034 C 
BRANCH   4   5
ATOM      5  C   UNL     1     -14.495  -2.769  20.778  1.00  0.00     0.032 C 
BRANCH   5   6
ATOM      6  C   UNL     1     -15.036  -1.808  21.806  1.00  0.00    -0.028 C 
ATOM      7  C   UNL     1     -12.890  -1.730  23.096  1.00  0.00     0.039 C 
ATOM      8  C   UNL     1     -14.334  -1.351  22.867  1.00  0.00    -0.080 C 
ATOM      9  C   UNL     1     -15.020  -0.421  23.835  1.00  0.00     0.039 C 
ENDBRANCH   5   6
ENDBRANCH   4   5
ENDBRANCH   1   4
BRANCH   2  10
ATOM     10  C   UNL     1     -14.928  -2.372  15.916  1.00  0.00     0.032 C 
BRANCH  10  11
ATOM     11  C   UNL     1     -15.777  -3.638  15.758  1.00  0.00     0.039 C 
BRANCH  11  12
ATOM     12  C   UNL     1     -14.907  -4.826  15.404  1.00  0.00    -0.055 C 
ATOM     13  C   UNL     1     -13.580  -4.719  15.530  1.00  0.00     0.012 C 
BRANCH  12  14
ATOM     14  C   UNL     1     -15.475  -6.094  14.875  1.00  0.00    -0.005 C 
ATOM     15  C   UNL     1     -15.022  -7.306  15.198  1.00  0.00     0.009 C 
ENDBRANCH  12  14
ENDBRANCH  11  12
ENDBRANCH  10  11
ENDBRANCH   2  10
TORSDOF 7
ENDMDL
MODEL 8
REMARK VINA RESULT:    -0.545      1.022      6.810
REMARK INTER + INTRA:          -1.378
REMARK INTER:                  -1.681
REMARK INTRA:                   0.303
REMARK UNBOUND:                -0.610
REMARK SMILES C=CC(=C)CCC=C(C)CCC=C(C)C
REMARK SMILES IDX 8 1 7 2 9 3 10 4 11 5 12 6 14 7 13 8 15 9 6 10 5 11 3 12
REMARK SMILES IDX 4 13 2 14 1 15
REMARK H PARENT
REMARK Flexibility Score: inf
ROOT
ATOM      1  C   UNL     1     -14.953  -2.016  19.046  1.00  0.00    -0.077 C 
ATOM      2  C   UNL     1     -14.963  -1.328  17.881  1.00  0.00    -0.028 C 
ATOM      3  C   UNL     1     -16.135  -2.842  19.494  1.00  0.00     0.039 C 
ENDROOT
BRANCH   1   4
ATOM      4  C   UNL     1     -13.712  -1.973  19.910  1.00  0.00     0.034 C 
BRANCH   4   5
ATOM      5  C   UNL     1     -13.928  -2.756  21.210  1.00  0.00     0.032 C 
BRANCH   5   6
ATOM      6  C   UNL     1     -14.814  -1.987  22.157  1.00  0.00    -0.028 C 
ATOM      7  C   UNL     1     -12.890  -0.846  23.284  1.00  0.00     0.039 C 
ATOM      8  C   UNL     1     -14.361  -1.143  23.112  1.00  0.00    -0.080 C 
ATOM      9  C   UNL     1     -15.366  -0.472  24.012  1.00  0.00     0.039 C 
ENDBRANCH   5   6
ENDBRANCH   4   5
ENDBRANCH   1   4
BRANCH   2  10
ATOM     10  C   UNL     1     -16.146  -1.245  16.951  1.00  0.00     0.032 C 
BRANCH  10  11
ATOM     11  C   UNL     1     -15.845  -1.961  15.629  1.00  0.00     0.039 C 
BRANCH  11  12
ATOM     12  C   UNL     1     -14.872  -3.100  15.846  1.00  0.00    -0.055 C 
ATOM     13  C   UNL     1     -13.565  -2.829  15.928  1.00  0.00     0.012 C 
BRANCH  12  14
ATOM     14  C   UNL     1     -15.313  -4.517  15.923  1.00  0.00    -0.005 C 
ATOM     15  C   UNL     1     -14.702  -5.524  15.298  1.00  0.00     0.009 C 
ENDBRANCH  12  14
ENDBRANCH  11  12
ENDBRANCH  10  11
ENDBRANCH   2  10
TORSDOF 7
ENDMDL
MODEL 9
REMARK VINA RESULT:    -0.339      1.167      6.282
REMARK INTER + INTRA:          -1.088
REMARK INTER:                  -1.629
REMARK INTRA:                   0.541
REMARK UNBOUND:                -0.610
REMARK SMILES C=CC(=C)CCC=C(C)CCC=C(C)C
REMARK SMILES IDX 8 1 7 2 9 3 10 4 11 5 12 6 14 7 13 8 15 9 6 10 5 11 3 12
REMARK SMILES IDX 4 13 2 14 1 15
REMARK H PARENT
REMARK Flexibility Score: inf
ROOT
ATOM      1  C   UNL     1     -15.953  -0.886  17.652  1.00  0.00    -0.077 C 
ATOM      2  C   UNL     1     -15.839  -2.016  16.917  1.00  0.00    -0.028 C 
ATOM      3  C   UNL     1     -16.748   0.303  17.167  1.00  0.00     0.039 C 
ENDROOT
BRANCH   1   4
ATOM      4  C   UNL     1     -15.285  -0.824  19.008  1.00  0.00     0.034 C 
BRANCH   4   5
ATOM      5  C   UNL     1     -15.275  -2.206  19.673  1.00  0.00     0.032 C 
BRANCH   5   6
ATOM      6  C   UNL     1     -13.975  -2.442  20.398  1.00  0.00    -0.028 C 
ATOM      7  C   UNL     1     -14.855  -1.589  22.583  1.00  0.00     0.039 C 
ATOM      8  C   UNL     1     -13.763  -2.147  21.700  1.00  0.00    -0.080 C 
ATOM      9  C   UNL     1     -12.396  -2.403  22.282  1.00  0.00     0.039 C 
ENDBRANCH   5   6
ENDBRANCH   4   5
ENDBRANCH   1   4
BRANCH   2  10
ATOM     10  C   UNL     1     -16.412  -2.194  15.534  1.00  0.00     0.032 C 
BRANCH  10  11
ATOM     11  C   UNL     1     -16.433  -3.677  15.146  1.00  0.00     0.039 C 
BRANCH  11  12
ATOM     12  C   UNL     1     -15.141  -4.356  15.549  1.00  0.00    -0.055 C 
ATOM     13  C   UNL     1     -14.979  -5.655  15.277  1.00  0.00     0.012 C 
BRANCH  12  14
ATOM     14  C   UNL     1     -14.064  -3.639  16.279  1.00  0.00    -0.005 C 
ATOM     15  C   UNL     1     -12.960  -3.163  15.702  1.00  0.00     0.009 C 
ENDBRANCH  12  14
ENDBRANCH  11  12
ENDBRANCH  10  11
ENDBRANCH   2  10
TORSDOF 7
ENDMDL
