MODEL 1
REMARK VINA RESULT:    -3.985      0.000      0.000
REMARK INTER + INTRA:          -4.712
REMARK INTER:                  -4.684
REMARK INTRA:                  -0.028
REMARK UNBOUND:                -0.028
REMARK SMILES CCCCC(=O)[O-]
REMARK SMILES IDX 4 1 5 2 6 3 7 4 3 5 2 6 1 7
REMARK H PARENT
REMARK Flexibility Score: inf
ROOT
ATOM      1  C   UNL     1     -30.848   6.929   5.150  1.00  0.00     0.053 C 
ENDROOT
BRANCH   1   2
ATOM      2  C   UNL     1     -29.745   6.606   6.106  1.00  0.00     0.041 C 
ATOM      3  O   UNL     1     -29.989   6.466   7.333  1.00  0.00    -0.550 OA
ATOM      4  O   UNL     1     -28.451   6.412   5.635  1.00  0.00    -0.550 OA
ENDBRANCH   1   2
BRANCH   1   5
ATOM      5  C   UNL     1     -30.667   6.150   3.841  1.00  0.00     0.006 C 
BRANCH   5   6
ATOM      6  C   UNL     1     -31.919   6.190   2.952  1.00  0.00    -0.003 C 
ATOM      7  C   UNL     1     -33.197   5.841   3.715  1.00  0.00     0.004 C 
ENDBRANCH   5   6
ENDBRANCH   1   5
TORSDOF 3
ENDMDL
MODEL 2
REMARK VINA RESULT:    -3.922      2.621      3.913
REMARK INTER + INTRA:          -4.638
REMARK INTER:                  -4.616
REMARK INTRA:                  -0.022
REMARK UNBOUND:                -0.028
REMARK SMILES CCCCC(=O)[O-]
REMARK SMILES IDX 4 1 5 2 6 3 7 4 3 5 2 6 1 7
REMARK H PARENT
REMARK Flexibility Score: inf
ROOT
ATOM      1  C   UNL     1     -31.066   6.375   4.220  1.00  0.00     0.053 C 
ENDROOT
BRANCH   1   2
ATOM      2  C   UNL     1     -32.560   6.445   4.211  1.00  0.00     0.041 C 
ATOM      3  O   UNL     1     -33.156   7.357   4.842  1.00  0.00    -0.550 OA
ATOM      4  O   UNL     1     -33.294   5.531   3.465  1.00  0.00    -0.550 OA
ENDBRANCH   1   2
BRANCH   1   5
ATOM      5  C   UNL     1     -30.505   7.074   5.465  1.00  0.00     0.006 C 
BRANCH   5   6
ATOM      6  C   UNL     1     -29.152   6.497   5.907  1.00  0.00    -0.003 C 
ATOM      7  C   UNL     1     -29.220   5.811   7.271  1.00  0.00     0.004 C 
ENDBRANCH   5   6
ENDBRANCH   1   5
TORSDOF 3
ENDMDL
MODEL 3
REMARK VINA RESULT:    -3.897     16.130     16.859
REMARK INTER + INTRA:          -4.609
REMARK INTER:                  -4.587
REMARK INTRA:                  -0.022
REMARK UNBOUND:                -0.028
REMARK SMILES CCCCC(=O)[O-]
REMARK SMILES IDX 4 1 5 2 6 3 7 4 3 5 2 6 1 7
REMARK H PARENT
REMARK Flexibility Score: inf
ROOT
ATOM      1  C   UNL     1     -20.277  -5.732   2.134  1.00  0.00     0.053 C 
ENDROOT
BRANCH   1   2
ATOM      2  C   UNL     1     -20.384  -7.178   1.767  1.00  0.00     0.041 C 
ATOM      3  O   UNL     1     -19.413  -7.768   1.224  1.00  0.00    -0.550 OA
ATOM      4  O   UNL     1     -21.541  -7.888   2.068  1.00  0.00    -0.550 OA
ENDBRANCH   1   2
BRANCH   1   5
ATOM      5  C   UNL     1     -19.234  -5.033   1.253  1.00  0.00     0.006 C 
BRANCH   5   6
ATOM      6  C   UNL     1     -19.560  -3.551   1.015  1.00  0.00    -0.003 C 
ATOM      7  C   UNL     1     -19.704  -3.209  -0.468  1.00  0.00     0.004 C 
ENDBRANCH   5   6
ENDBRANCH   1   5
TORSDOF 3
ENDMDL
MODEL 4
REMARK VINA RESULT:    -3.782     15.759     16.462
REMARK INTER + INTRA:          -4.474
REMARK INTER:                  -4.457
REMARK INTRA:                  -0.017
REMARK UNBOUND:                -0.028
REMARK SMILES CCCCC(=O)[O-]
REMARK SMILES IDX 4 1 5 2 6 3 7 4 3 5 2 6 1 7
REMARK H PARENT
REMARK Flexibility Score: inf
ROOT
ATOM      1  C   UNL     1     -18.994  -5.025   1.103  1.00  0.00     0.053 C 
ENDROOT
BRANCH   1   2
ATOM      2  C   UNL     1     -19.449  -3.684   0.622  1.00  0.00     0.041 C 
ATOM      3  O   UNL     1     -19.493  -2.707   1.414  1.00  0.00    -0.550 OA
ATOM      4  O   UNL     1     -19.778  -3.500  -0.716  1.00  0.00    -0.550 OA
ENDBRANCH   1   2
BRANCH   1   5
ATOM      5  C   UNL     1     -20.137  -5.749   1.826  1.00  0.00     0.006 C 
BRANCH   5   6
ATOM      6  C   UNL     1     -20.149  -7.260   1.548  1.00  0.00    -0.003 C 
ATOM      7  C   UNL     1     -21.322  -7.974   2.218  1.00  0.00     0.004 C 
ENDBRANCH   5   6
ENDBRANCH   1   5
TORSDOF 3
ENDMDL
MODEL 5
REMARK VINA RESULT:    -3.329     16.283     16.942
REMARK INTER + INTRA:          -3.942
REMARK INTER:                  -4.056
REMARK INTRA:                   0.114
REMARK UNBOUND:                -0.028
REMARK SMILES CCCCC(=O)[O-]
REMARK SMILES IDX 4 1 5 2 6 3 7 4 3 5 2 6 1 7
REMARK H PARENT
REMARK Flexibility Score: inf
ROOT
ATOM      1  C   UNL     1     -20.374  -5.273   2.238  1.00  0.00     0.053 C 
ENDROOT
BRANCH   1   2
ATOM      2  C   UNL     1     -19.323  -5.006   1.208  1.00  0.00     0.041 C 
ATOM      3  O   UNL     1     -19.370  -3.960   0.510  1.00  0.00    -0.550 OA
ATOM      4  O   UNL     1     -18.262  -5.891   1.052  1.00  0.00    -0.550 OA
ENDBRANCH   1   2
BRANCH   1   5
ATOM      5  C   UNL     1     -20.203  -6.679   2.826  1.00  0.00     0.006 C 
BRANCH   5   6
ATOM      6  C   UNL     1     -20.678  -7.782   1.868  1.00  0.00    -0.003 C 
ATOM      7  C   UNL     1     -21.963  -8.461   2.340  1.00  0.00     0.004 C 
ENDBRANCH   5   6
ENDBRANCH   1   5
TORSDOF 3
ENDMDL
MODEL 6
REMARK VINA RESULT:    -3.230     16.834     17.524
REMARK INTER + INTRA:          -3.825
REMARK INTER:                  -3.728
REMARK INTRA:                  -0.097
REMARK UNBOUND:                -0.028
REMARK SMILES CCCCC(=O)[O-]
REMARK SMILES IDX 4 1 5 2 6 3 7 4 3 5 2 6 1 7
REMARK H PARENT
REMARK Flexibility Score: inf
ROOT
ATOM      1  C   UNL     1     -20.380  -7.297   1.047  1.00  0.00     0.053 C 
ENDROOT
BRANCH   1   2
ATOM      2  C   UNL     1     -21.120  -7.622   2.306  1.00  0.00     0.041 C 
ATOM      3  O   UNL     1     -20.893  -6.974   3.361  1.00  0.00    -0.550 OA
ATOM      4  O   UNL     1     -22.098  -8.611   2.303  1.00  0.00    -0.550 OA
ENDBRANCH   1   2
BRANCH   1   5
ATOM      5  C   UNL     1     -18.872  -7.219   1.318  1.00  0.00     0.006 C 
BRANCH   5   6
ATOM      6  C   UNL     1     -18.267  -5.870   0.902  1.00  0.00    -0.003 C 
ATOM      7  C   UNL     1     -19.269  -4.720   0.994  1.00  0.00     0.004 C 
ENDBRANCH   5   6
ENDBRANCH   1   5
TORSDOF 3
ENDMDL
MODEL 7
REMARK VINA RESULT:    -3.121     17.677     18.255
REMARK INTER + INTRA:          -3.696
REMARK INTER:                  -3.617
REMARK INTRA:                  -0.079
REMARK UNBOUND:                -0.028
REMARK SMILES CCCCC(=O)[O-]
REMARK SMILES IDX 4 1 5 2 6 3 7 4 3 5 2 6 1 7
REMARK H PARENT
REMARK Flexibility Score: inf
ROOT
ATOM      1  C   UNL     1     -33.677 -11.864   2.488  1.00  0.00     0.053 C 
ENDROOT
BRANCH   1   2
ATOM      2  C   UNL     1     -34.787 -11.002   1.979  1.00  0.00     0.041 C 
ATOM      3  O   UNL     1     -35.285 -10.108   2.714  1.00  0.00    -0.550 OA
ATOM      4  O   UNL     1     -35.243 -11.152   0.674  1.00  0.00    -0.550 OA
ENDBRANCH   1   2
BRANCH   1   5
ATOM      5  C   UNL     1     -33.330 -11.491   3.935  1.00  0.00     0.006 C 
BRANCH   5   6
ATOM      6  C   UNL     1     -31.888 -10.983   4.085  1.00  0.00    -0.003 C 
ATOM      7  C   UNL     1     -31.066 -11.155   2.808  1.00  0.00     0.004 C 
ENDBRANCH   5   6
ENDBRANCH   1   5
TORSDOF 3
ENDMDL
MODEL 8
REMARK VINA RESULT:    -2.991     18.413     19.003
REMARK INTER + INTRA:          -3.543
REMARK INTER:                  -3.493
REMARK INTRA:                  -0.051
REMARK UNBOUND:                -0.028
REMARK SMILES CCCCC(=O)[O-]
REMARK SMILES IDX 4 1 5 2 6 3 7 4 3 5 2 6 1 7
REMARK H PARENT
REMARK Flexibility Score: inf
ROOT
ATOM      1  C   UNL     1     -28.320 -11.032  12.015  1.00  0.00     0.053 C 
ENDROOT
BRANCH   1   2
ATOM      2  C   UNL     1     -29.110 -10.517  10.854  1.00  0.00     0.041 C 
ATOM      3  O   UNL     1     -29.923 -11.269  10.256  1.00  0.00    -0.550 OA
ATOM      4  O   UNL     1     -28.983  -9.189  10.462  1.00  0.00    -0.550 OA
ENDBRANCH   1   2
BRANCH   1   5
ATOM      5  C   UNL     1     -27.345 -12.125  11.556  1.00  0.00     0.006 C 
BRANCH   5   6
ATOM      6  C   UNL     1     -25.880 -11.771  11.852  1.00  0.00    -0.003 C 
ATOM      7  C   UNL     1     -25.157 -11.188  10.638  1.00  0.00     0.004 C 
ENDBRANCH   5   6
ENDBRANCH   1   5
TORSDOF 3
ENDMDL
MODEL 9
REMARK VINA RESULT:    -2.983     17.220     17.779
REMARK INTER + INTRA:          -3.534
REMARK INTER:                  -3.503
REMARK INTRA:                  -0.032
REMARK UNBOUND:                -0.028
REMARK SMILES CCCCC(=O)[O-]
REMARK SMILES IDX 4 1 5 2 6 3 7 4 3 5 2 6 1 7
REMARK H PARENT
REMARK Flexibility Score: inf
ROOT
ATOM      1  C   UNL     1     -32.901 -11.836   2.281  1.00  0.00     0.053 C 
ENDROOT
BRANCH   1   2
ATOM      2  C   UNL     1     -31.836 -11.281   3.173  1.00  0.00     0.041 C 
ATOM      3  O   UNL     1     -30.709 -10.975   2.702  1.00  0.00    -0.550 OA
ATOM      4  O   UNL     1     -32.103 -11.056   4.519  1.00  0.00    -0.550 OA
ENDBRANCH   1   2
BRANCH   1   5
ATOM      5  C   UNL     1     -34.292 -11.502   2.837  1.00  0.00     0.006 C 
BRANCH   5   6
ATOM      6  C   UNL     1     -35.170 -10.758   1.821  1.00  0.00    -0.003 C 
ATOM      7  C   UNL     1     -35.837  -9.517   2.414  1.00  0.00     0.004 C 
ENDBRANCH   5   6
ENDBRANCH   1   5
TORSDOF 3
ENDMDL
