MODEL 1
REMARK VINA RESULT:    -5.202      0.000      0.000
REMARK INTER + INTRA:          -6.014
REMARK INTER:                  -5.962
REMARK INTRA:                  -0.052
REMARK UNBOUND:                -0.052
REMARK SMILES COc1cc(C=O)ccc1O
REMARK SMILES IDX 3 1 10 2 9 3 8 4 5 5 4 6 2 7 1 8 11 9 6 11 7 12
REMARK H PARENT 11 10
REMARK Flexibility Score: inf
ROOT
ATOM      1  C   UNL     1       0.253   5.569  23.478  1.00  0.00     0.161 A 
ATOM      2  C   UNL     1      -1.073   5.944  23.765  1.00  0.00     0.157 A 
ATOM      3  C   UNL     1      -1.611   7.104  23.199  1.00  0.00     0.051 A 
ATOM      4  C   UNL     1      -0.841   7.897  22.347  1.00  0.00     0.015 A 
ATOM      5  C   UNL     1       0.481   7.540  22.048  1.00  0.00     0.018 A 
ATOM      6  C   UNL     1       1.025   6.375  22.616  1.00  0.00     0.062 A 
ENDROOT
BRANCH   1   7
ATOM      7  O   UNL     1       0.766   4.399  24.061  1.00  0.00    -0.493 OA
ATOM      8  C   UNL     1       2.136   4.015  24.029  1.00  0.00     0.278 C 
ENDBRANCH   1   7
BRANCH   2   9
ATOM      9  O   UNL     1      -1.872   5.177  24.613  1.00  0.00    -0.504 OA
ATOM     10  H   UNL     1      -2.598   4.563  24.262  1.00  0.00     0.293 HD
ENDBRANCH   2   9
BRANCH   5  11
ATOM     11  C   UNL     1       1.276   8.392  21.145  1.00  0.00     0.260 C 
ATOM     12  O   UNL     1       2.527   8.267  21.066  1.00  0.00    -0.298 OA
ENDBRANCH   5  11
TORSDOF 3
ENDMDL
MODEL 2
REMARK VINA RESULT:    -4.944      1.249      3.604
REMARK INTER + INTRA:          -5.719
REMARK INTER:                  -5.667
REMARK INTRA:                  -0.052
REMARK UNBOUND:                -0.052
REMARK SMILES COc1cc(C=O)ccc1O
REMARK SMILES IDX 3 1 10 2 9 3 8 4 5 5 4 6 2 7 1 8 11 9 6 11 7 12
REMARK H PARENT 11 10
REMARK Flexibility Score: inf
ROOT
ATOM      1  C   UNL     1       1.810   5.498  23.411  1.00  0.00     0.161 A 
ATOM      2  C   UNL     1       2.087   6.523  22.488  1.00  0.00     0.157 A 
ATOM      3  C   UNL     1       1.052   7.334  22.011  1.00  0.00     0.051 A 
ATOM      4  C   UNL     1      -0.260   7.133  22.444  1.00  0.00     0.015 A 
ATOM      5  C   UNL     1      -0.555   6.118  23.364  1.00  0.00     0.018 A 
ATOM      6  C   UNL     1       0.484   5.301  23.845  1.00  0.00     0.062 A 
ENDROOT
BRANCH   1   7
ATOM      7  O   UNL     1       2.870   4.700  23.872  1.00  0.00    -0.493 OA
ATOM      8  C   UNL     1       2.711   3.456  24.546  1.00  0.00     0.278 C 
ENDBRANCH   1   7
BRANCH   2   9
ATOM      9  O   UNL     1       3.385   6.752  22.031  1.00  0.00    -0.504 OA
ATOM     10  H   UNL     1       4.027   7.367  22.516  1.00  0.00     0.293 HD
ENDBRANCH   2   9
BRANCH   5  11
ATOM     11  C   UNL     1      -1.947   5.924  23.810  1.00  0.00     0.260 C 
ATOM     12  O   UNL     1      -2.395   4.774  24.063  1.00  0.00    -0.298 OA
ENDBRANCH   5  11
TORSDOF 3
ENDMDL
MODEL 3
REMARK VINA RESULT:    -4.851      1.417      4.585
REMARK INTER + INTRA:          -5.612
REMARK INTER:                  -5.557
REMARK INTRA:                  -0.055
REMARK UNBOUND:                -0.052
REMARK SMILES COc1cc(C=O)ccc1O
REMARK SMILES IDX 3 1 10 2 9 3 8 4 5 5 4 6 2 7 1 8 11 9 6 11 7 12
REMARK H PARENT 11 10
REMARK Flexibility Score: inf
ROOT
ATOM      1  C   UNL     1       0.778   7.490  21.966  1.00  0.00     0.161 A 
ATOM      2  C   UNL     1       1.894   6.658  22.174  1.00  0.00     0.157 A 
ATOM      3  C   UNL     1       1.789   5.542  23.011  1.00  0.00     0.051 A 
ATOM      4  C   UNL     1       0.581   5.245  23.644  1.00  0.00     0.015 A 
ATOM      5  C   UNL     1      -0.541   6.061  23.448  1.00  0.00     0.018 A 
ATOM      6  C   UNL     1      -0.439   7.184  22.608  1.00  0.00     0.062 A 
ENDROOT
BRANCH   1   7
ATOM      7  O   UNL     1       0.914   8.603  21.120  1.00  0.00    -0.493 OA
ATOM      8  C   UNL     1       0.113   9.778  21.197  1.00  0.00     0.278 C 
ENDBRANCH   1   7
BRANCH   2   9
ATOM      9  O   UNL     1       3.117   6.924  21.559  1.00  0.00    -0.504 OA
ATOM     10  H   UNL     1       3.232   6.899  20.553  1.00  0.00     0.293 HD
ENDBRANCH   2   9
BRANCH   5  11
ATOM     11  C   UNL     1      -1.808   5.728  24.127  1.00  0.00     0.260 C 
ATOM     12  O   UNL     1      -2.292   4.567  24.067  1.00  0.00    -0.298 OA
ENDBRANCH   5  11
TORSDOF 3
ENDMDL
MODEL 4
REMARK VINA RESULT:    -4.634      1.670      3.770
REMARK INTER + INTRA:          -5.363
REMARK INTER:                  -5.297
REMARK INTRA:                  -0.066
REMARK UNBOUND:                -0.052
REMARK SMILES COc1cc(C=O)ccc1O
REMARK SMILES IDX 3 1 10 2 9 3 8 4 5 5 4 6 2 7 1 8 11 9 6 11 7 12
REMARK H PARENT 11 10
REMARK Flexibility Score: inf
ROOT
ATOM      1  C   UNL     1       0.913   7.312  21.904  1.00  0.00     0.161 A 
ATOM      2  C   UNL     1      -0.368   7.586  22.419  1.00  0.00     0.157 A 
ATOM      3  C   UNL     1      -0.933   6.740  23.378  1.00  0.00     0.051 A 
ATOM      4  C   UNL     1      -0.235   5.620  23.831  1.00  0.00     0.015 A 
ATOM      5  C   UNL     1       1.042   5.330  23.331  1.00  0.00     0.018 A 
ATOM      6  C   UNL     1       1.613   6.179  22.366  1.00  0.00     0.062 A 
ENDROOT
BRANCH   1   7
ATOM      7  O   UNL     1       1.454   8.180  20.942  1.00  0.00    -0.493 OA
ATOM      8  C   UNL     1       2.650   8.934  21.116  1.00  0.00     0.278 C 
ENDBRANCH   1   7
BRANCH   2   9
ATOM      9  O   UNL     1      -1.096   8.696  21.989  1.00  0.00    -0.504 OA
ATOM     10  H   UNL     1      -0.714   9.634  22.012  1.00  0.00     0.293 HD
ENDBRANCH   2   9
BRANCH   5  11
ATOM     11  C   UNL     1       1.763   4.142  23.824  1.00  0.00     0.260 C 
ATOM     12  O   UNL     1       2.920   4.238  24.312  1.00  0.00    -0.298 OA
ENDBRANCH   5  11
TORSDOF 3
ENDMDL
MODEL 5
REMARK VINA RESULT:    -4.625      1.672      3.985
REMARK INTER + INTRA:          -5.354
REMARK INTER:                  -5.279
REMARK INTRA:                  -0.075
REMARK UNBOUND:                -0.052
REMARK SMILES COc1cc(C=O)ccc1O
REMARK SMILES IDX 3 1 10 2 9 3 8 4 5 5 4 6 2 7 1 8 11 9 6 11 7 12
REMARK H PARENT 11 10
REMARK Flexibility Score: inf
ROOT
ATOM      1  C   UNL     1      -0.393   6.948  23.174  1.00  0.00     0.161 A 
ATOM      2  C   UNL     1       0.225   7.490  22.032  1.00  0.00     0.157 A 
ATOM      3  C   UNL     1       1.337   6.856  21.468  1.00  0.00     0.051 A 
ATOM      4  C   UNL     1       1.841   5.683  22.032  1.00  0.00     0.015 A 
ATOM      5  C   UNL     1       1.239   5.126  23.169  1.00  0.00     0.018 A 
ATOM      6  C   UNL     1       0.122   5.763  23.738  1.00  0.00     0.062 A 
ENDROOT
BRANCH   1   7
ATOM      7  O   UNL     1      -1.507   7.607  23.717  1.00  0.00    -0.493 OA
ATOM      8  C   UNL     1      -1.456   8.502  24.823  1.00  0.00     0.278 C 
ENDBRANCH   1   7
BRANCH   2   9
ATOM      9  O   UNL     1      -0.251   8.662  21.442  1.00  0.00    -0.504 OA
ATOM     10  H   UNL     1      -1.238   8.888  21.412  1.00  0.00     0.293 HD
ENDBRANCH   2   9
BRANCH   5  11
ATOM     11  C   UNL     1       1.788   3.886  23.747  1.00  0.00     0.260 C 
ATOM     12  O   UNL     1       2.943   3.858  24.250  1.00  0.00    -0.298 OA
ENDBRANCH   5  11
TORSDOF 3
ENDMDL
MODEL 6
REMARK VINA RESULT:    -4.573      1.747      2.918
REMARK INTER + INTRA:          -5.294
REMARK INTER:                  -5.238
REMARK INTRA:                  -0.056
REMARK UNBOUND:                -0.052
REMARK SMILES COc1cc(C=O)ccc1O
REMARK SMILES IDX 3 1 10 2 9 3 8 4 5 5 4 6 2 7 1 8 11 9 6 11 7 12
REMARK H PARENT 11 10
REMARK Flexibility Score: inf
ROOT
ATOM      1  C   UNL     1       0.143   6.236  23.079  1.00  0.00     0.161 A 
ATOM      2  C   UNL     1       1.403   5.840  22.594  1.00  0.00     0.157 A 
ATOM      3  C   UNL     1       2.064   6.620  21.640  1.00  0.00     0.051 A 
ATOM      4  C   UNL     1       1.480   7.793  21.161  1.00  0.00     0.015 A 
ATOM      5  C   UNL     1       0.226   8.205  21.632  1.00  0.00     0.018 A 
ATOM      6  C   UNL     1      -0.441   7.422  22.591  1.00  0.00     0.062 A 
ENDROOT
BRANCH   1   7
ATOM      7  O   UNL     1      -0.496   5.432  24.037  1.00  0.00    -0.493 OA
ATOM      8  C   UNL     1      -1.885   5.123  24.035  1.00  0.00     0.278 C 
ENDBRANCH   1   7
BRANCH   2   9
ATOM      9  O   UNL     1       2.017   4.672  23.049  1.00  0.00    -0.504 OA
ATOM     10  H   UNL     1       3.022   4.547  23.028  1.00  0.00     0.293 HD
ENDBRANCH   2   9
BRANCH   5  11
ATOM     11  C   UNL     1      -0.372   9.449  21.112  1.00  0.00     0.260 C 
ATOM     12  O   UNL     1      -1.346   9.419  20.314  1.00  0.00    -0.298 OA
ENDBRANCH   5  11
TORSDOF 3
ENDMDL
MODEL 7
REMARK VINA RESULT:    -4.509      1.988      2.572
REMARK INTER + INTRA:          -5.220
REMARK INTER:                  -5.150
REMARK INTRA:                  -0.070
REMARK UNBOUND:                -0.052
REMARK SMILES COc1cc(C=O)ccc1O
REMARK SMILES IDX 3 1 10 2 9 3 8 4 5 5 4 6 2 7 1 8 11 9 6 11 7 12
REMARK H PARENT 11 10
REMARK Flexibility Score: inf
ROOT
ATOM      1  C   UNL     1       1.187   6.709  22.392  1.00  0.00     0.161 A 
ATOM      2  C   UNL     1       0.322   6.090  23.313  1.00  0.00     0.157 A 
ATOM      3  C   UNL     1      -1.023   6.467  23.375  1.00  0.00     0.051 A 
ATOM      4  C   UNL     1      -1.518   7.458  22.526  1.00  0.00     0.015 A 
ATOM      5  C   UNL     1      -0.673   8.086  21.601  1.00  0.00     0.018 A 
ATOM      6  C   UNL     1       0.680   7.710  21.538  1.00  0.00     0.062 A 
ENDROOT
BRANCH   1   7
ATOM      7  O   UNL     1       2.533   6.310  22.354  1.00  0.00    -0.493 OA
ATOM      8  C   UNL     1       3.632   7.141  22.710  1.00  0.00     0.278 C 
ENDBRANCH   1   7
BRANCH   2   9
ATOM      9  O   UNL     1       0.782   5.096  24.179  1.00  0.00    -0.504 OA
ATOM     10  H   UNL     1       0.394   4.966  25.105  1.00  0.00     0.293 HD
ENDBRANCH   2   9
BRANCH   5  11
ATOM     11  C   UNL     1      -1.217   9.130  20.713  1.00  0.00     0.260 C 
ATOM     12  O   UNL     1      -2.109   8.862  19.864  1.00  0.00    -0.298 OA
ENDBRANCH   5  11
TORSDOF 3
ENDMDL
MODEL 8
REMARK VINA RESULT:    -4.438      2.263      3.572
REMARK INTER + INTRA:          -5.139
REMARK INTER:                  -5.071
REMARK INTRA:                  -0.068
REMARK UNBOUND:                -0.052
REMARK SMILES COc1cc(C=O)ccc1O
REMARK SMILES IDX 3 1 10 2 9 3 8 4 5 5 4 6 2 7 1 8 11 9 6 11 7 12
REMARK H PARENT 11 10
REMARK Flexibility Score: inf
ROOT
ATOM      1  C   UNL     1       1.739   6.664  21.876  1.00  0.00     0.161 A 
ATOM      2  C   UNL     1       2.801   7.584  21.951  1.00  0.00     0.157 A 
ATOM      3  C   UNL     1       2.583   8.931  21.644  1.00  0.00     0.051 A 
ATOM      4  C   UNL     1       1.316   9.372  21.261  1.00  0.00     0.015 A 
ATOM      5  C   UNL     1       0.245   8.471  21.181  1.00  0.00     0.018 A 
ATOM      6  C   UNL     1       0.462   7.116  21.488  1.00  0.00     0.062 A 
ENDROOT
BRANCH   1   7
ATOM      7  O   UNL     1       1.988   5.318  22.190  1.00  0.00    -0.493 OA
ATOM      8  C   UNL     1       1.389   4.617  23.275  1.00  0.00     0.278 C 
ENDBRANCH   1   7
BRANCH   2   9
ATOM      9  O   UNL     1       4.081   7.180  22.329  1.00  0.00    -0.504 OA
ATOM     10  H   UNL     1       4.297   6.217  22.559  1.00  0.00     0.293 HD
ENDBRANCH   2   9
BRANCH   5  11
ATOM     11  C   UNL     1      -1.085   8.959  20.774  1.00  0.00     0.260 C 
ATOM     12  O   UNL     1      -1.859   8.242  20.085  1.00  0.00    -0.298 OA
ENDBRANCH   5  11
TORSDOF 3
ENDMDL
MODEL 9
REMARK VINA RESULT:    -4.234      5.324      8.007
REMARK INTER + INTRA:          -4.905
REMARK INTER:                  -4.855
REMARK INTRA:                  -0.050
REMARK UNBOUND:                -0.052
REMARK SMILES COc1cc(C=O)ccc1O
REMARK SMILES IDX 3 1 10 2 9 3 8 4 5 5 4 6 2 7 1 8 11 9 6 11 7 12
REMARK H PARENT 11 10
REMARK Flexibility Score: inf
ROOT
ATOM      1  C   UNL     1       5.099   4.058  25.433  1.00  0.00     0.161 A 
ATOM      2  C   UNL     1       5.814   5.262  25.297  1.00  0.00     0.157 A 
ATOM      3  C   UNL     1       7.119   5.362  25.790  1.00  0.00     0.051 A 
ATOM      4  C   UNL     1       7.721   4.272  26.419  1.00  0.00     0.015 A 
ATOM      5  C   UNL     1       7.026   3.063  26.563  1.00  0.00     0.018 A 
ATOM      6  C   UNL     1       5.714   2.960  26.069  1.00  0.00     0.062 A 
ENDROOT
BRANCH   1   7
ATOM      7  O   UNL     1       3.790   3.988  24.928  1.00  0.00    -0.493 OA
ATOM      8  C   UNL     1       3.019   2.794  24.848  1.00  0.00     0.278 C 
ENDBRANCH   1   7
BRANCH   2   9
ATOM      9  O   UNL     1       5.243   6.373  24.676  1.00  0.00    -0.504 OA
ATOM     10  H   UNL     1       4.265   6.612  24.788  1.00  0.00     0.293 HD
ENDBRANCH   2   9
BRANCH   5  11
ATOM     11  C   UNL     1       7.683   1.924  27.230  1.00  0.00     0.260 C 
ATOM     12  O   UNL     1       7.499   1.693  28.455  1.00  0.00    -0.298 OA
ENDBRANCH   5  11
TORSDOF 3
ENDMDL
