MODEL 1
REMARK VINA RESULT:    -7.439      0.000      0.000
REMARK INTER + INTRA:          -7.613
REMARK INTER:                  -8.092
REMARK INTRA:                   0.478
REMARK UNBOUND:                 0.478
REMARK SMILES C[C@H]1[C@@H](C)CC[C@]2(C(=O)[O-])CC[C@]3(C)C(=CC[C@@H]4[C@]5(C)CC[C@H](O)C(C)(C)[C@@H]5CC[C@]43C)[C@@H]12
REMARK SMILES IDX 7 1 6 2 11 3 33 4 5 5 12 6 15 7 2 8 3 9 13 10 16 11 1 12
REMARK SMILES IDX 4 13 14 14 31 15 17 16 18 17 30 18 32 19 19 20 29 21 28 22
REMARK SMILES IDX 21 23 20 24 25 25 22 26 23 27 26 28 27 29 8 30 9 31 10 32
REMARK SMILES IDX 24 33
REMARK H PARENT 24 34
REMARK Flexibility Score: inf
ROOT
ATOM      1  C   UNL     1     -13.307 -10.454  98.142  1.00  0.00     0.017 C 
ATOM      2  C   UNL     1     -13.539 -11.090  99.546  1.00  0.00     0.014 C 
ATOM      3  C   UNL     1     -13.514 -11.566  97.086  1.00  0.00     0.014 C 
ATOM      4  C   UNL     1     -11.827  -9.936  98.072  1.00  0.00     0.030 C 
ATOM      5  C   UNL     1     -13.236 -10.121 100.695  1.00  0.00     0.004 C 
ATOM      6  C   UNL     1     -13.171 -11.100  95.662  1.00  0.00     0.013 C 
ATOM      7  C   UNL     1     -11.384  -9.557  96.635  1.00  0.00    -0.063 C 
ATOM      8  C   UNL     1     -11.481  -8.940  99.240  1.00  0.00    -0.003 C 
ATOM      9  C   UNL     1     -11.788  -9.606 100.614  1.00  0.00    -0.011 C 
ATOM     10  C   UNL     1     -11.710 -10.548  95.487  1.00  0.00    -0.006 C 
ATOM     11  C   UNL     1     -10.474  -8.566  96.432  1.00  0.00    -0.027 C 
ATOM     12  C   UNL     1     -12.118  -7.536  99.106  1.00  0.00     0.008 C 
ATOM     13  C   UNL     1     -11.467  -8.693 101.808  1.00  0.00     0.008 C 
ATOM     14  C   UNL     1     -10.753 -11.780  95.661  1.00  0.00     0.017 C 
ATOM     15  C   UNL     1     -11.530  -9.828  94.046  1.00  0.00    -0.020 C 
ATOM     16  C   UNL     1     -10.023  -8.073  95.080  1.00  0.00     0.032 C 
ATOM     17  C   UNL     1     -10.104  -9.158  93.984  1.00  0.00     0.006 C 
ATOM     18  C   UNL     1     -11.629 -10.843  92.886  1.00  0.00     0.008 C 
ATOM     19  C   UNL     1     -12.670  -8.768  93.859  1.00  0.00     0.012 C 
ATOM     20  C   UNL     1      -9.473  -8.720  92.568  1.00  0.00    -0.025 C 
ATOM     21  C   UNL     1     -11.366 -10.198  91.528  1.00  0.00     0.005 C 
ATOM     22  C   UNL     1      -9.900  -9.710  91.387  1.00  0.00     0.003 C 
ATOM     23  C   UNL     1      -9.821  -7.235  92.216  1.00  0.00     0.010 C 
ATOM     24  C   UNL     1      -7.912  -8.802  92.753  1.00  0.00     0.012 C 
ATOM     25  C   UNL     1      -9.574  -9.192  89.910  1.00  0.00    -0.006 C 
ATOM     26  C   UNL     1      -9.408  -6.789  90.808  1.00  0.00     0.033 C 
ATOM     27  C   UNL     1      -9.985  -7.699  89.722  1.00  0.00     0.120 C 
ATOM     28  C   UNL     1      -8.062  -9.369  89.582  1.00  0.00     0.014 C 
ATOM     29  C   UNL     1     -10.300 -10.036  88.821  1.00  0.00     0.014 C 
ENDROOT
BRANCH   1  30
ATOM     30  C   UNL     1     -14.342  -9.361  97.886  1.00  0.00     0.048 C 
ATOM     31  O   UNL     1     -15.465  -9.397  98.457  1.00  0.00    -0.550 OA
ATOM     32  O   UNL     1     -14.118  -8.372  96.937  1.00  0.00    -0.550 OA
ENDBRANCH   1  30
BRANCH  27  33
ATOM     33  O   UNL     1     -11.386  -7.557  89.723  1.00  0.00    -0.393 OA
ATOM     34  H   UNL     1     -11.674  -7.409  88.783  1.00  0.00     0.210 HD
ENDBRANCH  27  33
TORSDOF 2
ENDMDL
MODEL 2
REMARK VINA RESULT:    -7.346      1.531      1.913
REMARK INTER + INTRA:          -7.512
REMARK INTER:                  -7.987
REMARK INTRA:                   0.475
REMARK UNBOUND:                 0.478
REMARK SMILES C[C@H]1[C@@H](C)CC[C@]2(C(=O)[O-])CC[C@]3(C)C(=CC[C@@H]4[C@]5(C)CC[C@H](O)C(C)(C)[C@@H]5CC[C@]43C)[C@@H]12
REMARK SMILES IDX 7 1 6 2 11 3 33 4 5 5 12 6 15 7 2 8 3 9 13 10 16 11 1 12
REMARK SMILES IDX 4 13 14 14 31 15 17 16 18 17 30 18 32 19 19 20 29 21 28 22
REMARK SMILES IDX 21 23 20 24 25 25 22 26 23 27 26 28 27 29 8 30 9 31 10 32
REMARK SMILES IDX 24 33
REMARK H PARENT 24 34
REMARK Flexibility Score: inf
ROOT
ATOM      1  C   UNL     1     -12.644  -9.768  98.356  1.00  0.00     0.017 C 
ATOM      2  C   UNL     1     -12.414 -10.241  99.823  1.00  0.00     0.014 C 
ATOM      3  C   UNL     1     -13.489 -10.850  97.643  1.00  0.00     0.014 C 
ATOM      4  C   UNL     1     -11.246  -9.648  97.650  1.00  0.00     0.030 C 
ATOM      5  C   UNL     1     -11.475  -9.315 100.607  1.00  0.00     0.004 C 
ATOM      6  C   UNL     1     -13.663 -10.569  96.141  1.00  0.00     0.013 C 
ATOM      7  C   UNL     1     -11.355  -9.477  96.113  1.00  0.00    -0.063 C 
ATOM      8  C   UNL     1     -10.257  -8.706  98.430  1.00  0.00    -0.003 C 
ATOM      9  C   UNL     1     -10.112  -9.190  99.904  1.00  0.00    -0.011 C 
ATOM     10  C   UNL     1     -12.319 -10.418  95.342  1.00  0.00    -0.006 C 
ATOM     11  C   UNL     1     -10.420  -8.763  95.429  1.00  0.00    -0.027 C 
ATOM     12  C   UNL     1     -10.583  -7.196  98.333  1.00  0.00     0.008 C 
ATOM     13  C   UNL     1      -9.150  -8.322 100.730  1.00  0.00     0.008 C 
ATOM     14  C   UNL     1     -11.655 -11.840  95.329  1.00  0.00     0.017 C 
ATOM     15  C   UNL     1     -12.592  -9.852  93.849  1.00  0.00    -0.020 C 
ATOM     16  C   UNL     1     -10.464  -8.480  93.949  1.00  0.00     0.032 C 
ATOM     17  C   UNL     1     -11.208  -9.571  93.148  1.00  0.00     0.006 C 
ATOM     18  C   UNL     1     -13.364 -10.873  92.984  1.00  0.00     0.008 C 
ATOM     19  C   UNL     1     -13.460  -8.550  93.946  1.00  0.00     0.012 C 
ATOM     20  C   UNL     1     -11.129  -9.391  91.548  1.00  0.00    -0.025 C 
ATOM     21  C   UNL     1     -13.545 -10.397  91.546  1.00  0.00     0.005 C 
ATOM     22  C   UNL     1     -12.196 -10.306  90.786  1.00  0.00     0.003 C 
ATOM     23  C   UNL     1     -11.271  -7.888  91.129  1.00  0.00     0.010 C 
ATOM     24  C   UNL     1      -9.682  -9.854  91.138  1.00  0.00     0.012 C 
ATOM     25  C   UNL     1     -12.396  -9.974  89.235  1.00  0.00    -0.006 C 
ATOM     26  C   UNL     1     -11.380  -7.645  89.620  1.00  0.00     0.033 C 
ATOM     27  C   UNL     1     -12.525  -8.439  88.988  1.00  0.00     0.120 C 
ATOM     28  C   UNL     1     -11.221 -10.548  88.389  1.00  0.00     0.014 C 
ATOM     29  C   UNL     1     -13.661 -10.669  88.648  1.00  0.00     0.014 C 
ENDROOT
BRANCH   1  30
ATOM     30  C   UNL     1     -13.439  -8.464  98.346  1.00  0.00     0.048 C 
ATOM     31  O   UNL     1     -14.216  -8.182  99.298  1.00  0.00    -0.550 OA
ATOM     32  O   UNL     1     -13.415  -7.620  97.243  1.00  0.00    -0.550 OA
ENDBRANCH   1  30
BRANCH  27  33
ATOM     33  O   UNL     1     -13.741  -7.946  89.498  1.00  0.00    -0.393 OA
ATOM     34  H   UNL     1     -13.762  -6.967  89.334  1.00  0.00     0.210 HD
ENDBRANCH  27  33
TORSDOF 2
ENDMDL
MODEL 3
REMARK VINA RESULT:    -7.228      1.738      8.217
REMARK INTER + INTRA:          -7.383
REMARK INTER:                  -7.859
REMARK INTRA:                   0.476
REMARK UNBOUND:                 0.478
REMARK SMILES C[C@H]1[C@@H](C)CC[C@]2(C(=O)[O-])CC[C@]3(C)C(=CC[C@@H]4[C@]5(C)CC[C@H](O)C(C)(C)[C@@H]5CC[C@]43C)[C@@H]12
REMARK SMILES IDX 7 1 6 2 11 3 33 4 5 5 12 6 15 7 2 8 3 9 13 10 16 11 1 12
REMARK SMILES IDX 4 13 14 14 31 15 17 16 18 17 30 18 32 19 19 20 29 21 28 22
REMARK SMILES IDX 21 23 20 24 25 25 22 26 23 27 26 28 27 29 8 30 9 31 10 32
REMARK SMILES IDX 24 33
REMARK H PARENT 24 34
REMARK Flexibility Score: inf
ROOT
ATOM      1  C   UNL     1      -9.162  -7.550  91.041  1.00  0.00     0.017 C 
ATOM      2  C   UNL     1      -7.866  -7.618  90.178  1.00  0.00     0.014 C 
ATOM      3  C   UNL     1      -8.935  -6.487  92.142  1.00  0.00     0.014 C 
ATOM      4  C   UNL     1      -9.385  -8.954  91.709  1.00  0.00     0.030 C 
ATOM      5  C   UNL     1      -7.910  -8.732  89.125  1.00  0.00     0.004 C 
ATOM      6  C   UNL     1     -10.091  -6.427  93.154  1.00  0.00     0.013 C 
ATOM      7  C   UNL     1     -10.464  -8.931  92.823  1.00  0.00    -0.063 C 
ATOM      8  C   UNL     1      -9.433 -10.121  90.656  1.00  0.00    -0.003 C 
ATOM      9  C   UNL     1      -8.143 -10.104  89.783  1.00  0.00    -0.011 C 
ATOM     10  C   UNL     1     -10.405  -7.789  93.871  1.00  0.00    -0.006 C 
ATOM     11  C   UNL     1     -11.229 -10.031  93.065  1.00  0.00    -0.027 C 
ATOM     12  C   UNL     1     -10.724 -10.175  89.804  1.00  0.00     0.008 C 
ATOM     13  C   UNL     1      -8.113 -11.225  88.733  1.00  0.00     0.008 C 
ATOM     14  C   UNL     1      -9.178  -8.087  94.803  1.00  0.00     0.017 C 
ATOM     15  C   UNL     1     -11.798  -7.703  94.696  1.00  0.00    -0.020 C 
ATOM     16  C   UNL     1     -12.347 -10.097  94.074  1.00  0.00     0.032 C 
ATOM     17  C   UNL     1     -12.145  -9.132  95.263  1.00  0.00     0.006 C 
ATOM     18  C   UNL     1     -11.693  -6.730  95.891  1.00  0.00     0.008 C 
ATOM     19  C   UNL     1     -12.925  -7.176  93.742  1.00  0.00     0.012 C 
ATOM     20  C   UNL     1     -13.229  -9.296  96.444  1.00  0.00    -0.025 C 
ATOM     21  C   UNL     1     -12.964  -6.709  96.735  1.00  0.00     0.005 C 
ATOM     22  C   UNL     1     -13.207  -8.060  97.457  1.00  0.00     0.003 C 
ATOM     23  C   UNL     1     -14.669  -9.536  95.876  1.00  0.00     0.010 C 
ATOM     24  C   UNL     1     -12.814 -10.597  97.226  1.00  0.00     0.012 C 
ATOM     25  C   UNL     1     -14.438  -7.990  98.475  1.00  0.00    -0.006 C 
ATOM     26  C   UNL     1     -15.788  -9.531  96.924  1.00  0.00     0.033 C 
ATOM     27  C   UNL     1     -15.796  -8.244  97.752  1.00  0.00     0.120 C 
ATOM     28  C   UNL     1     -14.257  -9.012  99.636  1.00  0.00     0.014 C 
ATOM     29  C   UNL     1     -14.522  -6.610  99.195  1.00  0.00     0.014 C 
ENDROOT
BRANCH   1  30
ATOM     30  C   UNL     1     -10.340  -7.097  90.182  1.00  0.00     0.048 C 
ATOM     31  O   UNL     1     -10.147  -6.393  89.153  1.00  0.00    -0.550 OA
ATOM     32  O   UNL     1     -11.648  -7.348  90.573  1.00  0.00    -0.550 OA
ENDBRANCH   1  30
BRANCH  27  33
ATOM     33  O   UNL     1     -16.125  -7.171  96.902  1.00  0.00    -0.393 OA
ATOM     34  H   UNL     1     -16.579  -7.548  96.103  1.00  0.00     0.210 HD
ENDBRANCH  27  33
TORSDOF 2
ENDMDL
MODEL 4
REMARK VINA RESULT:    -7.017      1.876      8.056
REMARK INTER + INTRA:          -7.154
REMARK INTER:                  -7.633
REMARK INTRA:                   0.478
REMARK UNBOUND:                 0.478
REMARK SMILES C[C@H]1[C@@H](C)CC[C@]2(C(=O)[O-])CC[C@]3(C)C(=CC[C@@H]4[C@]5(C)CC[C@H](O)C(C)(C)[C@@H]5CC[C@]43C)[C@@H]12
REMARK SMILES IDX 7 1 6 2 11 3 33 4 5 5 12 6 15 7 2 8 3 9 13 10 16 11 1 12
REMARK SMILES IDX 4 13 14 14 31 15 17 16 18 17 30 18 32 19 19 20 29 21 28 22
REMARK SMILES IDX 21 23 20 24 25 25 22 26 23 27 26 28 27 29 8 30 9 31 10 32
REMARK SMILES IDX 24 33
REMARK H PARENT 24 34
REMARK Flexibility Score: inf
ROOT
ATOM      1  C   UNL     1     -11.345  -9.691  91.409  1.00  0.00     0.017 C 
ATOM      2  C   UNL     1     -11.211 -10.294  89.978  1.00  0.00     0.014 C 
ATOM      3  C   UNL     1     -10.087 -10.106  92.209  1.00  0.00     0.014 C 
ATOM      4  C   UNL     1     -12.622 -10.305  92.087  1.00  0.00     0.030 C 
ATOM      5  C   UNL     1     -12.460 -10.065  89.117  1.00  0.00     0.004 C 
ATOM      6  C   UNL     1     -10.166  -9.694  93.688  1.00  0.00     0.013 C 
ATOM      7  C   UNL     1     -12.697 -10.018  93.609  1.00  0.00    -0.063 C 
ATOM      8  C   UNL     1     -13.922 -10.090  91.228  1.00  0.00    -0.003 C 
ATOM      9  C   UNL     1     -13.710 -10.656  89.792  1.00  0.00    -0.011 C 
ATOM     10  C   UNL     1     -11.419 -10.247  94.457  1.00  0.00    -0.006 C 
ATOM     11  C   UNL     1     -13.902  -9.884  94.227  1.00  0.00    -0.027 C 
ATOM     12  C   UNL     1     -14.462  -8.639  91.219  1.00  0.00     0.008 C 
ATOM     13  C   UNL     1     -14.945 -10.490  88.893  1.00  0.00     0.008 C 
ATOM     14  C   UNL     1     -11.215 -11.799  94.567  1.00  0.00     0.017 C 
ATOM     15  C   UNL     1     -11.567  -9.542  95.909  1.00  0.00    -0.020 C 
ATOM     16  C   UNL     1     -14.090  -9.541  95.683  1.00  0.00     0.032 C 
ATOM     17  C   UNL     1     -12.918 -10.013  96.571  1.00  0.00     0.006 C 
ATOM     18  C   UNL     1     -10.411  -9.937  96.855  1.00  0.00     0.008 C 
ATOM     19  C   UNL     1     -11.530  -7.985  95.727  1.00  0.00     0.012 C 
ATOM     20  C   UNL     1     -13.161  -9.816  98.152  1.00  0.00    -0.025 C 
ATOM     21  C   UNL     1     -10.586  -9.359  98.257  1.00  0.00     0.005 C 
ATOM     22  C   UNL     1     -11.809  -9.968  98.991  1.00  0.00     0.003 C 
ATOM     23  C   UNL     1     -13.869  -8.454  98.461  1.00  0.00     0.010 C 
ATOM     24  C   UNL     1     -14.151 -10.963  98.577  1.00  0.00     0.012 C 
ATOM     25  C   UNL     1     -11.896  -9.496 100.516  1.00  0.00    -0.006 C 
ATOM     26  C   UNL     1     -13.983  -8.107  99.950  1.00  0.00     0.033 C 
ATOM     27  C   UNL     1     -12.623  -8.123 100.652  1.00  0.00     0.120 C 
ATOM     28  C   UNL     1     -12.619 -10.565 101.388  1.00  0.00     0.014 C 
ATOM     29  C   UNL     1     -10.486  -9.365 101.169  1.00  0.00     0.014 C 
ENDROOT
BRANCH   1  30
ATOM     30  C   UNL     1     -11.375  -8.166  91.333  1.00  0.00     0.048 C 
ATOM     31  O   UNL     1     -10.827  -7.563  90.371  1.00  0.00    -0.550 OA
ATOM     32  O   UNL     1     -11.902  -7.410  92.372  1.00  0.00    -0.550 OA
ENDBRANCH   1  30
BRANCH  27  33
ATOM     33  O   UNL     1     -11.838  -7.081 100.122  1.00  0.00    -0.393 OA
ATOM     34  H   UNL     1     -11.666  -6.431 100.853  1.00  0.00     0.210 HD
ENDBRANCH  27  33
TORSDOF 2
ENDMDL
MODEL 5
REMARK VINA RESULT:    -6.934      5.003      7.200
REMARK INTER + INTRA:          -7.064
REMARK INTER:                  -7.540
REMARK INTRA:                   0.476
REMARK UNBOUND:                 0.478
REMARK SMILES C[C@H]1[C@@H](C)CC[C@]2(C(=O)[O-])CC[C@]3(C)C(=CC[C@@H]4[C@]5(C)CC[C@H](O)C(C)(C)[C@@H]5CC[C@]43C)[C@@H]12
REMARK SMILES IDX 7 1 6 2 11 3 33 4 5 5 12 6 15 7 2 8 3 9 13 10 16 11 1 12
REMARK SMILES IDX 4 13 14 14 31 15 17 16 18 17 30 18 32 19 19 20 29 21 28 22
REMARK SMILES IDX 21 23 20 24 25 25 22 26 23 27 26 28 27 29 8 30 9 31 10 32
REMARK SMILES IDX 24 33
REMARK H PARENT 24 34
REMARK Flexibility Score: inf
ROOT
ATOM      1  C   UNL     1      -6.776  -6.708  93.182  1.00  0.00     0.017 C 
ATOM      2  C   UNL     1      -5.302  -6.324  93.511  1.00  0.00     0.014 C 
ATOM      3  C   UNL     1      -6.818  -8.235  92.938  1.00  0.00     0.014 C 
ATOM      4  C   UNL     1      -7.202  -5.957  91.870  1.00  0.00     0.030 C 
ATOM      5  C   UNL     1      -5.097  -4.810  93.648  1.00  0.00     0.004 C 
ATOM      6  C   UNL     1      -8.197  -8.720  92.460  1.00  0.00     0.013 C 
ATOM      7  C   UNL     1      -8.534  -6.483  91.275  1.00  0.00    -0.063 C 
ATOM      8  C   UNL     1      -7.002  -4.400  91.975  1.00  0.00    -0.003 C 
ATOM      9  C   UNL     1      -5.529  -4.078  92.364  1.00  0.00    -0.011 C 
ATOM     10  C   UNL     1      -8.722  -8.018  91.156  1.00  0.00    -0.006 C 
ATOM     11  C   UNL     1      -9.363  -5.647  90.593  1.00  0.00    -0.027 C 
ATOM     12  C   UNL     1      -8.026  -3.674  92.880  1.00  0.00     0.008 C 
ATOM     13  C   UNL     1      -5.254  -2.571  92.478  1.00  0.00     0.008 C 
ATOM     14  C   UNL     1      -7.789  -8.505  89.992  1.00  0.00     0.017 C 
ATOM     15  C   UNL     1     -10.279  -8.381  90.889  1.00  0.00    -0.020 C 
ATOM     16  C   UNL     1     -10.707  -6.036  90.032  1.00  0.00     0.032 C 
ATOM     17  C   UNL     1     -10.799  -7.534  89.666  1.00  0.00     0.006 C 
ATOM     18  C   UNL     1     -10.466  -9.875  90.546  1.00  0.00     0.008 C 
ATOM     19  C   UNL     1     -11.104  -8.078  92.188  1.00  0.00     0.012 C 
ATOM     20  C   UNL     1     -12.158  -7.950  88.908  1.00  0.00    -0.025 C 
ATOM     21  C   UNL     1     -11.912 -10.214  90.197  1.00  0.00     0.005 C 
ATOM     22  C   UNL     1     -12.370  -9.534  88.880  1.00  0.00     0.003 C 
ATOM     23  C   UNL     1     -13.404  -7.223  89.516  1.00  0.00     0.010 C 
ATOM     24  C   UNL     1     -11.995  -7.438  87.428  1.00  0.00     0.012 C 
ATOM     25  C   UNL     1     -13.822 -10.021  88.421  1.00  0.00    -0.006 C 
ATOM     26  C   UNL     1     -14.758  -7.691  88.969  1.00  0.00     0.033 C 
ATOM     27  C   UNL     1     -14.950  -9.201  89.120  1.00  0.00     0.120 C 
ATOM     28  C   UNL     1     -13.977  -9.921  86.875  1.00  0.00     0.014 C 
ATOM     29  C   UNL     1     -14.057 -11.530  88.729  1.00  0.00     0.014 C 
ENDROOT
BRANCH   1  30
ATOM     30  C   UNL     1      -7.676  -6.395  94.376  1.00  0.00     0.048 C 
ATOM     31  O   UNL     1      -7.211  -6.403  95.547  1.00  0.00    -0.550 OA
ATOM     32  O   UNL     1      -9.043  -6.211  94.211  1.00  0.00    -0.550 OA
ENDBRANCH   1  30
BRANCH  27  33
ATOM     33  O   UNL     1     -15.018  -9.505  90.494  1.00  0.00    -0.393 OA
ATOM     34  H   UNL     1     -14.103  -9.410  90.868  1.00  0.00     0.210 HD
ENDBRANCH  27  33
TORSDOF 2
ENDMDL
MODEL 6
REMARK VINA RESULT:    -6.776      1.923      2.961
REMARK INTER + INTRA:          -6.892
REMARK INTER:                  -7.366
REMARK INTRA:                   0.474
REMARK UNBOUND:                 0.478
REMARK SMILES C[C@H]1[C@@H](C)CC[C@]2(C(=O)[O-])CC[C@]3(C)C(=CC[C@@H]4[C@]5(C)CC[C@H](O)C(C)(C)[C@@H]5CC[C@]43C)[C@@H]12
REMARK SMILES IDX 7 1 6 2 11 3 33 4 5 5 12 6 15 7 2 8 3 9 13 10 16 11 1 12
REMARK SMILES IDX 4 13 14 14 31 15 17 16 18 17 30 18 32 19 19 20 29 21 28 22
REMARK SMILES IDX 21 23 20 24 25 25 22 26 23 27 26 28 27 29 8 30 9 31 10 32
REMARK SMILES IDX 24 33
REMARK H PARENT 24 34
REMARK Flexibility Score: inf
ROOT
ATOM      1  C   UNL     1     -12.438  -9.716  99.129  1.00  0.00     0.017 C 
ATOM      2  C   UNL     1     -12.149  -9.416 100.631  1.00  0.00     0.014 C 
ATOM      3  C   UNL     1     -11.129 -10.251  98.499  1.00  0.00     0.014 C 
ATOM      4  C   UNL     1     -12.844  -8.371  98.426  1.00  0.00     0.030 C 
ATOM      5  C   UNL     1     -13.335  -8.754 101.344  1.00  0.00     0.004 C 
ATOM      6  C   UNL     1     -11.242 -10.447  96.979  1.00  0.00     0.013 C 
ATOM      7  C   UNL     1     -12.863  -8.477  96.879  1.00  0.00    -0.063 C 
ATOM      8  C   UNL     1     -14.057  -7.664  99.134  1.00  0.00    -0.003 C 
ATOM      9  C   UNL     1     -13.738  -7.445 100.643  1.00  0.00    -0.011 C 
ATOM     10  C   UNL     1     -11.658  -9.160  96.180  1.00  0.00    -0.006 C 
ATOM     11  C   UNL     1     -13.731  -7.727  96.146  1.00  0.00    -0.027 C 
ATOM     12  C   UNL     1     -15.428  -8.347  98.912  1.00  0.00     0.008 C 
ATOM     13  C   UNL     1     -14.877  -6.748 101.403  1.00  0.00     0.008 C 
ATOM     14  C   UNL     1     -10.446  -8.168  96.287  1.00  0.00     0.017 C 
ATOM     15  C   UNL     1     -12.023  -9.523  94.644  1.00  0.00    -0.020 C 
ATOM     16  C   UNL     1     -13.880  -7.799  94.648  1.00  0.00     0.032 C 
ATOM     17  C   UNL     1     -12.581  -8.232  93.932  1.00  0.00     0.006 C 
ATOM     18  C   UNL     1     -10.780  -9.997  93.859  1.00  0.00     0.008 C 
ATOM     19  C   UNL     1     -13.075 -10.686  94.629  1.00  0.00     0.012 C 
ATOM     20  C   UNL     1     -12.652  -8.156  92.324  1.00  0.00    -0.025 C 
ATOM     21  C   UNL     1     -11.085 -10.251  92.386  1.00  0.00     0.005 C 
ATOM     22  C   UNL     1     -11.447  -8.945  91.631  1.00  0.00     0.003 C 
ATOM     23  C   UNL     1     -14.037  -8.649  91.784  1.00  0.00     0.010 C 
ATOM     24  C   UNL     1     -12.529  -6.629  91.963  1.00  0.00     0.012 C 
ATOM     25  C   UNL     1     -11.599  -9.178  90.057  1.00  0.00    -0.006 C 
ATOM     26  C   UNL     1     -14.129  -8.774  90.259  1.00  0.00     0.033 C 
ATOM     27  C   UNL     1     -13.031  -9.672  89.685  1.00  0.00     0.120 C 
ATOM     28  C   UNL     1     -11.269  -7.876  89.269  1.00  0.00     0.014 C 
ATOM     29  C   UNL     1     -10.572 -10.218  89.518  1.00  0.00     0.014 C 
ENDROOT
BRANCH   1  30
ATOM     30  C   UNL     1     -13.501 -10.805  99.007  1.00  0.00     0.048 C 
ATOM     31  O   UNL     1     -13.637 -11.670  99.915  1.00  0.00    -0.550 OA
ATOM     32  O   UNL     1     -14.258 -10.939  97.851  1.00  0.00    -0.550 OA
ENDBRANCH   1  30
BRANCH  27  33
ATOM     33  O   UNL     1     -13.247 -10.986  90.145  1.00  0.00    -0.393 OA
ATOM     34  H   UNL     1     -14.149 -11.268  89.838  1.00  0.00     0.210 HD
ENDBRANCH  27  33
TORSDOF 2
ENDMDL
MODEL 7
REMARK VINA RESULT:    -6.749      1.796      8.246
REMARK INTER + INTRA:          -6.862
REMARK INTER:                  -7.339
REMARK INTRA:                   0.477
REMARK UNBOUND:                 0.478
REMARK SMILES C[C@H]1[C@@H](C)CC[C@]2(C(=O)[O-])CC[C@]3(C)C(=CC[C@@H]4[C@]5(C)CC[C@H](O)C(C)(C)[C@@H]5CC[C@]43C)[C@@H]12
REMARK SMILES IDX 7 1 6 2 11 3 33 4 5 5 12 6 15 7 2 8 3 9 13 10 16 11 1 12
REMARK SMILES IDX 4 13 14 14 31 15 17 16 18 17 30 18 32 19 19 20 29 21 28 22
REMARK SMILES IDX 21 23 20 24 25 25 22 26 23 27 26 28 27 29 8 30 9 31 10 32
REMARK SMILES IDX 24 33
REMARK H PARENT 24 34
REMARK Flexibility Score: inf
ROOT
ATOM      1  C   UNL     1     -11.517  -8.478  90.497  1.00  0.00     0.017 C 
ATOM      2  C   UNL     1     -10.952  -8.790  89.079  1.00  0.00     0.014 C 
ATOM      3  C   UNL     1     -10.323  -8.092  91.402  1.00  0.00     0.014 C 
ATOM      4  C   UNL     1     -12.197  -9.779  91.056  1.00  0.00     0.030 C 
ATOM      5  C   UNL     1     -12.023  -9.315  88.114  1.00  0.00     0.004 C 
ATOM      6  C   UNL     1     -10.732  -7.900  92.871  1.00  0.00     0.013 C 
ATOM      7  C   UNL     1     -12.530  -9.688  92.568  1.00  0.00    -0.063 C 
ATOM      8  C   UNL     1     -13.300 -10.346  90.089  1.00  0.00    -0.003 C 
ATOM      9  C   UNL     1     -12.695 -10.582  88.673  1.00  0.00    -0.011 C 
ATOM     10  C   UNL     1     -11.435  -9.144  93.523  1.00  0.00    -0.006 C 
ATOM     11  C   UNL     1     -13.604 -10.349  93.079  1.00  0.00    -0.027 C 
ATOM     12  C   UNL     1     -14.610  -9.523  90.043  1.00  0.00     0.008 C 
ATOM     13  C   UNL     1     -13.714 -11.146  87.670  1.00  0.00     0.008 C 
ATOM     14  C   UNL     1     -10.335 -10.258  93.639  1.00  0.00     0.017 C 
ATOM     15  C   UNL     1     -12.076  -8.761  94.962  1.00  0.00    -0.020 C 
ATOM     16  C   UNL     1     -14.056 -10.277  94.516  1.00  0.00     0.032 C 
ATOM     17  C   UNL     1     -12.900  -9.993  95.499  1.00  0.00     0.006 C 
ATOM     18  C   UNL     1     -10.983  -8.429  96.002  1.00  0.00     0.008 C 
ATOM     19  C   UNL     1     -12.983  -7.493  94.796  1.00  0.00     0.012 C 
ATOM     20  C   UNL     1     -13.314 -10.077  97.054  1.00  0.00    -0.025 C 
ATOM     21  C   UNL     1     -11.564  -8.160  97.388  1.00  0.00     0.005 C 
ATOM     22  C   UNL     1     -12.207  -9.428  98.008  1.00  0.00     0.003 C 
ATOM     23  C   UNL     1     -14.723  -9.445  97.311  1.00  0.00     0.010 C 
ATOM     24  C   UNL     1     -13.425 -11.612  97.383  1.00  0.00     0.012 C 
ATOM     25  C   UNL     1     -12.662  -9.197  99.523  1.00  0.00    -0.006 C 
ATOM     26  C   UNL     1     -15.121  -9.327  98.787  1.00  0.00     0.033 C 
ATOM     27  C   UNL     1     -14.082  -8.557  99.605  1.00  0.00     0.120 C 
ATOM     28  C   UNL     1     -12.639 -10.535 100.319  1.00  0.00     0.014 C 
ATOM     29  C   UNL     1     -11.670  -8.278 100.297  1.00  0.00     0.014 C 
ENDROOT
BRANCH   1  30
ATOM     30  C   UNL     1     -12.466  -7.283  90.430  1.00  0.00     0.048 C 
ATOM     31  O   UNL     1     -12.333  -6.410  89.530  1.00  0.00    -0.550 OA
ATOM     32  O   UNL     1     -13.416  -7.069  91.420  1.00  0.00    -0.550 OA
ENDBRANCH   1  30
BRANCH  27  33
ATOM     33  O   UNL     1     -14.062  -7.223  99.153  1.00  0.00    -0.393 OA
ATOM     34  H   UNL     1     -14.454  -7.209  98.240  1.00  0.00     0.210 HD
ENDBRANCH  27  33
TORSDOF 2
ENDMDL
MODEL 8
REMARK VINA RESULT:    -6.604      3.374      7.858
REMARK INTER + INTRA:          -6.705
REMARK INTER:                  -7.181
REMARK INTRA:                   0.476
REMARK UNBOUND:                 0.478
REMARK SMILES C[C@H]1[C@@H](C)CC[C@]2(C(=O)[O-])CC[C@]3(C)C(=CC[C@@H]4[C@]5(C)CC[C@H](O)C(C)(C)[C@@H]5CC[C@]43C)[C@@H]12
REMARK SMILES IDX 7 1 6 2 11 3 33 4 5 5 12 6 15 7 2 8 3 9 13 10 16 11 1 12
REMARK SMILES IDX 4 13 14 14 31 15 17 16 18 17 30 18 32 19 19 20 29 21 28 22
REMARK SMILES IDX 21 23 20 24 25 25 22 26 23 27 26 28 27 29 8 30 9 31 10 32
REMARK SMILES IDX 24 33
REMARK H PARENT 24 34
REMARK Flexibility Score: inf
ROOT
ATOM      1  C   UNL     1      -6.728  -5.021  92.439  1.00  0.00     0.017 C 
ATOM      2  C   UNL     1      -5.760  -4.114  91.622  1.00  0.00     0.014 C 
ATOM      3  C   UNL     1      -6.421  -6.491  92.062  1.00  0.00     0.014 C 
ATOM      4  C   UNL     1      -8.202  -4.673  92.023  1.00  0.00     0.030 C 
ATOM      5  C   UNL     1      -6.050  -2.618  91.806  1.00  0.00     0.004 C 
ATOM      6  C   UNL     1      -7.411  -7.482  92.694  1.00  0.00     0.013 C 
ATOM      7  C   UNL     1      -9.238  -5.706  92.538  1.00  0.00    -0.063 C 
ATOM      8  C   UNL     1      -8.532  -3.145  92.198  1.00  0.00    -0.003 C 
ATOM      9  C   UNL     1      -7.499  -2.285  91.411  1.00  0.00    -0.011 C 
ATOM     10  C   UNL     1      -8.920  -7.212  92.350  1.00  0.00    -0.006 C 
ATOM     11  C   UNL     1     -10.506  -5.318  92.845  1.00  0.00    -0.027 C 
ATOM     12  C   UNL     1      -8.696  -2.679  93.664  1.00  0.00     0.008 C 
ATOM     13  C   UNL     1      -7.762  -0.775  91.526  1.00  0.00     0.008 C 
ATOM     14  C   UNL     1      -9.083  -7.527  90.821  1.00  0.00     0.017 C 
ATOM     15  C   UNL     1      -9.897  -8.119  93.271  1.00  0.00    -0.020 C 
ATOM     16  C   UNL     1     -11.570  -6.222  93.413  1.00  0.00     0.032 C 
ATOM     17  C   UNL     1     -11.391  -7.699  92.999  1.00  0.00     0.006 C 
ATOM     18  C   UNL     1      -9.758  -9.622  92.943  1.00  0.00     0.008 C 
ATOM     19  C   UNL     1      -9.510  -7.918  94.778  1.00  0.00     0.012 C 
ATOM     20  C   UNL     1     -12.602  -8.665  93.445  1.00  0.00    -0.025 C 
ATOM     21  C   UNL     1     -10.740 -10.482  93.733  1.00  0.00     0.005 C 
ATOM     22  C   UNL     1     -12.212 -10.211  93.326  1.00  0.00     0.003 C 
ATOM     23  C   UNL     1     -13.115  -8.320  94.884  1.00  0.00     0.010 C 
ATOM     24  C   UNL     1     -13.779  -8.364  92.446  1.00  0.00     0.012 C 
ATOM     25  C   UNL     1     -13.230 -11.227  94.025  1.00  0.00    -0.006 C 
ATOM     26  C   UNL     1     -14.147  -9.299  95.455  1.00  0.00     0.033 C 
ATOM     27  C   UNL     1     -13.638 -10.742  95.450  1.00  0.00     0.120 C 
ATOM     28  C   UNL     1     -14.503 -11.427  93.150  1.00  0.00     0.014 C 
ATOM     29  C   UNL     1     -12.630 -12.659  94.153  1.00  0.00     0.014 C 
ENDROOT
BRANCH   1  30
ATOM     30  C   UNL     1      -6.467  -4.853  93.934  1.00  0.00     0.048 C 
ATOM     31  O   UNL     1      -5.329  -4.504  94.349  1.00  0.00    -0.550 OA
ATOM     32  O   UNL     1      -7.435  -5.189  94.871  1.00  0.00    -0.550 OA
ENDBRANCH   1  30
BRANCH  27  33
ATOM     33  O   UNL     1     -12.554 -10.834  96.344  1.00  0.00    -0.393 OA
ATOM     34  H   UNL     1     -12.501 -11.775  96.657  1.00  0.00     0.210 HD
ENDBRANCH  27  33
TORSDOF 2
ENDMDL
MODEL 9
REMARK VINA RESULT:    -6.522      2.690      8.235
REMARK INTER + INTRA:          -6.616
REMARK INTER:                  -7.097
REMARK INTRA:                   0.482
REMARK UNBOUND:                 0.478
REMARK SMILES C[C@H]1[C@@H](C)CC[C@]2(C(=O)[O-])CC[C@]3(C)C(=CC[C@@H]4[C@]5(C)CC[C@H](O)C(C)(C)[C@@H]5CC[C@]43C)[C@@H]12
REMARK SMILES IDX 7 1 6 2 11 3 33 4 5 5 12 6 15 7 2 8 3 9 13 10 16 11 1 12
REMARK SMILES IDX 4 13 14 14 31 15 17 16 18 17 30 18 32 19 19 20 29 21 28 22
REMARK SMILES IDX 21 23 20 24 25 25 22 26 23 27 26 28 27 29 8 30 9 31 10 32
REMARK SMILES IDX 24 33
REMARK H PARENT 24 34
REMARK Flexibility Score: inf
ROOT
ATOM      1  C   UNL     1     -13.331  -9.700  93.233  1.00  0.00     0.017 C 
ATOM      2  C   UNL     1     -13.962  -9.545  91.816  1.00  0.00     0.014 C 
ATOM      3  C   UNL     1     -14.053 -10.872  93.941  1.00  0.00     0.014 C 
ATOM      4  C   UNL     1     -13.582  -8.372  94.034  1.00  0.00     0.030 C 
ATOM      5  C   UNL     1     -13.422  -8.327  91.055  1.00  0.00     0.004 C 
ATOM      6  C   UNL     1     -13.620 -11.034  95.407  1.00  0.00     0.013 C 
ATOM      7  C   UNL     1     -13.271  -8.508  95.547  1.00  0.00    -0.063 C 
ATOM      8  C   UNL     1     -13.042  -7.102  93.279  1.00  0.00    -0.003 C 
ATOM      9  C   UNL     1     -13.658  -7.031  91.850  1.00  0.00    -0.011 C 
ATOM     10  C   UNL     1     -13.819  -9.753  96.294  1.00  0.00    -0.006 C 
ATOM     11  C   UNL     1     -12.820  -7.439  96.258  1.00  0.00    -0.027 C 
ATOM     12  C   UNL     1     -11.501  -6.959  93.268  1.00  0.00     0.008 C 
ATOM     13  C   UNL     1     -13.183  -5.808  91.051  1.00  0.00     0.008 C 
ATOM     14  C   UNL     1     -15.369  -9.555  96.437  1.00  0.00     0.017 C 
ATOM     15  C   UNL     1     -13.085  -9.922  97.730  1.00  0.00    -0.020 C 
ATOM     16  C   UNL     1     -12.426  -7.476  97.713  1.00  0.00     0.032 C 
ATOM     17  C   UNL     1     -13.179  -8.559  98.516  1.00  0.00     0.006 C 
ATOM     18  C   UNL     1     -13.760 -11.014  98.589  1.00  0.00     0.008 C 
ATOM     19  C   UNL     1     -11.594 -10.347  97.495  1.00  0.00     0.012 C 
ATOM     20  C   UNL     1     -12.910  -8.516 100.104  1.00  0.00    -0.025 C 
ATOM     21  C   UNL     1     -13.143 -11.120  99.981  1.00  0.00     0.005 C 
ATOM     22  C   UNL     1     -13.403  -9.850 100.834  1.00  0.00     0.003 C 
ATOM     23  C   UNL     1     -11.407  -8.217 100.426  1.00  0.00     0.010 C 
ATOM     24  C   UNL     1     -13.754  -7.303 100.647  1.00  0.00     0.012 C 
ATOM     25  C   UNL     1     -12.910 -10.024 102.344  1.00  0.00    -0.006 C 
ATOM     26  C   UNL     1     -11.028  -8.329 101.908  1.00  0.00     0.033 C 
ATOM     27  C   UNL     1     -11.393  -9.694 102.495  1.00  0.00     0.120 C 
ATOM     28  C   UNL     1     -13.744  -9.128 103.307  1.00  0.00     0.014 C 
ATOM     29  C   UNL     1     -13.147 -11.471 102.873  1.00  0.00     0.014 C 
ENDROOT
BRANCH   1  30
ATOM     30  C   UNL     1     -11.853 -10.060  93.111  1.00  0.00     0.048 C 
ATOM     31  O   UNL     1     -11.412 -10.608  92.064  1.00  0.00    -0.550 OA
ATOM     32  O   UNL     1     -10.987  -9.902  94.185  1.00  0.00    -0.550 OA
ENDBRANCH   1  30
BRANCH  27  33
ATOM     33  O   UNL     1     -10.599 -10.673 101.868  1.00  0.00    -0.393 OA
ATOM     34  H   UNL     1     -10.242 -11.271 102.577  1.00  0.00     0.210 HD
ENDBRANCH  27  33
TORSDOF 2
ENDMDL
