MODEL 1
REMARK VINA RESULT:    -3.421      0.000      0.000
REMARK INTER + INTRA:          -3.869
REMARK INTER:                  -3.821
REMARK INTRA:                  -0.047
REMARK UNBOUND:                -0.047
REMARK SMILES CCCC(=O)[O-]
REMARK SMILES IDX 3 1 4 2 5 3 6 4 2 5 1 6
REMARK H PARENT
REMARK Flexibility Score: inf
ROOT
ATOM      1  C   UNL     1      13.785  39.842   5.645  1.00  0.00     0.052 C 
ENDROOT
BRANCH   1   2
ATOM      2  C   UNL     1      12.793  38.956   6.335  1.00  0.00     0.041 C 
ATOM      3  O   UNL     1      12.024  39.430   7.212  1.00  0.00    -0.550 OA
ATOM      4  O   UNL     1      12.741  37.602   6.033  1.00  0.00    -0.550 OA
ENDBRANCH   1   2
BRANCH   1   5
ATOM      5  C   UNL     1      13.094  40.896   4.770  1.00  0.00     0.003 C 
ATOM      6  C   UNL     1      12.774  40.371   3.371  1.00  0.00     0.004 C 
ENDBRANCH   1   5
TORSDOF 2
ENDMDL
MODEL 2
REMARK VINA RESULT:    -3.367      3.030      3.548
REMARK INTER + INTRA:          -3.808
REMARK INTER:                  -3.772
REMARK INTRA:                  -0.036
REMARK UNBOUND:                -0.047
REMARK SMILES CCCC(=O)[O-]
REMARK SMILES IDX 3 1 4 2 5 3 6 4 2 5 1 6
REMARK H PARENT
REMARK Flexibility Score: inf
ROOT
ATOM      1  C   UNL     1      13.172  38.618   4.205  1.00  0.00     0.052 C 
ENDROOT
BRANCH   1   2
ATOM      2  C   UNL     1      12.911  40.038   3.805  1.00  0.00     0.041 C 
ATOM      3  O   UNL     1      12.621  40.316   2.611  1.00  0.00    -0.550 OA
ATOM      4  O   UNL     1      13.021  41.058   4.741  1.00  0.00    -0.550 OA
ENDBRANCH   1   2
BRANCH   1   5
ATOM      5  C   UNL     1      13.033  37.657   3.017  1.00  0.00     0.003 C 
ATOM      6  C   UNL     1      14.361  36.996   2.645  1.00  0.00     0.004 C 
ENDBRANCH   1   5
TORSDOF 2
ENDMDL
MODEL 3
REMARK VINA RESULT:    -3.357      4.090      4.714
REMARK INTER + INTRA:          -3.797
REMARK INTER:                  -3.792
REMARK INTRA:                  -0.005
REMARK UNBOUND:                -0.047
REMARK SMILES CCCC(=O)[O-]
REMARK SMILES IDX 3 1 4 2 5 3 6 4 2 5 1 6
REMARK H PARENT
REMARK Flexibility Score: inf
ROOT
ATOM      1  C   UNL     1      14.432  36.933   2.622  1.00  0.00     0.052 C 
ENDROOT
BRANCH   1   2
ATOM      2  C   UNL     1      14.574  35.450   2.784  1.00  0.00     0.041 C 
ATOM      3  O   UNL     1      15.203  34.978   3.768  1.00  0.00    -0.550 OA
ATOM      4  O   UNL     1      14.039  34.591   1.833  1.00  0.00    -0.550 OA
ENDBRANCH   1   2
BRANCH   1   5
ATOM      5  C   UNL     1      13.049  37.425   3.070  1.00  0.00     0.003 C 
ATOM      6  C   UNL     1      12.971  38.949   3.145  1.00  0.00     0.004 C 
ENDBRANCH   1   5
TORSDOF 2
ENDMDL
MODEL 4
REMARK VINA RESULT:    -3.356      3.058      3.404
REMARK INTER + INTRA:          -3.795
REMARK INTER:                  -3.773
REMARK INTRA:                  -0.022
REMARK UNBOUND:                -0.047
REMARK SMILES CCCC(=O)[O-]
REMARK SMILES IDX 3 1 4 2 5 3 6 4 2 5 1 6
REMARK H PARENT
REMARK Flexibility Score: inf
ROOT
ATOM      1  C   UNL     1      12.840  37.629   3.125  1.00  0.00     0.052 C 
ENDROOT
BRANCH   1   2
ATOM      2  C   UNL     1      12.882  38.406   4.405  1.00  0.00     0.041 C 
ATOM      3  O   UNL     1      13.089  39.648   4.385  1.00  0.00    -0.550 OA
ATOM      4  O   UNL     1      12.726  37.755   5.622  1.00  0.00    -0.550 OA
ENDBRANCH   1   2
BRANCH   1   5
ATOM      5  C   UNL     1      14.246  37.257   2.638  1.00  0.00     0.003 C 
ATOM      6  C   UNL     1      14.476  35.746   2.623  1.00  0.00     0.004 C 
ENDBRANCH   1   5
TORSDOF 2
ENDMDL
MODEL 5
REMARK VINA RESULT:    -3.346      5.348      6.025
REMARK INTER + INTRA:          -3.784
REMARK INTER:                  -3.745
REMARK INTRA:                  -0.039
REMARK UNBOUND:                -0.047
REMARK SMILES CCCC(=O)[O-]
REMARK SMILES IDX 3 1 4 2 5 3 6 4 2 5 1 6
REMARK H PARENT
REMARK Flexibility Score: inf
ROOT
ATOM      1  C   UNL     1      13.929  34.927   3.009  1.00  0.00     0.052 C 
ENDROOT
BRANCH   1   2
ATOM      2  C   UNL     1      13.212  34.276   1.867  1.00  0.00     0.041 C 
ATOM      3  O   UNL     1      13.833  33.509   1.084  1.00  0.00    -0.550 OA
ATOM      4  O   UNL     1      11.867  34.541   1.646  1.00  0.00    -0.550 OA
ENDBRANCH   1   2
BRANCH   1   5
ATOM      5  C   UNL     1      14.669  36.196   2.568  1.00  0.00     0.003 C 
ATOM      6  C   UNL     1      13.862  37.465   2.840  1.00  0.00     0.004 C 
ENDBRANCH   1   5
TORSDOF 2
ENDMDL
MODEL 6
REMARK VINA RESULT:    -3.238      3.895      4.335
REMARK INTER + INTRA:          -3.663
REMARK INTER:                  -3.632
REMARK INTRA:                  -0.031
REMARK UNBOUND:                -0.047
REMARK SMILES CCCC(=O)[O-]
REMARK SMILES IDX 3 1 4 2 5 3 6 4 2 5 1 6
REMARK H PARENT
REMARK Flexibility Score: inf
ROOT
ATOM      1  C   UNL     1      14.255  37.118   2.636  1.00  0.00     0.052 C 
ENDROOT
BRANCH   1   2
ATOM      2  C   UNL     1      13.666  37.620   3.919  1.00  0.00     0.041 C 
ATOM      3  O   UNL     1      14.320  37.533   4.992  1.00  0.00    -0.550 OA
ATOM      4  O   UNL     1      12.384  38.153   3.937  1.00  0.00    -0.550 OA
ENDBRANCH   1   2
BRANCH   1   5
ATOM      5  C   UNL     1      14.777  35.682   2.773  1.00  0.00     0.003 C 
ATOM      6  C   UNL     1      13.780  34.648   2.253  1.00  0.00     0.004 C 
ENDBRANCH   1   5
TORSDOF 2
ENDMDL
MODEL 7
REMARK VINA RESULT:    -3.237      1.824      2.592
REMARK INTER + INTRA:          -3.662
REMARK INTER:                  -3.624
REMARK INTRA:                  -0.038
REMARK UNBOUND:                -0.047
REMARK SMILES CCCC(=O)[O-]
REMARK SMILES IDX 3 1 4 2 5 3 6 4 2 5 1 6
REMARK H PARENT
REMARK Flexibility Score: inf
ROOT
ATOM      1  C   UNL     1      13.157  40.611   4.310  1.00  0.00     0.052 C 
ENDROOT
BRANCH   1   2
ATOM      2  C   UNL     1      12.959  39.150   4.046  1.00  0.00     0.041 C 
ATOM      3  O   UNL     1      12.616  38.378   4.980  1.00  0.00    -0.550 OA
ATOM      4  O   UNL     1      13.185  38.635   2.776  1.00  0.00    -0.550 OA
ENDBRANCH   1   2
BRANCH   1   5
ATOM      5  C   UNL     1      12.961  40.952   5.793  1.00  0.00     0.003 C 
ATOM      6  C   UNL     1      14.281  41.272   6.495  1.00  0.00     0.004 C 
ENDBRANCH   1   5
TORSDOF 2
ENDMDL
MODEL 8
REMARK VINA RESULT:    -3.167      3.695      4.352
REMARK INTER + INTRA:          -3.584
REMARK INTER:                  -3.549
REMARK INTRA:                  -0.035
REMARK UNBOUND:                -0.047
REMARK SMILES CCCC(=O)[O-]
REMARK SMILES IDX 3 1 4 2 5 3 6 4 2 5 1 6
REMARK H PARENT
REMARK Flexibility Score: inf
ROOT
ATOM      1  C   UNL     1      13.879  35.788   3.061  1.00  0.00     0.052 C 
ENDROOT
BRANCH   1   2
ATOM      2  C   UNL     1      14.471  35.404   4.383  1.00  0.00     0.041 C 
ATOM      3  O   UNL     1      15.444  34.606   4.433  1.00  0.00    -0.550 OA
ATOM      4  O   UNL     1      13.928  35.902   5.561  1.00  0.00    -0.550 OA
ENDBRANCH   1   2
BRANCH   1   5
ATOM      5  C   UNL     1      14.236  37.229   2.674  1.00  0.00     0.003 C 
ATOM      6  C   UNL     1      13.118  38.215   3.010  1.00  0.00     0.004 C 
ENDBRANCH   1   5
TORSDOF 2
ENDMDL
MODEL 9
REMARK VINA RESULT:    -3.164      2.809      3.401
REMARK INTER + INTRA:          -3.581
REMARK INTER:                  -3.575
REMARK INTRA:                  -0.006
REMARK UNBOUND:                -0.047
REMARK SMILES CCCC(=O)[O-]
REMARK SMILES IDX 3 1 4 2 5 3 6 4 2 5 1 6
REMARK H PARENT
REMARK Flexibility Score: inf
ROOT
ATOM      1  C   UNL     1      12.949  37.743   3.021  1.00  0.00     0.052 C 
ENDROOT
BRANCH   1   2
ATOM      2  C   UNL     1      13.932  36.704   3.466  1.00  0.00     0.041 C 
ATOM      3  O   UNL     1      13.955  36.329   4.668  1.00  0.00    -0.550 OA
ATOM      4  O   UNL     1      14.844  36.175   2.563  1.00  0.00    -0.550 OA
ENDBRANCH   1   2
BRANCH   1   5
ATOM      5  C   UNL     1      13.082  39.038   3.832  1.00  0.00     0.003 C 
ATOM      6  C   UNL     1      12.690  40.274   3.023  1.00  0.00     0.004 C 
ENDBRANCH   1   5
TORSDOF 2
ENDMDL
