MODEL 1
REMARK VINA RESULT:    -2.713      0.000      0.000
REMARK INTER + INTRA:          -5.873
REMARK INTER:                  -4.933
REMARK INTRA:                  -0.939
REMARK UNBOUND:                -0.939
REMARK SMILES CCCCCCCCCCCCCCCC(=O)[O-]
REMARK SMILES IDX 9 1 10 2 11 3 12 4 13 5 14 6 15 7 16 8 17 9 18 10 8 11 7 12
REMARK SMILES IDX 6 13 5 14 4 15 3 16 2 17 1 18
REMARK H PARENT
REMARK Flexibility Score: inf
ROOT
ATOM      1  C   UNL     1       8.577  11.920  20.650  1.00  0.00     0.000 C 
ENDROOT
BRANCH   1   2
ATOM      2  C   UNL     1      10.097  12.142  20.564  1.00  0.00     0.000 C 
BRANCH   2   3
ATOM      3  C   UNL     1      10.623  12.064  19.122  1.00  0.00     0.000 C 
BRANCH   3   4
ATOM      4  C   UNL     1      10.816  10.618  18.633  1.00  0.00     0.000 C 
BRANCH   4   5
ATOM      5  C   UNL     1      10.827   9.577  19.773  1.00  0.00     0.000 C 
BRANCH   5   6
ATOM      6  C   UNL     1      10.214   8.234  19.336  1.00  0.00     0.006 C 
BRANCH   6   7
ATOM      7  C   UNL     1       8.682   8.244  19.414  1.00  0.00     0.053 C 
BRANCH   7   8
ATOM      8  C   UNL     1       8.127   6.865  19.601  1.00  0.00     0.041 C 
ATOM      9  O   UNL     1       6.883   6.687  19.667  1.00  0.00    -0.550 OA
ATOM     10  O   UNL     1       8.985   5.780  19.735  1.00  0.00    -0.550 OA
ENDBRANCH   7   8
ENDBRANCH   6   7
ENDBRANCH   5   6
ENDBRANCH   4   5
ENDBRANCH   3   4
ENDBRANCH   2   3
ENDBRANCH   1   2
BRANCH   1  11
ATOM     11  C   UNL     1       7.781  12.932  19.811  1.00  0.00     0.000 C 
BRANCH  11  12
ATOM     12  C   UNL     1       7.105  12.239  18.618  1.00  0.00    -0.000 C 
BRANCH  12  13
ATOM     13  C   UNL     1       6.018  13.108  17.964  1.00  0.00    -0.000 C 
BRANCH  13  14
ATOM     14  C   UNL     1       4.642  12.931  18.628  1.00  0.00    -0.000 C 
BRANCH  14  15
ATOM     15  C   UNL     1       3.879  11.700  18.105  1.00  0.00    -0.000 C 
BRANCH  15  16
ATOM     16  C   UNL     1       2.370  11.677  18.423  1.00  0.00    -0.000 C 
BRANCH  16  17
ATOM     17  C   UNL     1       1.969  12.383  19.730  1.00  0.00    -0.003 C 
ATOM     18  C   UNL     1       2.259  11.543  20.974  1.00  0.00     0.004 C 
ENDBRANCH  16  17
ENDBRANCH  15  16
ENDBRANCH  14  15
ENDBRANCH  13  14
ENDBRANCH  12  13
ENDBRANCH  11  12
ENDBRANCH   1  11
TORSDOF 14
ENDMDL
MODEL 2
REMARK VINA RESULT:    -2.428      2.837      6.511
REMARK INTER + INTRA:          -5.355
REMARK INTER:                  -3.931
REMARK INTRA:                  -1.424
REMARK UNBOUND:                -0.939
REMARK SMILES CCCCCCCCCCCCCCCC(=O)[O-]
REMARK SMILES IDX 9 1 10 2 11 3 12 4 13 5 14 6 15 7 16 8 17 9 18 10 8 11 7 12
REMARK SMILES IDX 6 13 5 14 4 15 3 16 2 17 1 18
REMARK H PARENT
REMARK Flexibility Score: inf
ROOT
ATOM      1  C   UNL     1       8.928  11.996  21.289  1.00  0.00     0.000 C 
ENDROOT
BRANCH   1   2
ATOM      2  C   UNL     1       7.707  12.897  21.042  1.00  0.00     0.000 C 
BRANCH   2   3
ATOM      3  C   UNL     1       7.416  13.099  19.547  1.00  0.00     0.000 C 
BRANCH   3   4
ATOM      4  C   UNL     1       6.156  12.351  19.076  1.00  0.00     0.000 C 
BRANCH   4   5
ATOM      5  C   UNL     1       5.371  13.094  17.974  1.00  0.00     0.000 C 
BRANCH   5   6
ATOM      6  C   UNL     1       3.860  13.125  18.261  1.00  0.00     0.006 C 
BRANCH   6   7
ATOM      7  C   UNL     1       3.532  12.688  19.695  1.00  0.00     0.053 C 
BRANCH   7   8
ATOM      8  C   UNL     1       2.484  11.619  19.724  1.00  0.00     0.041 C 
ATOM      9  O   UNL     1       2.111  11.128  20.821  1.00  0.00    -0.550 OA
ATOM     10  O   UNL     1       1.941  11.142  18.537  1.00  0.00    -0.550 OA
ENDBRANCH   7   8
ENDBRANCH   6   7
ENDBRANCH   5   6
ENDBRANCH   4   5
ENDBRANCH   3   4
ENDBRANCH   2   3
ENDBRANCH   1   2
BRANCH   1  11
ATOM     11  C   UNL     1       9.945  12.626  22.254  1.00  0.00     0.000 C 
BRANCH  11  12
ATOM     12  C   UNL     1      11.199  13.090  21.497  1.00  0.00    -0.000 C 
BRANCH  12  13
ATOM     13  C   UNL     1      11.006  13.093  19.972  1.00  0.00    -0.000 C 
BRANCH  13  14
ATOM     14  C   UNL     1      12.025  12.197  19.246  1.00  0.00    -0.000 C 
BRANCH  14  15
ATOM     15  C   UNL     1      11.375  10.971  18.579  1.00  0.00    -0.000 C 
BRANCH  15  16
ATOM     16  C   UNL     1      11.161   9.755  19.503  1.00  0.00    -0.000 C 
BRANCH  16  17
ATOM     17  C   UNL     1       9.841   8.996  19.287  1.00  0.00    -0.003 C 
ATOM     18  C   UNL     1       8.763   9.853  18.625  1.00  0.00     0.004 C 
ENDBRANCH  16  17
ENDBRANCH  15  16
ENDBRANCH  14  15
ENDBRANCH  13  14
ENDBRANCH  12  13
ENDBRANCH  11  12
ENDBRANCH   1  11
TORSDOF 14
ENDMDL
MODEL 3
REMARK VINA RESULT:    -2.305      2.740      3.781
REMARK INTER + INTRA:          -5.131
REMARK INTER:                  -3.997
REMARK INTRA:                  -1.134
REMARK UNBOUND:                -0.939
REMARK SMILES CCCCCCCCCCCCCCCC(=O)[O-]
REMARK SMILES IDX 9 1 10 2 11 3 12 4 13 5 14 6 15 7 16 8 17 9 18 10 8 11 7 12
REMARK SMILES IDX 6 13 5 14 4 15 3 16 2 17 1 18
REMARK H PARENT
REMARK Flexibility Score: inf
ROOT
ATOM      1  C   UNL     1       9.628  10.146  18.665  1.00  0.00     0.000 C 
ENDROOT
BRANCH   1   2
ATOM      2  C   UNL     1      10.574  11.066  17.875  1.00  0.00     0.000 C 
BRANCH   2   3
ATOM      3  C   UNL     1      12.028  10.979  18.367  1.00  0.00     0.000 C 
BRANCH   3   4
ATOM      4  C   UNL     1      12.248  11.697  19.710  1.00  0.00     0.000 C 
BRANCH   4   5
ATOM      5  C   UNL     1      11.384  12.965  19.882  1.00  0.00     0.000 C 
BRANCH   5   6
ATOM      6  C   UNL     1      10.827  13.095  21.310  1.00  0.00     0.006 C 
BRANCH   6   7
ATOM      7  C   UNL     1       9.456  12.424  21.462  1.00  0.00     0.053 C 
BRANCH   7   8
ATOM      8  C   UNL     1       8.989  12.431  22.885  1.00  0.00     0.041 C 
ATOM      9  O   UNL     1       7.810  12.091  23.166  1.00  0.00    -0.550 OA
ATOM     10  O   UNL     1       9.846  12.843  23.899  1.00  0.00    -0.550 OA
ENDBRANCH   7   8
ENDBRANCH   6   7
ENDBRANCH   5   6
ENDBRANCH   4   5
ENDBRANCH   3   4
ENDBRANCH   2   3
ENDBRANCH   1   2
BRANCH   1  11
ATOM     11  C   UNL     1       8.154  10.328  18.266  1.00  0.00     0.000 C 
BRANCH  11  12
ATOM     12  C   UNL     1       7.677  11.754  18.580  1.00  0.00    -0.000 C 
BRANCH  12  13
ATOM     13  C   UNL     1       6.219  12.000  18.156  1.00  0.00    -0.000 C 
BRANCH  13  14
ATOM     14  C   UNL     1       5.525  13.066  19.020  1.00  0.00    -0.000 C 
BRANCH  14  15
ATOM     15  C   UNL     1       3.996  13.086  18.832  1.00  0.00    -0.000 C 
BRANCH  15  16
ATOM     16  C   UNL     1       3.379  11.766  18.325  1.00  0.00    -0.000 C 
BRANCH  16  17
ATOM     17  C   UNL     1       2.267  11.184  19.214  1.00  0.00    -0.003 C 
ATOM     18  C   UNL     1       2.176  11.867  20.578  1.00  0.00     0.004 C 
ENDBRANCH  16  17
ENDBRANCH  15  16
ENDBRANCH  14  15
ENDBRANCH  13  14
ENDBRANCH  12  13
ENDBRANCH  11  12
ENDBRANCH   1  11
TORSDOF 14
ENDMDL
MODEL 4
REMARK VINA RESULT:    -1.946      2.801      4.135
REMARK INTER + INTRA:          -4.478
REMARK INTER:                  -2.712
REMARK INTRA:                  -1.766
REMARK UNBOUND:                -0.939
REMARK SMILES CCCCCCCCCCCCCCCC(=O)[O-]
REMARK SMILES IDX 9 1 10 2 11 3 12 4 13 5 14 6 15 7 16 8 17 9 18 10 8 11 7 12
REMARK SMILES IDX 6 13 5 14 4 15 3 16 2 17 1 18
REMARK H PARENT
REMARK Flexibility Score: inf
ROOT
ATOM      1  C   UNL     1      11.202  11.232  18.070  1.00  0.00     0.000 C 
ENDROOT
BRANCH   1   2
ATOM      2  C   UNL     1      11.680  10.640  19.407  1.00  0.00     0.000 C 
BRANCH   2   3
ATOM      3  C   UNL     1      11.132   9.226  19.655  1.00  0.00     0.000 C 
BRANCH   3   4
ATOM      4  C   UNL     1       9.856   8.929  18.847  1.00  0.00     0.000 C 
BRANCH   4   5
ATOM      5  C   UNL     1       8.615   8.669  19.728  1.00  0.00     0.000 C 
BRANCH   5   6
ATOM      6  C   UNL     1       7.586   7.766  19.025  1.00  0.00     0.006 C 
BRANCH   6   7
ATOM      7  C   UNL     1       7.302   6.484  19.819  1.00  0.00     0.053 C 
BRANCH   7   8
ATOM      8  C   UNL     1       8.347   5.439  19.578  1.00  0.00     0.041 C 
ATOM      9  O   UNL     1       8.370   4.807  18.489  1.00  0.00    -0.550 OA
ATOM     10  O   UNL     1       9.275   5.139  20.567  1.00  0.00    -0.550 OA
ENDBRANCH   7   8
ENDBRANCH   6   7
ENDBRANCH   5   6
ENDBRANCH   4   5
ENDBRANCH   3   4
ENDBRANCH   2   3
ENDBRANCH   1   2
BRANCH   1  11
ATOM     11  C   UNL     1      11.001  12.755  18.134  1.00  0.00     0.000 C 
BRANCH  11  12
ATOM     12  C   UNL     1       9.532  13.122  17.875  1.00  0.00    -0.000 C 
BRANCH  12  13
ATOM     13  C   UNL     1       8.560  11.998  18.270  1.00  0.00    -0.000 C 
BRANCH  13  14
ATOM     14  C   UNL     1       7.583  12.424  19.379  1.00  0.00    -0.000 C 
BRANCH  14  15
ATOM     15  C   UNL     1       8.296  13.017  20.608  1.00  0.00    -0.000 C 
BRANCH  15  16
ATOM     16  C   UNL     1       8.620  12.009  21.731  1.00  0.00    -0.000 C 
BRANCH  16  17
ATOM     17  C   UNL     1       9.806  12.395  22.631  1.00  0.00    -0.003 C 
ATOM     18  C   UNL     1       9.377  12.797  24.041  1.00  0.00     0.004 C 
ENDBRANCH  16  17
ENDBRANCH  15  16
ENDBRANCH  14  15
ENDBRANCH  13  14
ENDBRANCH  12  13
ENDBRANCH  11  12
ENDBRANCH   1  11
TORSDOF 14
ENDMDL
MODEL 5
REMARK VINA RESULT:    -1.398      3.185      6.512
REMARK INTER + INTRA:          -3.482
REMARK INTER:                  -2.677
REMARK INTRA:                  -0.805
REMARK UNBOUND:                -0.939
REMARK SMILES CCCCCCCCCCCCCCCC(=O)[O-]
REMARK SMILES IDX 9 1 10 2 11 3 12 4 13 5 14 6 15 7 16 8 17 9 18 10 8 11 7 12
REMARK SMILES IDX 6 13 5 14 4 15 3 16 2 17 1 18
REMARK H PARENT
REMARK Flexibility Score: inf
ROOT
ATOM      1  C   UNL     1      10.263   9.454  20.113  1.00  0.00     0.000 C 
ENDROOT
BRANCH   1   2
ATOM      2  C   UNL     1       9.124  10.441  19.804  1.00  0.00     0.000 C 
BRANCH   2   3
ATOM      3  C   UNL     1       8.472  10.181  18.437  1.00  0.00     0.000 C 
BRANCH   3   4
ATOM      4  C   UNL     1       7.747  11.417  17.876  1.00  0.00     0.000 C 
BRANCH   4   5
ATOM      5  C   UNL     1       6.240  11.453  18.208  1.00  0.00     0.000 C 
BRANCH   5   6
ATOM      6  C   UNL     1       5.735  12.887  18.446  1.00  0.00     0.006 C 
BRANCH   6   7
ATOM      7  C   UNL     1       4.968  13.020  19.768  1.00  0.00     0.053 C 
BRANCH   7   8
ATOM      8  C   UNL     1       3.492  12.848  19.573  1.00  0.00     0.041 C 
ATOM      9  O   UNL     1       2.964  13.122  18.464  1.00  0.00    -0.550 OA
ATOM     10  O   UNL     1       2.696  12.417  20.627  1.00  0.00    -0.550 OA
ENDBRANCH   7   8
ENDBRANCH   6   7
ENDBRANCH   5   6
ENDBRANCH   4   5
ENDBRANCH   3   4
ENDBRANCH   2   3
ENDBRANCH   1   2
BRANCH   1  11
ATOM     11  C   UNL     1      11.340   9.429  19.016  1.00  0.00     0.000 C 
BRANCH  11  12
ATOM     12  C   UNL     1      11.606  10.843  18.480  1.00  0.00    -0.000 C 
BRANCH  12  13
ATOM     13  C   UNL     1      12.917  11.444  19.014  1.00  0.00    -0.000 C 
BRANCH  13  14
ATOM     14  C   UNL     1      12.732  12.866  19.570  1.00  0.00    -0.000 C 
BRANCH  14  15
ATOM     15  C   UNL     1      11.305  13.125  20.087  1.00  0.00    -0.000 C 
BRANCH  15  16
ATOM     16  C   UNL     1      11.134  13.041  21.618  1.00  0.00    -0.000 C 
BRANCH  16  17
ATOM     17  C   UNL     1       9.720  12.670  22.096  1.00  0.00    -0.003 C 
ATOM     18  C   UNL     1       8.629  13.085  21.110  1.00  0.00     0.004 C 
ENDBRANCH  16  17
ENDBRANCH  15  16
ENDBRANCH  14  15
ENDBRANCH  13  14
ENDBRANCH  12  13
ENDBRANCH  11  12
ENDBRANCH   1  11
TORSDOF 14
ENDMDL
MODEL 6
REMARK VINA RESULT:    -1.332      3.768      6.405
REMARK INTER + INTRA:          -3.362
REMARK INTER:                  -2.052
REMARK INTRA:                  -1.311
REMARK UNBOUND:                -0.939
REMARK SMILES CCCCCCCCCCCCCCCC(=O)[O-]
REMARK SMILES IDX 9 1 10 2 11 3 12 4 13 5 14 6 15 7 16 8 17 9 18 10 8 11 7 12
REMARK SMILES IDX 6 13 5 14 4 15 3 16 2 17 1 18
REMARK H PARENT
REMARK Flexibility Score: inf
ROOT
ATOM      1  C   UNL     1      11.471  10.747  19.617  1.00  0.00     0.000 C 
ENDROOT
BRANCH   1   2
ATOM      2  C   UNL     1      11.015  11.574  18.403  1.00  0.00     0.000 C 
BRANCH   2   3
ATOM      3  C   UNL     1      10.113  12.754  18.798  1.00  0.00     0.000 C 
BRANCH   3   4
ATOM      4  C   UNL     1       8.690  12.638  18.224  1.00  0.00     0.000 C 
BRANCH   4   5
ATOM      5  C   UNL     1       7.597  12.512  19.306  1.00  0.00     0.000 C 
BRANCH   5   6
ATOM      6  C   UNL     1       8.037  13.125  20.648  1.00  0.00     0.006 C 
BRANCH   6   7
ATOM      7  C   UNL     1       8.598  12.071  21.610  1.00  0.00     0.053 C 
BRANCH   7   8
ATOM      8  C   UNL     1       9.583  12.664  22.570  1.00  0.00     0.041 C 
ATOM      9  O   UNL     1      10.705  13.061  22.160  1.00  0.00    -0.550 OA
ATOM     10  O   UNL     1       9.276  12.748  23.922  1.00  0.00    -0.550 OA
ENDBRANCH   7   8
ENDBRANCH   6   7
ENDBRANCH   5   6
ENDBRANCH   4   5
ENDBRANCH   3   4
ENDBRANCH   2   3
ENDBRANCH   1   2
BRANCH   1  11
ATOM     11  C   UNL     1      10.850   9.341  19.644  1.00  0.00     0.000 C 
BRANCH  11  12
ATOM     12  C   UNL     1       9.570   9.293  18.795  1.00  0.00    -0.000 C 
BRANCH  12  13
ATOM     13  C   UNL     1       8.326   8.914  19.616  1.00  0.00    -0.000 C 
BRANCH  13  14
ATOM     14  C   UNL     1       7.755   7.542  19.222  1.00  0.00    -0.000 C 
BRANCH  14  15
ATOM     15  C   UNL     1       8.570   6.368  19.795  1.00  0.00    -0.000 C 
BRANCH  15  16
ATOM     16  C   UNL     1       8.466   5.047  19.003  1.00  0.00    -0.000 C 
BRANCH  16  17
ATOM     17  C   UNL     1       9.282   3.877  19.580  1.00  0.00    -0.003 C 
ATOM     18  C   UNL     1       9.249   3.823  21.107  1.00  0.00     0.004 C 
ENDBRANCH  16  17
ENDBRANCH  15  16
ENDBRANCH  14  15
ENDBRANCH  13  14
ENDBRANCH  12  13
ENDBRANCH  11  12
ENDBRANCH   1  11
TORSDOF 14
ENDMDL
MODEL 7
REMARK VINA RESULT:    -1.227      3.033      6.846
REMARK INTER + INTRA:          -3.170
REMARK INTER:                  -2.341
REMARK INTRA:                  -0.830
REMARK UNBOUND:                -0.939
REMARK SMILES CCCCCCCCCCCCCCCC(=O)[O-]
REMARK SMILES IDX 9 1 10 2 11 3 12 4 13 5 14 6 15 7 16 8 17 9 18 10 8 11 7 12
REMARK SMILES IDX 6 13 5 14 4 15 3 16 2 17 1 18
REMARK H PARENT
REMARK Flexibility Score: inf
ROOT
ATOM      1  C   UNL     1       8.570  10.489  20.198  1.00  0.00     0.000 C 
ENDROOT
BRANCH   1   2
ATOM      2  C   UNL     1       8.468  11.122  18.800  1.00  0.00     0.000 C 
BRANCH   2   3
ATOM      3  C   UNL     1       8.243  12.641  18.856  1.00  0.00     0.000 C 
BRANCH   3   4
ATOM      4  C   UNL     1       7.158  13.122  17.875  1.00  0.00     0.000 C 
BRANCH   4   5
ATOM      5  C   UNL     1       5.738  13.125  18.478  1.00  0.00     0.000 C 
BRANCH   5   6
ATOM      6  C   UNL     1       4.947  11.858  18.105  1.00  0.00     0.006 C 
BRANCH   6   7
ATOM      7  C   UNL     1       3.451  12.141  17.921  1.00  0.00     0.053 C 
BRANCH   7   8
ATOM      8  C   UNL     1       2.609  11.267  18.799  1.00  0.00     0.041 C 
ATOM      9  O   UNL     1       2.496  11.525  20.026  1.00  0.00    -0.550 OA
ATOM     10  O   UNL     1       1.975  10.150  18.269  1.00  0.00    -0.550 OA
ENDBRANCH   7   8
ENDBRANCH   6   7
ENDBRANCH   5   6
ENDBRANCH   4   5
ENDBRANCH   3   4
ENDBRANCH   2   3
ENDBRANCH   1   2
BRANCH   1  11
ATOM     11  C   UNL     1       8.287  11.493  21.327  1.00  0.00     0.000 C 
BRANCH  11  12
ATOM     12  C   UNL     1       9.260  11.286  22.498  1.00  0.00    -0.000 C 
BRANCH  12  13
ATOM     13  C   UNL     1       9.794  12.609  23.069  1.00  0.00    -0.000 C 
BRANCH  13  14
ATOM     14  C   UNL     1      11.033  13.121  22.315  1.00  0.00    -0.000 C 
BRANCH  14  15
ATOM     15  C   UNL     1      10.874  13.047  20.785  1.00  0.00    -0.000 C 
BRANCH  15  16
ATOM     16  C   UNL     1      11.986  12.274  20.045  1.00  0.00    -0.000 C 
BRANCH  16  17
ATOM     17  C   UNL     1      12.151  12.636  18.558  1.00  0.00    -0.003 C 
ATOM     18  C   UNL     1      13.614  12.754  18.133  1.00  0.00     0.004 C 
ENDBRANCH  16  17
ENDBRANCH  15  16
ENDBRANCH  14  15
ENDBRANCH  13  14
ENDBRANCH  12  13
ENDBRANCH  11  12
ENDBRANCH   1  11
TORSDOF 14
ENDMDL
MODEL 8
REMARK VINA RESULT:    -1.053      1.799      2.885
REMARK INTER + INTRA:          -2.855
REMARK INTER:                  -1.680
REMARK INTRA:                  -1.175
REMARK UNBOUND:                -0.939
REMARK SMILES CCCCCCCCCCCCCCCC(=O)[O-]
REMARK SMILES IDX 9 1 10 2 11 3 12 4 13 5 14 6 15 7 16 8 17 9 18 10 8 11 7 12
REMARK SMILES IDX 6 13 5 14 4 15 3 16 2 17 1 18
REMARK H PARENT
REMARK Flexibility Score: inf
ROOT
ATOM      1  C   UNL     1       9.236  11.525  21.824  1.00  0.00     0.000 C 
ENDROOT
BRANCH   1   2
ATOM      2  C   UNL     1      10.092  12.630  22.465  1.00  0.00     0.000 C 
BRANCH   2   3
ATOM      3  C   UNL     1      11.235  13.096  21.550  1.00  0.00     0.000 C 
BRANCH   3   4
ATOM      4  C   UNL     1      10.839  13.119  20.063  1.00  0.00     0.000 C 
BRANCH   4   5
ATOM      5  C   UNL     1      12.023  12.872  19.105  1.00  0.00     0.000 C 
BRANCH   5   6
ATOM      6  C   UNL     1      12.150  11.390  18.710  1.00  0.00     0.006 C 
BRANCH   6   7
ATOM      7  C   UNL     1      10.808  10.789  18.274  1.00  0.00     0.053 C 
BRANCH   7   8
ATOM      8  C   UNL     1      10.414   9.627  19.134  1.00  0.00     0.041 C 
ATOM      9  O   UNL     1      11.294   8.963  19.741  1.00  0.00    -0.550 OA
ATOM     10  O   UNL     1       9.079   9.258  19.239  1.00  0.00    -0.550 OA
ENDBRANCH   7   8
ENDBRANCH   6   7
ENDBRANCH   5   6
ENDBRANCH   4   5
ENDBRANCH   3   4
ENDBRANCH   2   3
ENDBRANCH   1   2
BRANCH   1  11
ATOM     11  C   UNL     1       7.747  11.900  21.741  1.00  0.00     0.000 C 
BRANCH  11  12
ATOM     12  C   UNL     1       7.543  13.125  20.837  1.00  0.00    -0.000 C 
BRANCH  12  13
ATOM     13  C   UNL     1       7.682  12.791  19.343  1.00  0.00    -0.000 C 
BRANCH  13  14
ATOM     14  C   UNL     1       6.803  11.601  18.919  1.00  0.00    -0.000 C 
BRANCH  14  15
ATOM     15  C   UNL     1       5.736  11.987  17.878  1.00  0.00    -0.000 C 
BRANCH  15  16
ATOM     16  C   UNL     1       4.661  12.977  18.375  1.00  0.00    -0.000 C 
BRANCH  16  17
ATOM     17  C   UNL     1       3.208  12.517  18.168  1.00  0.00    -0.003 C 
ATOM     18  C   UNL     1       2.539  12.056  19.462  1.00  0.00     0.004 C 
ENDBRANCH  16  17
ENDBRANCH  15  16
ENDBRANCH  14  15
ENDBRANCH  13  14
ENDBRANCH  12  13
ENDBRANCH  11  12
ENDBRANCH   1  11
TORSDOF 14
ENDMDL
