MODEL 1
REMARK VINA RESULT:    -3.010      0.000      0.000
REMARK INTER + INTRA:          -5.545
REMARK INTER:                  -4.593
REMARK INTRA:                  -0.951
REMARK UNBOUND:                -0.951
REMARK SMILES O=C([O-])CCCCCCCCC(=O)[O-]
REMARK SMILES IDX 7 1 6 2 5 3 4 4 2 5 1 6 3 7 8 8 9 9 10 10 11 11 12 12 13 13
REMARK SMILES IDX 14 14
REMARK H PARENT
REMARK Flexibility Score: inf
ROOT
ATOM      1  C   UNL     1      19.358  67.618  18.259  1.00  0.00     0.000 C 
ENDROOT
BRANCH   1   2
ATOM      2  C   UNL     1      19.671  67.521  16.758  1.00  0.00     0.000 C 
BRANCH   2   3
ATOM      3  C   UNL     1      20.721  68.562  16.347  1.00  0.00     0.006 C 
BRANCH   3   4
ATOM      4  C   UNL     1      20.814  69.686  17.381  1.00  0.00     0.053 C 
BRANCH   4   5
ATOM      5  C   UNL     1      22.046  70.505  17.155  1.00  0.00     0.041 C 
ATOM      6  O   UNL     1      22.174  71.178  16.098  1.00  0.00    -0.550 OA
ATOM      7  O   UNL     1      23.031  70.564  18.132  1.00  0.00    -0.550 OA
ENDBRANCH   4   5
ENDBRANCH   3   4
ENDBRANCH   2   3
ENDBRANCH   1   2
BRANCH   1   8
ATOM      8  C   UNL     1      18.961  66.265  18.875  1.00  0.00     0.000 C 
BRANCH   8   9
ATOM      9  C   UNL     1      19.920  65.098  18.564  1.00  0.00     0.000 C 
BRANCH   9  10
ATOM     10  C   UNL     1      21.301  65.190  19.236  1.00  0.00     0.006 C 
BRANCH  10  11
ATOM     11  C   UNL     1      22.459  65.020  18.244  1.00  0.00     0.053 C 
BRANCH  11  12
ATOM     12  C   UNL     1      23.109  66.339  17.970  1.00  0.00     0.041 C 
ATOM     13  O   UNL     1      23.830  66.491  16.948  1.00  0.00    -0.550 OA
ATOM     14  O   UNL     1      22.960  67.388  18.869  1.00  0.00    -0.550 OA
ENDBRANCH  11  12
ENDBRANCH  10  11
ENDBRANCH   9  10
ENDBRANCH   8   9
ENDBRANCH   1   8
TORSDOF 9
ENDMDL
MODEL 2
REMARK VINA RESULT:    -2.933      1.724      2.968
REMARK INTER + INTRA:          -5.427
REMARK INTER:                  -4.336
REMARK INTRA:                  -1.091
REMARK UNBOUND:                -0.951
REMARK SMILES O=C([O-])CCCCCCCCC(=O)[O-]
REMARK SMILES IDX 7 1 6 2 5 3 4 4 2 5 1 6 3 7 8 8 9 9 10 10 11 11 12 12 13 13
REMARK SMILES IDX 14 14
REMARK H PARENT
REMARK Flexibility Score: inf
ROOT
ATOM      1  C   UNL     1      21.203  65.983  19.114  1.00  0.00     0.000 C 
ENDROOT
BRANCH   1   2
ATOM      2  C   UNL     1      22.517  66.032  18.320  1.00  0.00     0.000 C 
BRANCH   2   3
ATOM      3  C   UNL     1      22.962  67.481  18.082  1.00  0.00     0.006 C 
BRANCH   3   4
ATOM      4  C   UNL     1      22.022  68.466  18.782  1.00  0.00     0.053 C 
BRANCH   4   5
ATOM      5  C   UNL     1      22.039  69.790  18.085  1.00  0.00     0.041 C 
ATOM      6  O   UNL     1      21.020  70.194  17.465  1.00  0.00    -0.550 OA
ATOM      7  O   UNL     1      23.164  70.602  18.162  1.00  0.00    -0.550 OA
ENDBRANCH   4   5
ENDBRANCH   3   4
ENDBRANCH   2   3
ENDBRANCH   1   2
BRANCH   1   8
ATOM      8  C   UNL     1      20.235  64.903  18.599  1.00  0.00     0.000 C 
BRANCH   8   9
ATOM      9  C   UNL     1      19.014  65.434  17.821  1.00  0.00     0.000 C 
BRANCH   9  10
ATOM     10  C   UNL     1      19.269  65.740  16.335  1.00  0.00     0.006 C 
BRANCH  10  11
ATOM     11  C   UNL     1      19.569  67.222  16.074  1.00  0.00     0.053 C 
BRANCH  11  12
ATOM     12  C   UNL     1      20.733  67.363  15.145  1.00  0.00     0.041 C 
ATOM     13  O   UNL     1      21.535  66.406  14.983  1.00  0.00    -0.550 OA
ATOM     14  O   UNL     1      20.960  68.570  14.495  1.00  0.00    -0.550 OA
ENDBRANCH  11  12
ENDBRANCH  10  11
ENDBRANCH   9  10
ENDBRANCH   8   9
ENDBRANCH   1   8
TORSDOF 9
ENDMDL
MODEL 3
REMARK VINA RESULT:    -2.926      1.995      4.739
REMARK INTER + INTRA:          -5.417
REMARK INTER:                  -4.560
REMARK INTRA:                  -0.857
REMARK UNBOUND:                -0.951
REMARK SMILES O=C([O-])CCCCCCCCC(=O)[O-]
REMARK SMILES IDX 7 1 6 2 5 3 4 4 2 5 1 6 3 7 8 8 9 9 10 10 11 11 12 12 13 13
REMARK SMILES IDX 14 14
REMARK H PARENT
REMARK Flexibility Score: inf
ROOT
ATOM      1  C   UNL     1      23.131  66.115  18.243  1.00  0.00     0.000 C 
ENDROOT
BRANCH   1   2
ATOM      2  C   UNL     1      22.241  64.875  18.408  1.00  0.00     0.000 C 
BRANCH   2   3
ATOM      3  C   UNL     1      20.962  65.215  19.184  1.00  0.00     0.006 C 
BRANCH   3   4
ATOM      4  C   UNL     1      19.771  65.379  18.236  1.00  0.00     0.053 C 
BRANCH   4   5
ATOM      5  C   UNL     1      19.334  66.809  18.187  1.00  0.00     0.041 C 
ATOM      6  O   UNL     1      19.324  67.506  19.236  1.00  0.00    -0.550 OA
ATOM      7  O   UNL     1      18.985  67.388  16.973  1.00  0.00    -0.550 OA
ENDBRANCH   4   5
ENDBRANCH   3   4
ENDBRANCH   2   3
ENDBRANCH   1   2
BRANCH   1   8
ATOM      8  C   UNL     1      23.032  66.740  16.839  1.00  0.00     0.000 C 
BRANCH   8   9
ATOM      9  C   UNL     1      22.430  68.158  16.796  1.00  0.00     0.000 C 
BRANCH   9  10
ATOM     10  C   UNL     1      22.431  68.910  18.138  1.00  0.00     0.006 C 
BRANCH  10  11
ATOM     11  C   UNL     1      22.742  70.404  17.984  1.00  0.00     0.053 C 
BRANCH  11  12
ATOM     12  C   UNL     1      21.895  71.006  16.908  1.00  0.00     0.041 C 
ATOM     13  O   UNL     1      22.432  71.532  15.897  1.00  0.00    -0.550 OA
ATOM     14  O   UNL     1      20.512  71.029  17.043  1.00  0.00    -0.550 OA
ENDBRANCH  11  12
ENDBRANCH  10  11
ENDBRANCH   9  10
ENDBRANCH   8   9
ENDBRANCH   1   8
TORSDOF 9
ENDMDL
MODEL 4
REMARK VINA RESULT:    -2.916      4.403      6.250
REMARK INTER + INTRA:          -5.401
REMARK INTER:                  -5.076
REMARK INTRA:                  -0.325
REMARK UNBOUND:                -0.951
REMARK SMILES O=C([O-])CCCCCCCCC(=O)[O-]
REMARK SMILES IDX 7 1 6 2 5 3 4 4 2 5 1 6 3 7 8 8 9 9 10 10 11 11 12 12 13 13
REMARK SMILES IDX 14 14
REMARK H PARENT
REMARK Flexibility Score: inf
ROOT
ATOM      1  C   UNL     1      23.398  72.544  15.028  1.00  0.00     0.000 C 
ENDROOT
BRANCH   1   2
ATOM      2  C   UNL     1      23.778  72.304  13.560  1.00  0.00     0.000 C 
BRANCH   2   3
ATOM      3  C   UNL     1      25.275  72.004  13.421  1.00  0.00     0.006 C 
BRANCH   3   4
ATOM      4  C   UNL     1      25.623  71.587  11.990  1.00  0.00     0.053 C 
BRANCH   4   5
ATOM      5  C   UNL     1      27.085  71.292  11.871  1.00  0.00     0.041 C 
ATOM      6  O   UNL     1      27.787  71.137  12.905  1.00  0.00    -0.550 OA
ATOM      7  O   UNL     1      27.663  71.139  10.617  1.00  0.00    -0.550 OA
ENDBRANCH   4   5
ENDBRANCH   3   4
ENDBRANCH   2   3
ENDBRANCH   1   2
BRANCH   1   8
ATOM      8  C   UNL     1      21.948  72.135  15.344  1.00  0.00     0.000 C 
BRANCH   8   9
ATOM      9  C   UNL     1      21.768  70.679  15.818  1.00  0.00     0.000 C 
BRANCH   9  10
ATOM     10  C   UNL     1      21.388  70.516  17.301  1.00  0.00     0.006 C 
BRANCH  10  11
ATOM     11  C   UNL     1      22.552  70.010  18.162  1.00  0.00     0.053 C 
BRANCH  11  12
ATOM     12  C   UNL     1      22.431  68.537  18.389  1.00  0.00     0.041 C 
ATOM     13  O   UNL     1      21.776  68.098  19.371  1.00  0.00    -0.550 OA
ATOM     14  O   UNL     1      23.084  67.648  17.544  1.00  0.00    -0.550 OA
ENDBRANCH  11  12
ENDBRANCH  10  11
ENDBRANCH   9  10
ENDBRANCH   8   9
ENDBRANCH   1   8
TORSDOF 9
ENDMDL
MODEL 5
REMARK VINA RESULT:    -2.878      2.549      3.861
REMARK INTER + INTRA:          -5.343
REMARK INTER:                  -4.776
REMARK INTRA:                  -0.567
REMARK UNBOUND:                -0.951
REMARK SMILES O=C([O-])CCCCCCCCC(=O)[O-]
REMARK SMILES IDX 7 1 6 2 5 3 4 4 2 5 1 6 3 7 8 8 9 9 10 10 11 11 12 12 13 13
REMARK SMILES IDX 14 14
REMARK H PARENT
REMARK Flexibility Score: inf
ROOT
ATOM      1  C   UNL     1      21.331  70.821  17.240  1.00  0.00     0.000 C 
ENDROOT
BRANCH   1   2
ATOM      2  C   UNL     1      21.485  70.357  15.785  1.00  0.00     0.000 C 
BRANCH   2   3
ATOM      3  C   UNL     1      21.504  71.554  14.825  1.00  0.00     0.006 C 
BRANCH   3   4
ATOM      4  C   UNL     1      22.935  71.899  14.405  1.00  0.00     0.053 C 
BRANCH   4   5
ATOM      5  C   UNL     1      23.463  73.032  15.226  1.00  0.00     0.041 C 
ATOM      6  O   UNL     1      24.242  72.807  16.190  1.00  0.00    -0.550 OA
ATOM      7  O   UNL     1      23.135  74.341  14.896  1.00  0.00    -0.550 OA
ENDBRANCH   4   5
ENDBRANCH   3   4
ENDBRANCH   2   3
ENDBRANCH   1   2
BRANCH   1   8
ATOM      8  C   UNL     1      22.396  70.220  18.175  1.00  0.00     0.000 C 
BRANCH   8   9
ATOM      9  C   UNL     1      22.598  68.697  18.043  1.00  0.00     0.000 C 
BRANCH   9  10
ATOM     10  C   UNL     1      21.951  67.853  19.155  1.00  0.00     0.006 C 
BRANCH  10  11
ATOM     11  C   UNL     1      20.508  67.447  18.832  1.00  0.00     0.053 C 
BRANCH  11  12
ATOM     12  C   UNL     1      20.346  65.964  18.940  1.00  0.00     0.041 C 
ATOM     13  O   UNL     1      21.271  65.258  19.421  1.00  0.00    -0.550 OA
ATOM     14  O   UNL     1      19.191  65.355  18.465  1.00  0.00    -0.550 OA
ENDBRANCH  11  12
ENDBRANCH  10  11
ENDBRANCH   9  10
ENDBRANCH   8   9
ENDBRANCH   1   8
TORSDOF 9
ENDMDL
MODEL 6
REMARK VINA RESULT:    -2.849      2.534      3.978
REMARK INTER + INTRA:          -5.299
REMARK INTER:                  -4.059
REMARK INTRA:                  -1.240
REMARK UNBOUND:                -0.951
REMARK SMILES O=C([O-])CCCCCCCCC(=O)[O-]
REMARK SMILES IDX 7 1 6 2 5 3 4 4 2 5 1 6 3 7 8 8 9 9 10 10 11 11 12 12 13 13
REMARK SMILES IDX 14 14
REMARK H PARENT
REMARK Flexibility Score: inf
ROOT
ATOM      1  C   UNL     1      20.763  69.689  16.294  1.00  0.00     0.000 C 
ENDROOT
BRANCH   1   2
ATOM      2  C   UNL     1      19.456  68.894  16.420  1.00  0.00     0.000 C 
BRANCH   2   3
ATOM      3  C   UNL     1      19.588  67.511  15.771  1.00  0.00     0.006 C 
BRANCH   3   4
ATOM      4  C   UNL     1      20.945  67.356  15.080  1.00  0.00     0.053 C 
BRANCH   4   5
ATOM      5  C   UNL     1      21.581  66.055  15.459  1.00  0.00     0.041 C 
ATOM      6  O   UNL     1      22.834  65.958  15.528  1.00  0.00    -0.550 OA
ATOM      7  O   UNL     1      20.787  64.963  15.784  1.00  0.00    -0.550 OA
ENDBRANCH   4   5
ENDBRANCH   3   4
ENDBRANCH   2   3
ENDBRANCH   1   2
BRANCH   1   8
ATOM      8  C   UNL     1      21.309  70.163  17.653  1.00  0.00     0.000 C 
BRANCH   8   9
ATOM      9  C   UNL     1      22.636  69.511  18.089  1.00  0.00     0.000 C 
BRANCH   9  10
ATOM     10  C   UNL     1      22.550  68.009  18.415  1.00  0.00     0.006 C 
BRANCH  10  11
ATOM     11  C   UNL     1      21.395  67.672  19.367  1.00  0.00     0.053 C 
BRANCH  11  12
ATOM     12  C   UNL     1      20.883  66.292  19.097  1.00  0.00     0.041 C 
ATOM     13  O   UNL     1      19.646  66.086  18.985  1.00  0.00    -0.550 OA
ATOM     14  O   UNL     1      21.769  65.225  19.018  1.00  0.00    -0.550 OA
ENDBRANCH  11  12
ENDBRANCH  10  11
ENDBRANCH   9  10
ENDBRANCH   8   9
ENDBRANCH   1   8
TORSDOF 9
ENDMDL
MODEL 7
REMARK VINA RESULT:    -2.846      2.263      4.796
REMARK INTER + INTRA:          -5.294
REMARK INTER:                  -4.174
REMARK INTRA:                  -1.121
REMARK UNBOUND:                -0.951
REMARK SMILES O=C([O-])CCCCCCCCC(=O)[O-]
REMARK SMILES IDX 7 1 6 2 5 3 4 4 2 5 1 6 3 7 8 8 9 9 10 10 11 11 12 12 13 13
REMARK SMILES IDX 14 14
REMARK H PARENT
REMARK Flexibility Score: inf
ROOT
ATOM      1  C   UNL     1      22.376  70.870  16.690  1.00  0.00     0.000 C 
ENDROOT
BRANCH   1   2
ATOM      2  C   UNL     1      22.236  70.243  18.084  1.00  0.00     0.000 C 
BRANCH   2   3
ATOM      3  C   UNL     1      22.613  68.757  18.059  1.00  0.00     0.006 C 
BRANCH   3   4
ATOM      4  C   UNL     1      21.848  67.976  19.131  1.00  0.00     0.053 C 
BRANCH   4   5
ATOM      5  C   UNL     1      21.892  66.509  18.842  1.00  0.00     0.041 C 
ATOM      6  O   UNL     1      20.931  65.768  19.179  1.00  0.00    -0.550 OA
ATOM      7  O   UNL     1      22.971  65.968  18.156  1.00  0.00    -0.550 OA
ENDBRANCH   4   5
ENDBRANCH   3   4
ENDBRANCH   2   3
ENDBRANCH   1   2
BRANCH   1   8
ATOM      8  C   UNL     1      21.019  71.226  16.056  1.00  0.00     0.000 C 
BRANCH   8   9
ATOM      9  C   UNL     1      19.783  70.798  16.873  1.00  0.00     0.000 C 
BRANCH   9  10
ATOM     10  C   UNL     1      18.896  69.732  16.206  1.00  0.00     0.006 C 
BRANCH  10  11
ATOM     11  C   UNL     1      18.896  68.398  16.963  1.00  0.00     0.053 C 
BRANCH  11  12
ATOM     12  C   UNL     1      19.573  67.339  16.152  1.00  0.00     0.041 C 
ATOM     13  O   UNL     1      19.198  66.139  16.237  1.00  0.00    -0.550 OA
ATOM     14  O   UNL     1      20.651  67.668  15.340  1.00  0.00    -0.550 OA
ENDBRANCH  11  12
ENDBRANCH  10  11
ENDBRANCH   9  10
ENDBRANCH   8   9
ENDBRANCH   1   8
TORSDOF 9
ENDMDL
MODEL 8
REMARK VINA RESULT:    -2.785      2.523      5.664
REMARK INTER + INTRA:          -5.202
REMARK INTER:                  -4.602
REMARK INTRA:                  -0.599
REMARK UNBOUND:                -0.951
REMARK SMILES O=C([O-])CCCCCCCCC(=O)[O-]
REMARK SMILES IDX 7 1 6 2 5 3 4 4 2 5 1 6 3 7 8 8 9 9 10 10 11 11 12 12 13 13
REMARK SMILES IDX 14 14
REMARK H PARENT
REMARK Flexibility Score: inf
ROOT
ATOM      1  C   UNL     1      22.345  68.816  18.702  1.00  0.00     0.000 C 
ENDROOT
BRANCH   1   2
ATOM      2  C   UNL     1      22.815  67.613  17.871  1.00  0.00     0.000 C 
BRANCH   2   3
ATOM      3  C   UNL     1      21.687  66.588  17.700  1.00  0.00     0.006 C 
BRANCH   3   4
ATOM      4  C   UNL     1      20.802  66.530  18.948  1.00  0.00     0.053 C 
BRANCH   4   5
ATOM      5  C   UNL     1      19.364  66.710  18.579  1.00  0.00     0.041 C 
ATOM      6  O   UNL     1      18.508  65.855  18.929  1.00  0.00    -0.550 OA
ATOM      7  O   UNL     1      18.959  67.848  17.893  1.00  0.00    -0.550 OA
ENDBRANCH   4   5
ENDBRANCH   3   4
ENDBRANCH   2   3
ENDBRANCH   1   2
BRANCH   1   8
ATOM      8  C   UNL     1      22.577  70.161  17.989  1.00  0.00     0.000 C 
BRANCH   8   9
ATOM      9  C   UNL     1      21.409  70.644  17.107  1.00  0.00     0.000 C 
BRANCH   9  10
ATOM     10  C   UNL     1      21.746  70.822  15.616  1.00  0.00     0.006 C 
BRANCH  10  11
ATOM     11  C   UNL     1      22.020  72.283  15.238  1.00  0.00     0.053 C 
BRANCH  11  12
ATOM     12  C   UNL     1      23.490  72.516  15.086  1.00  0.00     0.041 C 
ATOM     13  O   UNL     1      24.191  72.821  16.087  1.00  0.00    -0.550 OA
ATOM     14  O   UNL     1      24.079  72.443  13.829  1.00  0.00    -0.550 OA
ENDBRANCH  11  12
ENDBRANCH  10  11
ENDBRANCH   9  10
ENDBRANCH   8   9
ENDBRANCH   1   8
TORSDOF 9
ENDMDL
MODEL 9
REMARK VINA RESULT:    -2.783      0.736      4.185
REMARK INTER + INTRA:          -5.198
REMARK INTER:                  -4.226
REMARK INTRA:                  -0.972
REMARK UNBOUND:                -0.951
REMARK SMILES O=C([O-])CCCCCCCCC(=O)[O-]
REMARK SMILES IDX 7 1 6 2 5 3 4 4 2 5 1 6 3 7 8 8 9 9 10 10 11 11 12 12 13 13
REMARK SMILES IDX 14 14
REMARK H PARENT
REMARK Flexibility Score: inf
ROOT
ATOM      1  C   UNL     1      19.525  67.392  18.936  1.00  0.00     0.000 C 
ENDROOT
BRANCH   1   2
ATOM      2  C   UNL     1      19.858  65.907  18.726  1.00  0.00     0.000 C 
BRANCH   2   3
ATOM      3  C   UNL     1      21.291  65.596  19.176  1.00  0.00     0.006 C 
BRANCH   3   4
ATOM      4  C   UNL     1      22.186  65.274  17.976  1.00  0.00     0.053 C 
BRANCH   4   5
ATOM      5  C   UNL     1      23.110  66.416  17.690  1.00  0.00     0.041 C 
ATOM      6  O   UNL     1      23.118  67.428  18.440  1.00  0.00    -0.550 OA
ATOM      7  O   UNL     1      23.997  66.341  16.624  1.00  0.00    -0.550 OA
ENDBRANCH   4   5
ENDBRANCH   3   4
ENDBRANCH   2   3
ENDBRANCH   1   2
BRANCH   1   8
ATOM      8  C   UNL     1      18.958  68.061  17.671  1.00  0.00     0.000 C 
BRANCH   8   9
ATOM      9  C   UNL     1      19.594  67.599  16.344  1.00  0.00     0.000 C 
BRANCH   9  10
ATOM     10  C   UNL     1      20.720  68.501  15.811  1.00  0.00     0.006 C 
BRANCH  10  11
ATOM     11  C   UNL     1      20.451  69.993  16.047  1.00  0.00     0.053 C 
BRANCH  11  12
ATOM     12  C   UNL     1      21.576  70.610  16.816  1.00  0.00     0.041 C 
ATOM     13  O   UNL     1      21.689  70.402  18.053  1.00  0.00    -0.550 OA
ATOM     14  O   UNL     1      22.473  71.457  16.175  1.00  0.00    -0.550 OA
ENDBRANCH  11  12
ENDBRANCH  10  11
ENDBRANCH   9  10
ENDBRANCH   8   9
ENDBRANCH   1   8
TORSDOF 9
ENDMDL
