MODEL 1
REMARK VINA RESULT:    -2.379      0.000      0.000
REMARK INTER + INTRA:          -2.379
REMARK INTER:                  -2.379
REMARK INTRA:                   0.000
REMARK UNBOUND:                 0.000
REMARK SMILES CC(=O)[O-]
REMARK SMILES IDX 1 1 2 2 3 3 4 4
REMARK H PARENT
REMARK Flexibility Score: inf
ROOT
ATOM      1  C   UNL     1      60.365  28.214  13.323  1.00  0.00     0.063 C 
ATOM      2  C   UNL     1      59.116  28.280  12.513  1.00  0.00     0.038 C 
ATOM      3  O   UNL     1      59.088  28.952  11.448  1.00  0.00    -0.550 OA
ATOM      4  O   UNL     1      57.996  27.558  12.901  1.00  0.00    -0.550 OA
ENDROOT
TORSDOF 0
ENDMDL
MODEL 2
REMARK VINA RESULT:    -2.332     12.900     13.514
REMARK INTER + INTRA:          -2.332
REMARK INTER:                  -2.332
REMARK INTRA:                   0.000
REMARK UNBOUND:                 0.000
REMARK SMILES CC(=O)[O-]
REMARK SMILES IDX 1 1 2 2 3 3 4 4
REMARK H PARENT
REMARK Flexibility Score: inf
ROOT
ATOM      1  C   UNL     1      60.748  28.113  25.069  1.00  0.00     0.063 C 
ATOM      2  C   UNL     1      60.254  26.969  25.888  1.00  0.00     0.038 C 
ATOM      3  O   UNL     1      60.796  26.703  26.992  1.00  0.00    -0.550 OA
ATOM      4  O   UNL     1      59.160  26.228  25.461  1.00  0.00    -0.550 OA
ENDROOT
TORSDOF 0
ENDMDL
MODEL 3
REMARK VINA RESULT:    -2.177      3.186      3.437
REMARK INTER + INTRA:          -2.177
REMARK INTER:                  -2.177
REMARK INTRA:                   0.000
REMARK UNBOUND:                 0.000
REMARK SMILES CC(=O)[O-]
REMARK SMILES IDX 1 1 2 2 3 3 4 4
REMARK H PARENT
REMARK Flexibility Score: inf
ROOT
ATOM      1  C   UNL     1      59.532  28.967  10.651  1.00  0.00     0.063 C 
ATOM      2  C   UNL     1      60.716  28.231  10.123  1.00  0.00     0.038 C 
ATOM      3  O   UNL     1      61.811  28.269  10.745  1.00  0.00    -0.550 OA
ATOM      4  O   UNL     1      60.603  27.459   8.975  1.00  0.00    -0.550 OA
ENDROOT
TORSDOF 0
ENDMDL
MODEL 4
REMARK VINA RESULT:    -2.177      1.498      1.746
REMARK INTER + INTRA:          -2.177
REMARK INTER:                  -2.177
REMARK INTRA:                   0.000
REMARK UNBOUND:                 0.000
REMARK SMILES CC(=O)[O-]
REMARK SMILES IDX 1 1 2 2 3 3 4 4
REMARK H PARENT
REMARK Flexibility Score: inf
ROOT
ATOM      1  C   UNL     1      59.624  27.833  12.984  1.00  0.00     0.063 C 
ATOM      2  C   UNL     1      59.447  28.896  11.954  1.00  0.00     0.038 C 
ATOM      3  O   UNL     1      59.140  28.586  10.773  1.00  0.00    -0.550 OA
ATOM      4  O   UNL     1      59.567  30.234  12.305  1.00  0.00    -0.550 OA
ENDROOT
TORSDOF 0
ENDMDL
MODEL 5
REMARK VINA RESULT:    -2.153      2.866      3.167
REMARK INTER + INTRA:          -2.153
REMARK INTER:                  -2.153
REMARK INTRA:                   0.000
REMARK UNBOUND:                 0.000
REMARK SMILES CC(=O)[O-]
REMARK SMILES IDX 1 1 2 2 3 3 4 4
REMARK H PARENT
REMARK Flexibility Score: inf
ROOT
ATOM      1  C   UNL     1      62.150  28.585  10.394  1.00  0.00     0.063 C 
ATOM      2  C   UNL     1      60.782  28.154   9.991  1.00  0.00     0.038 C 
ATOM      3  O   UNL     1      60.621  27.437   8.969  1.00  0.00    -0.550 OA
ATOM      4  O   UNL     1      59.685  28.497  10.770  1.00  0.00    -0.550 OA
ENDROOT
TORSDOF 0
ENDMDL
MODEL 6
REMARK VINA RESULT:    -2.147     13.452     14.077
REMARK INTER + INTRA:          -2.147
REMARK INTER:                  -2.147
REMARK INTRA:                   0.000
REMARK UNBOUND:                 0.000
REMARK SMILES CC(=O)[O-]
REMARK SMILES IDX 1 1 2 2 3 3 4 4
REMARK H PARENT
REMARK Flexibility Score: inf
ROOT
ATOM      1  C   UNL     1      60.092  27.521  25.304  1.00  0.00     0.063 C 
ATOM      2  C   UNL     1      61.056  26.967  26.296  1.00  0.00     0.038 C 
ATOM      3  O   UNL     1      60.720  26.848  27.504  1.00  0.00    -0.550 OA
ATOM      4  O   UNL     1      62.307  26.531  25.883  1.00  0.00    -0.550 OA
ENDROOT
TORSDOF 0
ENDMDL
MODEL 7
REMARK VINA RESULT:    -2.141     15.254     15.765
REMARK INTER + INTRA:          -2.141
REMARK INTER:                  -2.141
REMARK INTRA:                   0.000
REMARK UNBOUND:                 0.000
REMARK SMILES CC(=O)[O-]
REMARK SMILES IDX 1 1 2 2 3 3 4 4
REMARK H PARENT
REMARK Flexibility Score: inf
ROOT
ATOM      1  C   UNL     1      61.057  27.285  27.495  1.00  0.00     0.063 C 
ATOM      2  C   UNL     1      60.980  28.652  28.083  1.00  0.00     0.038 C 
ATOM      3  O   UNL     1      60.272  28.862  29.102  1.00  0.00    -0.550 OA
ATOM      4  O   UNL     1      61.731  29.687  27.541  1.00  0.00    -0.550 OA
ENDROOT
TORSDOF 0
ENDMDL
MODEL 8
REMARK VINA RESULT:    -2.104     14.053     14.613
REMARK INTER + INTRA:          -2.104
REMARK INTER:                  -2.104
REMARK INTRA:                   0.000
REMARK UNBOUND:                 0.000
REMARK SMILES CC(=O)[O-]
REMARK SMILES IDX 1 1 2 2 3 3 4 4
REMARK H PARENT
REMARK Flexibility Score: inf
ROOT
ATOM      1  C   UNL     1      60.366  27.409  25.698  1.00  0.00     0.063 C 
ATOM      2  C   UNL     1      61.141  26.898  26.863  1.00  0.00     0.038 C 
ATOM      3  O   UNL     1      62.329  26.511  26.710  1.00  0.00    -0.550 OA
ATOM      4  O   UNL     1      60.574  26.896  28.131  1.00  0.00    -0.550 OA
ENDROOT
TORSDOF 0
ENDMDL
MODEL 9
REMARK VINA RESULT:    -2.098     15.492     16.055
REMARK INTER + INTRA:          -2.098
REMARK INTER:                  -2.098
REMARK INTRA:                   0.000
REMARK UNBOUND:                 0.000
REMARK SMILES CC(=O)[O-]
REMARK SMILES IDX 1 1 2 2 3 3 4 4
REMARK H PARENT
REMARK Flexibility Score: inf
ROOT
ATOM      1  C   UNL     1      60.686  28.717  28.762  1.00  0.00     0.063 C 
ATOM      2  C   UNL     1      61.232  27.400  28.326  1.00  0.00     0.038 C 
ATOM      3  O   UNL     1      60.882  26.905  27.223  1.00  0.00    -0.550 OA
ATOM      4  O   UNL     1      62.170  26.742  29.110  1.00  0.00    -0.550 OA
ENDROOT
TORSDOF 0
ENDMDL
