MODEL 1
REMARK VINA RESULT:    -4.532      0.000      0.000
REMARK INTER + INTRA:          -6.303
REMARK INTER:                  -6.121
REMARK INTRA:                  -0.182
REMARK UNBOUND:                -0.182
REMARK SMILES C=C1C(=O)O[C@H]2[C@@H]1CCC(C)=CCC[C@@]1(C)O[C@H]21
REMARK SMILES IDX 6 1 7 2 2 3 1 4 3 5 4 6 5 7 8 8 9 9 10 10 11 11 12 12 18 14
REMARK SMILES IDX 15 15 17 16 16 17 14 18 13 19
REMARK H PARENT
REMARK Flexibility Score: 70.00
ROOT
ATOM      1  C   UNL     1     -20.239  55.574  -1.820  1.00  0.00     0.216 C 
ATOM      2  C   UNL     1     -19.949  55.741  -0.277  1.00  0.00     0.070 C 
ATOM      3  C   UNL     1     -18.461  55.948  -0.281  1.00  0.00     0.037 C 
ATOM      4  C   UNL     1     -17.657  55.859   0.778  1.00  0.00     0.021 C 
ATOM      5  C   UNL     1     -18.063  56.286  -1.626  1.00  0.00     0.334 C 
ATOM      6  O   UNL     1     -16.912  56.657  -1.981  1.00  0.00    -0.247 OA
ATOM      7  O   UNL     1     -19.128  56.164  -2.489  1.00  0.00    -0.455 OA
ENDROOT
BRANCH   2   8
ATOM      8  C   UNL     1     -20.643  56.967   0.412  1.00  0.00     0.017 C 
BRANCH   8   9
ATOM      9  C   UNL     1     -21.827  56.641   1.348  1.00  0.00     0.031 C 
BRANCH   9  10
ATOM     10  C   UNL     1     -23.021  57.586   1.321  1.00  0.00    -0.077 C 
ATOM     11  C   UNL     1     -22.931  58.872   2.108  1.00  0.00     0.039 C 
ATOM     12  C   UNL     1     -24.099  57.427   0.513  1.00  0.00    -0.028 CG0
ATOM     13  G   UNL     1     -24.452  56.184  -0.271  1.00  0.00     0.000 G0
ENDBRANCH   9  10
ENDBRANCH   8   9
ENDBRANCH   2   8
BRANCH   1  14
ATOM     14  C   UNL     1     -21.557  56.200  -2.298  1.00  0.00     0.192 C 
ATOM     15  C   UNL     1     -22.795  55.411  -2.040  1.00  0.00     0.096 C 
ATOM     16  O   UNL     1     -22.232  55.520  -3.332  1.00  0.00    -0.362 OA
ATOM     17  C   UNL     1     -22.768  53.950  -1.557  1.00  0.00     0.045 C 
BRANCH  15  18
ATOM     18  C   UNL     1     -24.027  56.285  -1.749  1.00  0.00     0.042 C 
BRANCH  18  19
ATOM     19  C   UNL     1     -24.458  56.173  -0.271  1.00  0.00     0.030 CG0
ATOM     20  G   UNL     1     -24.101  57.423   0.501  1.00  0.00     0.000 G0
ENDBRANCH  18  19
ENDBRANCH  15  18
ENDBRANCH   1  14
TORSDOF 0
ENDMDL
MODEL 2
REMARK VINA RESULT:    -4.528      3.437      5.551
REMARK INTER + INTRA:          -6.299
REMARK INTER:                  -6.163
REMARK INTRA:                  -0.135
REMARK UNBOUND:                -0.182
REMARK SMILES C=C1C(=O)O[C@H]2[C@@H]1CCC(C)=CCC[C@@]1(C)O[C@H]21
REMARK SMILES IDX 6 1 7 2 2 3 1 4 3 5 4 6 5 7 8 8 9 9 10 10 11 11 12 12 18 14
REMARK SMILES IDX 15 15 17 16 16 17 14 18 13 19
REMARK H PARENT
REMARK Flexibility Score: 70.00
ROOT
ATOM      1  C   UNL     1     -21.659  53.594  -0.439  1.00  0.00     0.216 C 
ATOM      2  C   UNL     1     -21.739  55.166  -0.562  1.00  0.00     0.070 C 
ATOM      3  C   UNL     1     -23.071  55.441   0.079  1.00  0.00     0.037 C 
ATOM      4  C   UNL     1     -23.762  56.576  -0.011  1.00  0.00     0.021 C 
ATOM      5  C   UNL     1     -23.453  54.268   0.829  1.00  0.00     0.334 C 
ATOM      6  O   UNL     1     -24.444  54.181   1.602  1.00  0.00    -0.247 OA
ATOM      7  O   UNL     1     -22.568  53.239   0.599  1.00  0.00    -0.455 OA
ENDROOT
BRANCH   2   8
ATOM      8  C   UNL     1     -20.623  55.962   0.199  1.00  0.00     0.017 C 
BRANCH   8   9
ATOM      9  C   UNL     1     -19.540  56.625  -0.681  1.00  0.00     0.031 C 
BRANCH   9  10
ATOM     10  C   UNL     1     -18.113  56.627  -0.151  1.00  0.00    -0.077 C 
ATOM     11  C   UNL     1     -17.733  57.673   0.871  1.00  0.00     0.039 C 
ATOM     12  C   UNL     1     -17.201  55.658  -0.414  1.00  0.00    -0.028 CG0
ATOM     13  G   UNL     1     -17.319  54.587  -1.474  1.00  0.00     0.000 G0
ENDBRANCH   9  10
ENDBRANCH   8   9
ENDBRANCH   2   8
BRANCH   1  14
ATOM     14  C   UNL     1     -20.256  53.044  -0.144  1.00  0.00     0.192 C 
ATOM     15  C   UNL     1     -19.309  53.000  -1.294  1.00  0.00     0.096 C 
ATOM     16  O   UNL     1     -19.915  51.832  -0.778  1.00  0.00    -0.362 OA
ATOM     17  C   UNL     1     -19.749  53.244  -2.749  1.00  0.00     0.045 C 
BRANCH  15  18
ATOM     18  C   UNL     1     -17.846  53.253  -0.891  1.00  0.00     0.042 C 
BRANCH  18  19
ATOM     19  C   UNL     1     -17.323  54.581  -1.480  1.00  0.00     0.030 CG0
ATOM     20  G   UNL     1     -17.205  55.645  -0.413  1.00  0.00     0.000 G0
ENDBRANCH  18  19
ENDBRANCH  15  18
ENDBRANCH   1  14
TORSDOF 0
ENDMDL
MODEL 3
REMARK VINA RESULT:    -4.528      3.027      5.223
REMARK INTER + INTRA:          -6.298
REMARK INTER:                  -6.146
REMARK INTRA:                  -0.152
REMARK UNBOUND:                -0.182
REMARK SMILES C=C1C(=O)O[C@H]2[C@@H]1CCC(C)=CCC[C@@]1(C)O[C@H]21
REMARK SMILES IDX 6 1 7 2 2 3 1 4 3 5 4 6 5 7 8 8 9 9 10 10 11 11 12 12 18 14
REMARK SMILES IDX 15 15 17 16 16 17 14 18 13 19
REMARK H PARENT
REMARK Flexibility Score: 70.00
ROOT
ATOM      1  C   UNL     1     -21.551  54.784  -1.239  1.00  0.00     0.216 C 
ATOM      2  C   UNL     1     -21.444  56.001  -0.241  1.00  0.00     0.070 C 
ATOM      3  C   UNL     1     -22.556  55.689   0.720  1.00  0.00     0.037 C 
ATOM      4  C   UNL     1     -23.092  56.536   1.599  1.00  0.00     0.021 C 
ATOM      5  C   UNL     1     -22.922  54.304   0.542  1.00  0.00     0.334 C 
ATOM      6  O   UNL     1     -23.726  53.656   1.264  1.00  0.00    -0.247 OA
ATOM      7  O   UNL     1     -22.254  53.764  -0.535  1.00  0.00    -0.455 OA
ENDROOT
BRANCH   2   8
ATOM      8  C   UNL     1     -20.093  56.113   0.547  1.00  0.00     0.017 C 
BRANCH   8   9
ATOM      9  C   UNL     1     -19.141  57.247   0.109  1.00  0.00     0.031 C 
BRANCH   9  10
ATOM     10  C   UNL     1     -17.648  56.945   0.105  1.00  0.00    -0.077 C 
ATOM     11  C   UNL     1     -16.908  56.991   1.421  1.00  0.00     0.039 C 
ATOM     12  C   UNL     1     -16.967  56.484  -0.973  1.00  0.00    -0.028 CG0
ATOM     13  G   UNL     1     -17.467  56.458  -2.400  1.00  0.00     0.000 G0
ENDBRANCH   9  10
ENDBRANCH   8   9
ENDBRANCH   2   8
BRANCH   1  14
ATOM     14  C   UNL     1     -20.205  54.257  -1.757  1.00  0.00     0.192 C 
ATOM     15  C   UNL     1     -19.554  55.055  -2.833  1.00  0.00     0.096 C 
ATOM     16  O   UNL     1     -20.181  53.816  -3.096  1.00  0.00    -0.362 OA
ATOM     17  C   UNL     1     -20.270  56.196  -3.578  1.00  0.00     0.045 C 
BRANCH  15  18
ATOM     18  C   UNL     1     -18.017  55.047  -2.755  1.00  0.00     0.042 C 
BRANCH  18  19
ATOM     19  C   UNL     1     -17.465  56.446  -2.405  1.00  0.00     0.030 CG0
ATOM     20  G   UNL     1     -16.961  56.497  -0.981  1.00  0.00     0.000 G0
ENDBRANCH  18  19
ENDBRANCH  15  18
ENDBRANCH   1  14
TORSDOF 0
ENDMDL
MODEL 4
REMARK VINA RESULT:    -4.464      3.090      5.109
REMARK INTER + INTRA:          -6.212
REMARK INTER:                  -5.987
REMARK INTRA:                  -0.225
REMARK UNBOUND:                -0.182
REMARK SMILES C=C1C(=O)O[C@H]2[C@@H]1CCC(C)=CCC[C@@]1(C)O[C@H]21
REMARK SMILES IDX 6 1 7 2 2 3 1 4 3 5 4 6 5 7 8 8 9 9 10 10 11 11 12 12 18 14
REMARK SMILES IDX 15 15 17 16 16 17 14 18 13 19
REMARK H PARENT
REMARK Flexibility Score: 70.00
ROOT
ATOM      1  C   UNL     1     -22.135  55.885  -0.313  1.00  0.00     0.216 C 
ATOM      2  C   UNL     1     -20.985  56.895   0.072  1.00  0.00     0.070 C 
ATOM      3  C   UNL     1     -21.596  57.599   1.250  1.00  0.00     0.037 C 
ATOM      4  C   UNL     1     -21.170  58.742   1.785  1.00  0.00     0.021 C 
ATOM      5  C   UNL     1     -22.708  56.805   1.714  1.00  0.00     0.334 C 
ATOM      6  O   UNL     1     -23.375  57.014   2.762  1.00  0.00    -0.247 OA
ATOM      7  O   UNL     1     -22.944  55.756   0.853  1.00  0.00    -0.455 OA
ENDROOT
BRANCH   2   8
ATOM      8  C   UNL     1     -19.627  56.241   0.504  1.00  0.00     0.017 C 
BRANCH   8   9
ATOM      9  C   UNL     1     -18.479  56.309  -0.526  1.00  0.00     0.031 C 
BRANCH   9  10
ATOM     10  C   UNL     1     -17.626  55.060  -0.707  1.00  0.00    -0.077 C 
ATOM     11  C   UNL     1     -16.545  54.783   0.311  1.00  0.00     0.039 C 
ATOM     12  C   UNL     1     -17.872  54.097  -1.630  1.00  0.00    -0.028 CG0
ATOM     13  G   UNL     1     -18.820  54.205  -2.802  1.00  0.00     0.000 G0
ENDBRANCH   9  10
ENDBRANCH   8   9
ENDBRANCH   2   8
BRANCH   1  14
ATOM     14  C   UNL     1     -21.648  54.509  -0.791  1.00  0.00     0.192 C 
ATOM     15  C   UNL     1     -21.316  54.394  -2.239  1.00  0.00     0.096 C 
ATOM     16  O   UNL     1     -22.491  53.830  -1.695  1.00  0.00    -0.362 OA
ATOM     17  C   UNL     1     -21.662  55.488  -3.266  1.00  0.00     0.045 C 
BRANCH  15  18
ATOM     18  C   UNL     1     -20.154  53.427  -2.524  1.00  0.00     0.042 C 
BRANCH  18  19
ATOM     19  C   UNL     1     -18.842  54.191  -2.803  1.00  0.00     0.030 CG0
ATOM     20  G   UNL     1     -17.889  54.092  -1.633  1.00  0.00     0.000 G0
ENDBRANCH  18  19
ENDBRANCH  15  18
ENDBRANCH   1  14
TORSDOF 0
ENDMDL
MODEL 5
REMARK VINA RESULT:    -4.351      2.311      2.720
REMARK INTER + INTRA:          -6.059
REMARK INTER:                  -5.865
REMARK INTRA:                  -0.194
REMARK UNBOUND:                -0.182
REMARK SMILES C=C1C(=O)O[C@H]2[C@@H]1CCC(C)=CCC[C@@]1(C)O[C@H]21
REMARK SMILES IDX 6 1 7 2 2 3 1 4 3 5 4 6 5 7 8 8 9 9 10 10 11 11 12 12 18 14
REMARK SMILES IDX 15 15 17 16 16 17 14 18 13 19
REMARK H PARENT
REMARK Flexibility Score: 70.00
ROOT
ATOM      1  C   UNL     1     -23.110  54.721  -1.781  1.00  0.00     0.216 C 
ATOM      2  C   UNL     1     -22.506  54.465  -0.345  1.00  0.00     0.070 C 
ATOM      3  C   UNL     1     -21.286  53.656  -0.682  1.00  0.00     0.037 C 
ATOM      4  C   UNL     1     -20.565  52.935   0.175  1.00  0.00     0.021 C 
ATOM      5  C   UNL     1     -21.019  53.821  -2.091  1.00  0.00     0.334 C 
ATOM      6  O   UNL     1     -20.001  53.398  -2.701  1.00  0.00    -0.247 OA
ATOM      7  O   UNL     1     -22.034  54.529  -2.694  1.00  0.00    -0.455 OA
ENDROOT
BRANCH   2   8
ATOM      8  C   UNL     1     -22.077  55.749   0.447  1.00  0.00     0.017 C 
BRANCH   8   9
ATOM      9  C   UNL     1     -22.990  56.161   1.623  1.00  0.00     0.031 C 
BRANCH   9  10
ATOM     10  C   UNL     1     -23.254  57.648   1.815  1.00  0.00    -0.077 C 
ATOM     11  C   UNL     1     -22.199  58.475   2.512  1.00  0.00     0.039 C 
ATOM     12  C   UNL     1     -24.300  58.313   1.264  1.00  0.00    -0.028 CG0
ATOM     13  G   UNL     1     -25.518  57.688   0.624  1.00  0.00     0.000 G0
ENDBRANCH   9  10
ENDBRANCH   8   9
ENDBRANCH   2   8
BRANCH   1  14
ATOM     14  C   UNL     1     -23.745  56.107  -1.973  1.00  0.00     0.192 C 
ATOM     15  C   UNL     1     -25.132  56.275  -1.454  1.00  0.00     0.096 C 
ATOM     16  O   UNL     1     -24.858  56.168  -2.836  1.00  0.00    -0.362 OA
ATOM     17  C   UNL     1     -25.995  55.093  -0.977  1.00  0.00     0.045 C 
BRANCH  15  18
ATOM     18  C   UNL     1     -25.415  57.688  -0.914  1.00  0.00     0.042 C 
BRANCH  18  19
ATOM     19  C   UNL     1     -25.525  57.689   0.626  1.00  0.00     0.030 CG0
ATOM     20  G   UNL     1     -24.301  58.303   1.264  1.00  0.00     0.000 G0
ENDBRANCH  18  19
ENDBRANCH  15  18
ENDBRANCH   1  14
TORSDOF 0
ENDMDL
MODEL 6
REMARK VINA RESULT:    -4.344      1.717      2.198
REMARK INTER + INTRA:          -6.049
REMARK INTER:                  -5.864
REMARK INTRA:                  -0.185
REMARK UNBOUND:                -0.182
REMARK SMILES C=C1C(=O)O[C@H]2[C@@H]1CCC(C)=CCC[C@@]1(C)O[C@H]21
REMARK SMILES IDX 6 1 7 2 2 3 1 4 3 5 4 6 5 7 8 8 9 9 10 10 11 11 12 12 18 14
REMARK SMILES IDX 15 15 17 16 16 17 14 18 13 19
REMARK H PARENT
REMARK Flexibility Score: 70.00
ROOT
ATOM      1  C   UNL     1     -18.638  54.769  -1.692  1.00  0.00     0.216 C 
ATOM      2  C   UNL     1     -18.599  55.758  -0.463  1.00  0.00     0.070 C 
ATOM      3  C   UNL     1     -17.411  56.610  -0.811  1.00  0.00     0.037 C 
ATOM      4  C   UNL     1     -16.759  57.421   0.021  1.00  0.00     0.021 C 
ATOM      5  C   UNL     1     -17.120  56.414  -2.212  1.00  0.00     0.334 C 
ATOM      6  O   UNL     1     -16.276  57.063  -2.885  1.00  0.00    -0.247 OA
ATOM      7  O   UNL     1     -17.911  55.415  -2.733  1.00  0.00    -0.455 OA
ENDROOT
BRANCH   2   8
ATOM      8  C   UNL     1     -19.861  56.672  -0.289  1.00  0.00     0.017 C 
BRANCH   8   9
ATOM      9  C   UNL     1     -20.808  56.312   0.876  1.00  0.00     0.031 C 
BRANCH   9  10
ATOM     10  C   UNL     1     -22.305  56.438   0.626  1.00  0.00    -0.077 C 
ATOM     11  C   UNL     1     -22.930  57.810   0.720  1.00  0.00     0.039 C 
ATOM     12  C   UNL     1     -23.088  55.429   0.170  1.00  0.00    -0.028 CG0
ATOM     13  G   UNL     1     -22.711  53.967   0.103  1.00  0.00     0.000 G0
ENDBRANCH   9  10
ENDBRANCH   8   9
ENDBRANCH   2   8
BRANCH   1  14
ATOM     14  C   UNL     1     -20.049  54.393  -2.168  1.00  0.00     0.192 C 
ATOM     15  C   UNL     1     -20.752  53.340  -1.382  1.00  0.00     0.096 C 
ATOM     16  O   UNL     1     -20.211  53.082  -2.662  1.00  0.00    -0.362 OA
ATOM     17  C   UNL     1     -20.047  52.486  -0.312  1.00  0.00     0.045 C 
BRANCH  15  18
ATOM     18  C   UNL     1     -22.274  53.548  -1.306  1.00  0.00     0.042 C 
BRANCH  18  19
ATOM     19  C   UNL     1     -22.714  53.959   0.116  1.00  0.00     0.030 CG0
ATOM     20  G   UNL     1     -23.084  55.423   0.175  1.00  0.00     0.000 G0
ENDBRANCH  18  19
ENDBRANCH  15  18
ENDBRANCH   1  14
TORSDOF 0
ENDMDL
MODEL 7
REMARK VINA RESULT:    -4.226      2.954      5.469
REMARK INTER + INTRA:          -5.890
REMARK INTER:                  -6.719
REMARK INTRA:                   0.829
REMARK UNBOUND:                -0.182
REMARK SMILES C=C1C(=O)O[C@H]2[C@@H]1CCC(C)=CCC[C@@]1(C)O[C@H]21
REMARK SMILES IDX 6 1 7 2 2 3 1 4 3 5 4 6 5 7 8 8 9 9 10 10 11 11 12 12 18 14
REMARK SMILES IDX 15 15 17 16 16 17 14 18 13 19
REMARK H PARENT
REMARK Flexibility Score: 70.00
ROOT
ATOM      1  C   UNL     1     -19.414  56.411   0.477  1.00  0.00     0.216 C 
ATOM      2  C   UNL     1     -20.831  55.911  -0.007  1.00  0.00     0.070 C 
ATOM      3  C   UNL     1     -21.738  56.650   0.935  1.00  0.00     0.037 C 
ATOM      4  C   UNL     1     -23.024  56.381   1.155  1.00  0.00     0.021 C 
ATOM      5  C   UNL     1     -20.978  57.718   1.539  1.00  0.00     0.334 C 
ATOM      6  O   UNL     1     -21.443  58.625   2.280  1.00  0.00    -0.247 OA
ATOM      7  O   UNL     1     -19.651  57.627   1.181  1.00  0.00    -0.455 OA
ENDROOT
BRANCH   2   8
ATOM      8  C   UNL     1     -21.208  56.275  -1.485  1.00  0.00     0.017 C 
BRANCH   8   9
ATOM      9  C   UNL     1     -21.288  55.096  -2.478  1.00  0.00     0.031 C 
BRANCH   9  10
ATOM     10  C   UNL     1     -20.337  53.928  -2.255  1.00  0.00    -0.077 C 
ATOM     11  C   UNL     1     -20.893  52.663  -1.643  1.00  0.00     0.039 C 
ATOM     12  C   UNL     1     -19.061  53.887  -2.712  1.00  0.00    -0.028 CG0
ATOM     13  G   UNL     1     -18.268  55.056  -3.252  1.00  0.00     0.000 G0
ENDBRANCH   9  10
ENDBRANCH   8   9
ENDBRANCH   2   8
BRANCH   1  14
ATOM     14  C   UNL     1     -18.390  56.626  -0.647  1.00  0.00     0.192 C 
ATOM     15  C   UNL     1     -17.424  55.515  -0.881  1.00  0.00     0.096 C 
ATOM     16  O   UNL     1     -17.040  56.721  -0.251  1.00  0.00    -0.362 OA
ATOM     17  C   UNL     1     -17.269  54.325   0.083  1.00  0.00     0.045 C 
BRANCH  15  18
ATOM     18  C   UNL     1     -17.026  55.352  -2.358  1.00  0.00     0.042 C 
BRANCH  18  19
ATOM     19  C   UNL     1     -18.258  55.058  -3.242  1.00  0.00     0.030 CG0
ATOM     20  G   UNL     1     -19.055  53.892  -2.702  1.00  0.00     0.000 G0
ENDBRANCH  18  19
ENDBRANCH  15  18
ENDBRANCH   1  14
TORSDOF 0
ENDMDL
MODEL 8
REMARK VINA RESULT:    -4.117      2.278      3.430
REMARK INTER + INTRA:          -5.744
REMARK INTER:                  -5.519
REMARK INTRA:                  -0.224
REMARK UNBOUND:                -0.182
REMARK SMILES C=C1C(=O)O[C@H]2[C@@H]1CCC(C)=CCC[C@@]1(C)O[C@H]21
REMARK SMILES IDX 6 1 7 2 2 3 1 4 3 5 4 6 5 7 8 8 9 9 10 10 11 11 12 12 18 14
REMARK SMILES IDX 15 15 17 16 16 17 14 18 13 19
REMARK H PARENT
REMARK Flexibility Score: 70.00
ROOT
ATOM      1  C   UNL     1     -21.976  55.011  -0.753  1.00  0.00     0.216 C 
ATOM      2  C   UNL     1     -21.537  56.321  -1.518  1.00  0.00     0.070 C 
ATOM      3  C   UNL     1     -20.472  55.782  -2.431  1.00  0.00     0.037 C 
ATOM      4  C   UNL     1     -19.573  56.506  -3.096  1.00  0.00     0.021 C 
ATOM      5  C   UNL     1     -20.614  54.346  -2.481  1.00  0.00     0.334 C 
ATOM      6  O   UNL     1     -19.981  53.571  -3.245  1.00  0.00    -0.247 OA
ATOM      7  O   UNL     1     -21.562  53.924  -1.576  1.00  0.00    -0.455 OA
ENDROOT
BRANCH   2   8
ATOM      8  C   UNL     1     -22.655  57.011  -2.374  1.00  0.00     0.017 C 
BRANCH   8   9
ATOM      9  C   UNL     1     -23.239  58.322  -1.804  1.00  0.00     0.031 C 
BRANCH   9  10
ATOM     10  C   UNL     1     -24.744  58.522  -1.911  1.00  0.00    -0.077 C 
ATOM     11  C   UNL     1     -25.306  59.009  -3.226  1.00  0.00     0.039 C 
ATOM     12  C   UNL     1     -25.633  58.145  -0.958  1.00  0.00    -0.028 CG0
ATOM     13  G   UNL     1     -25.302  57.739   0.460  1.00  0.00     0.000 G0
ENDBRANCH   9  10
ENDBRANCH   8   9
ENDBRANCH   2   8
BRANCH   1  14
ATOM     14  C   UNL     1     -23.478  54.920  -0.447  1.00  0.00     0.192 C 
ATOM     15  C   UNL     1     -23.945  55.621   0.782  1.00  0.00     0.096 C 
ATOM     16  O   UNL     1     -23.834  54.214   0.721  1.00  0.00    -0.362 OA
ATOM     17  C   UNL     1     -22.979  56.197   1.834  1.00  0.00     0.045 C 
BRANCH  15  18
ATOM     18  C   UNL     1     -25.361  56.208   0.650  1.00  0.00     0.042 C 
BRANCH  18  19
ATOM     19  C   UNL     1     -25.319  57.740   0.467  1.00  0.00     0.030 CG0
ATOM     20  G   UNL     1     -25.638  58.131  -0.958  1.00  0.00     0.000 G0
ENDBRANCH  18  19
ENDBRANCH  15  18
ENDBRANCH   1  14
TORSDOF 0
ENDMDL
MODEL 9
REMARK VINA RESULT:    -4.065      2.657      4.396
REMARK INTER + INTRA:          -5.673
REMARK INTER:                  -5.473
REMARK INTRA:                  -0.201
REMARK UNBOUND:                -0.182
REMARK SMILES C=C1C(=O)O[C@H]2[C@@H]1CCC(C)=CCC[C@@]1(C)O[C@H]21
REMARK SMILES IDX 6 1 7 2 2 3 1 4 3 5 4 6 5 7 8 8 9 9 10 10 11 11 12 12 18 14
REMARK SMILES IDX 15 15 17 16 16 17 14 18 13 19
REMARK H PARENT
REMARK Flexibility Score: 70.00
ROOT
ATOM      1  C   UNL     1     -22.347  56.948   1.145  1.00  0.00     0.216 C 
ATOM      2  C   UNL     1     -23.755  57.368   1.722  1.00  0.00     0.070 C 
ATOM      3  C   UNL     1     -23.353  58.363   2.775  1.00  0.00     0.037 C 
ATOM      4  C   UNL     1     -24.129  58.817   3.758  1.00  0.00     0.021 C 
ATOM      5  C   UNL     1     -21.989  58.758   2.515  1.00  0.00     0.334 C 
ATOM      6  O   UNL     1     -21.362  59.673   3.112  1.00  0.00    -0.247 OA
ATOM      7  O   UNL     1     -21.453  57.999   1.499  1.00  0.00    -0.455 OA
ENDROOT
BRANCH   2   8
ATOM      8  C   UNL     1     -24.727  58.056   0.702  1.00  0.00     0.017 C 
BRANCH   8   9
ATOM      9  C   UNL     1     -25.885  57.183   0.170  1.00  0.00     0.031 C 
BRANCH   9  10
ATOM     10  C   UNL     1     -26.179  57.244  -1.323  1.00  0.00    -0.077 C 
ATOM     11  C   UNL     1     -26.984  58.412  -1.843  1.00  0.00     0.039 C 
ATOM     12  C   UNL     1     -25.635  56.408  -2.241  1.00  0.00    -0.028 CG0
ATOM     13  G   UNL     1     -24.895  55.122  -1.950  1.00  0.00     0.000 G0
ENDBRANCH   9  10
ENDBRANCH   8   9
ENDBRANCH   2   8
BRANCH   1  14
ATOM     14  C   UNL     1     -22.322  56.702  -0.371  1.00  0.00     0.192 C 
ATOM     15  C   UNL     1     -22.626  55.313  -0.818  1.00  0.00     0.096 C 
ATOM     16  O   UNL     1     -21.314  55.838  -0.845  1.00  0.00    -0.362 OA
ATOM     17  C   UNL     1     -22.716  54.122   0.153  1.00  0.00     0.045 C 
BRANCH  15  18
ATOM     18  C   UNL     1     -23.373  55.254  -2.162  1.00  0.00     0.042 C 
BRANCH  18  19
ATOM     19  C   UNL     1     -24.896  55.108  -1.953  1.00  0.00     0.030 CG0
ATOM     20  G   UNL     1     -25.616  56.406  -2.237  1.00  0.00     0.000 G0
ENDBRANCH  18  19
ENDBRANCH  15  18
ENDBRANCH   1  14
TORSDOF 0
ENDMDL
