MODEL 1
REMARK VINA RESULT:    -7.664      0.000      0.000
REMARK INTER + INTRA:          -9.584
REMARK INTER:                  -9.232
REMARK INTRA:                  -0.352
REMARK UNBOUND:                -0.352
REMARK SMILES Oc1cc(O)c2cc(O)c(-c3ccc(O)c(O)c3)[o+]c2c1
REMARK SMILES IDX 10 1 19 2 20 3 21 4 2 5 3 6 4 7 6 8 7 9 8 10 11 11 12 12
REMARK SMILES IDX 13 13 14 14 18 15 16 16 15 17 17 19 9 21 1 23 5 25
REMARK H PARENT 15 18 17 20 9 22 1 24 5 26
REMARK Flexibility Score: inf
ROOT
ATOM      1  C   UNL     1      38.083  -6.914  18.997  1.00  0.00     0.402 A 
ATOM      2  O   UNL     1      36.960  -6.356  19.440  1.00  0.00    -0.202 OA
ATOM      3  C   UNL     1      36.356  -6.725  20.566  1.00  0.00     0.368 A 
ATOM      4  C   UNL     1      35.176  -6.081  20.948  1.00  0.00     0.162 A 
ATOM      5  C   UNL     1      34.519  -6.450  22.121  1.00  0.00     0.128 A 
ATOM      6  C   UNL     1      35.043  -7.472  22.921  1.00  0.00     0.093 A 
ATOM      7  C   UNL     1      36.223  -8.133  22.560  1.00  0.00     0.136 A 
ATOM      8  C   UNL     1      36.896  -7.758  21.368  1.00  0.00     0.125 A 
ATOM      9  C   UNL     1      38.091  -8.357  20.936  1.00  0.00     0.078 A 
ATOM     10  C   UNL     1      38.699  -7.930  19.751  1.00  0.00     0.223 A 
ENDROOT
BRANCH   1  11
ATOM     11  C   UNL     1      38.654  -6.421  17.723  1.00  0.00     0.087 A 
ATOM     12  C   UNL     1      39.477  -5.284  17.729  1.00  0.00     0.022 A 
ATOM     13  C   UNL     1      40.010  -4.788  16.537  1.00  0.00     0.051 A 
ATOM     14  C   UNL     1      39.719  -5.411  15.320  1.00  0.00     0.157 A 
ATOM     15  C   UNL     1      38.344  -7.033  16.495  1.00  0.00     0.068 A 
ATOM     16  C   UNL     1      38.878  -6.537  15.296  1.00  0.00     0.158 A 
BRANCH  14  17
ATOM     17  O   UNL     1      40.267  -4.896  14.146  1.00  0.00    -0.504 OA
ATOM     18  H   UNL     1      40.351  -5.451  13.302  1.00  0.00     0.293 HD
ENDBRANCH  14  17
BRANCH  16  19
ATOM     19  O   UNL     1      38.570  -7.154  14.085  1.00  0.00    -0.504 OA
ATOM     20  H   UNL     1      38.675  -6.670  13.201  1.00  0.00     0.293 HD
ENDBRANCH  16  19
ENDBRANCH   1  11
BRANCH  10  21
ATOM     21  O   UNL     1      39.911  -8.489  19.346  1.00  0.00    -0.500 OA
ATOM     22  H   UNL     1      39.954  -9.214  18.639  1.00  0.00     0.294 HD
ENDBRANCH  10  21
BRANCH   5  23
ATOM     23  O   UNL     1      33.344  -5.795  22.485  1.00  0.00    -0.507 OA
ATOM     24  H   UNL     1      32.620  -6.263  23.018  1.00  0.00     0.293 HD
ENDBRANCH   5  23
BRANCH   7  25
ATOM     25  O   UNL     1      36.680  -9.145  23.411  1.00  0.00    -0.507 OA
ATOM     26  H   UNL     1      36.417  -9.236  24.381  1.00  0.00     0.293 HD
ENDBRANCH   7  25
TORSDOF 6
ENDMDL
MODEL 2
REMARK VINA RESULT:    -7.320      8.682     10.961
REMARK INTER + INTRA:          -9.170
REMARK INTER:                  -8.864
REMARK INTRA:                  -0.306
REMARK UNBOUND:                -0.352
REMARK SMILES Oc1cc(O)c2cc(O)c(-c3ccc(O)c(O)c3)[o+]c2c1
REMARK SMILES IDX 10 1 19 2 20 3 21 4 2 5 3 6 4 7 6 8 7 9 8 10 11 11 12 12
REMARK SMILES IDX 13 13 14 14 18 15 16 16 15 17 17 19 9 21 1 23 5 25
REMARK H PARENT 15 18 17 20 9 22 1 24 5 26
REMARK Flexibility Score: inf
ROOT
ATOM      1  C   UNL     1      44.444  -1.391  22.668  1.00  0.00     0.402 A 
ATOM      2  O   UNL     1      43.290  -0.955  22.171  1.00  0.00    -0.202 OA
ATOM      3  C   UNL     1      43.200   0.059  21.316  1.00  0.00     0.368 A 
ATOM      4  C   UNL     1      41.941   0.447  20.850  1.00  0.00     0.162 A 
ATOM      5  C   UNL     1      41.816   1.510  19.956  1.00  0.00     0.128 A 
ATOM      6  C   UNL     1      42.958   2.193  19.522  1.00  0.00     0.093 A 
ATOM      7  C   UNL     1      44.231   1.824  19.974  1.00  0.00     0.136 A 
ATOM      8  C   UNL     1      44.362   0.741  20.881  1.00  0.00     0.125 A 
ATOM      9  C   UNL     1      45.598   0.294  21.376  1.00  0.00     0.078 A 
ATOM     10  C   UNL     1      45.649  -0.784  22.266  1.00  0.00     0.223 A 
ENDROOT
BRANCH   1  11
ATOM     11  C   UNL     1      44.413  -2.524  23.621  1.00  0.00     0.087 A 
ATOM     12  C   UNL     1      44.600  -2.281  24.990  1.00  0.00     0.022 A 
ATOM     13  C   UNL     1      44.595  -3.337  25.904  1.00  0.00     0.051 A 
ATOM     14  C   UNL     1      44.418  -4.652  25.465  1.00  0.00     0.157 A 
ATOM     15  C   UNL     1      44.257  -3.850  23.177  1.00  0.00     0.068 A 
ATOM     16  C   UNL     1      44.252  -4.912  24.094  1.00  0.00     0.158 A 
BRANCH  14  17
ATOM     17  O   UNL     1      44.414  -5.686  26.400  1.00  0.00    -0.504 OA
ATOM     18  H   UNL     1      45.137  -5.778  27.104  1.00  0.00     0.293 HD
ENDBRANCH  14  17
BRANCH  16  19
ATOM     19  O   UNL     1      44.091  -6.222  23.646  1.00  0.00    -0.504 OA
ATOM     20  H   UNL     1      43.174  -6.614  23.467  1.00  0.00     0.293 HD
ENDBRANCH  16  19
ENDBRANCH   1  11
BRANCH  10  21
ATOM     21  O   UNL     1      46.879  -1.261  22.718  1.00  0.00    -0.500 OA
ATOM     22  H   UNL     1      47.027  -1.517  23.688  1.00  0.00     0.294 HD
ENDBRANCH  10  21
BRANCH   5  23
ATOM     23  O   UNL     1      40.552   1.881  19.504  1.00  0.00    -0.507 OA
ATOM     24  H   UNL     1      40.092   1.384  18.749  1.00  0.00     0.293 HD
ENDBRANCH   5  23
BRANCH   7  25
ATOM     25  O   UNL     1      45.321   2.557  19.495  1.00  0.00    -0.507 OA
ATOM     26  H   UNL     1      45.256   3.486  19.105  1.00  0.00     0.293 HD
ENDBRANCH   7  25
TORSDOF 6
ENDMDL
MODEL 3
REMARK VINA RESULT:    -7.278      7.097      9.634
REMARK INTER + INTRA:          -9.119
REMARK INTER:                  -8.766
REMARK INTRA:                  -0.352
REMARK UNBOUND:                -0.352
REMARK SMILES Oc1cc(O)c2cc(O)c(-c3ccc(O)c(O)c3)[o+]c2c1
REMARK SMILES IDX 10 1 19 2 20 3 21 4 2 5 3 6 4 7 6 8 7 9 8 10 11 11 12 12
REMARK SMILES IDX 13 13 14 14 18 15 16 16 15 17 17 19 9 21 1 23 5 25
REMARK H PARENT 15 18 17 20 9 22 1 24 5 26
REMARK Flexibility Score: inf
ROOT
ATOM      1  C   UNL     1      44.694  -3.966  18.969  1.00  0.00     0.402 A 
ATOM      2  O   UNL     1      43.566  -3.383  18.573  1.00  0.00    -0.202 OA
ATOM      3  C   UNL     1      43.131  -3.413  17.317  1.00  0.00     0.368 A 
ATOM      4  C   UNL     1      41.934  -2.768  16.996  1.00  0.00     0.162 A 
ATOM      5  C   UNL     1      41.455  -2.780  15.686  1.00  0.00     0.128 A 
ATOM      6  C   UNL     1      42.178  -3.441  14.686  1.00  0.00     0.093 A 
ATOM      7  C   UNL     1      43.381  -4.095  14.982  1.00  0.00     0.136 A 
ATOM      8  C   UNL     1      43.869  -4.088  16.314  1.00  0.00     0.125 A 
ATOM      9  C   UNL     1      45.057  -4.727  16.705  1.00  0.00     0.078 A 
ATOM     10  C   UNL     1      45.472  -4.679  18.039  1.00  0.00     0.223 A 
ENDROOT
BRANCH   1  11
ATOM     11  C   UNL     1      45.076  -3.854  20.396  1.00  0.00     0.087 A 
ATOM     12  C   UNL     1      44.593  -4.796  21.316  1.00  0.00     0.022 A 
ATOM     13  C   UNL     1      44.923  -4.697  22.670  1.00  0.00     0.051 A 
ATOM     14  C   UNL     1      45.728  -3.651  23.127  1.00  0.00     0.157 A 
ATOM     15  C   UNL     1      45.868  -2.788  20.860  1.00  0.00     0.068 A 
ATOM     16  C   UNL     1      46.201  -2.687  22.220  1.00  0.00     0.158 A 
BRANCH  14  17
ATOM     17  O   UNL     1      46.044  -3.580  24.483  1.00  0.00    -0.504 OA
ATOM     18  H   UNL     1      46.152  -2.696  24.966  1.00  0.00     0.293 HD
ENDBRANCH  14  17
BRANCH  16  19
ATOM     19  O   UNL     1      46.992  -1.631  22.670  1.00  0.00    -0.504 OA
ATOM     20  H   UNL     1      47.599  -1.117  22.043  1.00  0.00     0.293 HD
ENDBRANCH  16  19
ENDBRANCH   1  11
BRANCH  10  21
ATOM     21  O   UNL     1      46.626  -5.356  18.437  1.00  0.00    -0.500 OA
ATOM     22  H   UNL     1      47.495  -5.275  17.923  1.00  0.00     0.294 HD
ENDBRANCH  10  21
BRANCH   5  23
ATOM     23  O   UNL     1      40.259  -2.131  15.386  1.00  0.00    -0.507 OA
ATOM     24  H   UNL     1      39.837  -1.474  16.032  1.00  0.00     0.293 HD
ENDBRANCH   5  23
BRANCH   7  25
ATOM     25  O   UNL     1      44.044  -4.730  13.928  1.00  0.00    -0.507 OA
ATOM     26  H   UNL     1      43.916  -5.699  13.675  1.00  0.00     0.293 HD
ENDBRANCH   7  25
TORSDOF 6
ENDMDL
MODEL 4
REMARK VINA RESULT:    -7.274     11.112     12.978
REMARK INTER + INTRA:          -9.114
REMARK INTER:                  -9.055
REMARK INTRA:                  -0.060
REMARK UNBOUND:                -0.352
REMARK SMILES Oc1cc(O)c2cc(O)c(-c3ccc(O)c(O)c3)[o+]c2c1
REMARK SMILES IDX 10 1 19 2 20 3 21 4 2 5 3 6 4 7 6 8 7 9 8 10 11 11 12 12
REMARK SMILES IDX 13 13 14 14 18 15 16 16 15 17 17 19 9 21 1 23 5 25
REMARK H PARENT 15 18 17 20 9 22 1 24 5 26
REMARK Flexibility Score: inf
ROOT
ATOM      1  C   UNL     1      44.131   4.431  19.876  1.00  0.00     0.402 A 
ATOM      2  O   UNL     1      43.156   3.571  19.596  1.00  0.00    -0.202 OA
ATOM      3  C   UNL     1      42.058   3.446  20.334  1.00  0.00     0.368 A 
ATOM      4  C   UNL     1      41.089   2.511  19.960  1.00  0.00     0.162 A 
ATOM      5  C   UNL     1      39.929   2.356  20.718  1.00  0.00     0.128 A 
ATOM      6  C   UNL     1      39.732   3.141  21.860  1.00  0.00     0.093 A 
ATOM      7  C   UNL     1      40.688   4.085  22.256  1.00  0.00     0.136 A 
ATOM      8  C   UNL     1      41.869   4.247  21.485  1.00  0.00     0.125 A 
ATOM      9  C   UNL     1      42.873   5.177  21.800  1.00  0.00     0.078 A 
ATOM     10  C   UNL     1      44.008   5.283  20.989  1.00  0.00     0.223 A 
ENDROOT
BRANCH   1  11
ATOM     11  C   UNL     1      45.311   4.469  18.981  1.00  0.00     0.087 A 
ATOM     12  C   UNL     1      46.050   3.296  18.763  1.00  0.00     0.022 A 
ATOM     13  C   UNL     1      47.178   3.314  17.939  1.00  0.00     0.051 A 
ATOM     14  C   UNL     1      47.593   4.503  17.333  1.00  0.00     0.157 A 
ATOM     15  C   UNL     1      45.742   5.669  18.388  1.00  0.00     0.068 A 
ATOM     16  C   UNL     1      46.875   5.689  17.561  1.00  0.00     0.158 A 
BRANCH  14  17
ATOM     17  O   UNL     1      48.721   4.489  16.513  1.00  0.00    -0.504 OA
ATOM     18  H   UNL     1      48.920   3.720  15.884  1.00  0.00     0.293 HD
ENDBRANCH  14  17
BRANCH  16  19
ATOM     19  O   UNL     1      47.292   6.882  16.973  1.00  0.00    -0.504 OA
ATOM     20  H   UNL     1      48.183   7.305  17.204  1.00  0.00     0.293 HD
ENDBRANCH  16  19
ENDBRANCH   1  11
BRANCH  10  21
ATOM     21  O   UNL     1      44.983   6.240  21.272  1.00  0.00    -0.500 OA
ATOM     22  H   UNL     1      45.294   6.420  22.219  1.00  0.00     0.294 HD
ENDBRANCH  10  21
BRANCH   5  23
ATOM     23  O   UNL     1      38.975   1.418  20.328  1.00  0.00    -0.507 OA
ATOM     24  H   UNL     1      38.190   1.181  20.925  1.00  0.00     0.293 HD
ENDBRANCH   5  23
BRANCH   7  25
ATOM     25  O   UNL     1      40.419   4.827  23.410  1.00  0.00    -0.507 OA
ATOM     26  H   UNL     1      39.531   4.835  23.889  1.00  0.00     0.293 HD
ENDBRANCH   7  25
TORSDOF 6
ENDMDL
MODEL 5
REMARK VINA RESULT:    -7.136      7.417      8.762
REMARK INTER + INTRA:          -8.948
REMARK INTER:                  -8.640
REMARK INTRA:                  -0.308
REMARK UNBOUND:                -0.352
REMARK SMILES Oc1cc(O)c2cc(O)c(-c3ccc(O)c(O)c3)[o+]c2c1
REMARK SMILES IDX 10 1 19 2 20 3 21 4 2 5 3 6 4 7 6 8 7 9 8 10 11 11 12 12
REMARK SMILES IDX 13 13 14 14 18 15 16 16 15 17 17 19 9 21 1 23 5 25
REMARK H PARENT 15 18 17 20 9 22 1 24 5 26
REMARK Flexibility Score: inf
ROOT
ATOM      1  C   UNL     1      45.325  -3.978  20.503  1.00  0.00     0.402 A 
ATOM      2  O   UNL     1      44.672  -4.536  21.519  1.00  0.00    -0.202 OA
ATOM      3  C   UNL     1      44.864  -4.189  22.788  1.00  0.00     0.368 A 
ATOM      4  C   UNL     1      44.132  -4.834  23.788  1.00  0.00     0.162 A 
ATOM      5  C   UNL     1      44.316  -4.494  25.128  1.00  0.00     0.128 A 
ATOM      6  C   UNL     1      45.238  -3.500  25.474  1.00  0.00     0.093 A 
ATOM      7  C   UNL     1      45.984  -2.838  24.490  1.00  0.00     0.136 A 
ATOM      8  C   UNL     1      45.798  -3.180  23.126  1.00  0.00     0.125 A 
ATOM      9  C   UNL     1      46.492  -2.561  22.074  1.00  0.00     0.078 A 
ATOM     10  C   UNL     1      46.251  -2.949  20.752  1.00  0.00     0.223 A 
ENDROOT
BRANCH   1  11
ATOM     11  C   UNL     1      45.029  -4.458  19.133  1.00  0.00     0.087 A 
ATOM     12  C   UNL     1      44.166  -3.716  18.312  1.00  0.00     0.022 A 
ATOM     13  C   UNL     1      43.857  -4.160  17.025  1.00  0.00     0.051 A 
ATOM     14  C   UNL     1      44.391  -5.358  16.542  1.00  0.00     0.157 A 
ATOM     15  C   UNL     1      45.549  -5.674  18.655  1.00  0.00     0.068 A 
ATOM     16  C   UNL     1      45.239  -6.123  17.362  1.00  0.00     0.158 A 
BRANCH  14  17
ATOM     17  O   UNL     1      44.067  -5.775  15.252  1.00  0.00    -0.504 OA
ATOM     18  H   UNL     1      44.587  -6.501  14.774  1.00  0.00     0.293 HD
ENDBRANCH  14  17
BRANCH  16  19
ATOM     19  O   UNL     1      45.763  -7.327  16.894  1.00  0.00    -0.504 OA
ATOM     20  H   UNL     1      46.562  -7.766  17.336  1.00  0.00     0.293 HD
ENDBRANCH  16  19
ENDBRANCH   1  11
BRANCH  10  21
ATOM     21  O   UNL     1      46.903  -2.300  19.702  1.00  0.00    -0.500 OA
ATOM     22  H   UNL     1      46.678  -2.496  18.734  1.00  0.00     0.294 HD
ENDBRANCH  10  21
BRANCH   5  23
ATOM     23  O   UNL     1      43.576  -5.149  26.110  1.00  0.00    -0.507 OA
ATOM     24  H   UNL     1      43.400  -6.146  26.064  1.00  0.00     0.293 HD
ENDBRANCH   5  23
BRANCH   7  25
ATOM     25  O   UNL     1      46.887  -1.859  24.917  1.00  0.00    -0.507 OA
ATOM     26  H   UNL     1      47.636  -1.488  24.351  1.00  0.00     0.293 HD
ENDBRANCH   7  25
TORSDOF 6
ENDMDL
MODEL 6
REMARK VINA RESULT:    -7.132     13.151     15.645
REMARK INTER + INTRA:          -8.943
REMARK INTER:                  -8.596
REMARK INTRA:                  -0.347
REMARK UNBOUND:                -0.352
REMARK SMILES Oc1cc(O)c2cc(O)c(-c3ccc(O)c(O)c3)[o+]c2c1
REMARK SMILES IDX 10 1 19 2 20 3 21 4 2 5 3 6 4 7 6 8 7 9 8 10 11 11 12 12
REMARK SMILES IDX 13 13 14 14 18 15 16 16 15 17 17 19 9 21 1 23 5 25
REMARK H PARENT 15 18 17 20 9 22 1 24 5 26
REMARK Flexibility Score: inf
ROOT
ATOM      1  C   UNL     1      44.164   4.291  23.999  1.00  0.00     0.402 A 
ATOM      2  O   UNL     1      45.297   4.784  23.505  1.00  0.00    -0.202 OA
ATOM      3  C   UNL     1      45.785   4.440  22.317  1.00  0.00     0.368 A 
ATOM      4  C   UNL     1      46.985   5.010  21.884  1.00  0.00     0.162 A 
ATOM      5  C   UNL     1      47.524   4.665  20.645  1.00  0.00     0.128 A 
ATOM      6  C   UNL     1      46.858   3.743  19.829  1.00  0.00     0.093 A 
ATOM      7  C   UNL     1      45.654   3.157  20.240  1.00  0.00     0.136 A 
ATOM      8  C   UNL     1      45.102   3.508  21.499  1.00  0.00     0.125 A 
ATOM      9  C   UNL     1      43.895   2.981  21.987  1.00  0.00     0.078 A 
ATOM     10  C   UNL     1      43.411   3.379  23.237  1.00  0.00     0.223 A 
ENDROOT
BRANCH   1  11
ATOM     11  C   UNL     1      43.729   4.746  25.340  1.00  0.00     0.087 A 
ATOM     12  C   UNL     1      44.067   3.985  26.470  1.00  0.00     0.022 A 
ATOM     13  C   UNL     1      43.649   4.384  27.743  1.00  0.00     0.051 A 
ATOM     14  C   UNL     1      42.878   5.538  27.904  1.00  0.00     0.157 A 
ATOM     15  C   UNL     1      42.935   5.895  25.502  1.00  0.00     0.068 A 
ATOM     16  C   UNL     1      42.514   6.296  26.778  1.00  0.00     0.158 A 
BRANCH  14  17
ATOM     17  O   UNL     1      42.479   5.913  29.186  1.00  0.00    -0.504 OA
ATOM     18  H   UNL     1      42.898   6.696  29.673  1.00  0.00     0.293 HD
ENDBRANCH  14  17
BRANCH  16  19
ATOM     19  O   UNL     1      41.731   7.440  26.930  1.00  0.00    -0.504 OA
ATOM     20  H   UNL     1      41.355   7.936  26.130  1.00  0.00     0.293 HD
ENDBRANCH  16  19
ENDBRANCH   1  11
BRANCH  10  21
ATOM     21  O   UNL     1      42.188   2.895  23.700  1.00  0.00    -0.500 OA
ATOM     22  H   UNL     1      42.077   1.937  24.012  1.00  0.00     0.294 HD
ENDBRANCH  10  21
BRANCH   5  23
ATOM     23  O   UNL     1      48.721   5.245  20.231  1.00  0.00    -0.507 OA
ATOM     24  H   UNL     1      49.005   5.237  19.258  1.00  0.00     0.293 HD
ENDBRANCH   5  23
BRANCH   7  25
ATOM     25  O   UNL     1      45.053   2.243  19.369  1.00  0.00    -0.507 OA
ATOM     26  H   UNL     1      44.057   2.166  19.222  1.00  0.00     0.293 HD
ENDBRANCH   7  25
TORSDOF 6
ENDMDL
MODEL 7
REMARK VINA RESULT:    -7.023     10.886     12.653
REMARK INTER + INTRA:          -8.812
REMARK INTER:                  -8.488
REMARK INTRA:                  -0.324
REMARK UNBOUND:                -0.352
REMARK SMILES Oc1cc(O)c2cc(O)c(-c3ccc(O)c(O)c3)[o+]c2c1
REMARK SMILES IDX 10 1 19 2 20 3 21 4 2 5 3 6 4 7 6 8 7 9 8 10 11 11 12 12
REMARK SMILES IDX 13 13 14 14 18 15 16 16 15 17 17 19 9 21 1 23 5 25
REMARK H PARENT 15 18 17 20 9 22 1 24 5 26
REMARK Flexibility Score: inf
ROOT
ATOM      1  C   UNL     1      43.791   3.886  19.545  1.00  0.00     0.402 A 
ATOM      2  O   UNL     1      42.861   4.590  20.185  1.00  0.00    -0.202 OA
ATOM      3  C   UNL     1      41.729   4.060  20.639  1.00  0.00     0.368 A 
ATOM      4  C   UNL     1      40.810   4.882  21.298  1.00  0.00     0.162 A 
ATOM      5  C   UNL     1      39.613   4.354  21.781  1.00  0.00     0.128 A 
ATOM      6  C   UNL     1      39.329   2.995  21.607  1.00  0.00     0.093 A 
ATOM      7  C   UNL     1      40.234   2.151  20.950  1.00  0.00     0.136 A 
ATOM      8  C   UNL     1      41.454   2.683  20.459  1.00  0.00     0.125 A 
ATOM      9  C   UNL     1      42.424   1.910  19.801  1.00  0.00     0.078 A 
ATOM     10  C   UNL     1      43.606   2.505  19.349  1.00  0.00     0.223 A 
ENDROOT
BRANCH   1  11
ATOM     11  C   UNL     1      45.006   4.593  19.079  1.00  0.00     0.087 A 
ATOM     12  C   UNL     1      44.982   5.271  17.850  1.00  0.00     0.022 A 
ATOM     13  C   UNL     1      46.123   5.927  17.381  1.00  0.00     0.051 A 
ATOM     14  C   UNL     1      47.307   5.904  18.122  1.00  0.00     0.157 A 
ATOM     15  C   UNL     1      46.205   4.552  19.813  1.00  0.00     0.068 A 
ATOM     16  C   UNL     1      47.351   5.209  19.343  1.00  0.00     0.158 A 
BRANCH  14  17
ATOM     17  O   UNL     1      48.428   6.570  17.630  1.00  0.00    -0.504 OA
ATOM     18  H   UNL     1      48.481   6.904  16.675  1.00  0.00     0.293 HD
ENDBRANCH  14  17
BRANCH  16  19
ATOM     19  O   UNL     1      48.533   5.169  20.081  1.00  0.00    -0.504 OA
ATOM     20  H   UNL     1      49.017   6.015  20.357  1.00  0.00     0.293 HD
ENDBRANCH  16  19
ENDBRANCH   1  11
BRANCH  10  21
ATOM     21  O   UNL     1      44.592   1.728  18.740  1.00  0.00    -0.500 OA
ATOM     22  H   UNL     1      44.394   0.802  18.380  1.00  0.00     0.294 HD
ENDBRANCH  10  21
BRANCH   5  23
ATOM     23  O   UNL     1      38.709   5.190  22.435  1.00  0.00    -0.507 OA
ATOM     24  H   UNL     1      38.867   5.498  23.388  1.00  0.00     0.293 HD
ENDBRANCH   5  23
BRANCH   7  25
ATOM     25  O   UNL     1      39.876   0.806  20.813  1.00  0.00    -0.507 OA
ATOM     26  H   UNL     1      40.535   0.050  20.698  1.00  0.00     0.293 HD
ENDBRANCH   7  25
TORSDOF 6
ENDMDL
MODEL 8
REMARK VINA RESULT:    -7.007     11.804     14.727
REMARK INTER + INTRA:          -8.793
REMARK INTER:                  -8.461
REMARK INTRA:                  -0.332
REMARK UNBOUND:                -0.352
REMARK SMILES Oc1cc(O)c2cc(O)c(-c3ccc(O)c(O)c3)[o+]c2c1
REMARK SMILES IDX 10 1 19 2 20 3 21 4 2 5 3 6 4 7 6 8 7 9 8 10 11 11 12 12
REMARK SMILES IDX 13 13 14 14 18 15 16 16 15 17 17 19 9 21 1 23 5 25
REMARK H PARENT 15 18 17 20 9 22 1 24 5 26
REMARK Flexibility Score: inf
ROOT
ATOM      1  C   UNL     1      43.767   4.706  20.326  1.00  0.00     0.402 A 
ATOM      2  O   UNL     1      44.212   5.215  19.181  1.00  0.00    -0.202 OA
ATOM      3  C   UNL     1      45.304   5.969  19.092  1.00  0.00     0.368 A 
ATOM      4  C   UNL     1      45.691   6.460  17.843  1.00  0.00     0.162 A 
ATOM      5  C   UNL     1      46.829   7.257  17.721  1.00  0.00     0.128 A 
ATOM      6  C   UNL     1      47.588   7.567  18.855  1.00  0.00     0.093 A 
ATOM      7  C   UNL     1      47.221   7.086  20.119  1.00  0.00     0.136 A 
ATOM      8  C   UNL     1      46.065   6.273  20.246  1.00  0.00     0.125 A 
ATOM      9  C   UNL     1      45.629   5.738  21.469  1.00  0.00     0.078 A 
ATOM     10  C   UNL     1      44.481   4.940  21.515  1.00  0.00     0.223 A 
ENDROOT
BRANCH   1  11
ATOM     11  C   UNL     1      42.532   3.889  20.296  1.00  0.00     0.087 A 
ATOM     12  C   UNL     1      41.309   4.471  20.664  1.00  0.00     0.022 A 
ATOM     13  C   UNL     1      40.135   3.712  20.663  1.00  0.00     0.051 A 
ATOM     14  C   UNL     1      40.167   2.361  20.310  1.00  0.00     0.157 A 
ATOM     15  C   UNL     1      42.566   2.523  19.962  1.00  0.00     0.068 A 
ATOM     16  C   UNL     1      41.389   1.760  19.961  1.00  0.00     0.158 A 
BRANCH  14  17
ATOM     17  O   UNL     1      38.980   1.630  20.314  1.00  0.00    -0.504 OA
ATOM     18  H   UNL     1      38.210   1.849  19.693  1.00  0.00     0.293 HD
ENDBRANCH  14  17
BRANCH  16  19
ATOM     19  O   UNL     1      41.431   0.408  19.623  1.00  0.00    -0.504 OA
ATOM     20  H   UNL     1      41.114   0.076  18.719  1.00  0.00     0.293 HD
ENDBRANCH  16  19
ENDBRANCH   1  11
BRANCH  10  21
ATOM     21  O   UNL     1      44.076   4.367  22.721  1.00  0.00    -0.500 OA
ATOM     22  H   UNL     1      43.784   3.398  22.779  1.00  0.00     0.294 HD
ENDBRANCH  10  21
BRANCH   5  23
ATOM     23  O   UNL     1      47.200   7.738  16.466  1.00  0.00    -0.507 OA
ATOM     24  H   UNL     1      48.116   8.139  16.302  1.00  0.00     0.293 HD
ENDBRANCH   5  23
BRANCH   7  25
ATOM     25  O   UNL     1      48.029   7.442  21.203  1.00  0.00    -0.507 OA
ATOM     26  H   UNL     1      48.962   7.818  21.119  1.00  0.00     0.293 HD
ENDBRANCH   7  25
TORSDOF 6
ENDMDL
MODEL 9
REMARK VINA RESULT:    -6.930     10.964     14.062
REMARK INTER + INTRA:          -8.700
REMARK INTER:                  -8.386
REMARK INTRA:                  -0.314
REMARK UNBOUND:                -0.352
REMARK SMILES Oc1cc(O)c2cc(O)c(-c3ccc(O)c(O)c3)[o+]c2c1
REMARK SMILES IDX 10 1 19 2 20 3 21 4 2 5 3 6 4 7 6 8 7 9 8 10 11 11 12 12
REMARK SMILES IDX 13 13 14 14 18 15 16 16 15 17 17 19 9 21 1 23 5 25
REMARK H PARENT 15 18 17 20 9 22 1 24 5 26
REMARK Flexibility Score: inf
ROOT
ATOM      1  C   UNL     1      43.339   3.719  20.158  1.00  0.00     0.402 A 
ATOM      2  O   UNL     1      43.600   4.639  19.234  1.00  0.00    -0.202 OA
ATOM      3  C   UNL     1      44.832   4.972  18.863  1.00  0.00     0.368 A 
ATOM      4  C   UNL     1      45.006   5.954  17.884  1.00  0.00     0.162 A 
ATOM      5  C   UNL     1      46.287   6.327  17.478  1.00  0.00     0.128 A 
ATOM      6  C   UNL     1      47.406   5.714  18.054  1.00  0.00     0.093 A 
ATOM      7  C   UNL     1      47.259   4.727  19.037  1.00  0.00     0.136 A 
ATOM      8  C   UNL     1      45.957   4.344  19.450  1.00  0.00     0.125 A 
ATOM      9  C   UNL     1      45.714   3.356  20.419  1.00  0.00     0.078 A 
ATOM     10  C   UNL     1      44.401   3.028  20.772  1.00  0.00     0.223 A 
ENDROOT
BRANCH   1  11
ATOM     11  C   UNL     1      41.923   3.443  20.492  1.00  0.00     0.087 A 
ATOM     12  C   UNL     1      41.284   2.330  19.923  1.00  0.00     0.022 A 
ATOM     13  C   UNL     1      39.942   2.062  20.207  1.00  0.00     0.051 A 
ATOM     14  C   UNL     1      39.215   2.907  21.049  1.00  0.00     0.157 A 
ATOM     15  C   UNL     1      41.184   4.305  21.322  1.00  0.00     0.068 A 
ATOM     16  C   UNL     1      39.837   4.038  21.607  1.00  0.00     0.158 A 
BRANCH  14  17
ATOM     17  O   UNL     1      37.879   2.613  21.317  1.00  0.00    -0.504 OA
ATOM     18  H   UNL     1      37.328   2.014  20.714  1.00  0.00     0.293 HD
ENDBRANCH  14  17
BRANCH  16  19
ATOM     19  O   UNL     1      39.114   4.894  22.436  1.00  0.00    -0.504 OA
ATOM     20  H   UNL     1      39.490   5.787  22.735  1.00  0.00     0.293 HD
ENDBRANCH  16  19
ENDBRANCH   1  11
BRANCH  10  21
ATOM     21  O   UNL     1      44.158   2.013  21.697  1.00  0.00    -0.500 OA
ATOM     22  H   UNL     1      43.316   1.996  22.260  1.00  0.00     0.294 HD
ENDBRANCH  10  21
BRANCH   5  23
ATOM     23  O   UNL     1      46.439   7.308  16.501  1.00  0.00    -0.507 OA
ATOM     24  H   UNL     1      46.927   8.176  16.693  1.00  0.00     0.293 HD
ENDBRANCH   5  23
BRANCH   7  25
ATOM     25  O   UNL     1      48.426   4.166  19.565  1.00  0.00    -0.507 OA
ATOM     26  H   UNL     1      48.581   3.994  20.548  1.00  0.00     0.293 HD
ENDBRANCH   7  25
TORSDOF 6
ENDMDL
