MODEL 1
REMARK VINA RESULT:    15.966      0.000      0.000
REMARK INTER + INTRA:          29.892
REMARK INTER:                  30.901
REMARK INTRA:                  -1.009
REMARK UNBOUND:                -1.009
REMARK SMILES CCCCCCCCCCCCCCCCCC(=O)[O-]
REMARK SMILES IDX 10 1 11 2 12 3 13 4 14 5 15 6 16 7 17 8 18 9 19 10 20 11
REMARK SMILES IDX 9 12 8 13 7 14 6 15 5 16 4 17 3 18 2 19 1 20
REMARK H PARENT
REMARK Flexibility Score: inf
ROOT
ATOM      1  C   UNL     1      -5.711  10.856 -23.764  1.00  0.00     0.000 C 
ENDROOT
BRANCH   1   2
ATOM      2  C   UNL     1      -6.550  12.153 -23.775  1.00  0.00     0.000 C 
BRANCH   2   3
ATOM      3  C   UNL     1      -6.329  12.975 -25.058  1.00  0.00     0.000 C 
BRANCH   3   4
ATOM      4  C   UNL     1      -5.262  14.073 -24.892  1.00  0.00     0.000 C 
BRANCH   4   5
ATOM      5  C   UNL     1      -4.823  14.754 -26.203  1.00  0.00     0.000 C 
BRANCH   5   6
ATOM      6  C   UNL     1      -5.698  15.969 -26.566  1.00  0.00     0.000 C 
BRANCH   6   7
ATOM      7  C   UNL     1      -4.927  17.296 -26.496  1.00  0.00     0.006 C 
BRANCH   7   8
ATOM      8  C   UNL     1      -5.760  18.439 -25.895  1.00  0.00     0.053 C 
BRANCH   8   9
ATOM      9  C   UNL     1      -5.634  18.458 -24.403  1.00  0.00     0.041 C 
ATOM     10  O   UNL     1      -6.222  19.346 -23.730  1.00  0.00    -0.550 OA
ATOM     11  O   UNL     1      -4.848  17.512 -23.755  1.00  0.00    -0.550 OA
ENDBRANCH   8   9
ENDBRANCH   7   8
ENDBRANCH   6   7
ENDBRANCH   5   6
ENDBRANCH   4   5
ENDBRANCH   3   4
ENDBRANCH   2   3
ENDBRANCH   1   2
BRANCH   1  12
ATOM     12  C   UNL     1      -5.735  10.086 -25.099  1.00  0.00     0.000 C 
BRANCH  12  13
ATOM     13  C   UNL     1      -4.621   9.039 -25.266  1.00  0.00    -0.000 C 
BRANCH  13  14
ATOM     14  C   UNL     1      -4.232   8.363 -23.943  1.00  0.00    -0.000 C 
BRANCH  14  15
ATOM     15  C   UNL     1      -2.710   8.203 -23.843  1.00  0.00    -0.000 C 
BRANCH  15  16
ATOM     16  C   UNL     1      -1.987   9.407 -24.459  1.00  0.00    -0.000 C 
BRANCH  16  17
ATOM     17  C   UNL     1      -0.497   9.106 -24.672  1.00  0.00    -0.000 C 
BRANCH  17  18
ATOM     18  C   UNL     1      -0.047   9.293 -26.132  1.00  0.00    -0.000 C 
BRANCH  18  19
ATOM     19  C   UNL     1       0.994   8.272 -26.624  1.00  0.00    -0.003 C 
ATOM     20  C   UNL     1       0.952   6.953 -25.854  1.00  0.00     0.004 C 
ENDBRANCH  18  19
ENDBRANCH  17  18
ENDBRANCH  16  17
ENDBRANCH  15  16
ENDBRANCH  14  15
ENDBRANCH  13  14
ENDBRANCH  12  13
ENDBRANCH   1  12
TORSDOF 16
ENDMDL
MODEL 2
REMARK VINA RESULT:    15.976      1.530      2.806
REMARK INTER + INTRA:          29.911
REMARK INTER:                  30.902
REMARK INTRA:                  -0.991
REMARK UNBOUND:                -1.009
REMARK SMILES CCCCCCCCCCCCCCCCCC(=O)[O-]
REMARK SMILES IDX 10 1 11 2 12 3 13 4 14 5 15 6 16 7 17 8 18 9 19 10 20 11
REMARK SMILES IDX 9 12 8 13 7 14 6 15 5 16 4 17 3 18 2 19 1 20
REMARK H PARENT
REMARK Flexibility Score: inf
ROOT
ATOM      1  C   UNL     1      -5.761  10.725 -23.833  1.00  0.00     0.000 C 
ENDROOT
BRANCH   1   2
ATOM      2  C   UNL     1      -6.479  12.089 -23.733  1.00  0.00     0.000 C 
BRANCH   2   3
ATOM      3  C   UNL     1      -6.505  12.831 -25.082  1.00  0.00     0.000 C 
BRANCH   3   4
ATOM      4  C   UNL     1      -5.660  14.118 -25.075  1.00  0.00     0.000 C 
BRANCH   4   5
ATOM      5  C   UNL     1      -4.994  14.463 -26.421  1.00  0.00     0.000 C 
BRANCH   5   6
ATOM      6  C   UNL     1      -5.280  15.907 -26.877  1.00  0.00     0.000 C 
BRANCH   6   7
ATOM      7  C   UNL     1      -4.714  16.957 -25.908  1.00  0.00     0.006 C 
BRANCH   7   8
ATOM      8  C   UNL     1      -5.693  18.111 -25.642  1.00  0.00     0.053 C 
BRANCH   8   9
ATOM      9  C   UNL     1      -5.694  18.482 -24.191  1.00  0.00     0.041 C 
ATOM     10  O   UNL     1      -6.358  19.476 -23.792  1.00  0.00    -0.550 OA
ATOM     11  O   UNL     1      -4.941  17.747 -23.281  1.00  0.00    -0.550 OA
ENDBRANCH   8   9
ENDBRANCH   7   8
ENDBRANCH   6   7
ENDBRANCH   5   6
ENDBRANCH   4   5
ENDBRANCH   3   4
ENDBRANCH   2   3
ENDBRANCH   1   2
BRANCH   1  12
ATOM     12  C   UNL     1      -5.753  10.127 -25.253  1.00  0.00     0.000 C 
BRANCH  12  13
ATOM     13  C   UNL     1      -4.714   9.017 -25.485  1.00  0.00    -0.000 C 
BRANCH  13  14
ATOM     14  C   UNL     1      -3.777   8.814 -24.286  1.00  0.00    -0.000 C 
BRANCH  14  15
ATOM     15  C   UNL     1      -2.375   9.356 -24.595  1.00  0.00    -0.000 C 
BRANCH  15  16
ATOM     16  C   UNL     1      -1.343   8.816 -23.599  1.00  0.00    -0.000 C 
BRANCH  16  17
ATOM     17  C   UNL     1      -1.862   7.551 -22.899  1.00  0.00    -0.000 C 
BRANCH  17  18
ATOM     18  C   UNL     1      -1.837   7.659 -21.364  1.00  0.00    -0.000 C 
BRANCH  18  19
ATOM     19  C   UNL     1      -3.092   7.117 -20.657  1.00  0.00    -0.003 C 
ATOM     20  C   UNL     1      -3.225   7.605 -19.215  1.00  0.00     0.004 C 
ENDBRANCH  18  19
ENDBRANCH  17  18
ENDBRANCH  16  17
ENDBRANCH  15  16
ENDBRANCH  14  15
ENDBRANCH  13  14
ENDBRANCH  12  13
ENDBRANCH   1  12
TORSDOF 16
ENDMDL
MODEL 3
REMARK VINA RESULT:    17.481      5.425     10.112
REMARK INTER + INTRA:          32.822
REMARK INTER:                  33.240
REMARK INTRA:                  -0.418
REMARK UNBOUND:                -1.009
REMARK SMILES CCCCCCCCCCCCCCCCCC(=O)[O-]
REMARK SMILES IDX 10 1 11 2 12 3 13 4 14 5 15 6 16 7 17 8 18 9 19 10 20 11
REMARK SMILES IDX 9 12 8 13 7 14 6 15 5 16 4 17 3 18 2 19 1 20
REMARK H PARENT
REMARK Flexibility Score: inf
ROOT
ATOM      1  C   UNL     1      -6.526  12.233 -23.563  1.00  0.00     0.000 C 
ENDROOT
BRANCH   1   2
ATOM      2  C   UNL     1      -5.620  10.982 -23.600  1.00  0.00     0.000 C 
BRANCH   2   3
ATOM      3  C   UNL     1      -5.770  10.197 -24.916  1.00  0.00     0.000 C 
BRANCH   3   4
ATOM      4  C   UNL     1      -4.937   8.902 -24.941  1.00  0.00     0.000 C 
BRANCH   4   5
ATOM      5  C   UNL     1      -3.418   9.111 -25.092  1.00  0.00     0.000 C 
BRANCH   5   6
ATOM      6  C   UNL     1      -2.622   8.613 -23.871  1.00  0.00     0.000 C 
BRANCH   6   7
ATOM      7  C   UNL     1      -1.102   8.700 -24.079  1.00  0.00     0.006 C 
BRANCH   7   8
ATOM      8  C   UNL     1      -0.717   9.512 -25.326  1.00  0.00     0.053 C 
BRANCH   8   9
ATOM      9  C   UNL     1       0.334   8.798 -26.119  1.00  0.00     0.041 C 
ATOM     10  O   UNL     1       0.613   7.596 -25.862  1.00  0.00    -0.550 OA
ATOM     11  O   UNL     1       1.024   9.465 -27.125  1.00  0.00    -0.550 OA
ENDBRANCH   8   9
ENDBRANCH   7   8
ENDBRANCH   6   7
ENDBRANCH   5   6
ENDBRANCH   4   5
ENDBRANCH   3   4
ENDBRANCH   2   3
ENDBRANCH   1   2
BRANCH   1  12
ATOM     12  C   UNL     1      -7.640  12.166 -22.501  1.00  0.00     0.000 C 
BRANCH  12  13
ATOM     13  C   UNL     1      -7.888  13.476 -21.734  1.00  0.00    -0.000 C 
BRANCH  13  14
ATOM     14  C   UNL     1      -9.064  13.381 -20.751  1.00  0.00    -0.000 C 
BRANCH  14  15
ATOM     15  C   UNL     1      -8.739  14.115 -19.443  1.00  0.00    -0.000 C 
BRANCH  15  16
ATOM     16  C   UNL     1      -9.410  13.431 -18.246  1.00  0.00    -0.000 C 
BRANCH  16  17
ATOM     17  C   UNL     1      -9.736  14.448 -17.143  1.00  0.00    -0.000 C 
BRANCH  17  18
ATOM     18  C   UNL     1      -9.085  15.823 -17.380  1.00  0.00    -0.000 C 
BRANCH  18  19
ATOM     19  C   UNL     1      -9.957  16.827 -18.155  1.00  0.00    -0.003 C 
ATOM     20  C   UNL     1      -9.943  18.228 -17.545  1.00  0.00     0.004 C 
ENDBRANCH  18  19
ENDBRANCH  17  18
ENDBRANCH  16  17
ENDBRANCH  15  16
ENDBRANCH  14  15
ENDBRANCH  13  14
ENDBRANCH  12  13
ENDBRANCH   1  12
TORSDOF 16
ENDMDL
MODEL 4
REMARK VINA RESULT:    17.525      4.535      8.456
REMARK INTER + INTRA:          32.909
REMARK INTER:                  33.064
REMARK INTRA:                  -0.155
REMARK UNBOUND:                -1.009
REMARK SMILES CCCCCCCCCCCCCCCCCC(=O)[O-]
REMARK SMILES IDX 10 1 11 2 12 3 13 4 14 5 15 6 16 7 17 8 18 9 19 10 20 11
REMARK SMILES IDX 9 12 8 13 7 14 6 15 5 16 4 17 3 18 2 19 1 20
REMARK H PARENT
REMARK Flexibility Score: inf
ROOT
ATOM      1  C   UNL     1      -7.411  12.210 -22.484  1.00  0.00     0.000 C 
ENDROOT
BRANCH   1   2
ATOM      2  C   UNL     1      -6.257  12.338 -23.503  1.00  0.00     0.000 C 
BRANCH   2   3
ATOM      3  C   UNL     1      -6.712  12.012 -24.938  1.00  0.00     0.000 C 
BRANCH   3   4
ATOM      4  C   UNL     1      -6.522  13.191 -25.910  1.00  0.00     0.000 C 
BRANCH   4   5
ATOM      5  C   UNL     1      -5.272  14.054 -25.647  1.00  0.00     0.000 C 
BRANCH   5   6
ATOM      6  C   UNL     1      -5.202  15.297 -26.554  1.00  0.00     0.000 C 
BRANCH   6   7
ATOM      7  C   UNL     1      -4.591  16.514 -25.845  1.00  0.00     0.006 C 
BRANCH   7   8
ATOM      8  C   UNL     1      -5.562  17.702 -25.756  1.00  0.00     0.053 C 
BRANCH   8   9
ATOM      9  C   UNL     1      -5.487  18.350 -24.407  1.00  0.00     0.041 C 
ATOM     10  O   UNL     1      -4.816  17.813 -23.486  1.00  0.00    -0.550 OA
ATOM     11  O   UNL     1      -6.176  19.531 -24.160  1.00  0.00    -0.550 OA
ENDBRANCH   8   9
ENDBRANCH   7   8
ENDBRANCH   6   7
ENDBRANCH   5   6
ENDBRANCH   4   5
ENDBRANCH   3   4
ENDBRANCH   2   3
ENDBRANCH   1   2
BRANCH   1  12
ATOM     12  C   UNL     1      -7.682  13.499 -21.683  1.00  0.00     0.000 C 
BRANCH  12  13
ATOM     13  C   UNL     1      -8.940  13.462 -20.799  1.00  0.00    -0.000 C 
BRANCH  13  14
ATOM     14  C   UNL     1      -8.776  14.253 -19.492  1.00  0.00    -0.000 C 
BRANCH  14  15
ATOM     15  C   UNL     1      -9.199  13.404 -18.287  1.00  0.00    -0.000 C 
BRANCH  15  16
ATOM     16  C   UNL     1      -9.813  14.277 -17.186  1.00  0.00    -0.000 C 
BRANCH  16  17
ATOM     17  C   UNL     1      -9.256  15.706 -17.241  1.00  0.00    -0.000 C 
BRANCH  17  18
ATOM     18  C   UNL     1      -9.967  16.589 -18.283  1.00  0.00    -0.000 C 
BRANCH  18  19
ATOM     19  C   UNL     1     -10.308  18.011 -17.801  1.00  0.00    -0.003 C 
ATOM     20  C   UNL     1      -9.165  18.674 -17.034  1.00  0.00     0.004 C 
ENDBRANCH  18  19
ENDBRANCH  17  18
ENDBRANCH  16  17
ENDBRANCH  15  16
ENDBRANCH  14  15
ENDBRANCH  13  14
ENDBRANCH  12  13
ENDBRANCH   1  12
TORSDOF 16
ENDMDL
MODEL 5
REMARK VINA RESULT:    17.977      4.051      8.948
REMARK INTER + INTRA:          33.782
REMARK INTER:                  34.722
REMARK INTRA:                  -0.939
REMARK UNBOUND:                -1.009
REMARK SMILES CCCCCCCCCCCCCCCCCC(=O)[O-]
REMARK SMILES IDX 10 1 11 2 12 3 13 4 14 5 15 6 16 7 17 8 18 9 19 10 20 11
REMARK SMILES IDX 9 12 8 13 7 14 6 15 5 16 4 17 3 18 2 19 1 20
REMARK H PARENT
REMARK Flexibility Score: inf
ROOT
ATOM      1  C   UNL     1      -5.724  10.992 -23.627  1.00  0.00     0.000 C 
ENDROOT
BRANCH   1   2
ATOM      2  C   UNL     1      -5.685  10.130 -24.908  1.00  0.00     0.000 C 
BRANCH   2   3
ATOM      3  C   UNL     1      -4.867   8.841 -24.715  1.00  0.00     0.000 C 
BRANCH   3   4
ATOM      4  C   UNL     1      -3.378   9.015 -25.070  1.00  0.00     0.000 C 
BRANCH   4   5
ATOM      5  C   UNL     1      -2.411   8.921 -23.874  1.00  0.00     0.000 C 
BRANCH   5   6
ATOM      6  C   UNL     1      -2.392   7.522 -23.229  1.00  0.00     0.000 C 
BRANCH   6   7
ATOM      7  C   UNL     1      -1.965   7.555 -21.754  1.00  0.00     0.006 C 
BRANCH   7   8
ATOM      8  C   UNL     1      -3.021   6.952 -20.814  1.00  0.00     0.053 C 
BRANCH   8   9
ATOM      9  C   UNL     1      -3.171   7.788 -19.580  1.00  0.00     0.041 C 
ATOM     10  O   UNL     1      -2.163   8.337 -19.061  1.00  0.00    -0.550 OA
ATOM     11  O   UNL     1      -4.420   7.941 -18.989  1.00  0.00    -0.550 OA
ENDBRANCH   8   9
ENDBRANCH   7   8
ENDBRANCH   6   7
ENDBRANCH   5   6
ENDBRANCH   4   5
ENDBRANCH   3   4
ENDBRANCH   2   3
ENDBRANCH   1   2
BRANCH   1  12
ATOM     12  C   UNL     1      -6.459  12.336 -23.802  1.00  0.00     0.000 C 
BRANCH  12  13
ATOM     13  C   UNL     1      -6.365  12.950 -25.209  1.00  0.00    -0.000 C 
BRANCH  13  14
ATOM     14  C   UNL     1      -5.567  14.262 -25.238  1.00  0.00    -0.000 C 
BRANCH  14  15
ATOM     15  C   UNL     1      -5.085  14.573 -26.661  1.00  0.00    -0.000 C 
BRANCH  15  16
ATOM     16  C   UNL     1      -5.048  16.085 -26.912  1.00  0.00    -0.000 C 
BRANCH  16  17
ATOM     17  C   UNL     1      -4.787  16.854 -25.609  1.00  0.00    -0.000 C 
BRANCH  17  18
ATOM     18  C   UNL     1      -5.489  18.223 -25.567  1.00  0.00    -0.000 C 
BRANCH  18  19
ATOM     19  C   UNL     1      -6.163  18.564 -24.226  1.00  0.00    -0.003 C 
ATOM     20  C   UNL     1      -5.468  17.922 -23.026  1.00  0.00     0.004 C 
ENDBRANCH  18  19
ENDBRANCH  17  18
ENDBRANCH  16  17
ENDBRANCH  15  16
ENDBRANCH  14  15
ENDBRANCH  13  14
ENDBRANCH  12  13
ENDBRANCH   1  12
TORSDOF 16
ENDMDL
