MODEL 1
REMARK VINA RESULT:    -6.991      0.000      0.000
REMARK INTER + INTRA:          -8.433
REMARK INTER:                  -8.218
REMARK INTRA:                  -0.216
REMARK UNBOUND:                -0.216
REMARK SMILES O=c1c(O)c(-c2ccc(O)cc2)oc2cc(O)cc(O)c12
REMARK SMILES IDX 5 1 3 2 2 3 1 4 21 5 19 6 18 7 16 8 15 9 14 10 13 11 6 12
REMARK SMILES IDX 7 13 8 14 9 15 12 16 11 17 10 18 4 20 20 22 17 24
REMARK H PARENT 10 19 4 21 20 23 17 25
REMARK Flexibility Score: inf
ROOT
ATOM      1  C   UNL     1       0.048 -10.489 -40.693  1.00  0.00     0.180 A 
ATOM      2  C   UNL     1      -0.977 -10.486 -41.655  1.00  0.00     0.208 A 
ATOM      3  C   UNL     1      -1.344  -9.271 -42.256  1.00  0.00     0.238 A 
ATOM      4  O   UNL     1      -2.299  -9.266 -43.076  1.00  0.00    -0.285 OA
ATOM      5  C   UNL     1      -0.670  -8.078 -41.900  1.00  0.00     0.111 A 
ATOM      6  C   UNL     1      -0.931  -6.798 -42.475  1.00  0.00     0.134 A 
ATOM      7  C   UNL     1      -0.295  -5.664 -41.954  1.00  0.00     0.093 A 
ATOM      8  C   UNL     1       0.642  -5.773 -40.923  1.00  0.00     0.123 A 
ATOM      9  C   UNL     1       0.948  -7.026 -40.396  1.00  0.00     0.094 A 
ATOM     10  C   UNL     1       0.302  -8.171 -40.871  1.00  0.00     0.146 A 
ATOM     11  O   UNL     1       0.616  -9.344 -40.334  1.00  0.00    -0.452 OA
ENDROOT
BRANCH   1  12
ATOM     12  C   UNL     1       0.507 -11.733 -40.036  1.00  0.00     0.021 A 
ATOM     13  C   UNL     1      -0.285 -12.318 -39.032  1.00  0.00     0.016 A 
ATOM     14  C   UNL     1       0.140 -13.481 -38.382  1.00  0.00     0.047 A 
ATOM     15  C   UNL     1       1.368 -14.065 -38.716  1.00  0.00     0.115 A 
ATOM     16  C   UNL     1       1.749 -12.315 -40.351  1.00  0.00     0.016 A 
ATOM     17  C   UNL     1       2.171 -13.477 -39.698  1.00  0.00     0.047 A 
BRANCH  15  18
ATOM     18  O   UNL     1       1.801 -15.224 -38.075  1.00  0.00    -0.508 OA
ATOM     19  H   UNL     1       1.145 -15.913 -37.728  1.00  0.00     0.293 HD
ENDBRANCH  15  18
ENDBRANCH   1  12
BRANCH   2  20
ATOM     20  O   UNL     1      -1.644 -11.672 -41.975  1.00  0.00    -0.502 OA
ATOM     21  H   UNL     1      -2.606 -11.843 -41.711  1.00  0.00     0.293 HD
ENDBRANCH   2  20
BRANCH   6  22
ATOM     22  O   UNL     1      -1.780  -6.591 -43.567  1.00  0.00    -0.507 OA
ATOM     23  H   UNL     1      -1.740  -7.110 -44.431  1.00  0.00     0.293 HD
ENDBRANCH   6  22
BRANCH   8  24
ATOM     24  O   UNL     1       1.281  -4.642 -40.422  1.00  0.00    -0.508 OA
ATOM     25  H   UNL     1       2.180  -4.340 -40.779  1.00  0.00     0.293 HD
ENDBRANCH   8  24
TORSDOF 5
ENDMDL
MODEL 2
REMARK VINA RESULT:    -6.964      4.272      6.310
REMARK INTER + INTRA:          -8.401
REMARK INTER:                  -8.108
REMARK INTRA:                  -0.293
REMARK UNBOUND:                -0.216
REMARK SMILES O=c1c(O)c(-c2ccc(O)cc2)oc2cc(O)cc(O)c12
REMARK SMILES IDX 5 1 3 2 2 3 1 4 21 5 19 6 18 7 16 8 15 9 14 10 13 11 6 12
REMARK SMILES IDX 7 13 8 14 9 15 12 16 11 17 10 18 4 20 20 22 17 24
REMARK H PARENT 10 19 4 21 20 23 17 25
REMARK Flexibility Score: inf
ROOT
ATOM      1  C   UNL     1       3.217 -11.753 -40.215  1.00  0.00     0.180 A 
ATOM      2  C   UNL     1       2.995 -11.331 -41.537  1.00  0.00     0.208 A 
ATOM      3  C   UNL     1       4.083 -11.259 -42.421  1.00  0.00     0.238 A 
ATOM      4  O   UNL     1       3.888 -10.829 -43.587  1.00  0.00    -0.285 OA
ATOM      5  C   UNL     1       5.377 -11.625 -41.977  1.00  0.00     0.111 A 
ATOM      6  C   UNL     1       6.544 -11.629 -42.798  1.00  0.00     0.134 A 
ATOM      7  C   UNL     1       7.794 -11.884 -42.220  1.00  0.00     0.093 A 
ATOM      8  C   UNL     1       7.910 -12.199 -40.864  1.00  0.00     0.123 A 
ATOM      9  C   UNL     1       6.769 -12.256 -40.067  1.00  0.00     0.094 A 
ATOM     10  C   UNL     1       5.512 -11.972 -40.608  1.00  0.00     0.146 A 
ATOM     11  O   UNL     1       4.452 -12.027 -39.811  1.00  0.00    -0.452 OA
ENDROOT
BRANCH   1  12
ATOM     12  C   UNL     1       2.116 -11.879 -39.233  1.00  0.00     0.021 A 
ATOM     13  C   UNL     1       1.781 -10.778 -38.425  1.00  0.00     0.016 A 
ATOM     14  C   UNL     1       0.759 -10.881 -37.475  1.00  0.00     0.047 A 
ATOM     15  C   UNL     1       0.072 -12.090 -37.310  1.00  0.00     0.115 A 
ATOM     16  C   UNL     1       1.434 -13.095 -39.047  1.00  0.00     0.016 A 
ATOM     17  C   UNL     1       0.414 -13.195 -38.096  1.00  0.00     0.047 A 
BRANCH  15  18
ATOM     18  O   UNL     1      -0.948 -12.204 -36.368  1.00  0.00    -0.508 OA
ATOM     19  H   UNL     1      -0.803 -12.684 -35.488  1.00  0.00     0.293 HD
ENDBRANCH  15  18
ENDBRANCH   1  12
BRANCH   2  20
ATOM     20  O   UNL     1       1.714 -10.953 -41.948  1.00  0.00    -0.502 OA
ATOM     21  H   UNL     1       0.974 -10.733 -41.292  1.00  0.00     0.293 HD
ENDBRANCH   2  20
BRANCH   6  22
ATOM     22  O   UNL     1       6.527 -11.418 -44.180  1.00  0.00    -0.507 OA
ATOM     23  H   UNL     1       5.939 -10.747 -44.651  1.00  0.00     0.293 HD
ENDBRANCH   6  22
BRANCH   8  24
ATOM     24  O   UNL     1       9.155 -12.467 -40.300  1.00  0.00    -0.508 OA
ATOM     25  H   UNL     1       9.341 -12.296 -39.319  1.00  0.00     0.293 HD
ENDBRANCH   8  24
TORSDOF 5
ENDMDL
MODEL 3
REMARK VINA RESULT:    -6.898      3.869      5.299
REMARK INTER + INTRA:          -8.323
REMARK INTER:                  -8.046
REMARK INTRA:                  -0.277
REMARK UNBOUND:                -0.216
REMARK SMILES O=c1c(O)c(-c2ccc(O)cc2)oc2cc(O)cc(O)c12
REMARK SMILES IDX 5 1 3 2 2 3 1 4 21 5 19 6 18 7 16 8 15 9 14 10 13 11 6 12
REMARK SMILES IDX 7 13 8 14 9 15 12 16 11 17 10 18 4 20 20 22 17 24
REMARK H PARENT 10 19 4 21 20 23 17 25
REMARK Flexibility Score: inf
ROOT
ATOM      1  C   UNL     1       2.474 -11.625 -40.857  1.00  0.00     0.180 A 
ATOM      2  C   UNL     1       3.712 -12.283 -40.970  1.00  0.00     0.208 A 
ATOM      3  C   UNL     1       4.503 -12.055 -42.106  1.00  0.00     0.238 A 
ATOM      4  O   UNL     1       5.584 -12.688 -42.228  1.00  0.00    -0.285 OA
ATOM      5  C   UNL     1       4.056 -11.159 -43.108  1.00  0.00     0.111 A 
ATOM      6  C   UNL     1       4.795 -10.822 -44.282  1.00  0.00     0.134 A 
ATOM      7  C   UNL     1       4.200 -10.025 -45.268  1.00  0.00     0.093 A 
ATOM      8  C   UNL     1       2.917  -9.500 -45.092  1.00  0.00     0.123 A 
ATOM      9  C   UNL     1       2.211  -9.775 -43.923  1.00  0.00     0.094 A 
ATOM     10  C   UNL     1       2.765 -10.596 -42.937  1.00  0.00     0.146 A 
ATOM     11  O   UNL     1       2.054 -10.841 -41.843  1.00  0.00    -0.452 OA
ENDROOT
BRANCH   1  12
ATOM     12  C   UNL     1       1.597 -11.795 -39.677  1.00  0.00     0.021 A 
ATOM     13  C   UNL     1       1.692 -10.888 -38.607  1.00  0.00     0.016 A 
ATOM     14  C   UNL     1       0.889 -11.043 -37.473  1.00  0.00     0.047 A 
ATOM     15  C   UNL     1      -0.009 -12.115 -37.388  1.00  0.00     0.115 A 
ATOM     16  C   UNL     1       0.706 -12.879 -39.575  1.00  0.00     0.016 A 
ATOM     17  C   UNL     1      -0.095 -13.032 -38.440  1.00  0.00     0.047 A 
BRANCH  15  18
ATOM     18  O   UNL     1      -0.815 -12.278 -36.264  1.00  0.00    -0.508 OA
ATOM     19  H   UNL     1      -1.684 -11.769 -36.157  1.00  0.00     0.293 HD
ENDBRANCH  15  18
ENDBRANCH   1  12
BRANCH   2  20
ATOM     20  O   UNL     1       4.123 -13.180 -39.981  1.00  0.00    -0.502 OA
ATOM     21  H   UNL     1       3.614 -14.030 -39.770  1.00  0.00     0.293 HD
ENDBRANCH   2  20
BRANCH   6  22
ATOM     22  O   UNL     1       6.116 -11.217 -44.513  1.00  0.00    -0.507 OA
ATOM     23  H   UNL     1       6.749 -11.551 -43.801  1.00  0.00     0.293 HD
ENDBRANCH   6  22
BRANCH   8  24
ATOM     24  O   UNL     1       2.338  -8.696 -46.071  1.00  0.00    -0.508 OA
ATOM     25  H   UNL     1       2.484  -8.874 -47.058  1.00  0.00     0.293 HD
ENDBRANCH   8  24
TORSDOF 5
ENDMDL
MODEL 4
REMARK VINA RESULT:    -6.895      1.605      6.442
REMARK INTER + INTRA:          -8.320
REMARK INTER:                  -8.031
REMARK INTRA:                  -0.289
REMARK UNBOUND:                -0.216
REMARK SMILES O=c1c(O)c(-c2ccc(O)cc2)oc2cc(O)cc(O)c12
REMARK SMILES IDX 5 1 3 2 2 3 1 4 21 5 19 6 18 7 16 8 15 9 14 10 13 11 6 12
REMARK SMILES IDX 7 13 8 14 9 15 12 16 11 17 10 18 4 20 20 22 17 24
REMARK H PARENT 10 19 4 21 20 23 17 25
REMARK Flexibility Score: inf
ROOT
ATOM      1  C   UNL     1       0.589  -8.936 -41.259  1.00  0.00     0.180 A 
ATOM      2  C   UNL     1      -0.787  -9.199 -41.388  1.00  0.00     0.208 A 
ATOM      3  C   UNL     1      -1.278 -10.456 -41.003  1.00  0.00     0.238 A 
ATOM      4  O   UNL     1      -2.500 -10.705 -41.172  1.00  0.00    -0.285 OA
ATOM      5  C   UNL     1      -0.392 -11.429 -40.480  1.00  0.00     0.111 A 
ATOM      6  C   UNL     1      -0.788 -12.722 -40.023  1.00  0.00     0.134 A 
ATOM      7  C   UNL     1       0.190 -13.651 -39.647  1.00  0.00     0.093 A 
ATOM      8  C   UNL     1       1.546 -13.311 -39.650  1.00  0.00     0.123 A 
ATOM      9  C   UNL     1       1.937 -12.032 -40.039  1.00  0.00     0.094 A 
ATOM     10  C   UNL     1       0.986 -11.095 -40.454  1.00  0.00     0.146 A 
ATOM     11  O   UNL     1       1.403  -9.891 -40.826  1.00  0.00    -0.452 OA
ENDROOT
BRANCH   1  12
ATOM     12  C   UNL     1       1.177  -7.626 -41.618  1.00  0.00     0.021 A 
ATOM     13  C   UNL     1       1.202  -6.594 -40.664  1.00  0.00     0.016 A 
ATOM     14  C   UNL     1       1.732  -5.341 -40.989  1.00  0.00     0.047 A 
ATOM     15  C   UNL     1       2.230  -5.100 -42.276  1.00  0.00     0.115 A 
ATOM     16  C   UNL     1       1.661  -7.369 -42.914  1.00  0.00     0.016 A 
ATOM     17  C   UNL     1       2.190  -6.116 -43.236  1.00  0.00     0.047 A 
BRANCH  15  18
ATOM     18  O   UNL     1       2.762  -3.857 -42.611  1.00  0.00    -0.508 OA
ATOM     19  H   UNL     1       2.234  -3.003 -42.478  1.00  0.00     0.293 HD
ENDBRANCH  15  18
ENDBRANCH   1  12
BRANCH   2  20
ATOM     20  O   UNL     1      -1.640  -8.232 -41.926  1.00  0.00    -0.502 OA
ATOM     21  H   UNL     1      -2.648  -8.312 -41.884  1.00  0.00     0.293 HD
ENDBRANCH   2  20
BRANCH   6  22
ATOM     22  O   UNL     1      -2.119 -13.131 -39.893  1.00  0.00    -0.507 OA
ATOM     23  H   UNL     1      -2.455 -13.779 -39.196  1.00  0.00     0.293 HD
ENDBRANCH   6  22
BRANCH   8  24
ATOM     24  O   UNL     1       2.512 -14.235 -39.260  1.00  0.00    -0.508 OA
ATOM     25  H   UNL     1       2.308 -15.227 -39.216  1.00  0.00     0.293 HD
ENDBRANCH   8  24
TORSDOF 5
ENDMDL
MODEL 5
REMARK VINA RESULT:    -6.799      2.718      6.926
REMARK INTER + INTRA:          -8.207
REMARK INTER:                  -7.930
REMARK INTRA:                  -0.277
REMARK UNBOUND:                -0.216
REMARK SMILES O=c1c(O)c(-c2ccc(O)cc2)oc2cc(O)cc(O)c12
REMARK SMILES IDX 5 1 3 2 2 3 1 4 21 5 19 6 18 7 16 8 15 9 14 10 13 11 6 12
REMARK SMILES IDX 7 13 8 14 9 15 12 16 11 17 10 18 4 20 20 22 17 24
REMARK H PARENT 10 19 4 21 20 23 17 25
REMARK Flexibility Score: inf
ROOT
ATOM      1  C   UNL     1       2.270  -9.311 -40.720  1.00  0.00     0.180 A 
ATOM      2  C   UNL     1       3.019 -10.400 -41.199  1.00  0.00     0.208 A 
ATOM      3  C   UNL     1       2.848 -11.659 -40.602  1.00  0.00     0.238 A 
ATOM      4  O   UNL     1       3.560 -12.618 -40.998  1.00  0.00    -0.285 OA
ATOM      5  C   UNL     1       1.919 -11.817 -39.545  1.00  0.00     0.111 A 
ATOM      6  C   UNL     1       1.636 -13.055 -38.894  1.00  0.00     0.134 A 
ATOM      7  C   UNL     1       0.795 -13.071 -37.775  1.00  0.00     0.093 A 
ATOM      8  C   UNL     1       0.176 -11.902 -37.322  1.00  0.00     0.123 A 
ATOM      9  C   UNL     1       0.400 -10.699 -37.987  1.00  0.00     0.094 A 
ATOM     10  C   UNL     1       1.262 -10.647 -39.086  1.00  0.00     0.146 A 
ATOM     11  O   UNL     1       1.456  -9.478 -39.684  1.00  0.00    -0.452 OA
ENDROOT
BRANCH   1  12
ATOM     12  C   UNL     1       2.377  -7.959 -41.314  1.00  0.00     0.021 A 
ATOM     13  C   UNL     1       3.123  -6.969 -40.652  1.00  0.00     0.016 A 
ATOM     14  C   UNL     1       3.218  -5.679 -41.184  1.00  0.00     0.047 A 
ATOM     15  C   UNL     1       2.557  -5.359 -42.377  1.00  0.00     0.115 A 
ATOM     16  C   UNL     1       1.699  -7.624 -42.501  1.00  0.00     0.016 A 
ATOM     17  C   UNL     1       1.796  -6.334 -43.030  1.00  0.00     0.047 A 
BRANCH  15  18
ATOM     18  O   UNL     1       2.646  -4.078 -42.916  1.00  0.00    -0.508 OA
ATOM     19  H   UNL     1       2.315  -3.874 -43.851  1.00  0.00     0.293 HD
ENDBRANCH  15  18
ENDBRANCH   1  12
BRANCH   2  20
ATOM     20  O   UNL     1       3.946 -10.217 -42.228  1.00  0.00    -0.502 OA
ATOM     21  H   UNL     1       4.073 -10.892 -42.973  1.00  0.00     0.293 HD
ENDBRANCH   2  20
BRANCH   6  22
ATOM     22  O   UNL     1       2.129 -14.293 -39.321  1.00  0.00    -0.507 OA
ATOM     23  H   UNL     1       1.585 -15.142 -39.370  1.00  0.00     0.293 HD
ENDBRANCH   6  22
BRANCH   8  24
ATOM     24  O   UNL     1      -0.671 -11.929 -36.217  1.00  0.00    -0.508 OA
ATOM     25  H   UNL     1      -1.112 -11.086 -35.867  1.00  0.00     0.293 HD
ENDBRANCH   8  24
TORSDOF 5
ENDMDL
MODEL 6
REMARK VINA RESULT:    -6.747      8.152      9.675
REMARK INTER + INTRA:          -8.145
REMARK INTER:                  -7.861
REMARK INTRA:                  -0.285
REMARK UNBOUND:                -0.216
REMARK SMILES O=c1c(O)c(-c2ccc(O)cc2)oc2cc(O)cc(O)c12
REMARK SMILES IDX 5 1 3 2 2 3 1 4 21 5 19 6 18 7 16 8 15 9 14 10 13 11 6 12
REMARK SMILES IDX 7 13 8 14 9 15 12 16 11 17 10 18 4 20 20 22 17 24
REMARK H PARENT 10 19 4 21 20 23 17 25
REMARK Flexibility Score: inf
ROOT
ATOM      1  C   UNL     1       8.928  -8.720 -40.949  1.00  0.00     0.180 A 
ATOM      2  C   UNL     1      10.327  -8.577 -40.959  1.00  0.00     0.208 A 
ATOM      3  C   UNL     1      10.884  -7.314 -40.704  1.00  0.00     0.238 A 
ATOM      4  O   UNL     1      12.134  -7.179 -40.768  1.00  0.00    -0.285 OA
ATOM      5  C   UNL     1      10.037  -6.213 -40.426  1.00  0.00     0.111 A 
ATOM      6  C   UNL     1      10.494  -4.898 -40.114  1.00  0.00     0.134 A 
ATOM      7  C   UNL     1       9.566  -3.856 -39.985  1.00  0.00     0.093 A 
ATOM      8  C   UNL     1       8.194  -4.097 -40.093  1.00  0.00     0.123 A 
ATOM      9  C   UNL     1       7.735  -5.389 -40.338  1.00  0.00     0.094 A 
ATOM     10  C   UNL     1       8.639  -6.442 -40.507  1.00  0.00     0.146 A 
ATOM     11  O   UNL     1       8.160  -7.656 -40.749  1.00  0.00    -0.452 OA
ENDROOT
BRANCH   1  12
ATOM     12  C   UNL     1       8.269 -10.025 -41.183  1.00  0.00     0.021 A 
ATOM     13  C   UNL     1       8.098 -10.916 -40.109  1.00  0.00     0.016 A 
ATOM     14  C   UNL     1       7.498 -12.163 -40.312  1.00  0.00     0.047 A 
ATOM     15  C   UNL     1       7.075 -12.540 -41.593  1.00  0.00     0.115 A 
ATOM     16  C   UNL     1       7.860 -10.420 -42.469  1.00  0.00     0.016 A 
ATOM     17  C   UNL     1       7.261 -11.667 -42.669  1.00  0.00     0.047 A 
BRANCH  15  18
ATOM     18  O   UNL     1       6.476 -13.779 -41.806  1.00  0.00    -0.508 OA
ATOM     19  H   UNL     1       5.819 -14.171 -41.142  1.00  0.00     0.293 HD
ENDBRANCH  15  18
ENDBRANCH   1  12
BRANCH   2  20
ATOM     20  O   UNL     1      11.144  -9.671 -41.256  1.00  0.00    -0.502 OA
ATOM     21  H   UNL     1      11.444 -10.333 -40.551  1.00  0.00     0.293 HD
ENDBRANCH   2  20
BRANCH   6  22
ATOM     22  O   UNL     1      11.835  -4.568 -39.896  1.00  0.00    -0.507 OA
ATOM     23  H   UNL     1      12.611  -5.197 -40.037  1.00  0.00     0.293 HD
ENDBRANCH   6  22
BRANCH   8  24
ATOM     24  O   UNL     1       7.277  -3.059 -39.948  1.00  0.00    -0.508 OA
ATOM     25  H   UNL     1       6.338  -3.125 -40.324  1.00  0.00     0.293 HD
ENDBRANCH   8  24
TORSDOF 5
ENDMDL
MODEL 7
REMARK VINA RESULT:    -6.726      4.127      6.063
REMARK INTER + INTRA:          -8.121
REMARK INTER:                  -7.827
REMARK INTRA:                  -0.294
REMARK UNBOUND:                -0.216
REMARK SMILES O=c1c(O)c(-c2ccc(O)cc2)oc2cc(O)cc(O)c12
REMARK SMILES IDX 5 1 3 2 2 3 1 4 21 5 19 6 18 7 16 8 15 9 14 10 13 11 6 12
REMARK SMILES IDX 7 13 8 14 9 15 12 16 11 17 10 18 4 20 20 22 17 24
REMARK H PARENT 10 19 4 21 20 23 17 25
REMARK Flexibility Score: inf
ROOT
ATOM      1  C   UNL     1       1.968  -8.019 -43.776  1.00  0.00     0.180 A 
ATOM      2  C   UNL     1       1.861  -6.757 -43.167  1.00  0.00     0.208 A 
ATOM      3  C   UNL     1       0.630  -6.370 -42.614  1.00  0.00     0.238 A 
ATOM      4  O   UNL     1       0.524  -5.218 -42.119  1.00  0.00    -0.285 OA
ATOM      5  C   UNL     1      -0.474  -7.256 -42.663  1.00  0.00     0.111 A 
ATOM      6  C   UNL     1      -1.757  -6.984 -42.100  1.00  0.00     0.134 A 
ATOM      7  C   UNL     1      -2.812  -7.877 -42.321  1.00  0.00     0.093 A 
ATOM      8  C   UNL     1      -2.614  -9.065 -43.031  1.00  0.00     0.123 A 
ATOM      9  C   UNL     1      -1.351  -9.367 -43.534  1.00  0.00     0.094 A 
ATOM     10  C   UNL     1      -0.287  -8.478 -43.359  1.00  0.00     0.146 A 
ATOM     11  O   UNL     1       0.898  -8.800 -43.864  1.00  0.00    -0.452 OA
ENDROOT
BRANCH   1  12
ATOM     12  C   UNL     1       3.239  -8.508 -44.357  1.00  0.00     0.021 A 
ATOM     13  C   UNL     1       3.458  -8.390 -45.741  1.00  0.00     0.016 A 
ATOM     14  C   UNL     1       4.641  -8.865 -46.315  1.00  0.00     0.047 A 
ATOM     15  C   UNL     1       5.614  -9.477 -45.514  1.00  0.00     0.115 A 
ATOM     16  C   UNL     1       4.213  -9.141 -43.564  1.00  0.00     0.016 A 
ATOM     17  C   UNL     1       5.395  -9.616 -44.140  1.00  0.00     0.047 A 
BRANCH  15  18
ATOM     18  O   UNL     1       6.798  -9.952 -46.075  1.00  0.00    -0.508 OA
ATOM     19  H   UNL     1       6.821 -10.811 -46.612  1.00  0.00     0.293 HD
ENDBRANCH  15  18
ENDBRANCH   1  12
BRANCH   2  20
ATOM     20  O   UNL     1       2.957  -5.890 -43.148  1.00  0.00    -0.502 OA
ATOM     21  H   UNL     1       3.487  -5.701 -42.306  1.00  0.00     0.293 HD
ENDBRANCH   2  20
BRANCH   6  22
ATOM     22  O   UNL     1      -2.038  -5.873 -41.298  1.00  0.00    -0.507 OA
ATOM     23  H   UNL     1      -1.425  -5.511 -40.583  1.00  0.00     0.293 HD
ENDBRANCH   6  22
BRANCH   8  24
ATOM     24  O   UNL     1      -3.665  -9.955 -43.233  1.00  0.00    -0.508 OA
ATOM     25  H   UNL     1      -4.632  -9.658 -43.168  1.00  0.00     0.293 HD
ENDBRANCH   8  24
TORSDOF 5
ENDMDL
MODEL 8
REMARK VINA RESULT:    -6.697      6.480      8.600
REMARK INTER + INTRA:          -8.087
REMARK INTER:                  -7.871
REMARK INTRA:                  -0.216
REMARK UNBOUND:                -0.216
REMARK SMILES O=c1c(O)c(-c2ccc(O)cc2)oc2cc(O)cc(O)c12
REMARK SMILES IDX 5 1 3 2 2 3 1 4 21 5 19 6 18 7 16 8 15 9 14 10 13 11 6 12
REMARK SMILES IDX 7 13 8 14 9 15 12 16 11 17 10 18 4 20 20 22 17 24
REMARK H PARENT 10 19 4 21 20 23 17 25
REMARK Flexibility Score: inf
ROOT
ATOM      1  C   UNL     1       6.287  -6.360 -41.603  1.00  0.00     0.180 A 
ATOM      2  C   UNL     1       5.077  -5.741 -41.962  1.00  0.00     0.208 A 
ATOM      3  C   UNL     1       4.322  -6.283 -43.014  1.00  0.00     0.238 A 
ATOM      4  O   UNL     1       3.267  -5.693 -43.367  1.00  0.00    -0.285 OA
ATOM      5  C   UNL     1       4.776  -7.445 -43.682  1.00  0.00     0.111 A 
ATOM      6  C   UNL     1       4.071  -8.103 -44.734  1.00  0.00     0.134 A 
ATOM      7  C   UNL     1       4.676  -9.169 -45.411  1.00  0.00     0.093 A 
ATOM      8  C   UNL     1       5.934  -9.643 -45.030  1.00  0.00     0.123 A 
ATOM      9  C   UNL     1       6.605  -9.046 -43.965  1.00  0.00     0.094 A 
ATOM     10  C   UNL     1       6.041  -7.957 -43.294  1.00  0.00     0.146 A 
ATOM     11  O   UNL     1       6.718  -7.411 -42.292  1.00  0.00    -0.452 OA
ENDROOT
BRANCH   1  12
ATOM     12  C   UNL     1       7.126  -5.863 -40.489  1.00  0.00     0.021 A 
ATOM     13  C   UNL     1       7.899  -4.703 -40.669  1.00  0.00     0.016 A 
ATOM     14  C   UNL     1       8.716  -4.228 -39.638  1.00  0.00     0.047 A 
ATOM     15  C   UNL     1       8.781  -4.915 -38.419  1.00  0.00     0.115 A 
ATOM     16  C   UNL     1       7.213  -6.558 -39.269  1.00  0.00     0.016 A 
ATOM     17  C   UNL     1       8.031  -6.081 -38.240  1.00  0.00     0.047 A 
BRANCH  15  18
ATOM     18  O   UNL     1       9.590  -4.451 -37.385  1.00  0.00    -0.508 OA
ATOM     19  H   UNL     1       9.208  -3.922 -36.611  1.00  0.00     0.293 HD
ENDBRANCH  15  18
ENDBRANCH   1  12
BRANCH   2  20
ATOM     20  O   UNL     1       4.658  -4.582 -41.304  1.00  0.00    -0.502 OA
ATOM     21  H   UNL     1       4.213  -4.604 -40.394  1.00  0.00     0.293 HD
ENDBRANCH   2  20
BRANCH   6  22
ATOM     22  O   UNL     1       2.772  -7.768 -45.132  1.00  0.00    -0.507 OA
ATOM     23  H   UNL     1       2.506  -6.882 -45.535  1.00  0.00     0.293 HD
ENDBRANCH   6  22
BRANCH   8  24
ATOM     24  O   UNL     1       6.522 -10.714 -45.698  1.00  0.00    -0.508 OA
ATOM     25  H   UNL     1       6.720 -10.675 -46.691  1.00  0.00     0.293 HD
ENDBRANCH   8  24
TORSDOF 5
ENDMDL
MODEL 9
REMARK VINA RESULT:    -6.656      8.023      9.419
REMARK INTER + INTRA:          -8.038
REMARK INTER:                  -7.746
REMARK INTRA:                  -0.293
REMARK UNBOUND:                -0.216
REMARK SMILES O=c1c(O)c(-c2ccc(O)cc2)oc2cc(O)cc(O)c12
REMARK SMILES IDX 5 1 3 2 2 3 1 4 21 5 19 6 18 7 16 8 15 9 14 10 13 11 6 12
REMARK SMILES IDX 7 13 8 14 9 15 12 16 11 17 10 18 4 20 20 22 17 24
REMARK H PARENT 10 19 4 21 20 23 17 25
REMARK Flexibility Score: inf
ROOT
ATOM      1  C   UNL     1       8.372  -9.877 -40.359  1.00  0.00     0.180 A 
ATOM      2  C   UNL     1       9.383  -9.842 -41.335  1.00  0.00     0.208 A 
ATOM      3  C   UNL     1      10.373  -8.851 -41.253  1.00  0.00     0.238 A 
ATOM      4  O   UNL     1      11.244  -8.790 -42.160  1.00  0.00    -0.285 OA
ATOM      5  C   UNL     1      10.351  -7.919 -40.188  1.00  0.00     0.111 A 
ATOM      6  C   UNL     1      11.328  -6.897 -39.985  1.00  0.00     0.134 A 
ATOM      7  C   UNL     1      11.135  -5.949 -38.973  1.00  0.00     0.093 A 
ATOM      8  C   UNL     1      10.034  -6.024 -38.116  1.00  0.00     0.123 A 
ATOM      9  C   UNL     1       9.106  -7.052 -38.269  1.00  0.00     0.094 A 
ATOM     10  C   UNL     1       9.254  -7.992 -39.293  1.00  0.00     0.146 A 
ATOM     11  O   UNL     1       8.341  -8.949 -39.410  1.00  0.00    -0.452 OA
ENDROOT
BRANCH   1  12
ATOM     12  C   UNL     1       7.308 -10.907 -40.363  1.00  0.00     0.021 A 
ATOM     13  C   UNL     1       6.050 -10.599 -40.908  1.00  0.00     0.016 A 
ATOM     14  C   UNL     1       5.023 -11.550 -40.903  1.00  0.00     0.047 A 
ATOM     15  C   UNL     1       5.238 -12.814 -40.339  1.00  0.00     0.115 A 
ATOM     16  C   UNL     1       7.509 -12.172 -39.782  1.00  0.00     0.016 A 
ATOM     17  C   UNL     1       6.481 -13.120 -39.777  1.00  0.00     0.047 A 
BRANCH  15  18
ATOM     18  O   UNL     1       4.224 -13.768 -40.329  1.00  0.00    -0.508 OA
ATOM     19  H   UNL     1       4.392 -14.715 -40.013  1.00  0.00     0.293 HD
ENDBRANCH  15  18
ENDBRANCH   1  12
BRANCH   2  20
ATOM     20  O   UNL     1       9.373 -10.759 -42.390  1.00  0.00    -0.502 OA
ATOM     21  H   UNL     1       9.427 -10.472 -43.360  1.00  0.00     0.293 HD
ENDBRANCH   2  20
BRANCH   6  22
ATOM     22  O   UNL     1      12.509  -6.788 -40.725  1.00  0.00    -0.507 OA
ATOM     23  H   UNL     1      13.097  -7.565 -40.987  1.00  0.00     0.293 HD
ENDBRANCH   6  22
BRANCH   8  24
ATOM     24  O   UNL     1       9.857  -5.086 -37.102  1.00  0.00    -0.508 OA
ATOM     25  H   UNL     1       9.797  -5.362 -36.128  1.00  0.00     0.293 HD
ENDBRANCH   8  24
TORSDOF 5
ENDMDL
