MODEL 1
REMARK VINA RESULT:    -4.446      0.000      0.000
REMARK INTER + INTRA:          -7.199
REMARK INTER:                  -6.786
REMARK INTRA:                  -0.413
REMARK UNBOUND:                -0.413
REMARK SMILES CCCCCCCCCCC(=O)[O-]
REMARK SMILES IDX 7 1 8 2 9 3 10 4 11 5 12 6 13 7 6 8 5 9 4 10 3 11 2 12 1 13
REMARK H PARENT
REMARK Flexibility Score: inf
ROOT
ATOM      1  C   UNL     1       5.394  51.920   1.505  1.00  0.00     0.000 C 
ENDROOT
BRANCH   1   2
ATOM      2  C   UNL     1       4.035  51.203   1.413  1.00  0.00     0.000 C 
BRANCH   2   3
ATOM      3  C   UNL     1       3.066  51.892   0.435  1.00  0.00     0.006 C 
BRANCH   3   4
ATOM      4  C   UNL     1       2.397  50.938  -0.567  1.00  0.00     0.053 C 
BRANCH   4   5
ATOM      5  C   UNL     1       2.603  51.377  -1.984  1.00  0.00     0.041 C 
ATOM      6  O   UNL     1       3.206  52.454  -2.233  1.00  0.00    -0.550 OA
ATOM      7  O   UNL     1       2.161  50.579  -3.032  1.00  0.00    -0.550 OA
ENDBRANCH   4   5
ENDBRANCH   3   4
ENDBRANCH   2   3
ENDBRANCH   1   2
BRANCH   1   8
ATOM      8  C   UNL     1       5.862  52.479   0.152  1.00  0.00     0.000 C 
BRANCH   8   9
ATOM      9  C   UNL     1       7.389  52.656   0.083  1.00  0.00    -0.000 C 
BRANCH   9  10
ATOM     10  C   UNL     1       7.950  52.393  -1.323  1.00  0.00    -0.000 C 
BRANCH  10  11
ATOM     11  C   UNL     1       9.257  51.580  -1.297  1.00  0.00    -0.000 C 
BRANCH  11  12
ATOM     12  C   UNL     1      10.411  52.344  -0.629  1.00  0.00    -0.003 C 
ATOM     13  C   UNL     1      11.540  52.679  -1.604  1.00  0.00     0.004 C 
ENDBRANCH  11  12
ENDBRANCH  10  11
ENDBRANCH   9  10
ENDBRANCH   8   9
ENDBRANCH   1   8
TORSDOF 9
ENDMDL
MODEL 2
REMARK VINA RESULT:    -4.380      2.295      5.468
REMARK INTER + INTRA:          -7.097
REMARK INTER:                  -6.319
REMARK INTRA:                  -0.778
REMARK UNBOUND:                -0.413
REMARK SMILES CCCCCCCCCCC(=O)[O-]
REMARK SMILES IDX 7 1 8 2 9 3 10 4 11 5 12 6 13 7 6 8 5 9 4 10 3 11 2 12 1 13
REMARK H PARENT
REMARK Flexibility Score: inf
ROOT
ATOM      1  C   UNL     1       3.678  51.928   1.466  1.00  0.00     0.000 C 
ENDROOT
BRANCH   1   2
ATOM      2  C   UNL     1       5.214  51.868   1.392  1.00  0.00     0.000 C 
BRANCH   2   3
ATOM      3  C   UNL     1       5.774  52.552   0.130  1.00  0.00     0.006 C 
BRANCH   3   4
ATOM      4  C   UNL     1       7.309  52.585   0.060  1.00  0.00     0.053 C 
BRANCH   4   5
ATOM      5  C   UNL     1       7.808  52.507  -1.350  1.00  0.00     0.041 C 
ATOM      6  O   UNL     1       8.938  52.978  -1.649  1.00  0.00    -0.550 OA
ATOM      7  O   UNL     1       7.043  51.884  -2.327  1.00  0.00    -0.550 OA
ENDBRANCH   4   5
ENDBRANCH   3   4
ENDBRANCH   2   3
ENDBRANCH   1   2
BRANCH   1   8
ATOM      8  C   UNL     1       3.034  50.535   1.552  1.00  0.00     0.000 C 
BRANCH   8   9
ATOM      9  C   UNL     1       1.935  50.327   0.495  1.00  0.00    -0.000 C 
BRANCH   9  10
ATOM     10  C   UNL     1       1.876  51.473  -0.527  1.00  0.00    -0.000 C 
BRANCH  10  11
ATOM     11  C   UNL     1       2.199  51.008  -1.959  1.00  0.00    -0.000 C 
BRANCH  11  12
ATOM     12  C   UNL     1       3.407  51.746  -2.558  1.00  0.00    -0.003 C 
ATOM     13  C   UNL     1       3.675  51.357  -4.011  1.00  0.00     0.004 C 
ENDBRANCH  11  12
ENDBRANCH  10  11
ENDBRANCH   9  10
ENDBRANCH   8   9
ENDBRANCH   1   8
TORSDOF 9
ENDMDL
MODEL 3
REMARK VINA RESULT:    -4.373      2.479      2.939
REMARK INTER + INTRA:          -7.087
REMARK INTER:                  -6.087
REMARK INTRA:                  -1.001
REMARK UNBOUND:                -0.413
REMARK SMILES CCCCCCCCCCC(=O)[O-]
REMARK SMILES IDX 7 1 8 2 9 3 10 4 11 5 12 6 13 7 6 8 5 9 4 10 3 11 2 12 1 13
REMARK H PARENT
REMARK Flexibility Score: inf
ROOT
ATOM      1  C   UNL     1       3.753  52.042   1.324  1.00  0.00     0.000 C 
ENDROOT
BRANCH   1   2
ATOM      2  C   UNL     1       3.011  50.702   1.177  1.00  0.00     0.000 C 
BRANCH   2   3
ATOM      3  C   UNL     1       2.177  50.623  -0.115  1.00  0.00     0.006 C 
BRANCH   3   4
ATOM      4  C   UNL     1       1.875  51.988  -0.755  1.00  0.00     0.053 C 
BRANCH   4   5
ATOM      5  C   UNL     1       2.028  51.956  -2.245  1.00  0.00     0.041 C 
ATOM      6  O   UNL     1       2.071  53.031  -2.900  1.00  0.00    -0.550 OA
ATOM      7  O   UNL     1       2.157  50.742  -2.906  1.00  0.00    -0.550 OA
ENDBRANCH   4   5
ENDBRANCH   3   4
ENDBRANCH   2   3
ENDBRANCH   1   2
BRANCH   1   8
ATOM      8  C   UNL     1       5.270  51.864   1.494  1.00  0.00     0.000 C 
BRANCH   8   9
ATOM      9  C   UNL     1       6.076  52.628   0.429  1.00  0.00    -0.000 C 
BRANCH   9  10
ATOM     10  C   UNL     1       5.677  52.239  -1.003  1.00  0.00    -0.000 C 
BRANCH  10  11
ATOM     11  C   UNL     1       5.428  53.463  -1.903  1.00  0.00    -0.000 C 
BRANCH  11  12
ATOM     12  C   UNL     1       5.853  53.218  -3.359  1.00  0.00    -0.003 C 
ATOM     13  C   UNL     1       5.368  51.871  -3.897  1.00  0.00     0.004 C 
ENDBRANCH  11  12
ENDBRANCH  10  11
ENDBRANCH   9  10
ENDBRANCH   8   9
ENDBRANCH   1   8
TORSDOF 9
ENDMDL
MODEL 4
REMARK VINA RESULT:    -4.351      3.281      4.842
REMARK INTER + INTRA:          -7.054
REMARK INTER:                  -6.118
REMARK INTRA:                  -0.936
REMARK UNBOUND:                -0.413
REMARK SMILES CCCCCCCCCCC(=O)[O-]
REMARK SMILES IDX 7 1 8 2 9 3 10 4 11 5 12 6 13 7 6 8 5 9 4 10 3 11 2 12 1 13
REMARK H PARENT
REMARK Flexibility Score: inf
ROOT
ATOM      1  C   UNL     1       3.113  50.748   1.509  1.00  0.00     0.000 C 
ENDROOT
BRANCH   1   2
ATOM      2  C   UNL     1       4.277  51.627   1.018  1.00  0.00     0.000 C 
BRANCH   2   3
ATOM      3  C   UNL     1       4.140  53.095   1.462  1.00  0.00     0.006 C 
BRANCH   3   4
ATOM      4  C   UNL     1       4.461  54.119   0.361  1.00  0.00     0.053 C 
BRANCH   4   5
ATOM      5  C   UNL     1       3.358  55.117   0.183  1.00  0.00     0.041 C 
ATOM      6  O   UNL     1       2.190  54.729  -0.086  1.00  0.00    -0.550 OA
ATOM      7  O   UNL     1       3.612  56.472   0.348  1.00  0.00    -0.550 OA
ENDBRANCH   4   5
ENDBRANCH   3   4
ENDBRANCH   2   3
ENDBRANCH   1   2
BRANCH   1   8
ATOM      8  C   UNL     1       2.246  50.215   0.356  1.00  0.00     0.000 C 
BRANCH   8   9
ATOM      9  C   UNL     1       1.875  51.312  -0.657  1.00  0.00    -0.000 C 
BRANCH   9  10
ATOM     10  C   UNL     1       2.449  51.040  -2.057  1.00  0.00    -0.000 C 
BRANCH  10  11
ATOM     11  C   UNL     1       3.314  52.200  -2.579  1.00  0.00    -0.000 C 
BRANCH  11  12
ATOM     12  C   UNL     1       4.427  51.724  -3.525  1.00  0.00    -0.003 C 
ATOM     13  C   UNL     1       5.826  52.044  -2.999  1.00  0.00     0.004 C 
ENDBRANCH  11  12
ENDBRANCH  10  11
ENDBRANCH   9  10
ENDBRANCH   8   9
ENDBRANCH   1   8
TORSDOF 9
ENDMDL
MODEL 5
REMARK VINA RESULT:    -4.324      2.469      5.411
REMARK INTER + INTRA:          -7.012
REMARK INTER:                  -5.907
REMARK INTRA:                  -1.105
REMARK UNBOUND:                -0.413
REMARK SMILES CCCCCCCCCCC(=O)[O-]
REMARK SMILES IDX 7 1 8 2 9 3 10 4 11 5 12 6 13 7 6 8 5 9 4 10 3 11 2 12 1 13
REMARK H PARENT
REMARK Flexibility Score: inf
ROOT
ATOM      1  C   UNL     1       5.171  52.028   1.106  1.00  0.00     0.000 C 
ENDROOT
BRANCH   1   2
ATOM      2  C   UNL     1       5.459  52.873  -0.148  1.00  0.00     0.000 C 
BRANCH   2   3
ATOM      3  C   UNL     1       6.562  52.264  -1.033  1.00  0.00     0.006 C 
BRANCH   3   4
ATOM      4  C   UNL     1       6.098  51.885  -2.448  1.00  0.00     0.053 C 
BRANCH   4   5
ATOM      5  C   UNL     1       5.946  53.085  -3.330  1.00  0.00     0.041 C 
ATOM      6  O   UNL     1       4.966  53.174  -4.117  1.00  0.00    -0.550 OA
ATOM      7  O   UNL     1       6.866  54.123  -3.260  1.00  0.00    -0.550 OA
ENDBRANCH   4   5
ENDBRANCH   3   4
ENDBRANCH   2   3
ENDBRANCH   1   2
BRANCH   1   8
ATOM      8  C   UNL     1       3.685  52.035   1.497  1.00  0.00     0.000 C 
BRANCH   8   9
ATOM      9  C   UNL     1       3.009  50.671   1.269  1.00  0.00    -0.000 C 
BRANCH   9  10
ATOM     10  C   UNL     1       2.256  50.604  -0.069  1.00  0.00    -0.000 C 
BRANCH  10  11
ATOM     11  C   UNL     1       1.879  51.995  -0.608  1.00  0.00    -0.000 C 
BRANCH  11  12
ATOM     12  C   UNL     1       2.202  52.154  -2.102  1.00  0.00    -0.003 C 
ATOM     13  C   UNL     1       2.343  50.812  -2.821  1.00  0.00     0.004 C 
ENDBRANCH  11  12
ENDBRANCH  10  11
ENDBRANCH   9  10
ENDBRANCH   8   9
ENDBRANCH   1   8
TORSDOF 9
ENDMDL
MODEL 6
REMARK VINA RESULT:    -4.316      3.509      4.998
REMARK INTER + INTRA:          -7.000
REMARK INTER:                  -6.167
REMARK INTRA:                  -0.833
REMARK UNBOUND:                -0.413
REMARK SMILES CCCCCCCCCCC(=O)[O-]
REMARK SMILES IDX 7 1 8 2 9 3 10 4 11 5 12 6 13 7 6 8 5 9 4 10 3 11 2 12 1 13
REMARK H PARENT
REMARK Flexibility Score: inf
ROOT
ATOM      1  C   UNL     1       2.309  50.338  -0.519  1.00  0.00     0.000 C 
ENDROOT
BRANCH   1   2
ATOM      2  C   UNL     1       2.080  51.346  -1.660  1.00  0.00     0.000 C 
BRANCH   2   3
ATOM      3  C   UNL     1       2.280  50.722  -3.053  1.00  0.00     0.006 C 
BRANCH   3   4
ATOM      4  C   UNL     1       2.520  51.745  -4.174  1.00  0.00     0.053 C 
BRANCH   4   5
ATOM      5  C   UNL     1       3.926  51.697  -4.687  1.00  0.00     0.041 C 
ATOM      6  O   UNL     1       4.168  51.953  -5.897  1.00  0.00    -0.550 OA
ATOM      7  O   UNL     1       4.973  51.405  -3.823  1.00  0.00    -0.550 OA
ENDBRANCH   4   5
ENDBRANCH   3   4
ENDBRANCH   2   3
ENDBRANCH   1   2
BRANCH   1   8
ATOM      8  C   UNL     1       2.487  51.020   0.847  1.00  0.00     0.000 C 
BRANCH   8   9
ATOM      9  C   UNL     1       3.960  51.084   1.287  1.00  0.00    -0.000 C 
BRANCH   9  10
ATOM     10  C   UNL     1       4.653  52.380   0.838  1.00  0.00    -0.000 C 
BRANCH  10  11
ATOM     11  C   UNL     1       3.816  53.636   1.143  1.00  0.00    -0.000 C 
BRANCH  11  12
ATOM     12  C   UNL     1       3.496  54.450  -0.120  1.00  0.00    -0.003 C 
ATOM     13  C   UNL     1       2.001  54.731  -0.278  1.00  0.00     0.004 C 
ENDBRANCH  11  12
ENDBRANCH  10  11
ENDBRANCH   9  10
ENDBRANCH   8   9
ENDBRANCH   1   8
TORSDOF 9
ENDMDL
MODEL 7
REMARK VINA RESULT:    -4.315      3.114      5.074
REMARK INTER + INTRA:          -6.999
REMARK INTER:                  -6.003
REMARK INTRA:                  -0.996
REMARK UNBOUND:                -0.413
REMARK SMILES CCCCCCCCCCC(=O)[O-]
REMARK SMILES IDX 7 1 8 2 9 3 10 4 11 5 12 6 13 7 6 8 5 9 4 10 3 11 2 12 1 13
REMARK H PARENT
REMARK Flexibility Score: inf
ROOT
ATOM      1  C   UNL     1       3.286  50.763   1.438  1.00  0.00     0.000 C 
ENDROOT
BRANCH   1   2
ATOM      2  C   UNL     1       4.078  52.063   1.210  1.00  0.00     0.000 C 
BRANCH   2   3
ATOM      3  C   UNL     1       5.568  51.921   1.576  1.00  0.00     0.006 C 
BRANCH   3   4
ATOM      4  C   UNL     1       6.516  52.736   0.684  1.00  0.00     0.053 C 
BRANCH   4   5
ATOM      5  C   UNL     1       6.185  54.197   0.698  1.00  0.00     0.041 C 
ATOM      6  O   UNL     1       5.859  54.783  -0.368  1.00  0.00    -0.550 OA
ATOM      7  O   UNL     1       6.202  54.903   1.894  1.00  0.00    -0.550 OA
ENDBRANCH   4   5
ENDBRANCH   3   4
ENDBRANCH   2   3
ENDBRANCH   1   2
BRANCH   1   8
ATOM      8  C   UNL     1       2.218  50.524   0.358  1.00  0.00     0.000 C 
BRANCH   8   9
ATOM      9  C   UNL     1       2.286  51.560  -0.778  1.00  0.00    -0.000 C 
BRANCH   9  10
ATOM     10  C   UNL     1       2.195  50.915  -2.170  1.00  0.00    -0.000 C 
BRANCH  10  11
ATOM     11  C   UNL     1       3.287  51.418  -3.130  1.00  0.00    -0.000 C 
BRANCH  11  12
ATOM     12  C   UNL     1       4.380  52.221  -2.407  1.00  0.00    -0.003 C 
ATOM     13  C   UNL     1       5.764  52.025  -3.027  1.00  0.00     0.004 C 
ENDBRANCH  11  12
ENDBRANCH  10  11
ENDBRANCH   9  10
ENDBRANCH   8   9
ENDBRANCH   1   8
TORSDOF 9
ENDMDL
MODEL 8
REMARK VINA RESULT:    -4.312      2.816      3.665
REMARK INTER + INTRA:          -6.993
REMARK INTER:                  -5.778
REMARK INTRA:                  -1.216
REMARK UNBOUND:                -0.413
REMARK SMILES CCCCCCCCCCC(=O)[O-]
REMARK SMILES IDX 7 1 8 2 9 3 10 4 11 5 12 6 13 7 6 8 5 9 4 10 3 11 2 12 1 13
REMARK H PARENT
REMARK Flexibility Score: inf
ROOT
ATOM      1  C   UNL     1       2.080  50.851  -0.059  1.00  0.00     0.000 C 
ENDROOT
BRANCH   1   2
ATOM      2  C   UNL     1       1.875  52.322  -0.462  1.00  0.00     0.000 C 
BRANCH   2   3
ATOM      3  C   UNL     1       2.062  52.555  -1.973  1.00  0.00     0.006 C 
BRANCH   3   4
ATOM      4  C   UNL     1       2.502  51.306  -2.753  1.00  0.00     0.053 C 
BRANCH   4   5
ATOM      5  C   UNL     1       3.314  51.657  -3.962  1.00  0.00     0.041 C 
ATOM      6  O   UNL     1       4.480  51.200  -4.097  1.00  0.00    -0.550 OA
ATOM      7  O   UNL     1       2.771  52.459  -4.958  1.00  0.00    -0.550 OA
ENDBRANCH   4   5
ENDBRANCH   3   4
ENDBRANCH   2   3
ENDBRANCH   1   2
BRANCH   1   8
ATOM      8  C   UNL     1       3.017  50.694   1.150  1.00  0.00     0.000 C 
BRANCH   8   9
ATOM      9  C   UNL     1       3.763  51.996   1.490  1.00  0.00    -0.000 C 
BRANCH   9  10
ATOM     10  C   UNL     1       5.259  51.925   1.146  1.00  0.00    -0.000 C 
BRANCH  10  11
ATOM     11  C   UNL     1       5.543  52.239  -0.334  1.00  0.00    -0.000 C 
BRANCH  11  12
ATOM     12  C   UNL     1       5.413  53.737  -0.652  1.00  0.00    -0.003 C 
ATOM     13  C   UNL     1       5.709  54.057  -2.117  1.00  0.00     0.004 C 
ENDBRANCH  11  12
ENDBRANCH  10  11
ENDBRANCH   9  10
ENDBRANCH   8   9
ENDBRANCH   1   8
TORSDOF 9
ENDMDL
MODEL 9
REMARK VINA RESULT:    -4.217      2.809      5.765
REMARK INTER + INTRA:          -6.850
REMARK INTER:                  -5.985
REMARK INTRA:                  -0.865
REMARK UNBOUND:                -0.413
REMARK SMILES CCCCCCCCCCC(=O)[O-]
REMARK SMILES IDX 7 1 8 2 9 3 10 4 11 5 12 6 13 7 6 8 5 9 4 10 3 11 2 12 1 13
REMARK H PARENT
REMARK Flexibility Score: inf
ROOT
ATOM      1  C   UNL     1       4.130  51.539  -3.719  1.00  0.00     0.000 C 
ENDROOT
BRANCH   1   2
ATOM      2  C   UNL     1       5.601  51.961  -3.557  1.00  0.00     0.000 C 
BRANCH   2   3
ATOM      3  C   UNL     1       6.036  52.045  -2.082  1.00  0.00     0.006 C 
BRANCH   3   4
ATOM      4  C   UNL     1       7.496  52.477  -1.878  1.00  0.00     0.053 C 
BRANCH   4   5
ATOM      5  C   UNL     1       7.617  53.949  -1.629  1.00  0.00     0.041 C 
ATOM      6  O   UNL     1       8.367  54.655  -2.355  1.00  0.00    -0.550 OA
ATOM      7  O   UNL     1       6.875  54.548  -0.620  1.00  0.00    -0.550 OA
ENDBRANCH   4   5
ENDBRANCH   3   4
ENDBRANCH   2   3
ENDBRANCH   1   2
BRANCH   1   8
ATOM      8  C   UNL     1       3.245  52.020  -2.558  1.00  0.00     0.000 C 
BRANCH   8   9
ATOM      9  C   UNL     1       2.223  50.957  -2.115  1.00  0.00    -0.000 C 
BRANCH   9  10
ATOM     10  C   UNL     1       2.239  50.720  -0.597  1.00  0.00    -0.000 C 
BRANCH  10  11
ATOM     11  C   UNL     1       3.058  51.781   0.160  1.00  0.00    -0.000 C 
BRANCH  11  12
ATOM     12  C   UNL     1       3.897  51.176   1.296  1.00  0.00    -0.003 C 
ATOM     13  C   UNL     1       5.229  51.899   1.497  1.00  0.00     0.004 C 
ENDBRANCH  11  12
ENDBRANCH  10  11
ENDBRANCH   9  10
ENDBRANCH   8   9
ENDBRANCH   1   8
TORSDOF 9
ENDMDL
