MODEL 1
REMARK VINA RESULT:    43.216      0.000      0.000
REMARK INTER + INTRA:          53.098
REMARK INTER:                  53.322
REMARK INTRA:                  -0.224
REMARK UNBOUND:                -0.224
REMARK SMILES O=c1c(O)c(-c2cc(O)c(O)c(O)c2)oc2cc(O)cc(O)c12
REMARK SMILES IDX 5 1 3 2 2 3 1 4 23 5 21 6 20 7 18 8 17 9 16 10 15 11 6 12
REMARK SMILES IDX 7 13 8 14 14 15 10 16 12 17 9 18 11 20 13 22 4 24 22 26
REMARK SMILES IDX 19 28
REMARK H PARENT 9 19 11 21 13 23 4 25 22 27 19 29
REMARK Flexibility Score: inf
ROOT
ATOM      1  C   UNL     1      31.022  11.504  -1.352  1.00  0.00     0.180 A 
ATOM      2  C   UNL     1      29.730  11.463  -0.798  1.00  0.00     0.208 A 
ATOM      3  C   UNL     1      29.276  10.268  -0.218  1.00  0.00     0.238 A 
ATOM      4  O   UNL     1      28.140  10.253   0.324  1.00  0.00    -0.285 OA
ATOM      5  C   UNL     1      30.111   9.125  -0.214  1.00  0.00     0.111 A 
ATOM      6  C   UNL     1      29.738   7.851   0.311  1.00  0.00     0.134 A 
ATOM      7  C   UNL     1      30.691   6.827   0.381  1.00  0.00     0.093 A 
ATOM      8  C   UNL     1      31.985   7.012  -0.114  1.00  0.00     0.123 A 
ATOM      9  C   UNL     1      32.339   8.233  -0.682  1.00  0.00     0.094 A 
ATOM     10  C   UNL     1      31.422   9.284  -0.733  1.00  0.00     0.146 A 
ATOM     11  O   UNL     1      31.804  10.435  -1.273  1.00  0.00    -0.452 OA
ENDROOT
BRANCH   1  12
ATOM     12  C   UNL     1      31.561  12.720  -2.003  1.00  0.00     0.029 A 
ATOM     13  C   UNL     1      30.991  13.233  -3.182  1.00  0.00     0.062 A 
ATOM     14  C   UNL     1      31.530  14.371  -3.796  1.00  0.00     0.162 A 
ATOM     15  C   UNL     1      32.700  13.342  -1.469  1.00  0.00     0.062 A 
ATOM     16  C   UNL     1      32.657  15.001  -3.240  1.00  0.00     0.200 A 
ATOM     17  C   UNL     1      33.243  14.479  -2.074  1.00  0.00     0.162 A 
BRANCH  14  18
ATOM     18  O   UNL     1      30.952  14.876  -4.961  1.00  0.00    -0.504 OA
ATOM     19  H   UNL     1      31.515  15.155  -5.755  1.00  0.00     0.293 HD
ENDBRANCH  14  18
BRANCH  16  20
ATOM     20  O   UNL     1      33.204  16.137  -3.837  1.00  0.00    -0.502 OA
ATOM     21  H   UNL     1      34.020  16.606  -3.461  1.00  0.00     0.293 HD
ENDBRANCH  16  20
BRANCH  17  22
ATOM     22  O   UNL     1      34.367  15.076  -1.504  1.00  0.00    -0.504 OA
ATOM     23  H   UNL     1      34.801  15.900  -1.903  1.00  0.00     0.293 HD
ENDBRANCH  17  22
ENDBRANCH   1  12
BRANCH   2  24
ATOM     24  O   UNL     1      28.930  12.609  -0.795  1.00  0.00    -0.502 OA
ATOM     25  H   UNL     1      27.928  12.573  -0.648  1.00  0.00     0.293 HD
ENDBRANCH   2  24
BRANCH   6  26
ATOM     26  O   UNL     1      28.449   7.533   0.747  1.00  0.00    -0.507 OA
ATOM     27  H   UNL     1      28.235   7.057   1.611  1.00  0.00     0.293 HD
ENDBRANCH   6  26
BRANCH   8  28
ATOM     28  O   UNL     1      32.921   5.983  -0.055  1.00  0.00    -0.508 OA
ATOM     29  H   UNL     1      33.384   5.638  -0.887  1.00  0.00     0.293 HD
ENDBRANCH   8  28
TORSDOF 7
ENDMDL
MODEL 2
REMARK VINA RESULT:    44.006      1.486      3.065
REMARK INTER + INTRA:          54.073
REMARK INTER:                  54.401
REMARK INTRA:                  -0.328
REMARK UNBOUND:                -0.224
REMARK SMILES O=c1c(O)c(-c2cc(O)c(O)c(O)c2)oc2cc(O)cc(O)c12
REMARK SMILES IDX 5 1 3 2 2 3 1 4 23 5 21 6 20 7 18 8 17 9 16 10 15 11 6 12
REMARK SMILES IDX 7 13 8 14 14 15 10 16 12 17 9 18 11 20 13 22 4 24 22 26
REMARK SMILES IDX 19 28
REMARK H PARENT 9 19 11 21 13 23 4 25 22 27 19 29
REMARK Flexibility Score: inf
ROOT
ATOM      1  C   UNL     1      32.149  12.374  -1.859  1.00  0.00     0.180 A 
ATOM      2  C   UNL     1      33.084  11.371  -2.171  1.00  0.00     0.208 A 
ATOM      3  C   UNL     1      32.819  10.048  -1.782  1.00  0.00     0.238 A 
ATOM      4  O   UNL     1      33.634   9.147  -2.112  1.00  0.00    -0.285 OA
ATOM      5  C   UNL     1      31.631   9.746  -1.075  1.00  0.00     0.111 A 
ATOM      6  C   UNL     1      31.279   8.448  -0.598  1.00  0.00     0.134 A 
ATOM      7  C   UNL     1      30.019   8.240  -0.024  1.00  0.00     0.093 A 
ATOM      8  C   UNL     1      29.123   9.299   0.148  1.00  0.00     0.123 A 
ATOM      9  C   UNL     1      29.481  10.581  -0.261  1.00  0.00     0.094 A 
ATOM     10  C   UNL     1      30.716  10.812  -0.869  1.00  0.00     0.146 A 
ATOM     11  O   UNL     1      31.014  12.047  -1.253  1.00  0.00    -0.452 OA
ENDROOT
BRANCH   1  12
ATOM     12  C   UNL     1      32.370  13.794  -2.213  1.00  0.00     0.029 A 
ATOM     13  C   UNL     1      31.790  14.361  -3.362  1.00  0.00     0.062 A 
ATOM     14  C   UNL     1      32.030  15.701  -3.694  1.00  0.00     0.162 A 
ATOM     15  C   UNL     1      33.223  14.578  -1.422  1.00  0.00     0.062 A 
ATOM     16  C   UNL     1      32.867  16.485  -2.882  1.00  0.00     0.200 A 
ATOM     17  C   UNL     1      33.467  15.917  -1.745  1.00  0.00     0.162 A 
BRANCH  14  18
ATOM     18  O   UNL     1      31.443  16.254  -4.831  1.00  0.00    -0.504 OA
ATOM     19  H   UNL     1      30.731  15.760  -5.356  1.00  0.00     0.293 HD
ENDBRANCH  14  18
BRANCH  16  20
ATOM     20  O   UNL     1      33.114  17.823  -3.196  1.00  0.00    -0.502 OA
ATOM     21  H   UNL     1      33.097  18.166  -4.149  1.00  0.00     0.293 HD
ENDBRANCH  16  20
BRANCH  17  22
ATOM     22  O   UNL     1      34.309  16.667  -0.924  1.00  0.00    -0.504 OA
ATOM     23  H   UNL     1      34.973  16.234  -0.293  1.00  0.00     0.293 HD
ENDBRANCH  17  22
ENDBRANCH   1  12
BRANCH   2  24
ATOM     24  O   UNL     1      34.241  11.688  -2.888  1.00  0.00    -0.502 OA
ATOM     25  H   UNL     1      34.631  11.071  -3.591  1.00  0.00     0.293 HD
ENDBRANCH   2  24
BRANCH   6  26
ATOM     26  O   UNL     1      32.136   7.343  -0.638  1.00  0.00    -0.507 OA
ATOM     27  H   UNL     1      33.048   7.308  -0.209  1.00  0.00     0.293 HD
ENDBRANCH   6  26
BRANCH   8  28
ATOM     28  O   UNL     1      27.877   9.086   0.733  1.00  0.00    -0.508 OA
ATOM     29  H   UNL     1      27.030   9.050   0.179  1.00  0.00     0.293 HD
ENDBRANCH   8  28
TORSDOF 7
ENDMDL
MODEL 3
REMARK VINA RESULT:    44.909      1.260      7.177
REMARK INTER + INTRA:          55.187
REMARK INTER:                  55.469
REMARK INTRA:                  -0.282
REMARK UNBOUND:                -0.224
REMARK SMILES O=c1c(O)c(-c2cc(O)c(O)c(O)c2)oc2cc(O)cc(O)c12
REMARK SMILES IDX 5 1 3 2 2 3 1 4 23 5 21 6 20 7 18 8 17 9 16 10 15 11 6 12
REMARK SMILES IDX 7 13 8 14 14 15 10 16 12 17 9 18 11 20 13 22 4 24 22 26
REMARK SMILES IDX 19 28
REMARK H PARENT 9 19 11 21 13 23 4 25 22 27 19 29
REMARK Flexibility Score: inf
ROOT
ATOM      1  C   UNL     1      31.618  11.657  -1.016  1.00  0.00     0.180 A 
ATOM      2  C   UNL     1      32.492  12.361  -0.169  1.00  0.00     0.208 A 
ATOM      3  C   UNL     1      33.007  13.596  -0.597  1.00  0.00     0.238 A 
ATOM      4  O   UNL     1      33.745  14.246   0.187  1.00  0.00    -0.285 OA
ATOM      5  C   UNL     1      32.655  14.103  -1.871  1.00  0.00     0.111 A 
ATOM      6  C   UNL     1      33.148  15.323  -2.422  1.00  0.00     0.134 A 
ATOM      7  C   UNL     1      32.631  15.792  -3.636  1.00  0.00     0.093 A 
ATOM      8  C   UNL     1      31.686  15.051  -4.351  1.00  0.00     0.123 A 
ATOM      9  C   UNL     1      31.242  13.830  -3.849  1.00  0.00     0.094 A 
ATOM     10  C   UNL     1      31.712  13.354  -2.624  1.00  0.00     0.146 A 
ATOM     11  O   UNL     1      31.256  12.190  -2.177  1.00  0.00    -0.452 OA
ENDROOT
BRANCH   1  12
ATOM     12  C   UNL     1      31.055  10.339  -0.646  1.00  0.00     0.029 A 
ATOM     13  C   UNL     1      29.717  10.205  -0.233  1.00  0.00     0.062 A 
ATOM     14  C   UNL     1      29.208   8.953   0.137  1.00  0.00     0.162 A 
ATOM     15  C   UNL     1      31.885   9.208  -0.648  1.00  0.00     0.062 A 
ATOM     16  C   UNL     1      30.042   7.821   0.109  1.00  0.00     0.200 A 
ATOM     17  C   UNL     1      31.385   7.954  -0.281  1.00  0.00     0.162 A 
BRANCH  14  18
ATOM     18  O   UNL     1      27.878   8.830   0.537  1.00  0.00    -0.504 OA
ATOM     19  H   UNL     1      27.127   8.731  -0.136  1.00  0.00     0.293 HD
ENDBRANCH  14  18
BRANCH  16  20
ATOM     20  O   UNL     1      29.550   6.566   0.471  1.00  0.00    -0.502 OA
ATOM     21  H   UNL     1      30.039   5.961   1.120  1.00  0.00     0.293 HD
ENDBRANCH  16  20
BRANCH  17  22
ATOM     22  O   UNL     1      32.239   6.852  -0.311  1.00  0.00    -0.504 OA
ATOM     23  H   UNL     1      33.242   6.949  -0.417  1.00  0.00     0.293 HD
ENDBRANCH  17  22
ENDBRANCH   1  12
BRANCH   2  24
ATOM     24  O   UNL     1      32.810  11.852   1.093  1.00  0.00    -0.502 OA
ATOM     25  H   UNL     1      32.104  11.659   1.794  1.00  0.00     0.293 HD
ENDBRANCH   2  24
BRANCH   6  26
ATOM     26  O   UNL     1      34.158  16.092  -1.836  1.00  0.00    -0.507 OA
ATOM     27  H   UNL     1      35.113  16.129  -2.158  1.00  0.00     0.293 HD
ENDBRANCH   6  26
BRANCH   8  28
ATOM     28  O   UNL     1      31.188  15.517  -5.565  1.00  0.00    -0.508 OA
ATOM     29  H   UNL     1      31.471  15.107  -6.447  1.00  0.00     0.293 HD
ENDBRANCH   8  28
TORSDOF 7
ENDMDL
