MODEL 1
REMARK VINA RESULT:    -7.745      0.000      0.000
REMARK INTER + INTRA:          -9.592
REMARK INTER:                  -9.330
REMARK INTRA:                  -0.262
REMARK UNBOUND:                -0.262
REMARK SMILES O=c1c(O)c(-c2ccc(O)cc2O)oc2cc(O)cc(O)c12
REMARK SMILES IDX 5 1 3 2 2 3 1 4 22 5 20 6 19 7 17 8 16 9 15 10 14 11 6 12
REMARK SMILES IDX 8 13 7 14 9 15 11 16 12 17 10 18 13 20 4 22 21 24 18 26
REMARK H PARENT 10 19 13 21 4 23 21 25 18 27
REMARK Flexibility Score: inf
ROOT
ATOM      1  C   UNL     1     203.346 207.443 276.817  1.00  0.00     0.184 A 
ATOM      2  C   UNL     1     204.200 208.500 276.458  1.00  0.00     0.208 A 
ATOM      3  C   UNL     1     204.614 209.404 277.447  1.00  0.00     0.238 A 
ATOM      4  O   UNL     1     205.383 210.354 277.138  1.00  0.00    -0.285 OA
ATOM      5  C   UNL     1     204.160 209.241 278.773  1.00  0.00     0.111 A 
ATOM      6  C   UNL     1     204.526 210.109 279.829  1.00  0.00     0.134 A 
ATOM      7  C   UNL     1     204.030 209.881 281.121  1.00  0.00     0.093 A 
ATOM      8  C   UNL     1     203.177 208.805 281.377  1.00  0.00     0.123 A 
ATOM      9  C   UNL     1     202.812 207.944 280.338  1.00  0.00     0.094 A 
ATOM     10  C   UNL     1     203.296 208.153 279.044  1.00  0.00     0.146 A 
ATOM     11  O   UNL     1     202.935 207.319 278.075  1.00  0.00    -0.451 OA
ENDROOT
BRANCH   1  12
ATOM     12  C   UNL     1     202.891 206.449 275.822  1.00  0.00     0.063 A 
ATOM     13  C   UNL     1     201.078 205.488 274.514  1.00  0.00     0.047 A 
ATOM     14  C   UNL     1     201.527 206.381 275.489  1.00  0.00     0.020 A 
ATOM     15  C   UNL     1     201.983 204.658 273.851  1.00  0.00     0.119 A 
ATOM     16  C   UNL     1     203.344 204.718 274.172  1.00  0.00     0.093 A 
ATOM     17  C   UNL     1     203.806 205.601 275.156  1.00  0.00     0.130 A 
BRANCH  15  18
ATOM     18  O   UNL     1     201.521 203.776 272.875  1.00  0.00    -0.508 OA
ATOM     19  H   UNL     1     201.588 203.996 271.888  1.00  0.00     0.293 HD
ENDBRANCH  15  18
BRANCH  17  20
ATOM     20  O   UNL     1     205.169 205.594 275.461  1.00  0.00    -0.507 OA
ATOM     21  H   UNL     1     205.892 205.718 274.764  1.00  0.00     0.293 HD
ENDBRANCH  17  20
ENDBRANCH   1  12
BRANCH   2  22
ATOM     22  O   UNL     1     204.613 208.647 275.131  1.00  0.00    -0.502 OA
ATOM     23  H   UNL     1     205.545 208.959 274.885  1.00  0.00     0.293 HD
ENDBRANCH   2  22
BRANCH   6  24
ATOM     24  O   UNL     1     205.377 211.193 279.606  1.00  0.00    -0.507 OA
ATOM     25  H   UNL     1     205.140 211.932 278.955  1.00  0.00     0.293 HD
ENDBRANCH   6  24
BRANCH   8  26
ATOM     26  O   UNL     1     202.697 208.602 282.669  1.00  0.00    -0.508 OA
ATOM     27  H   UNL     1     202.821 207.716 283.147  1.00  0.00     0.293 HD
ENDBRANCH   8  26
TORSDOF 6
ENDMDL
MODEL 2
REMARK VINA RESULT:    -7.420      1.816      6.553
REMARK INTER + INTRA:          -9.200
REMARK INTER:                  -8.818
REMARK INTRA:                  -0.382
REMARK UNBOUND:                -0.262
REMARK SMILES O=c1c(O)c(-c2ccc(O)cc2O)oc2cc(O)cc(O)c12
REMARK SMILES IDX 5 1 3 2 2 3 1 4 22 5 20 6 19 7 17 8 16 9 15 10 14 11 6 12
REMARK SMILES IDX 8 13 7 14 9 15 11 16 12 17 10 18 13 20 4 22 21 24 18 26
REMARK H PARENT 10 19 13 21 4 23 21 25 18 27
REMARK Flexibility Score: inf
ROOT
ATOM      1  C   UNL     1     203.008 206.786 277.581  1.00  0.00     0.184 A 
ATOM      2  C   UNL     1     204.290 206.823 277.005  1.00  0.00     0.208 A 
ATOM      3  C   UNL     1     204.441 206.448 275.662  1.00  0.00     0.238 A 
ATOM      4  O   UNL     1     205.585 206.480 275.133  1.00  0.00    -0.285 OA
ATOM      5  C   UNL     1     203.313 206.036 274.922  1.00  0.00     0.111 A 
ATOM      6  C   UNL     1     203.379 205.638 273.566  1.00  0.00     0.134 A 
ATOM      7  C   UNL     1     202.211 205.239 272.899  1.00  0.00     0.093 A 
ATOM      8  C   UNL     1     200.981 205.227 273.562  1.00  0.00     0.123 A 
ATOM      9  C   UNL     1     200.910 205.619 274.903  1.00  0.00     0.094 A 
ATOM     10  C   UNL     1     202.061 206.022 275.584  1.00  0.00     0.146 A 
ATOM     11  O   UNL     1     201.965 206.390 276.856  1.00  0.00    -0.451 OA
ENDROOT
BRANCH   1  12
ATOM     12  C   UNL     1     202.783 207.187 278.986  1.00  0.00     0.063 A 
ATOM     13  C   UNL     1     202.674 208.952 280.657  1.00  0.00     0.047 A 
ATOM     14  C   UNL     1     202.933 208.536 279.349  1.00  0.00     0.020 A 
ATOM     15  C   UNL     1     202.254 208.030 281.617  1.00  0.00     0.119 A 
ATOM     16  C   UNL     1     202.099 206.683 281.266  1.00  0.00     0.093 A 
ATOM     17  C   UNL     1     202.365 206.251 279.961  1.00  0.00     0.130 A 
BRANCH  15  18
ATOM     18  O   UNL     1     201.994 208.460 282.917  1.00  0.00    -0.508 OA
ATOM     19  H   UNL     1     201.150 208.971 283.147  1.00  0.00     0.293 HD
ENDBRANCH  15  18
BRANCH  17  20
ATOM     20  O   UNL     1     202.228 204.892 279.675  1.00  0.00    -0.507 OA
ATOM     21  H   UNL     1     201.348 204.471 279.402  1.00  0.00     0.293 HD
ENDBRANCH  17  20
ENDBRANCH   1  12
BRANCH   2  22
ATOM     22  O   UNL     1     205.391 207.214 277.771  1.00  0.00    -0.502 OA
ATOM     23  H   UNL     1     205.725 208.170 277.791  1.00  0.00     0.293 HD
ENDBRANCH   2  22
BRANCH   6  24
ATOM     24  O   UNL     1     204.592 205.639 272.875  1.00  0.00    -0.507 OA
ATOM     25  H   UNL     1     205.262 204.885 272.973  1.00  0.00     0.293 HD
ENDBRANCH   6  24
BRANCH   8  26
ATOM     26  O   UNL     1     199.837 204.824 272.878  1.00  0.00    -0.508 OA
ATOM     27  H   UNL     1     199.522 203.860 272.894  1.00  0.00     0.293 HD
ENDBRANCH   8  26
TORSDOF 6
ENDMDL
MODEL 3
REMARK VINA RESULT:    -7.234      1.526      6.712
REMARK INTER + INTRA:          -8.977
REMARK INTER:                  -8.594
REMARK INTRA:                  -0.383
REMARK UNBOUND:                -0.262
REMARK SMILES O=c1c(O)c(-c2ccc(O)cc2O)oc2cc(O)cc(O)c12
REMARK SMILES IDX 5 1 3 2 2 3 1 4 22 5 20 6 19 7 17 8 16 9 15 10 14 11 6 12
REMARK SMILES IDX 8 13 7 14 9 15 11 16 12 17 10 18 13 20 4 22 21 24 18 26
REMARK H PARENT 10 19 13 21 4 23 21 25 18 27
REMARK Flexibility Score: inf
ROOT
ATOM      1  C   UNL     1     203.355 207.882 276.745  1.00  0.00     0.184 A 
ATOM      2  C   UNL     1     204.304 207.012 276.180  1.00  0.00     0.208 A 
ATOM      3  C   UNL     1     203.888 206.097 275.203  1.00  0.00     0.238 A 
ATOM      4  O   UNL     1     204.731 205.313 274.687  1.00  0.00    -0.285 OA
ATOM      5  C   UNL     1     202.533 206.061 274.813  1.00  0.00     0.111 A 
ATOM      6  C   UNL     1     202.030 205.168 273.838  1.00  0.00     0.134 A 
ATOM      7  C   UNL     1     200.668 205.193 273.507  1.00  0.00     0.093 A 
ATOM      8  C   UNL     1     199.799 206.092 274.131  1.00  0.00     0.123 A 
ATOM      9  C   UNL     1     200.290 206.977 275.096  1.00  0.00     0.094 A 
ATOM     10  C   UNL     1     201.645 206.969 275.438  1.00  0.00     0.146 A 
ATOM     11  O   UNL     1     202.085 207.822 276.356  1.00  0.00    -0.451 OA
ENDROOT
BRANCH   1  12
ATOM     12  C   UNL     1     203.737 208.881 277.766  1.00  0.00     0.063 A 
ATOM     13  C   UNL     1     204.890 210.949 278.330  1.00  0.00     0.047 A 
ATOM     14  C   UNL     1     204.558 209.962 277.399  1.00  0.00     0.020 A 
ATOM     15  C   UNL     1     204.402 210.875 279.635  1.00  0.00     0.119 A 
ATOM     16  C   UNL     1     203.582 209.804 280.012  1.00  0.00     0.093 A 
ATOM     17  C   UNL     1     203.251 208.802 279.091  1.00  0.00     0.130 A 
BRANCH  15  18
ATOM     18  O   UNL     1     204.736 211.870 280.552  1.00  0.00    -0.508 OA
ATOM     19  H   UNL     1     204.035 212.487 280.945  1.00  0.00     0.293 HD
ENDBRANCH  15  18
BRANCH  17  20
ATOM     20  O   UNL     1     202.459 207.739 279.530  1.00  0.00    -0.507 OA
ATOM     21  H   UNL     1     201.494 207.850 279.815  1.00  0.00     0.293 HD
ENDBRANCH  17  20
ENDBRANCH   1  12
BRANCH   2  22
ATOM     22  O   UNL     1     205.635 207.056 276.605  1.00  0.00    -0.502 OA
ATOM     23  H   UNL     1     206.230 206.237 276.607  1.00  0.00     0.293 HD
ENDBRANCH   2  22
BRANCH   6  24
ATOM     24  O   UNL     1     202.872 204.257 273.196  1.00  0.00    -0.507 OA
ATOM     25  H   UNL     1     202.511 203.429 272.738  1.00  0.00     0.293 HD
ENDBRANCH   6  24
BRANCH   8  26
ATOM     26  O   UNL     1     198.450 206.095 273.785  1.00  0.00    -0.508 OA
ATOM     27  H   UNL     1     197.820 205.366 274.102  1.00  0.00     0.293 HD
ENDBRANCH   8  26
TORSDOF 6
ENDMDL
MODEL 4
REMARK VINA RESULT:    -7.222      1.454      6.745
REMARK INTER + INTRA:          -8.962
REMARK INTER:                  -8.558
REMARK INTRA:                  -0.404
REMARK UNBOUND:                -0.262
REMARK SMILES O=c1c(O)c(-c2ccc(O)cc2O)oc2cc(O)cc(O)c12
REMARK SMILES IDX 5 1 3 2 2 3 1 4 22 5 20 6 19 7 17 8 16 9 15 10 14 11 6 12
REMARK SMILES IDX 8 13 7 14 9 15 11 16 12 17 10 18 13 20 4 22 21 24 18 26
REMARK H PARENT 10 19 13 21 4 23 21 25 18 27
REMARK Flexibility Score: inf
ROOT
ATOM      1  C   UNL     1     203.007 207.174 276.989  1.00  0.00     0.184 A 
ATOM      2  C   UNL     1     204.010 206.361 276.432  1.00  0.00     0.208 A 
ATOM      3  C   UNL     1     203.720 205.622 275.275  1.00  0.00     0.238 A 
ATOM      4  O   UNL     1     204.612 204.892 274.765  1.00  0.00    -0.285 OA
ATOM      5  C   UNL     1     202.434 205.703 274.702  1.00  0.00     0.111 A 
ATOM      6  C   UNL     1     202.058 204.989 273.539  1.00  0.00     0.134 A 
ATOM      7  C   UNL     1     200.757 205.121 273.031  1.00  0.00     0.093 A 
ATOM      8  C   UNL     1     199.826 205.949 273.662  1.00  0.00     0.123 A 
ATOM      9  C   UNL     1     200.192 206.658 274.811  1.00  0.00     0.094 A 
ATOM     10  C   UNL     1     201.483 206.541 275.332  1.00  0.00     0.146 A 
ATOM     11  O   UNL     1     201.804 207.226 276.424  1.00  0.00    -0.451 OA
ENDROOT
BRANCH   1  12
ATOM     12  C   UNL     1     203.259 207.989 278.196  1.00  0.00     0.063 A 
ATOM     13  C   UNL     1     203.249 208.179 280.622  1.00  0.00     0.047 A 
ATOM     14  C   UNL     1     202.971 207.452 279.462  1.00  0.00     0.020 A 
ATOM     15  C   UNL     1     203.826 209.447 280.535  1.00  0.00     0.119 A 
ATOM     16  C   UNL     1     204.120 209.992 279.279  1.00  0.00     0.093 A 
ATOM     17  C   UNL     1     203.835 209.277 278.108  1.00  0.00     0.130 A 
BRANCH  15  18
ATOM     18  O   UNL     1     204.104 210.158 281.700  1.00  0.00    -0.508 OA
ATOM     19  H   UNL     1     205.016 210.122 282.138  1.00  0.00     0.293 HD
ENDBRANCH  15  18
BRANCH  17  20
ATOM     20  O   UNL     1     204.116 209.883 276.881  1.00  0.00    -0.507 OA
ATOM     21  H   UNL     1     204.933 210.460 276.724  1.00  0.00     0.293 HD
ENDBRANCH  17  20
ENDBRANCH   1  12
BRANCH   2  22
ATOM     22  O   UNL     1     205.267 206.285 277.038  1.00  0.00    -0.502 OA
ATOM     23  H   UNL     1     206.081 206.750 276.656  1.00  0.00     0.293 HD
ENDBRANCH   2  22
BRANCH   6  24
ATOM     24  O   UNL     1     202.964 204.153 272.885  1.00  0.00    -0.507 OA
ATOM     25  H   UNL     1     203.912 204.027 273.220  1.00  0.00     0.293 HD
ENDBRANCH   6  24
BRANCH   8  26
ATOM     26  O   UNL     1     198.540 206.061 273.138  1.00  0.00    -0.508 OA
ATOM     27  H   UNL     1     198.278 205.599 272.274  1.00  0.00     0.293 HD
ENDBRANCH   8  26
TORSDOF 6
ENDMDL
MODEL 5
REMARK VINA RESULT:    -6.998      3.294      4.961
REMARK INTER + INTRA:          -8.691
REMARK INTER:                  -8.409
REMARK INTRA:                  -0.282
REMARK UNBOUND:                -0.262
REMARK SMILES O=c1c(O)c(-c2ccc(O)cc2O)oc2cc(O)cc(O)c12
REMARK SMILES IDX 5 1 3 2 2 3 1 4 22 5 20 6 19 7 17 8 16 9 15 10 14 11 6 12
REMARK SMILES IDX 8 13 7 14 9 15 11 16 12 17 10 18 13 20 4 22 21 24 18 26
REMARK H PARENT 10 19 13 21 4 23 21 25 18 27
REMARK Flexibility Score: inf
ROOT
ATOM      1  C   UNL     1     200.838 207.187 275.061  1.00  0.00     0.184 A 
ATOM      2  C   UNL     1     201.942 206.878 274.246  1.00  0.00     0.208 A 
ATOM      3  C   UNL     1     203.084 206.317 274.836  1.00  0.00     0.238 A 
ATOM      4  O   UNL     1     204.079 206.032 274.114  1.00  0.00    -0.285 OA
ATOM      5  C   UNL     1     203.108 206.084 276.226  1.00  0.00     0.111 A 
ATOM      6  C   UNL     1     204.220 205.526 276.900  1.00  0.00     0.134 A 
ATOM      7  C   UNL     1     204.167 205.327 278.287  1.00  0.00     0.093 A 
ATOM      8  C   UNL     1     203.025 205.676 279.013  1.00  0.00     0.123 A 
ATOM      9  C   UNL     1     201.922 206.228 278.354  1.00  0.00     0.094 A 
ATOM     10  C   UNL     1     201.955 206.432 276.972  1.00  0.00     0.146 A 
ATOM     11  O   UNL     1     200.893 206.956 276.370  1.00  0.00    -0.451 OA
ENDROOT
BRANCH   1  12
ATOM     12  C   UNL     1     199.600 207.762 274.495  1.00  0.00     0.063 A 
ATOM     13  C   UNL     1     197.725 207.566 272.956  1.00  0.00     0.047 A 
ATOM     14  C   UNL     1     198.926 207.073 273.472  1.00  0.00     0.020 A 
ATOM     15  C   UNL     1     197.176 208.746 273.459  1.00  0.00     0.119 A 
ATOM     16  C   UNL     1     197.837 209.440 274.480  1.00  0.00     0.093 A 
ATOM     17  C   UNL     1     199.048 208.963 274.999  1.00  0.00     0.130 A 
BRANCH  15  18
ATOM     18  O   UNL     1     195.974 209.223 272.940  1.00  0.00    -0.508 OA
ATOM     19  H   UNL     1     195.274 208.596 272.563  1.00  0.00     0.293 HD
ENDBRANCH  15  18
BRANCH  17  20
ATOM     20  O   UNL     1     199.682 209.713 275.991  1.00  0.00    -0.507 OA
ATOM     21  H   UNL     1     200.113 209.297 276.807  1.00  0.00     0.293 HD
ENDBRANCH  17  20
ENDBRANCH   1  12
BRANCH   2  22
ATOM     22  O   UNL     1     201.895 207.143 272.875  1.00  0.00    -0.502 OA
ATOM     23  H   UNL     1     202.609 206.815 272.235  1.00  0.00     0.293 HD
ENDBRANCH   2  22
BRANCH   6  24
ATOM     24  O   UNL     1     205.376 205.167 276.203  1.00  0.00    -0.507 OA
ATOM     25  H   UNL     1     205.836 204.278 276.356  1.00  0.00     0.293 HD
ENDBRANCH   6  24
BRANCH   8  26
ATOM     26  O   UNL     1     202.998 205.470 280.391  1.00  0.00    -0.508 OA
ATOM     27  H   UNL     1     203.706 205.867 281.000  1.00  0.00     0.293 HD
ENDBRANCH   8  26
TORSDOF 6
ENDMDL
MODEL 6
REMARK VINA RESULT:    -6.965      1.683      2.372
REMARK INTER + INTRA:          -8.652
REMARK INTER:                  -8.259
REMARK INTRA:                  -0.394
REMARK UNBOUND:                -0.262
REMARK SMILES O=c1c(O)c(-c2ccc(O)cc2O)oc2cc(O)cc(O)c12
REMARK SMILES IDX 5 1 3 2 2 3 1 4 22 5 20 6 19 7 17 8 16 9 15 10 14 11 6 12
REMARK SMILES IDX 8 13 7 14 9 15 11 16 12 17 10 18 13 20 4 22 21 24 18 26
REMARK H PARENT 10 19 13 21 4 23 21 25 18 27
REMARK Flexibility Score: inf
ROOT
ATOM      1  C   UNL     1     201.955 207.993 276.746  1.00  0.00     0.184 A 
ATOM      2  C   UNL     1     203.052 208.807 276.412  1.00  0.00     0.208 A 
ATOM      3  C   UNL     1     203.824 209.361 277.443  1.00  0.00     0.238 A 
ATOM      4  O   UNL     1     204.812 210.090 277.156  1.00  0.00    -0.285 OA
ATOM      5  C   UNL     1     203.483 209.100 278.787  1.00  0.00     0.111 A 
ATOM      6  C   UNL     1     204.205 209.622 279.885  1.00  0.00     0.134 A 
ATOM      7  C   UNL     1     203.800 209.318 281.193  1.00  0.00     0.093 A 
ATOM      8  C   UNL     1     202.688 208.504 281.424  1.00  0.00     0.123 A 
ATOM      9  C   UNL     1     201.970 207.985 280.342  1.00  0.00     0.094 A 
ATOM     10  C   UNL     1     202.358 208.275 279.031  1.00  0.00     0.146 A 
ATOM     11  O   UNL     1     201.659 207.767 278.022  1.00  0.00    -0.451 OA
ENDROOT
BRANCH   1  12
ATOM     12  C   UNL     1     201.116 207.366 275.703  1.00  0.00     0.063 A 
ATOM     13  C   UNL     1     200.529 205.390 274.409  1.00  0.00     0.047 A 
ATOM     14  C   UNL     1     201.342 206.024 275.352  1.00  0.00     0.020 A 
ATOM     15  C   UNL     1     199.476 206.084 273.810  1.00  0.00     0.119 A 
ATOM     16  C   UNL     1     199.240 207.421 274.153  1.00  0.00     0.093 A 
ATOM     17  C   UNL     1     200.055 208.071 275.089  1.00  0.00     0.130 A 
BRANCH  15  18
ATOM     18  O   UNL     1     198.669 205.438 272.875  1.00  0.00    -0.508 OA
ATOM     19  H   UNL     1     199.031 204.701 272.282  1.00  0.00     0.293 HD
ENDBRANCH  15  18
BRANCH  17  20
ATOM     20  O   UNL     1     199.797 209.415 275.368  1.00  0.00    -0.507 OA
ATOM     21  H   UNL     1     198.865 209.777 275.526  1.00  0.00     0.293 HD
ENDBRANCH  17  20
ENDBRANCH   1  12
BRANCH   2  22
ATOM     22  O   UNL     1     203.350 209.065 275.071  1.00  0.00    -0.502 OA
ATOM     23  H   UNL     1     204.197 208.729 274.630  1.00  0.00     0.293 HD
ENDBRANCH   2  22
BRANCH   6  24
ATOM     24  O   UNL     1     205.321 210.438 279.689  1.00  0.00    -0.507 OA
ATOM     25  H   UNL     1     206.037 210.541 280.397  1.00  0.00     0.293 HD
ENDBRANCH   6  24
BRANCH   8  26
ATOM     26  O   UNL     1     202.306 208.219 282.733  1.00  0.00    -0.508 OA
ATOM     27  H   UNL     1     202.472 208.875 283.488  1.00  0.00     0.293 HD
ENDBRANCH   8  26
TORSDOF 6
ENDMDL
MODEL 7
REMARK VINA RESULT:    -6.943      1.235      2.871
REMARK INTER + INTRA:          -8.625
REMARK INTER:                  -8.285
REMARK INTRA:                  -0.340
REMARK UNBOUND:                -0.262
REMARK SMILES O=c1c(O)c(-c2ccc(O)cc2O)oc2cc(O)cc(O)c12
REMARK SMILES IDX 5 1 3 2 2 3 1 4 22 5 20 6 19 7 17 8 16 9 15 10 14 11 6 12
REMARK SMILES IDX 8 13 7 14 9 15 11 16 12 17 10 18 13 20 4 22 21 24 18 26
REMARK H PARENT 10 19 13 21 4 23 21 25 18 27
REMARK Flexibility Score: inf
ROOT
ATOM      1  C   UNL     1     202.766 207.174 277.220  1.00  0.00     0.184 A 
ATOM      2  C   UNL     1     202.493 206.847 278.559  1.00  0.00     0.208 A 
ATOM      3  C   UNL     1     202.904 207.727 279.570  1.00  0.00     0.238 A 
ATOM      4  O   UNL     1     202.662 207.446 280.776  1.00  0.00    -0.285 OA
ATOM      5  C   UNL     1     203.586 208.913 279.226  1.00  0.00     0.111 A 
ATOM      6  C   UNL     1     204.037 209.852 280.184  1.00  0.00     0.134 A 
ATOM      7  C   UNL     1     204.711 211.008 279.761  1.00  0.00     0.093 A 
ATOM      8  C   UNL     1     204.943 211.241 278.403  1.00  0.00     0.123 A 
ATOM      9  C   UNL     1     204.500 210.317 277.453  1.00  0.00     0.094 A 
ATOM     10  C   UNL     1     203.825 209.160 277.853  1.00  0.00     0.146 A 
ATOM     11  O   UNL     1     203.413 208.299 276.929  1.00  0.00    -0.451 OA
ENDROOT
BRANCH   1  12
ATOM     12  C   UNL     1     202.342 206.295 276.110  1.00  0.00     0.063 A 
ATOM     13  C   UNL     1     200.540 205.271 274.834  1.00  0.00     0.047 A 
ATOM     14  C   UNL     1     200.972 206.054 275.907  1.00  0.00     0.020 A 
ATOM     15  C   UNL     1     201.467 204.725 273.945  1.00  0.00     0.119 A 
ATOM     16  C   UNL     1     202.834 204.960 274.135  1.00  0.00     0.093 A 
ATOM     17  C   UNL     1     203.281 205.734 275.214  1.00  0.00     0.130 A 
BRANCH  15  18
ATOM     18  O   UNL     1     201.021 203.951 272.875  1.00  0.00    -0.508 OA
ATOM     19  H   UNL     1     201.670 203.491 272.247  1.00  0.00     0.293 HD
ENDBRANCH  15  18
BRANCH  17  20
ATOM     20  O   UNL     1     204.657 205.906 275.377  1.00  0.00    -0.507 OA
ATOM     21  H   UNL     1     205.234 206.404 274.710  1.00  0.00     0.293 HD
ENDBRANCH  17  20
ENDBRANCH   1  12
BRANCH   2  22
ATOM     22  O   UNL     1     201.836 205.652 278.868  1.00  0.00    -0.502 OA
ATOM     23  H   UNL     1     200.919 205.428 278.501  1.00  0.00     0.293 HD
ENDBRANCH   2  22
BRANCH   6  24
ATOM     24  O   UNL     1     203.822 209.649 281.548  1.00  0.00    -0.507 OA
ATOM     25  H   UNL     1     203.902 210.403 282.219  1.00  0.00     0.293 HD
ENDBRANCH   6  24
BRANCH   8  26
ATOM     26  O   UNL     1     205.617 212.396 278.011  1.00  0.00    -0.508 OA
ATOM     27  H   UNL     1     206.022 213.030 278.691  1.00  0.00     0.293 HD
ENDBRANCH   8  26
TORSDOF 6
ENDMDL
MODEL 8
REMARK VINA RESULT:    -6.486      2.067      6.965
REMARK INTER + INTRA:          -8.076
REMARK INTER:                  -7.889
REMARK INTRA:                  -0.186
REMARK UNBOUND:                -0.262
REMARK SMILES O=c1c(O)c(-c2ccc(O)cc2O)oc2cc(O)cc(O)c12
REMARK SMILES IDX 5 1 3 2 2 3 1 4 22 5 20 6 19 7 17 8 16 9 15 10 14 11 6 12
REMARK SMILES IDX 8 13 7 14 9 15 11 16 12 17 10 18 13 20 4 22 21 24 18 26
REMARK H PARENT 10 19 13 21 4 23 21 25 18 27
REMARK Flexibility Score: inf
ROOT
ATOM      1  C   UNL     1     202.284 208.414 276.289  1.00  0.00     0.184 A 
ATOM      2  C   UNL     1     200.968 208.669 275.865  1.00  0.00     0.208 A 
ATOM      3  C   UNL     1     200.395 207.835 274.895  1.00  0.00     0.238 A 
ATOM      4  O   UNL     1     199.214 208.052 274.509  1.00  0.00    -0.285 OA
ATOM      5  C   UNL     1     201.146 206.767 274.361  1.00  0.00     0.111 A 
ATOM      6  C   UNL     1     200.644 205.882 273.378  1.00  0.00     0.134 A 
ATOM      7  C   UNL     1     201.456 204.845 272.894  1.00  0.00     0.093 A 
ATOM      8  C   UNL     1     202.758 204.678 273.373  1.00  0.00     0.123 A 
ATOM      9  C   UNL     1     203.260 205.550 274.345  1.00  0.00     0.094 A 
ATOM     10  C   UNL     1     202.466 206.587 274.840  1.00  0.00     0.146 A 
ATOM     11  O   UNL     1     202.967 207.400 275.764  1.00  0.00    -0.451 OA
ENDROOT
BRANCH   1  12
ATOM     12  C   UNL     1     202.936 209.247 277.322  1.00  0.00     0.063 A 
ATOM     13  C   UNL     1     202.869 210.251 279.537  1.00  0.00     0.047 A 
ATOM     14  C   UNL     1     202.256 209.512 278.523  1.00  0.00     0.020 A 
ATOM     15  C   UNL     1     204.170 210.728 279.371  1.00  0.00     0.119 A 
ATOM     16  C   UNL     1     204.859 210.468 278.179  1.00  0.00     0.093 A 
ATOM     17  C   UNL     1     204.251 209.737 277.150  1.00  0.00     0.130 A 
BRANCH  15  18
ATOM     18  O   UNL     1     204.772 211.458 280.394  1.00  0.00    -0.508 OA
ATOM     19  H   UNL     1     205.204 211.002 281.188  1.00  0.00     0.293 HD
ENDBRANCH  15  18
BRANCH  17  20
ATOM     20  O   UNL     1     204.970 209.538 275.970  1.00  0.00    -0.507 OA
ATOM     21  H   UNL     1     204.632 208.964 275.207  1.00  0.00     0.293 HD
ENDBRANCH  17  20
ENDBRANCH   1  12
BRANCH   2  22
ATOM     22  O   UNL     1     200.259 209.749 276.397  1.00  0.00    -0.502 OA
ATOM     23  H   UNL     1     200.501 210.172 277.285  1.00  0.00     0.293 HD
ENDBRANCH   2  22
BRANCH   6  24
ATOM     24  O   UNL     1     199.348 206.022 272.879  1.00  0.00    -0.507 OA
ATOM     25  H   UNL     1     198.782 206.836 273.085  1.00  0.00     0.293 HD
ENDBRANCH   6  24
BRANCH   8  26
ATOM     26  O   UNL     1     203.544 203.641 272.875  1.00  0.00    -0.508 OA
ATOM     27  H   UNL     1     203.911 202.916 273.482  1.00  0.00     0.293 HD
ENDBRANCH   8  26
TORSDOF 6
ENDMDL
MODEL 9
REMARK VINA RESULT:    -6.356      1.980      7.002
REMARK INTER + INTRA:          -7.918
REMARK INTER:                  -7.623
REMARK INTRA:                  -0.295
REMARK UNBOUND:                -0.262
REMARK SMILES O=c1c(O)c(-c2ccc(O)cc2O)oc2cc(O)cc(O)c12
REMARK SMILES IDX 5 1 3 2 2 3 1 4 22 5 20 6 19 7 17 8 16 9 15 10 14 11 6 12
REMARK SMILES IDX 8 13 7 14 9 15 11 16 12 17 10 18 13 20 4 22 21 24 18 26
REMARK H PARENT 10 19 13 21 4 23 21 25 18 27
REMARK Flexibility Score: inf
ROOT
ATOM      1  C   UNL     1     202.793 208.565 276.539  1.00  0.00     0.184 A 
ATOM      2  C   UNL     1     201.477 208.778 276.094  1.00  0.00     0.208 A 
ATOM      3  C   UNL     1     200.972 207.977 275.060  1.00  0.00     0.238 A 
ATOM      4  O   UNL     1     199.791 208.156 274.655  1.00  0.00    -0.285 OA
ATOM      5  C   UNL     1     201.792 206.984 274.485  1.00  0.00     0.111 A 
ATOM      6  C   UNL     1     201.362 206.136 273.437  1.00  0.00     0.134 A 
ATOM      7  C   UNL     1     202.240 205.173 272.916  1.00  0.00     0.093 A 
ATOM      8  C   UNL     1     203.536 205.043 273.420  1.00  0.00     0.123 A 
ATOM      9  C   UNL     1     203.967 205.879 274.456  1.00  0.00     0.094 A 
ATOM     10  C   UNL     1     203.107 206.843 274.990  1.00  0.00     0.146 A 
ATOM     11  O   UNL     1     203.541 207.622 275.974  1.00  0.00    -0.451 OA
ENDROOT
BRANCH   1  12
ATOM     12  C   UNL     1     203.374 209.366 277.637  1.00  0.00     0.063 A 
ATOM     13  C   UNL     1     204.916 211.105 278.358  1.00  0.00     0.047 A 
ATOM     14  C   UNL     1     204.388 210.297 277.350  1.00  0.00     0.020 A 
ATOM     15  C   UNL     1     204.436 211.002 279.665  1.00  0.00     0.119 A 
ATOM     16  C   UNL     1     203.425 210.080 279.963  1.00  0.00     0.093 A 
ATOM     17  C   UNL     1     202.894 209.257 278.963  1.00  0.00     0.130 A 
BRANCH  15  18
ATOM     18  O   UNL     1     204.969 211.819 280.660  1.00  0.00    -0.508 OA
ATOM     19  H   UNL     1     205.780 211.540 281.198  1.00  0.00     0.293 HD
ENDBRANCH  15  18
BRANCH  17  20
ATOM     20  O   UNL     1     201.913 208.331 279.323  1.00  0.00    -0.507 OA
ATOM     21  H   UNL     1     202.015 207.693 280.102  1.00  0.00     0.293 HD
ENDBRANCH  17  20
ENDBRANCH   1  12
BRANCH   2  22
ATOM     22  O   UNL     1     200.698 209.786 276.669  1.00  0.00    -0.502 OA
ATOM     23  H   UNL     1     200.170 209.643 277.522  1.00  0.00     0.293 HD
ENDBRANCH   2  22
BRANCH   6  24
ATOM     24  O   UNL     1     200.074 206.240 272.911  1.00  0.00    -0.507 OA
ATOM     25  H   UNL     1     199.475 205.430 272.802  1.00  0.00     0.293 HD
ENDBRANCH   6  24
BRANCH   8  26
ATOM     26  O   UNL     1     204.388 204.081 272.884  1.00  0.00    -0.508 OA
ATOM     27  H   UNL     1     205.371 204.273 272.726  1.00  0.00     0.293 HD
ENDBRANCH   8  26
TORSDOF 6
ENDMDL
