MODEL 1
REMARK VINA RESULT:    -4.473      0.000      0.000
REMARK INTER + INTRA:         -13.044
REMARK INTER:                  -9.703
REMARK INTRA:                  -3.341
REMARK UNBOUND:                -3.341
REMARK SMILES CCCCCCCCCCCCCCCCCCCCCC(=O)[O-]
REMARK SMILES IDX 12 1 11 2 10 3 9 4 8 5 7 6 6 7 5 8 4 9 3 10 2 11 1 12 13 13
REMARK SMILES IDX 14 14 15 15 16 16 17 17 18 18 19 19 20 20 21 21 22 22 23 23
REMARK SMILES IDX 24 24
REMARK H PARENT
REMARK Flexibility Score: inf
ROOT
ATOM      1  C   UNL     1       2.931 -10.125   1.725  1.00  0.00     0.000 C 
ENDROOT
BRANCH   1   2
ATOM      2  C   UNL     1       1.583 -10.541   1.117  1.00  0.00     0.000 C 
BRANCH   2   3
ATOM      3  C   UNL     1       1.767 -11.072  -0.310  1.00  0.00     0.000 C 
BRANCH   3   4
ATOM      4  C   UNL     1       1.748 -12.609  -0.335  1.00  0.00    -0.000 C 
BRANCH   4   5
ATOM      5  C   UNL     1       3.120 -13.209  -0.681  1.00  0.00    -0.000 C 
BRANCH   5   6
ATOM      6  C   UNL     1       3.647 -14.152   0.416  1.00  0.00    -0.000 C 
BRANCH   6   7
ATOM      7  C   UNL     1       4.944 -13.636   1.060  1.00  0.00    -0.000 C 
BRANCH   7   8
ATOM      8  C   UNL     1       5.501 -12.391   0.346  1.00  0.00    -0.000 C 
BRANCH   8   9
ATOM      9  C   UNL     1       6.932 -12.601  -0.174  1.00  0.00    -0.000 C 
BRANCH   9  10
ATOM     10  C   UNL     1       7.930 -12.906   0.953  1.00  0.00    -0.000 C 
BRANCH  10  11
ATOM     11  C   UNL     1       8.890 -14.028   0.544  1.00  0.00    -0.003 C 
ATOM     12  C   UNL     1       8.217 -15.012  -0.407  1.00  0.00     0.004 C 
ENDBRANCH  10  11
ENDBRANCH   9  10
ENDBRANCH   8   9
ENDBRANCH   7   8
ENDBRANCH   6   7
ENDBRANCH   5   6
ENDBRANCH   4   5
ENDBRANCH   3   4
ENDBRANCH   2   3
ENDBRANCH   1   2
BRANCH   1  13
ATOM     13  C   UNL     1       3.297 -10.941   2.975  1.00  0.00     0.000 C 
BRANCH  13  14
ATOM     14  C   UNL     1       2.168 -11.886   3.418  1.00  0.00     0.000 C 
BRANCH  14  15
ATOM     15  C   UNL     1       2.703 -13.197   4.018  1.00  0.00     0.000 C 
BRANCH  15  16
ATOM     16  C   UNL     1       4.232 -13.187   4.192  1.00  0.00     0.000 C 
BRANCH  16  17
ATOM     17  C   UNL     1       4.710 -14.157   5.285  1.00  0.00     0.000 C 
BRANCH  17  18
ATOM     18  C   UNL     1       5.219 -13.423   6.537  1.00  0.00     0.000 C 
BRANCH  18  19
ATOM     19  C   UNL     1       5.564 -11.947   6.272  1.00  0.00     0.000 C 
BRANCH  19  20
ATOM     20  C   UNL     1       4.872 -10.935   7.205  1.00  0.00     0.006 C 
BRANCH  20  21
ATOM     21  C   UNL     1       3.490 -10.502   6.699  1.00  0.00     0.053 C 
BRANCH  21  22
ATOM     22  C   UNL     1       3.453  -9.022   6.476  1.00  0.00     0.041 C 
ATOM     23  O   UNL     1       4.210  -8.492   5.620  1.00  0.00    -0.550 OA
ATOM     24  O   UNL     1       2.619  -8.221   7.247  1.00  0.00    -0.550 OA
ENDBRANCH  21  22
ENDBRANCH  20  21
ENDBRANCH  19  20
ENDBRANCH  18  19
ENDBRANCH  17  18
ENDBRANCH  16  17
ENDBRANCH  15  16
ENDBRANCH  14  15
ENDBRANCH  13  14
ENDBRANCH   1  13
TORSDOF 20
ENDMDL
MODEL 2
REMARK VINA RESULT:    -4.458      1.264      2.638
REMARK INTER + INTRA:         -13.011
REMARK INTER:                  -9.731
REMARK INTRA:                  -3.280
REMARK UNBOUND:                -3.341
REMARK SMILES CCCCCCCCCCCCCCCCCCCCCC(=O)[O-]
REMARK SMILES IDX 12 1 11 2 10 3 9 4 8 5 7 6 6 7 5 8 4 9 3 10 2 11 1 12 13 13
REMARK SMILES IDX 14 14 15 15 16 16 17 17 18 18 19 19 20 20 21 21 22 22 23 23
REMARK SMILES IDX 24 24
REMARK H PARENT
REMARK Flexibility Score: inf
ROOT
ATOM      1  C   UNL     1       0.864 -13.228   3.575  1.00  0.00     0.000 C 
ENDROOT
BRANCH   1   2
ATOM      2  C   UNL     1      -0.017 -12.070   3.083  1.00  0.00     0.000 C 
BRANCH   2   3
ATOM      3  C   UNL     1       0.698 -10.725   3.260  1.00  0.00     0.000 C 
BRANCH   3   4
ATOM      4  C   UNL     1       2.052 -10.906   3.965  1.00  0.00    -0.000 C 
BRANCH   4   5
ATOM      5  C   UNL     1       3.231 -10.414   3.111  1.00  0.00    -0.000 C 
BRANCH   5   6
ATOM      6  C   UNL     1       2.848 -10.211   1.634  1.00  0.00    -0.000 C 
BRANCH   6   7
ATOM      7  C   UNL     1       3.235 -11.414   0.757  1.00  0.00    -0.000 C 
BRANCH   7   8
ATOM      8  C   UNL     1       4.464 -12.165   1.298  1.00  0.00    -0.000 C 
BRANCH   8   9
ATOM      9  C   UNL     1       5.136 -13.042   0.229  1.00  0.00    -0.000 C 
BRANCH   9  10
ATOM     10  C   UNL     1       6.570 -12.592  -0.087  1.00  0.00    -0.000 C 
BRANCH  10  11
ATOM     11  C   UNL     1       7.522 -12.954   1.058  1.00  0.00    -0.003 C 
ATOM     12  C   UNL     1       8.749 -13.698   0.542  1.00  0.00     0.004 C 
ENDBRANCH  10  11
ENDBRANCH   9  10
ENDBRANCH   8   9
ENDBRANCH   7   8
ENDBRANCH   6   7
ENDBRANCH   5   6
ENDBRANCH   4   5
ENDBRANCH   3   4
ENDBRANCH   2   3
ENDBRANCH   1   2
BRANCH   1  13
ATOM     13  C   UNL     1       1.196 -14.237   2.464  1.00  0.00     0.000 C 
BRANCH  13  14
ATOM     14  C   UNL     1       2.496 -15.012   2.736  1.00  0.00     0.000 C 
BRANCH  14  15
ATOM     15  C   UNL     1       3.024 -14.786   4.163  1.00  0.00     0.000 C 
BRANCH  15  16
ATOM     16  C   UNL     1       4.537 -14.504   4.196  1.00  0.00     0.000 C 
BRANCH  16  17
ATOM     17  C   UNL     1       4.875 -13.168   4.878  1.00  0.00     0.000 C 
BRANCH  17  18
ATOM     18  C   UNL     1       5.044 -13.314   6.400  1.00  0.00     0.000 C 
BRANCH  18  19
ATOM     19  C   UNL     1       5.755 -12.110   7.045  1.00  0.00     0.000 C 
BRANCH  19  20
ATOM     20  C   UNL     1       5.219 -10.729   6.623  1.00  0.00     0.006 C 
BRANCH  20  21
ATOM     21  C   UNL     1       3.758 -10.503   7.033  1.00  0.00     0.053 C 
BRANCH  21  22
ATOM     22  C   UNL     1       3.412  -9.049   6.958  1.00  0.00     0.041 C 
ATOM     23  O   UNL     1       2.213  -8.677   7.075  1.00  0.00    -0.550 OA
ATOM     24  O   UNL     1       4.404  -8.108   6.712  1.00  0.00    -0.550 OA
ENDBRANCH  21  22
ENDBRANCH  20  21
ENDBRANCH  19  20
ENDBRANCH  18  19
ENDBRANCH  17  18
ENDBRANCH  16  17
ENDBRANCH  15  16
ENDBRANCH  14  15
ENDBRANCH  13  14
ENDBRANCH   1  13
TORSDOF 20
ENDMDL
MODEL 3
REMARK VINA RESULT:    -4.455      3.190      7.980
REMARK INTER + INTRA:         -13.005
REMARK INTER:                 -10.379
REMARK INTRA:                  -2.625
REMARK UNBOUND:                -3.341
REMARK SMILES CCCCCCCCCCCCCCCCCCCCCC(=O)[O-]
REMARK SMILES IDX 12 1 11 2 10 3 9 4 8 5 7 6 6 7 5 8 4 9 3 10 2 11 1 12 13 13
REMARK SMILES IDX 14 14 15 15 16 16 17 17 18 18 19 19 20 20 21 21 22 22 23 23
REMARK SMILES IDX 24 24
REMARK H PARENT
REMARK Flexibility Score: inf
ROOT
ATOM      1  C   UNL     1       4.957 -13.377   6.416  1.00  0.00     0.000 C 
ENDROOT
BRANCH   1   2
ATOM      2  C   UNL     1       6.032 -12.283   6.490  1.00  0.00     0.000 C 
BRANCH   2   3
ATOM      3  C   UNL     1       5.623 -11.179   7.472  1.00  0.00     0.000 C 
BRANCH   3   4
ATOM      4  C   UNL     1       4.293 -10.532   7.055  1.00  0.00    -0.000 C 
BRANCH   4   5
ATOM      5  C   UNL     1       4.486  -9.377   6.059  1.00  0.00    -0.000 C 
BRANCH   5   6
ATOM      6  C   UNL     1       3.180  -8.988   5.343  1.00  0.00    -0.000 C 
BRANCH   6   7
ATOM      7  C   UNL     1       1.944  -9.642   5.981  1.00  0.00    -0.000 C 
BRANCH   7   8
ATOM      8  C   UNL     1       0.927  -8.605   6.492  1.00  0.00    -0.000 C 
BRANCH   8   9
ATOM      9  C   UNL     1       1.139  -7.216   5.868  1.00  0.00    -0.000 C 
BRANCH   9  10
ATOM     10  C   UNL     1       1.563  -6.164   6.902  1.00  0.00    -0.000 C 
BRANCH  10  11
ATOM     11  C   UNL     1       3.010  -5.715   6.664  1.00  0.00    -0.003 C 
ATOM     12  C   UNL     1       3.759  -5.547   7.982  1.00  0.00     0.004 C 
ENDBRANCH  10  11
ENDBRANCH   9  10
ENDBRANCH   8   9
ENDBRANCH   7   8
ENDBRANCH   6   7
ENDBRANCH   5   6
ENDBRANCH   4   5
ENDBRANCH   3   4
ENDBRANCH   2   3
ENDBRANCH   1   2
BRANCH   1  13
ATOM     13  C   UNL     1       4.745 -13.908   4.989  1.00  0.00     0.000 C 
BRANCH  13  14
ATOM     14  C   UNL     1       3.258 -14.008   4.610  1.00  0.00     0.000 C 
BRANCH  14  15
ATOM     15  C   UNL     1       2.754 -12.752   3.879  1.00  0.00     0.000 C 
BRANCH  15  16
ATOM     16  C   UNL     1       3.904 -11.870   3.359  1.00  0.00     0.000 C 
BRANCH  16  17
ATOM     17  C   UNL     1       3.467 -10.945   2.210  1.00  0.00     0.000 C 
BRANCH  17  18
ATOM     18  C   UNL     1       3.983 -11.425   0.843  1.00  0.00     0.000 C 
BRANCH  18  19
ATOM     19  C   UNL     1       4.896 -12.660   0.944  1.00  0.00     0.000 C 
BRANCH  19  20
ATOM     20  C   UNL     1       6.033 -12.720  -0.094  1.00  0.00     0.006 C 
BRANCH  20  21
ATOM     21  C   UNL     1       7.428 -12.701   0.543  1.00  0.00     0.053 C 
BRANCH  21  22
ATOM     22  C   UNL     1       8.100 -14.027   0.373  1.00  0.00     0.041 C 
ATOM     23  O   UNL     1       9.251 -14.220   0.849  1.00  0.00    -0.550 OA
ATOM     24  O   UNL     1       7.478 -15.036  -0.353  1.00  0.00    -0.550 OA
ENDBRANCH  21  22
ENDBRANCH  20  21
ENDBRANCH  19  20
ENDBRANCH  18  19
ENDBRANCH  17  18
ENDBRANCH  16  17
ENDBRANCH  15  16
ENDBRANCH  14  15
ENDBRANCH  13  14
ENDBRANCH   1  13
TORSDOF 20
ENDMDL
MODEL 4
REMARK VINA RESULT:    -4.417      1.774      4.201
REMARK INTER + INTRA:         -12.922
REMARK INTER:                  -9.513
REMARK INTRA:                  -3.409
REMARK UNBOUND:                -3.341
REMARK SMILES CCCCCCCCCCCCCCCCCCCCCC(=O)[O-]
REMARK SMILES IDX 12 1 11 2 10 3 9 4 8 5 7 6 6 7 5 8 4 9 3 10 2 11 1 12 13 13
REMARK SMILES IDX 14 14 15 15 16 16 17 17 18 18 19 19 20 20 21 21 22 22 23 23
REMARK SMILES IDX 24 24
REMARK H PARENT
REMARK Flexibility Score: inf
ROOT
ATOM      1  C   UNL     1       4.890 -12.954   6.400  1.00  0.00     0.000 C 
ENDROOT
BRANCH   1   2
ATOM      2  C   UNL     1       5.065 -12.878   4.876  1.00  0.00     0.000 C 
BRANCH   2   3
ATOM      3  C   UNL     1       4.699 -14.214   4.216  1.00  0.00     0.000 C 
BRANCH   3   4
ATOM      4  C   UNL     1       3.175 -14.393   4.139  1.00  0.00    -0.000 C 
BRANCH   4   5
ATOM      5  C   UNL     1       2.466 -13.161   3.553  1.00  0.00    -0.000 C 
BRANCH   5   6
ATOM      6  C   UNL     1       2.327 -13.230   2.022  1.00  0.00    -0.000 C 
BRANCH   6   7
ATOM      7  C   UNL     1       2.705 -11.906   1.338  1.00  0.00    -0.000 C 
BRANCH   7   8
ATOM      8  C   UNL     1       4.225 -11.663   1.328  1.00  0.00    -0.000 C 
BRANCH   8   9
ATOM      9  C   UNL     1       4.982 -12.700   0.483  1.00  0.00    -0.000 C 
BRANCH   9  10
ATOM     10  C   UNL     1       6.436 -12.288   0.208  1.00  0.00    -0.000 C 
BRANCH  10  11
ATOM     11  C   UNL     1       7.392 -12.962   1.199  1.00  0.00    -0.003 C 
ATOM     12  C   UNL     1       8.260 -14.006   0.506  1.00  0.00     0.004 C 
ENDBRANCH  10  11
ENDBRANCH   9  10
ENDBRANCH   8   9
ENDBRANCH   7   8
ENDBRANCH   6   7
ENDBRANCH   5   6
ENDBRANCH   4   5
ENDBRANCH   3   4
ENDBRANCH   2   3
ENDBRANCH   1   2
BRANCH   1  13
ATOM     13  C   UNL     1       5.169 -11.613   7.098  1.00  0.00     0.000 C 
BRANCH  13  14
ATOM     14  C   UNL     1       4.016 -10.608   6.933  1.00  0.00     0.000 C 
BRANCH  14  15
ATOM     15  C   UNL     1       4.518  -9.184   6.644  1.00  0.00     0.000 C 
BRANCH  15  16
ATOM     16  C   UNL     1       3.925  -8.599   5.349  1.00  0.00     0.000 C 
BRANCH  16  17
ATOM     17  C   UNL     1       3.343  -9.681   4.424  1.00  0.00     0.000 C 
BRANCH  17  18
ATOM     18  C   UNL     1       1.941  -9.318   3.907  1.00  0.00     0.000 C 
BRANCH  18  19
ATOM     19  C   UNL     1       0.814 -10.062   4.646  1.00  0.00     0.000 C 
BRANCH  19  20
ATOM     20  C   UNL     1       0.010  -9.209   5.645  1.00  0.00     0.006 C 
BRANCH  20  21
ATOM     21  C   UNL     1       0.490  -9.369   7.093  1.00  0.00     0.053 C 
BRANCH  21  22
ATOM     22  C   UNL     1       0.931  -8.051   7.647  1.00  0.00     0.041 C 
ATOM     23  O   UNL     1       1.052  -7.897   8.892  1.00  0.00    -0.550 OA
ATOM     24  O   UNL     1       1.162  -6.978   6.795  1.00  0.00    -0.550 OA
ENDBRANCH  21  22
ENDBRANCH  20  21
ENDBRANCH  19  20
ENDBRANCH  18  19
ENDBRANCH  17  18
ENDBRANCH  16  17
ENDBRANCH  15  16
ENDBRANCH  14  15
ENDBRANCH  13  14
ENDBRANCH   1  13
TORSDOF 20
ENDMDL
MODEL 5
REMARK VINA RESULT:    -4.391      3.263      6.772
REMARK INTER + INTRA:         -12.866
REMARK INTER:                 -10.082
REMARK INTRA:                  -2.785
REMARK UNBOUND:                -3.341
REMARK SMILES CCCCCCCCCCCCCCCCCCCCCC(=O)[O-]
REMARK SMILES IDX 12 1 11 2 10 3 9 4 8 5 7 6 6 7 5 8 4 9 3 10 2 11 1 12 13 13
REMARK SMILES IDX 14 14 15 15 16 16 17 17 18 18 19 19 20 20 21 21 22 22 23 23
REMARK SMILES IDX 24 24
REMARK H PARENT
REMARK Flexibility Score: inf
ROOT
ATOM      1  C   UNL     1       3.754  -9.728   5.046  1.00  0.00     0.000 C 
ENDROOT
BRANCH   1   2
ATOM      2  C   UNL     1       4.434  -9.721   6.423  1.00  0.00     0.000 C 
BRANCH   2   3
ATOM      3  C   UNL     1       4.319 -11.094   7.097  1.00  0.00     0.000 C 
BRANCH   3   4
ATOM      4  C   UNL     1       5.554 -11.960   6.802  1.00  0.00    -0.000 C 
BRANCH   4   5
ATOM      5  C   UNL     1       5.183 -13.392   6.385  1.00  0.00    -0.000 C 
BRANCH   5   6
ATOM      6  C   UNL     1       4.850 -13.505   4.887  1.00  0.00    -0.000 C 
BRANCH   6   7
ATOM      7  C   UNL     1       3.687 -14.473   4.615  1.00  0.00    -0.000 C 
BRANCH   7   8
ATOM      8  C   UNL     1       2.530 -13.803   3.854  1.00  0.00    -0.000 C 
BRANCH   8   9
ATOM      9  C   UNL     1       1.255 -14.662   3.845  1.00  0.00    -0.000 C 
BRANCH   9  10
ATOM     10  C   UNL     1       1.430 -15.985   4.603  1.00  0.00    -0.000 C 
BRANCH  10  11
ATOM     11  C   UNL     1       0.673 -17.121   3.905  1.00  0.00    -0.003 C 
ATOM     12  C   UNL     1       0.906 -17.094   2.398  1.00  0.00     0.004 C 
ENDBRANCH  10  11
ENDBRANCH   9  10
ENDBRANCH   8   9
ENDBRANCH   7   8
ENDBRANCH   6   7
ENDBRANCH   5   6
ENDBRANCH   4   5
ENDBRANCH   3   4
ENDBRANCH   2   3
ENDBRANCH   1   2
BRANCH   1  13
ATOM     13  C   UNL     1       2.233  -9.928   5.135  1.00  0.00     0.000 C 
BRANCH  13  14
ATOM     14  C   UNL     1       1.616 -10.380   3.800  1.00  0.00     0.000 C 
BRANCH  14  15
ATOM     15  C   UNL     1       2.567 -10.160   2.612  1.00  0.00     0.000 C 
BRANCH  15  16
ATOM     16  C   UNL     1       1.970 -10.646   1.278  1.00  0.00     0.000 C 
BRANCH  16  17
ATOM     17  C   UNL     1       2.961 -11.488   0.458  1.00  0.00     0.000 C 
BRANCH  17  18
ATOM     18  C   UNL     1       4.289 -11.717   1.200  1.00  0.00     0.000 C 
BRANCH  18  19
ATOM     19  C   UNL     1       4.834 -13.147   1.032  1.00  0.00     0.000 C 
BRANCH  19  20
ATOM     20  C   UNL     1       6.249 -13.379   1.594  1.00  0.00     0.006 C 
BRANCH  20  21
ATOM     21  C   UNL     1       7.357 -12.895   0.649  1.00  0.00     0.053 C 
BRANCH  21  22
ATOM     22  C   UNL     1       8.189 -14.048   0.184  1.00  0.00     0.041 C 
ATOM     23  O   UNL     1       9.385 -14.159   0.565  1.00  0.00    -0.550 OA
ATOM     24  O   UNL     1       7.662 -14.974  -0.709  1.00  0.00    -0.550 OA
ENDBRANCH  21  22
ENDBRANCH  20  21
ENDBRANCH  19  20
ENDBRANCH  18  19
ENDBRANCH  17  18
ENDBRANCH  16  17
ENDBRANCH  15  16
ENDBRANCH  14  15
ENDBRANCH  13  14
ENDBRANCH   1  13
TORSDOF 20
ENDMDL
MODEL 6
REMARK VINA RESULT:    -4.385      1.129      2.852
REMARK INTER + INTRA:         -12.853
REMARK INTER:                  -9.298
REMARK INTRA:                  -3.555
REMARK UNBOUND:                -3.341
REMARK SMILES CCCCCCCCCCCCCCCCCCCCCC(=O)[O-]
REMARK SMILES IDX 12 1 11 2 10 3 9 4 8 5 7 6 6 7 5 8 4 9 3 10 2 11 1 12 13 13
REMARK SMILES IDX 14 14 15 15 16 16 17 17 18 18 19 19 20 20 21 21 22 22 23 23
REMARK SMILES IDX 24 24
REMARK H PARENT
REMARK Flexibility Score: inf
ROOT
ATOM      1  C   UNL     1       2.754 -13.050   4.134  1.00  0.00     0.000 C 
ENDROOT
BRANCH   1   2
ATOM      2  C   UNL     1       2.217 -11.759   3.499  1.00  0.00     0.000 C 
BRANCH   2   3
ATOM      3  C   UNL     1       3.366 -10.883   2.986  1.00  0.00     0.000 C 
BRANCH   3   4
ATOM      4  C   UNL     1       3.084 -10.378   1.562  1.00  0.00    -0.000 C 
BRANCH   4   5
ATOM      5  C   UNL     1       1.974 -11.179   0.862  1.00  0.00    -0.000 C 
BRANCH   5   6
ATOM      6  C   UNL     1       2.516 -12.093  -0.252  1.00  0.00    -0.000 C 
BRANCH   6   7
ATOM      7  C   UNL     1       2.590 -13.566   0.181  1.00  0.00    -0.000 C 
BRANCH   7   8
ATOM      8  C   UNL     1       4.032 -14.026   0.460  1.00  0.00    -0.000 C 
BRANCH   8   9
ATOM      9  C   UNL     1       5.074 -13.193  -0.304  1.00  0.00    -0.000 C 
BRANCH   9  10
ATOM     10  C   UNL     1       6.078 -12.503   0.631  1.00  0.00    -0.000 C 
BRANCH  10  11
ATOM     11  C   UNL     1       7.069 -13.517   1.214  1.00  0.00    -0.003 C 
ATOM     12  C   UNL     1       7.789 -14.284   0.109  1.00  0.00     0.004 C 
ENDBRANCH  10  11
ENDBRANCH   9  10
ENDBRANCH   8   9
ENDBRANCH   7   8
ENDBRANCH   6   7
ENDBRANCH   5   6
ENDBRANCH   4   5
ENDBRANCH   3   4
ENDBRANCH   2   3
ENDBRANCH   1   2
BRANCH   1  13
ATOM     13  C   UNL     1       4.256 -13.258   3.880  1.00  0.00     0.000 C 
BRANCH  13  14
ATOM     14  C   UNL     1       4.937 -14.074   4.992  1.00  0.00     0.000 C 
BRANCH  14  15
ATOM     15  C   UNL     1       4.865 -13.374   6.359  1.00  0.00     0.000 C 
BRANCH  15  16
ATOM     16  C   UNL     1       5.961 -12.308   6.537  1.00  0.00     0.000 C 
BRANCH  16  17
ATOM     17  C   UNL     1       5.461 -11.064   7.290  1.00  0.00     0.000 C 
BRANCH  17  18
ATOM     18  C   UNL     1       4.586 -10.157   6.408  1.00  0.00     0.000 C 
BRANCH  18  19
ATOM     19  C   UNL     1       3.091 -10.230   6.766  1.00  0.00     0.000 C 
BRANCH  19  20
ATOM     20  C   UNL     1       2.235  -9.061   6.242  1.00  0.00     0.006 C 
BRANCH  20  21
ATOM     21  C   UNL     1       1.962  -7.993   7.308  1.00  0.00     0.053 C 
BRANCH  21  22
ATOM     22  C   UNL     1       2.908  -6.844   7.152  1.00  0.00     0.041 C 
ATOM     23  O   UNL     1       3.586  -6.721   6.097  1.00  0.00    -0.550 OA
ATOM     24  O   UNL     1       3.080  -5.936   8.191  1.00  0.00    -0.550 OA
ENDBRANCH  21  22
ENDBRANCH  20  21
ENDBRANCH  19  20
ENDBRANCH  18  19
ENDBRANCH  17  18
ENDBRANCH  16  17
ENDBRANCH  15  16
ENDBRANCH  14  15
ENDBRANCH  13  14
ENDBRANCH   1  13
TORSDOF 20
ENDMDL
MODEL 7
REMARK VINA RESULT:    -4.381      2.072      4.451
REMARK INTER + INTRA:         -12.845
REMARK INTER:                 -10.441
REMARK INTRA:                  -2.403
REMARK UNBOUND:                -3.341
REMARK SMILES CCCCCCCCCCCCCCCCCCCCCC(=O)[O-]
REMARK SMILES IDX 12 1 11 2 10 3 9 4 8 5 7 6 6 7 5 8 4 9 3 10 2 11 1 12 13 13
REMARK SMILES IDX 14 14 15 15 16 16 17 17 18 18 19 19 20 20 21 21 22 22 23 23
REMARK SMILES IDX 24 24
REMARK H PARENT
REMARK Flexibility Score: inf
ROOT
ATOM      1  C   UNL     1       5.105 -13.457   6.223  1.00  0.00     0.000 C 
ENDROOT
BRANCH   1   2
ATOM      2  C   UNL     1       4.914 -13.316   4.705  1.00  0.00     0.000 C 
BRANCH   2   3
ATOM      3  C   UNL     1       3.467 -13.629   4.305  1.00  0.00     0.000 C 
BRANCH   3   4
ATOM      4  C   UNL     1       2.636 -12.342   4.181  1.00  0.00    -0.000 C 
BRANCH   4   5
ATOM      5  C   UNL     1       3.379 -11.232   3.421  1.00  0.00    -0.000 C 
BRANCH   5   6
ATOM      6  C   UNL     1       2.943 -11.129   1.949  1.00  0.00    -0.000 C 
BRANCH   6   7
ATOM      7  C   UNL     1       4.139 -11.120   0.982  1.00  0.00    -0.000 C 
BRANCH   7   8
ATOM      8  C   UNL     1       4.914 -12.450   0.993  1.00  0.00    -0.000 C 
BRANCH   8   9
ATOM      9  C   UNL     1       6.212 -12.382   0.173  1.00  0.00    -0.000 C 
BRANCH   9  10
ATOM     10  C   UNL     1       7.420 -12.948   0.934  1.00  0.00    -0.000 C 
BRANCH  10  11
ATOM     11  C   UNL     1       7.852 -14.297   0.348  1.00  0.00    -0.003 C 
ATOM     12  C   UNL     1       9.368 -14.459   0.392  1.00  0.00     0.004 C 
ENDBRANCH  10  11
ENDBRANCH   9  10
ENDBRANCH   8   9
ENDBRANCH   7   8
ENDBRANCH   6   7
ENDBRANCH   5   6
ENDBRANCH   4   5
ENDBRANCH   3   4
ENDBRANCH   2   3
ENDBRANCH   1   2
BRANCH   1  13
ATOM     13  C   UNL     1       5.592 -12.158   6.884  1.00  0.00     0.000 C 
BRANCH  13  14
ATOM     14  C   UNL     1       4.453 -11.154   7.129  1.00  0.00     0.000 C 
BRANCH  14  15
ATOM     15  C   UNL     1       4.769  -9.760   6.562  1.00  0.00     0.000 C 
BRANCH  15  16
ATOM     16  C   UNL     1       3.515  -8.876   6.431  1.00  0.00     0.000 C 
BRANCH  16  17
ATOM     17  C   UNL     1       2.215  -9.649   6.708  1.00  0.00     0.000 C 
BRANCH  17  18
ATOM     18  C   UNL     1       1.158  -8.784   7.414  1.00  0.00     0.000 C 
BRANCH  18  19
ATOM     19  C   UNL     1       0.702  -7.581   6.570  1.00  0.00     0.000 C 
BRANCH  19  20
ATOM     20  C   UNL     1       0.415  -6.293   7.365  1.00  0.00     0.006 C 
BRANCH  20  21
ATOM     21  C   UNL     1       1.503  -5.972   8.398  1.00  0.00     0.053 C 
BRANCH  21  22
ATOM     22  C   UNL     1       2.706  -5.387   7.727  1.00  0.00     0.041 C 
ATOM     23  O   UNL     1       3.858  -5.811   8.012  1.00  0.00    -0.550 OA
ATOM     24  O   UNL     1       2.561  -4.341   6.823  1.00  0.00    -0.550 OA
ENDBRANCH  21  22
ENDBRANCH  20  21
ENDBRANCH  19  20
ENDBRANCH  18  19
ENDBRANCH  17  18
ENDBRANCH  16  17
ENDBRANCH  15  16
ENDBRANCH  14  15
ENDBRANCH  13  14
ENDBRANCH   1  13
TORSDOF 20
ENDMDL
MODEL 8
REMARK VINA RESULT:    -4.343      3.208      8.119
REMARK INTER + INTRA:         -12.762
REMARK INTER:                  -9.485
REMARK INTRA:                  -3.278
REMARK UNBOUND:                -3.341
REMARK SMILES CCCCCCCCCCCCCCCCCCCCCC(=O)[O-]
REMARK SMILES IDX 12 1 11 2 10 3 9 4 8 5 7 6 6 7 5 8 4 9 3 10 2 11 1 12 13 13
REMARK SMILES IDX 14 14 15 15 16 16 17 17 18 18 19 19 20 20 21 21 22 22 23 23
REMARK SMILES IDX 24 24
REMARK H PARENT
REMARK Flexibility Score: inf
ROOT
ATOM      1  C   UNL     1       3.451  -8.968   5.489  1.00  0.00     0.000 C 
ENDROOT
BRANCH   1   2
ATOM      2  C   UNL     1       3.812  -7.478   5.591  1.00  0.00     0.000 C 
BRANCH   2   3
ATOM      3  C   UNL     1       3.531  -6.942   7.000  1.00  0.00     0.000 C 
BRANCH   3   4
ATOM      4  C   UNL     1       3.460  -5.407   7.005  1.00  0.00    -0.000 C 
BRANCH   4   5
ATOM      5  C   UNL     1       2.072  -4.883   7.409  1.00  0.00    -0.000 C 
BRANCH   5   6
ATOM      6  C   UNL     1       1.172  -4.594   6.194  1.00  0.00    -0.000 C 
BRANCH   6   7
ATOM      7  C   UNL     1      -0.125  -5.419   6.216  1.00  0.00    -0.000 C 
BRANCH   7   8
ATOM      8  C   UNL     1       0.020  -6.762   5.477  1.00  0.00    -0.000 C 
BRANCH   8   9
ATOM      9  C   UNL     1       0.026  -7.963   6.435  1.00  0.00    -0.000 C 
BRANCH   9  10
ATOM     10  C   UNL     1      -0.510  -7.609   7.830  1.00  0.00    -0.000 C 
BRANCH  10  11
ATOM     11  C   UNL     1       0.420  -8.142   8.925  1.00  0.00    -0.003 C 
ATOM     12  C   UNL     1       0.748  -7.059   9.947  1.00  0.00     0.004 C 
ENDBRANCH  10  11
ENDBRANCH   9  10
ENDBRANCH   8   9
ENDBRANCH   7   8
ENDBRANCH   6   7
ENDBRANCH   5   6
ENDBRANCH   4   5
ENDBRANCH   3   4
ENDBRANCH   2   3
ENDBRANCH   1   2
BRANCH   1  13
ATOM     13  C   UNL     1       3.207  -9.616   6.861  1.00  0.00     0.000 C 
BRANCH  13  14
ATOM     14  C   UNL     1       3.831 -11.017   6.973  1.00  0.00     0.000 C 
BRANCH  14  15
ATOM     15  C   UNL     1       5.365 -10.985   6.862  1.00  0.00     0.000 C 
BRANCH  15  16
ATOM     16  C   UNL     1       5.983 -12.394   6.796  1.00  0.00     0.000 C 
BRANCH  16  17
ATOM     17  C   UNL     1       4.945 -13.480   6.467  1.00  0.00     0.000 C 
BRANCH  17  18
ATOM     18  C   UNL     1       4.813 -13.726   4.954  1.00  0.00     0.000 C 
BRANCH  18  19
ATOM     19  C   UNL     1       3.351 -13.835   4.487  1.00  0.00     0.000 C 
BRANCH  19  20
ATOM     20  C   UNL     1       3.019 -13.072   3.190  1.00  0.00     0.006 C 
BRANCH  20  21
ATOM     21  C   UNL     1       3.692 -11.695   3.116  1.00  0.00     0.053 C 
BRANCH  21  22
ATOM     22  C   UNL     1       3.508 -11.095   1.757  1.00  0.00     0.041 C 
ATOM     23  O   UNL     1       4.391 -11.253   0.871  1.00  0.00    -0.550 OA
ATOM     24  O   UNL     1       2.387 -10.321   1.482  1.00  0.00    -0.550 OA
ENDBRANCH  21  22
ENDBRANCH  20  21
ENDBRANCH  19  20
ENDBRANCH  18  19
ENDBRANCH  17  18
ENDBRANCH  16  17
ENDBRANCH  15  16
ENDBRANCH  14  15
ENDBRANCH  13  14
ENDBRANCH   1  13
TORSDOF 20
ENDMDL
MODEL 9
REMARK VINA RESULT:    -4.319      3.011      7.682
REMARK INTER + INTRA:         -12.708
REMARK INTER:                  -9.403
REMARK INTRA:                  -3.305
REMARK UNBOUND:                -3.341
REMARK SMILES CCCCCCCCCCCCCCCCCCCCCC(=O)[O-]
REMARK SMILES IDX 12 1 11 2 10 3 9 4 8 5 7 6 6 7 5 8 4 9 3 10 2 11 1 12 13 13
REMARK SMILES IDX 14 14 15 15 16 16 17 17 18 18 19 19 20 20 21 21 22 22 23 23
REMARK SMILES IDX 24 24
REMARK H PARENT
REMARK Flexibility Score: inf
ROOT
ATOM      1  C   UNL     1       5.855 -11.049   7.290  1.00  0.00     0.000 C 
ENDROOT
BRANCH   1   2
ATOM      2  C   UNL     1       4.451 -10.547   6.919  1.00  0.00     0.000 C 
BRANCH   2   3
ATOM      3  C   UNL     1       4.525  -9.188   6.212  1.00  0.00     0.000 C 
BRANCH   3   4
ATOM      4  C   UNL     1       3.468  -9.084   5.101  1.00  0.00    -0.000 C 
BRANCH   4   5
ATOM      5  C   UNL     1       2.334 -10.107   5.270  1.00  0.00    -0.000 C 
BRANCH   5   6
ATOM      6  C   UNL     1       0.977  -9.572   4.776  1.00  0.00    -0.000 C 
BRANCH   6   7
ATOM      7  C   UNL     1       0.251  -8.738   5.844  1.00  0.00    -0.000 C 
BRANCH   7   8
ATOM      8  C   UNL     1       0.511  -9.254   7.271  1.00  0.00    -0.000 C 
BRANCH   8   9
ATOM      9  C   UNL     1       1.102  -8.173   8.190  1.00  0.00    -0.000 C 
BRANCH   9  10
ATOM     10  C   UNL     1       1.311  -6.834   7.467  1.00  0.00    -0.000 C 
BRANCH  10  11
ATOM     11  C   UNL     1       2.694  -6.253   7.783  1.00  0.00    -0.003 C 
ATOM     12  C   UNL     1       3.284  -5.542   6.569  1.00  0.00     0.004 C 
ENDBRANCH  10  11
ENDBRANCH   9  10
ENDBRANCH   8   9
ENDBRANCH   7   8
ENDBRANCH   6   7
ENDBRANCH   5   6
ENDBRANCH   4   5
ENDBRANCH   3   4
ENDBRANCH   2   3
ENDBRANCH   1   2
BRANCH   1  13
ATOM     13  C   UNL     1       6.094 -12.509   6.873  1.00  0.00     0.000 C 
BRANCH  13  14
ATOM     14  C   UNL     1       4.790 -13.248   6.527  1.00  0.00     0.000 C 
BRANCH  14  15
ATOM     15  C   UNL     1       4.852 -13.932   5.151  1.00  0.00     0.000 C 
BRANCH  15  16
ATOM     16  C   UNL     1       4.397 -13.005   4.009  1.00  0.00     0.000 C 
BRANCH  16  17
ATOM     17  C   UNL     1       2.925 -13.220   3.623  1.00  0.00     0.000 C 
BRANCH  17  18
ATOM     18  C   UNL     1       2.610 -12.711   2.206  1.00  0.00     0.000 C 
BRANCH  18  19
ATOM     19  C   UNL     1       3.297 -11.373   1.880  1.00  0.00     0.000 C 
BRANCH  19  20
ATOM     20  C   UNL     1       4.375 -11.440   0.781  1.00  0.00     0.006 C 
BRANCH  20  21
ATOM     21  C   UNL     1       4.608 -12.862   0.256  1.00  0.00     0.053 C 
BRANCH  21  22
ATOM     22  C   UNL     1       6.042 -13.050  -0.128  1.00  0.00     0.041 C 
ATOM     23  O   UNL     1       6.885 -12.144   0.110  1.00  0.00    -0.550 OA
ATOM     24  O   UNL     1       6.440 -14.204  -0.793  1.00  0.00    -0.550 OA
ENDBRANCH  21  22
ENDBRANCH  20  21
ENDBRANCH  19  20
ENDBRANCH  18  19
ENDBRANCH  17  18
ENDBRANCH  16  17
ENDBRANCH  15  16
ENDBRANCH  14  15
ENDBRANCH  13  14
ENDBRANCH   1  13
TORSDOF 20
ENDMDL
