MODEL 1
REMARK VINA RESULT:    -5.479      0.000      0.000
REMARK INTER + INTRA:          -6.127
REMARK INTER:                  -5.959
REMARK INTRA:                  -0.168
REMARK UNBOUND:                -0.168
REMARK SMILES O=C([O-])c1ccccc1O
REMARK SMILES IDX 4 1 9 2 5 3 8 4 6 5 7 6 2 7 1 8 3 9 10 10
REMARK H PARENT 10 11
REMARK Flexibility Score: inf
ROOT
ATOM      1  C   UNL     1     373.125 242.590 275.911  1.00  0.00     0.039 A 
ATOM      2  C   UNL     1     372.370 241.635 275.181  1.00  0.00     0.124 A 
ATOM      3  C   UNL     1     374.269 242.161 276.610  1.00  0.00     0.014 A 
ATOM      4  C   UNL     1     372.739 240.285 275.221  1.00  0.00     0.047 A 
ATOM      5  C   UNL     1     374.633 240.814 276.623  1.00  0.00     0.001 A 
ATOM      6  C   UNL     1     373.864 239.875 275.937  1.00  0.00     0.004 A 
ENDROOT
BRANCH   1   7
ATOM      7  C   UNL     1     372.743 244.017 275.998  1.00  0.00     0.075 C 
ATOM      8  O   UNL     1     371.675 244.368 276.563  1.00  0.00    -0.545 OA
ATOM      9  O   UNL     1     373.602 244.997 275.514  1.00  0.00    -0.545 OA
ENDBRANCH   1   7
BRANCH   2  10
ATOM     10  O   UNL     1     371.279 241.986 274.383  1.00  0.00    -0.507 OA
ATOM     11  H   UNL     1     371.218 242.855 273.870  1.00  0.00     0.293 HD
ENDBRANCH   2  10
TORSDOF 2
ENDMDL
MODEL 2
REMARK VINA RESULT:    -5.150      1.475      3.209
REMARK INTER + INTRA:          -5.770
REMARK INTER:                  -5.564
REMARK INTRA:                  -0.205
REMARK UNBOUND:                -0.168
REMARK SMILES O=C([O-])c1ccccc1O
REMARK SMILES IDX 4 1 9 2 5 3 8 4 6 5 7 6 2 7 1 8 3 9 10 10
REMARK H PARENT 10 11
REMARK Flexibility Score: inf
ROOT
ATOM      1  C   UNL     1     372.092 242.056 276.036  1.00  0.00     0.039 A 
ATOM      2  C   UNL     1     372.096 243.438 276.357  1.00  0.00     0.124 A 
ATOM      3  C   UNL     1     373.292 241.329 276.147  1.00  0.00     0.014 A 
ATOM      4  C   UNL     1     373.297 244.062 276.717  1.00  0.00     0.047 A 
ATOM      5  C   UNL     1     374.476 241.962 276.526  1.00  0.00     0.001 A 
ATOM      6  C   UNL     1     374.482 243.329 276.801  1.00  0.00     0.004 A 
ENDROOT
BRANCH   1   7
ATOM      7  C   UNL     1     370.885 241.347 275.554  1.00  0.00     0.075 C 
ATOM      8  O   UNL     1     370.880 240.096 275.420  1.00  0.00    -0.545 OA
ATOM      9  O   UNL     1     369.715 242.057 275.309  1.00  0.00    -0.545 OA
ENDBRANCH   1   7
BRANCH   2  10
ATOM     10  O   UNL     1     370.934 244.214 276.367  1.00  0.00    -0.507 OA
ATOM     11  H   UNL     1     370.327 244.301 277.170  1.00  0.00     0.293 HD
ENDBRANCH   2  10
TORSDOF 2
ENDMDL
MODEL 3
REMARK VINA RESULT:    -5.033      2.626      3.843
REMARK INTER + INTRA:          -5.642
REMARK INTER:                  -5.397
REMARK INTRA:                  -0.245
REMARK UNBOUND:                -0.168
REMARK SMILES O=C([O-])c1ccccc1O
REMARK SMILES IDX 4 1 9 2 5 3 8 4 6 5 7 6 2 7 1 8 3 9 10 10
REMARK H PARENT 10 11
REMARK Flexibility Score: inf
ROOT
ATOM      1  C   UNL     1     371.356 243.473 276.520  1.00  0.00     0.039 A 
ATOM      2  C   UNL     1     370.296 242.872 275.793  1.00  0.00     0.124 A 
ATOM      3  C   UNL     1     371.048 244.261 277.644  1.00  0.00     0.014 A 
ATOM      4  C   UNL     1     368.970 243.123 276.168  1.00  0.00     0.047 A 
ATOM      5  C   UNL     1     369.721 244.485 278.016  1.00  0.00     0.001 A 
ATOM      6  C   UNL     1     368.683 243.924 277.274  1.00  0.00     0.004 A 
ENDROOT
BRANCH   1   7
ATOM      7  C   UNL     1     372.777 243.336 276.127  1.00  0.00     0.075 C 
ATOM      8  O   UNL     1     373.532 244.341 276.070  1.00  0.00    -0.545 OA
ATOM      9  O   UNL     1     373.311 242.076 275.883  1.00  0.00    -0.545 OA
ENDBRANCH   1   7
BRANCH   2  10
ATOM     10  O   UNL     1     370.513 241.999 274.724  1.00  0.00    -0.507 OA
ATOM     11  H   UNL     1     371.402 241.557 274.536  1.00  0.00     0.293 HD
ENDBRANCH   2  10
TORSDOF 2
ENDMDL
MODEL 4
REMARK VINA RESULT:    -4.932      1.880      2.663
REMARK INTER + INTRA:          -5.532
REMARK INTER:                  -5.312
REMARK INTRA:                  -0.220
REMARK UNBOUND:                -0.168
REMARK SMILES O=C([O-])c1ccccc1O
REMARK SMILES IDX 4 1 9 2 5 3 8 4 6 5 7 6 2 7 1 8 3 9 10 10
REMARK H PARENT 10 11
REMARK Flexibility Score: inf
ROOT
ATOM      1  C   UNL     1     371.759 242.810 276.185  1.00  0.00     0.039 A 
ATOM      2  C   UNL     1     372.436 241.577 275.998  1.00  0.00     0.124 A 
ATOM      3  C   UNL     1     372.504 243.945 276.557  1.00  0.00     0.014 A 
ATOM      4  C   UNL     1     373.812 241.498 276.246  1.00  0.00     0.047 A 
ATOM      5  C   UNL     1     373.878 243.853 276.781  1.00  0.00     0.001 A 
ATOM      6  C   UNL     1     374.531 242.629 276.635  1.00  0.00     0.004 A 
ENDROOT
BRANCH   1   7
ATOM      7  C   UNL     1     370.293 242.951 276.038  1.00  0.00     0.075 C 
ATOM      8  O   UNL     1     369.618 242.083 275.425  1.00  0.00    -0.545 OA
ATOM      9  O   UNL     1     369.634 244.017 276.639  1.00  0.00    -0.545 OA
ENDBRANCH   1   7
BRANCH   2  10
ATOM     10  O   UNL     1     371.793 240.425 275.537  1.00  0.00    -0.507 OA
ATOM     11  H   UNL     1     371.414 240.332 274.605  1.00  0.00     0.293 HD
ENDBRANCH   2  10
TORSDOF 2
ENDMDL
MODEL 5
REMARK VINA RESULT:    -4.830      2.216      3.692
REMARK INTER + INTRA:          -5.421
REMARK INTER:                  -5.172
REMARK INTRA:                  -0.249
REMARK UNBOUND:                -0.168
REMARK SMILES O=C([O-])c1ccccc1O
REMARK SMILES IDX 4 1 9 2 5 3 8 4 6 5 7 6 2 7 1 8 3 9 10 10
REMARK H PARENT 10 11
REMARK Flexibility Score: inf
ROOT
ATOM      1  C   UNL     1     372.662 241.895 275.681  1.00  0.00     0.039 A 
ATOM      2  C   UNL     1     373.923 241.631 276.277  1.00  0.00     0.124 A 
ATOM      3  C   UNL     1     372.218 243.227 275.592  1.00  0.00     0.014 A 
ATOM      4  C   UNL     1     374.668 242.687 276.815  1.00  0.00     0.047 A 
ATOM      5  C   UNL     1     372.983 244.270 276.116  1.00  0.00     0.001 A 
ATOM      6  C   UNL     1     374.202 244.000 276.736  1.00  0.00     0.004 A 
ENDROOT
BRANCH   1   7
ATOM      7  C   UNL     1     371.772 240.824 275.178  1.00  0.00     0.075 C 
ATOM      8  O   UNL     1     372.228 239.875 274.488  1.00  0.00    -0.545 OA
ATOM      9  O   UNL     1     370.426 240.820 275.523  1.00  0.00    -0.545 OA
ENDBRANCH   1   7
BRANCH   2  10
ATOM     10  O   UNL     1     374.483 240.352 276.322  1.00  0.00    -0.507 OA
ATOM     11  H   UNL     1     375.409 240.160 276.678  1.00  0.00     0.293 HD
ENDBRANCH   2  10
TORSDOF 2
ENDMDL
MODEL 6
REMARK VINA RESULT:    -4.612      2.591      4.193
REMARK INTER + INTRA:          -5.184
REMARK INTER:                  -4.932
REMARK INTRA:                  -0.252
REMARK UNBOUND:                -0.168
REMARK SMILES O=C([O-])c1ccccc1O
REMARK SMILES IDX 4 1 9 2 5 3 8 4 6 5 7 6 2 7 1 8 3 9 10 10
REMARK H PARENT 10 11
REMARK Flexibility Score: inf
ROOT
ATOM      1  C   UNL     1     371.201 242.170 276.533  1.00  0.00     0.039 A 
ATOM      2  C   UNL     1     371.435 243.570 276.579  1.00  0.00     0.124 A 
ATOM      3  C   UNL     1     370.091 241.645 277.220  1.00  0.00     0.014 A 
ATOM      4  C   UNL     1     370.599 244.386 277.351  1.00  0.00     0.047 A 
ATOM      5  C   UNL     1     369.256 242.476 277.968  1.00  0.00     0.001 A 
ATOM      6  C   UNL     1     369.515 243.844 278.041  1.00  0.00     0.004 A 
ENDROOT
BRANCH   1   7
ATOM      7  C   UNL     1     372.095 241.230 275.821  1.00  0.00     0.075 C 
ATOM      8  O   UNL     1     371.626 240.314 275.098  1.00  0.00    -0.545 OA
ATOM      9  O   UNL     1     373.474 241.395 275.891  1.00  0.00    -0.545 OA
ENDBRANCH   1   7
BRANCH   2  10
ATOM     10  O   UNL     1     372.455 244.188 275.852  1.00  0.00    -0.507 OA
ATOM     11  H   UNL     1     372.517 244.163 274.843  1.00  0.00     0.293 HD
ENDBRANCH   2  10
TORSDOF 2
ENDMDL
MODEL 7
REMARK VINA RESULT:    -4.606      2.478      3.027
REMARK INTER + INTRA:          -5.178
REMARK INTER:                  -4.930
REMARK INTRA:                  -0.248
REMARK UNBOUND:                -0.168
REMARK SMILES O=C([O-])c1ccccc1O
REMARK SMILES IDX 4 1 9 2 5 3 8 4 6 5 7 6 2 7 1 8 3 9 10 10
REMARK H PARENT 10 11
REMARK Flexibility Score: inf
ROOT
ATOM      1  C   UNL     1     370.762 243.557 276.680  1.00  0.00     0.039 A 
ATOM      2  C   UNL     1     370.267 242.481 275.898  1.00  0.00     0.124 A 
ATOM      3  C   UNL     1     372.120 243.909 276.569  1.00  0.00     0.014 A 
ATOM      4  C   UNL     1     371.145 241.755 275.084  1.00  0.00     0.047 A 
ATOM      5  C   UNL     1     372.978 243.187 275.738  1.00  0.00     0.001 A 
ATOM      6  C   UNL     1     372.494 242.105 275.003  1.00  0.00     0.004 A 
ENDROOT
BRANCH   1   7
ATOM      7  C   UNL     1     369.919 244.309 277.636  1.00  0.00     0.075 C 
ATOM      8  O   UNL     1     368.725 244.596 277.359  1.00  0.00    -0.545 OA
ATOM      9  O   UNL     1     370.420 244.647 278.887  1.00  0.00    -0.545 OA
ENDBRANCH   1   7
BRANCH   2  10
ATOM     10  O   UNL     1     368.916 242.126 275.873  1.00  0.00    -0.507 OA
ATOM     11  H   UNL     1     368.204 242.668 275.402  1.00  0.00     0.293 HD
ENDBRANCH   2  10
TORSDOF 2
ENDMDL
MODEL 8
REMARK VINA RESULT:    -4.486      2.824      4.110
REMARK INTER + INTRA:          -5.047
REMARK INTER:                  -4.799
REMARK INTRA:                  -0.249
REMARK UNBOUND:                -0.168
REMARK SMILES O=C([O-])c1ccccc1O
REMARK SMILES IDX 4 1 9 2 5 3 8 4 6 5 7 6 2 7 1 8 3 9 10 10
REMARK H PARENT 10 11
REMARK Flexibility Score: inf
ROOT
ATOM      1  C   UNL     1     370.893 242.820 276.297  1.00  0.00     0.039 A 
ATOM      2  C   UNL     1     369.566 242.316 276.293  1.00  0.00     0.124 A 
ATOM      3  C   UNL     1     371.176 243.982 277.038  1.00  0.00     0.014 A 
ATOM      4  C   UNL     1     368.559 243.014 276.971  1.00  0.00     0.047 A 
ATOM      5  C   UNL     1     370.163 244.654 277.724  1.00  0.00     0.001 A 
ATOM      6  C   UNL     1     368.854 244.176 277.684  1.00  0.00     0.004 A 
ENDROOT
BRANCH   1   7
ATOM      7  C   UNL     1     371.991 242.195 275.526  1.00  0.00     0.075 C 
ATOM      8  O   UNL     1     371.771 241.649 274.414  1.00  0.00    -0.545 OA
ATOM      9  O   UNL     1     373.298 242.268 275.994  1.00  0.00    -0.545 OA
ENDBRANCH   1   7
BRANCH   2  10
ATOM     10  O   UNL     1     369.216 241.118 275.664  1.00  0.00    -0.507 OA
ATOM     11  H   UNL     1     369.733 240.257 275.776  1.00  0.00     0.293 HD
ENDBRANCH   2  10
TORSDOF 2
ENDMDL
