MODEL 1
REMARK VINA RESULT:    -4.781      0.000      0.000
REMARK INTER + INTRA:          -7.954
REMARK INTER:                  -7.296
REMARK INTRA:                  -0.658
REMARK UNBOUND:                -0.658
REMARK SMILES CCCCCCCCCC=CC(=O)[O-]
REMARK SMILES IDX 7 1 8 2 9 3 10 4 11 5 12 6 13 7 14 8 6 9 5 10 4 11 3 12 2 13
REMARK SMILES IDX 1 14
REMARK H PARENT
REMARK Flexibility Score: inf
ROOT
ATOM      1  C   UNL     1    -129.175 106.242  41.293  1.00  0.00     0.000 C 
ENDROOT
BRANCH   1   2
ATOM      2  C   UNL     1    -129.025 105.426  39.995  1.00  0.00     0.004 C 
BRANCH   2   3
ATOM      3  C   UNL     1    -129.437 106.212  38.742  1.00  0.00     0.027 C 
BRANCH   3   4
ATOM      4  C   UNL     1    -130.308 107.383  39.097  1.00  0.00    -0.025 C 
ATOM      5  C   UNL     1    -129.830 108.631  39.112  1.00  0.00     0.020 C 
BRANCH   5   6
ATOM      6  C   UNL     1    -130.675 109.787  39.443  1.00  0.00     0.064 C 
ATOM      7  O   UNL     1    -130.147 110.829  39.912  1.00  0.00    -0.545 OA
ATOM      8  O   UNL     1    -132.052 109.748  39.248  1.00  0.00    -0.545 OA
ENDBRANCH   5   6
ENDBRANCH   3   4
ENDBRANCH   2   3
ENDBRANCH   1   2
BRANCH   1   9
ATOM      9  C   UNL     1    -127.900 106.972  41.753  1.00  0.00     0.000 C 
BRANCH   9  10
ATOM     10  C   UNL     1    -128.192 108.324  42.420  1.00  0.00     0.000 C 
BRANCH  10  11
ATOM     11  C   UNL     1    -129.691 108.486  42.702  1.00  0.00    -0.000 C 
BRANCH  11  12
ATOM     12  C   UNL     1    -129.927 109.116  44.083  1.00  0.00    -0.000 C 
BRANCH  12  13
ATOM     13  C   UNL     1    -131.115 108.485  44.825  1.00  0.00    -0.003 C 
ATOM     14  C   UNL     1    -131.216 108.943  46.280  1.00  0.00     0.004 C 
ENDBRANCH  12  13
ENDBRANCH  11  12
ENDBRANCH  10  11
ENDBRANCH   9  10
ENDBRANCH   1   9
TORSDOF 9
ENDMDL
MODEL 2
REMARK VINA RESULT:    -4.775      3.220      5.774
REMARK INTER + INTRA:          -7.945
REMARK INTER:                  -7.292
REMARK INTRA:                  -0.654
REMARK UNBOUND:                -0.658
REMARK SMILES CCCCCCCCCC=CC(=O)[O-]
REMARK SMILES IDX 7 1 8 2 9 3 10 4 11 5 12 6 13 7 14 8 6 9 5 10 4 11 3 12 2 13
REMARK SMILES IDX 1 14
REMARK H PARENT
REMARK Flexibility Score: inf
ROOT
ATOM      1  C   UNL     1    -129.686 109.470  41.626  1.00  0.00     0.000 C 
ENDROOT
BRANCH   1   2
ATOM      2  C   UNL     1    -129.520 108.127  42.361  1.00  0.00     0.004 C 
BRANCH   2   3
ATOM      3  C   UNL     1    -128.134 107.499  42.154  1.00  0.00     0.027 C 
BRANCH   3   4
ATOM      4  C   UNL     1    -128.177 106.423  41.106  1.00  0.00    -0.025 C 
ATOM      5  C   UNL     1    -129.327 105.848  40.743  1.00  0.00     0.020 C 
BRANCH   5   6
ATOM      6  C   UNL     1    -129.386 104.804  39.709  1.00  0.00     0.064 C 
ATOM      7  O   UNL     1    -129.074 103.621  40.001  1.00  0.00    -0.545 OA
ATOM      8  O   UNL     1    -129.781 105.105  38.409  1.00  0.00    -0.545 OA
ENDBRANCH   5   6
ENDBRANCH   3   4
ENDBRANCH   2   3
ENDBRANCH   1   2
BRANCH   1   9
ATOM      9  C   UNL     1    -130.371 109.379  40.251  1.00  0.00     0.000 C 
BRANCH   9  10
ATOM     10  C   UNL     1    -129.441 109.764  39.091  1.00  0.00     0.000 C 
BRANCH  10  11
ATOM     11  C   UNL     1    -129.147 111.269  39.099  1.00  0.00    -0.000 C 
BRANCH  11  12
ATOM     12  C   UNL     1    -127.952 111.601  38.191  1.00  0.00    -0.000 C 
BRANCH  12  13
ATOM     13  C   UNL     1    -127.978 113.053  37.690  1.00  0.00    -0.003 C 
ATOM     14  C   UNL     1    -128.612 113.190  36.306  1.00  0.00     0.004 C 
ENDBRANCH  12  13
ENDBRANCH  11  12
ENDBRANCH  10  11
ENDBRANCH   9  10
ENDBRANCH   1   9
TORSDOF 9
ENDMDL
MODEL 3
REMARK VINA RESULT:    -4.772      2.370      4.917
REMARK INTER + INTRA:          -7.941
REMARK INTER:                  -6.944
REMARK INTRA:                  -0.997
REMARK UNBOUND:                -0.658
REMARK SMILES CCCCCCCCCC=CC(=O)[O-]
REMARK SMILES IDX 7 1 8 2 9 3 10 4 11 5 12 6 13 7 14 8 6 9 5 10 4 11 3 12 2 13
REMARK SMILES IDX 1 14
REMARK H PARENT
REMARK Flexibility Score: inf
ROOT
ATOM      1  C   UNL     1    -129.293 106.421  41.293  1.00  0.00     0.000 C 
ENDROOT
BRANCH   1   2
ATOM      2  C   UNL     1    -128.108 107.256  41.813  1.00  0.00     0.004 C 
BRANCH   2   3
ATOM      3  C   UNL     1    -128.534 108.630  42.352  1.00  0.00     0.027 C 
BRANCH   3   4
ATOM      4  C   UNL     1    -129.892 108.564  42.992  1.00  0.00    -0.025 C 
ATOM      5  C   UNL     1    -130.042 108.622  44.319  1.00  0.00     0.020 C 
BRANCH   5   6
ATOM      6  C   UNL     1    -131.365 108.575  44.958  1.00  0.00     0.064 C 
ATOM      7  O   UNL     1    -132.358 108.165  44.302  1.00  0.00    -0.545 OA
ATOM      8  O   UNL     1    -131.539 108.977  46.278  1.00  0.00    -0.545 OA
ENDBRANCH   5   6
ENDBRANCH   3   4
ENDBRANCH   2   3
ENDBRANCH   1   2
BRANCH   1   9
ATOM      9  C   UNL     1    -129.001 105.597  40.026  1.00  0.00     0.000 C 
BRANCH   9  10
ATOM     10  C   UNL     1    -129.760 106.107  38.792  1.00  0.00     0.000 C 
BRANCH  10  11
ATOM     11  C   UNL     1    -129.961 107.626  38.860  1.00  0.00    -0.000 C 
BRANCH  11  12
ATOM     12  C   UNL     1    -131.451 107.989  38.760  1.00  0.00    -0.000 C 
BRANCH  12  13
ATOM     13  C   UNL     1    -131.729 109.451  39.141  1.00  0.00    -0.003 C 
ATOM     14  C   UNL     1    -130.489 110.171  39.671  1.00  0.00     0.004 C 
ENDBRANCH  12  13
ENDBRANCH  11  12
ENDBRANCH  10  11
ENDBRANCH   9  10
ENDBRANCH   1   9
TORSDOF 9
ENDMDL
MODEL 4
REMARK VINA RESULT:    -4.693      6.018      7.587
REMARK INTER + INTRA:          -7.820
REMARK INTER:                  -7.142
REMARK INTRA:                  -0.679
REMARK UNBOUND:                -0.658
REMARK SMILES CCCCCCCCCC=CC(=O)[O-]
REMARK SMILES IDX 7 1 8 2 9 3 10 4 11 5 12 6 13 7 14 8 6 9 5 10 4 11 3 12 2 13
REMARK SMILES IDX 1 14
REMARK H PARENT
REMARK Flexibility Score: inf
ROOT
ATOM      1  C   UNL     1    -129.445 114.944  42.174  1.00  0.00     0.000 C 
ENDROOT
BRANCH   1   2
ATOM      2  C   UNL     1    -129.951 113.589  42.702  1.00  0.00     0.004 C 
BRANCH   2   3
ATOM      3  C   UNL     1    -129.161 113.089  43.921  1.00  0.00     0.027 C 
BRANCH   3   4
ATOM      4  C   UNL     1    -129.145 111.588  43.979  1.00  0.00    -0.025 C 
ATOM      5  C   UNL     1    -129.445 110.844  42.910  1.00  0.00     0.020 C 
BRANCH   5   6
ATOM      6  C   UNL     1    -129.418 109.375  42.949  1.00  0.00     0.064 C 
ATOM      7  O   UNL     1    -128.536 108.753  42.302  1.00  0.00    -0.545 OA
ATOM      8  O   UNL     1    -130.354 108.660  43.688  1.00  0.00    -0.545 OA
ENDBRANCH   5   6
ENDBRANCH   3   4
ENDBRANCH   2   3
ENDBRANCH   1   2
BRANCH   1   9
ATOM      9  C   UNL     1    -130.198 116.174  42.714  1.00  0.00     0.000 C 
BRANCH   9  10
ATOM     10  C   UNL     1    -129.257 117.277  43.221  1.00  0.00     0.000 C 
BRANCH  10  11
ATOM     11  C   UNL     1    -129.550 117.618  44.688  1.00  0.00    -0.000 C 
BRANCH  11  12
ATOM     12  C   UNL     1    -129.816 116.345  45.506  1.00  0.00    -0.000 C 
BRANCH  12  13
ATOM     13  C   UNL     1    -130.781 116.587  46.677  1.00  0.00    -0.003 C 
ATOM     14  C   UNL     1    -130.965 118.071  46.995  1.00  0.00     0.004 C 
ENDBRANCH  12  13
ENDBRANCH  11  12
ENDBRANCH  10  11
ENDBRANCH   9  10
ENDBRANCH   1   9
TORSDOF 9
ENDMDL
MODEL 5
REMARK VINA RESULT:    -4.616      2.628      3.467
REMARK INTER + INTRA:          -7.703
REMARK INTER:                  -7.250
REMARK INTRA:                  -0.453
REMARK UNBOUND:                -0.658
REMARK SMILES CCCCCCCCCC=CC(=O)[O-]
REMARK SMILES IDX 7 1 8 2 9 3 10 4 11 5 12 6 13 7 14 8 6 9 5 10 4 11 3 12 2 13
REMARK SMILES IDX 1 14
REMARK H PARENT
REMARK Flexibility Score: inf
ROOT
ATOM      1  C   UNL     1    -129.320 108.317  41.572  1.00  0.00     0.000 C 
ENDROOT
BRANCH   1   2
ATOM      2  C   UNL     1    -129.887 109.346  40.577  1.00  0.00     0.004 C 
BRANCH   2   3
ATOM      3  C   UNL     1    -130.415 108.703  39.286  1.00  0.00     0.027 C 
BRANCH   3   4
ATOM      4  C   UNL     1    -129.753 107.380  39.029  1.00  0.00    -0.025 C 
ATOM      5  C   UNL     1    -130.444 106.236  39.055  1.00  0.00     0.020 C 
BRANCH   5   6
ATOM      6  C   UNL     1    -129.812 104.936  38.790  1.00  0.00     0.064 C 
ATOM      7  O   UNL     1    -129.784 104.487  37.614  1.00  0.00    -0.545 OA
ATOM      8  O   UNL     1    -129.245 104.191  39.819  1.00  0.00    -0.545 OA
ENDBRANCH   5   6
ENDBRANCH   3   4
ENDBRANCH   2   3
ENDBRANCH   1   2
BRANCH   1   9
ATOM      9  C   UNL     1    -128.735 108.915  42.864  1.00  0.00     0.000 C 
BRANCH   9  10
ATOM     10  C   UNL     1    -129.808 109.238  43.914  1.00  0.00     0.000 C 
BRANCH  10  11
ATOM     11  C   UNL     1    -130.985 108.260  43.817  1.00  0.00    -0.000 C 
BRANCH  11  12
ATOM     12  C   UNL     1    -131.848 108.308  45.087  1.00  0.00    -0.000 C 
BRANCH  12  13
ATOM     13  C   UNL     1    -131.167 109.070  46.234  1.00  0.00    -0.003 C 
ATOM     14  C   UNL     1    -130.625 108.143  47.322  1.00  0.00     0.004 C 
ENDBRANCH  12  13
ENDBRANCH  11  12
ENDBRANCH  10  11
ENDBRANCH   9  10
ENDBRANCH   1   9
TORSDOF 9
ENDMDL
MODEL 6
REMARK VINA RESULT:    -4.616      5.678      7.113
REMARK INTER + INTRA:          -7.702
REMARK INTER:                  -7.176
REMARK INTRA:                  -0.527
REMARK UNBOUND:                -0.658
REMARK SMILES CCCCCCCCCC=CC(=O)[O-]
REMARK SMILES IDX 7 1 8 2 9 3 10 4 11 5 12 6 13 7 14 8 6 9 5 10 4 11 3 12 2 13
REMARK SMILES IDX 1 14
REMARK H PARENT
REMARK Flexibility Score: inf
ROOT
ATOM      1  C   UNL     1    -130.043 113.726  42.785  1.00  0.00     0.000 C 
ENDROOT
BRANCH   1   2
ATOM      2  C   UNL     1    -129.002 113.044  43.692  1.00  0.00     0.004 C 
BRANCH   2   3
ATOM      3  C   UNL     1    -129.363 111.591  44.031  1.00  0.00     0.027 C 
BRANCH   3   4
ATOM      4  C   UNL     1    -129.234 110.704  42.825  1.00  0.00    -0.025 C 
ATOM      5  C   UNL     1    -129.367 109.377  42.916  1.00  0.00     0.020 C 
BRANCH   5   6
ATOM      6  C   UNL     1    -129.258 108.499  41.743  1.00  0.00     0.064 C 
ATOM      7  O   UNL     1    -129.069 107.265  41.905  1.00  0.00    -0.545 OA
ATOM      8  O   UNL     1    -129.360 109.010  40.453  1.00  0.00    -0.545 OA
ENDBRANCH   5   6
ENDBRANCH   3   4
ENDBRANCH   2   3
ENDBRANCH   1   2
BRANCH   1   9
ATOM      9  C   UNL     1    -129.587 115.055  42.157  1.00  0.00     0.000 C 
BRANCH   9  10
ATOM     10  C   UNL     1    -130.216 116.283  42.832  1.00  0.00     0.000 C 
BRANCH  10  11
ATOM     11  C   UNL     1    -129.169 117.378  43.067  1.00  0.00    -0.000 C 
BRANCH  11  12
ATOM     12  C   UNL     1    -129.291 117.962  44.483  1.00  0.00    -0.000 C 
BRANCH  12  13
ATOM     13  C   UNL     1    -129.877 116.957  45.486  1.00  0.00    -0.003 C 
ATOM     14  C   UNL     1    -130.796 117.615  46.515  1.00  0.00     0.004 C 
ENDBRANCH  12  13
ENDBRANCH  11  12
ENDBRANCH  10  11
ENDBRANCH   9  10
ENDBRANCH   1   9
TORSDOF 9
ENDMDL
MODEL 7
REMARK VINA RESULT:    -4.590      4.826      5.971
REMARK INTER + INTRA:          -7.663
REMARK INTER:                  -7.354
REMARK INTRA:                  -0.310
REMARK UNBOUND:                -0.658
REMARK SMILES CCCCCCCCCC=CC(=O)[O-]
REMARK SMILES IDX 7 1 8 2 9 3 10 4 11 5 12 6 13 7 14 8 6 9 5 10 4 11 3 12 2 13
REMARK SMILES IDX 1 14
REMARK H PARENT
REMARK Flexibility Score: inf
ROOT
ATOM      1  C   UNL     1    -129.363 111.636  44.002  1.00  0.00     0.000 C 
ENDROOT
BRANCH   1   2
ATOM      2  C   UNL     1    -129.364 110.777  42.724  1.00  0.00     0.004 C 
BRANCH   2   3
ATOM      3  C   UNL     1    -129.353 109.270  43.016  1.00  0.00     0.027 C 
BRANCH   3   4
ATOM      4  C   UNL     1    -129.561 108.472  41.760  1.00  0.00    -0.025 C 
ATOM      5  C   UNL     1    -129.040 107.250  41.614  1.00  0.00     0.020 C 
BRANCH   5   6
ATOM      6  C   UNL     1    -129.248 106.453  40.396  1.00  0.00     0.064 C 
ATOM      7  O   UNL     1    -128.939 105.233  40.393  1.00  0.00    -0.545 OA
ATOM      8  O   UNL     1    -129.781 107.026  39.247  1.00  0.00    -0.545 OA
ENDBRANCH   5   6
ENDBRANCH   3   4
ENDBRANCH   2   3
ENDBRANCH   1   2
BRANCH   1   9
ATOM      9  C   UNL     1    -128.993 113.115  43.792  1.00  0.00     0.000 C 
BRANCH   9  10
ATOM     10  C   UNL     1    -129.923 113.830  42.800  1.00  0.00     0.000 C 
BRANCH  10  11
ATOM     11  C   UNL     1    -129.851 115.352  42.978  1.00  0.00    -0.000 C 
BRANCH  11  12
ATOM     12  C   UNL     1    -129.700 115.726  44.461  1.00  0.00    -0.000 C 
BRANCH  12  13
ATOM     13  C   UNL     1    -129.786 117.241  44.698  1.00  0.00    -0.003 C 
ATOM     14  C   UNL     1    -130.514 117.598  45.994  1.00  0.00     0.004 C 
ENDBRANCH  12  13
ENDBRANCH  11  12
ENDBRANCH  10  11
ENDBRANCH   9  10
ENDBRANCH   1   9
TORSDOF 9
ENDMDL
MODEL 8
REMARK VINA RESULT:    -4.546     14.639     16.429
REMARK INTER + INTRA:          -7.596
REMARK INTER:                  -6.917
REMARK INTRA:                  -0.678
REMARK UNBOUND:                -0.658
REMARK SMILES CCCCCCCCCC=CC(=O)[O-]
REMARK SMILES IDX 7 1 8 2 9 3 10 4 11 5 12 6 13 7 14 8 6 9 5 10 4 11 3 12 2 13
REMARK SMILES IDX 1 14
REMARK H PARENT
REMARK Flexibility Score: inf
ROOT
ATOM      1  C   UNL     1    -143.614 101.134  31.692  1.00  0.00     0.000 C 
ENDROOT
BRANCH   1   2
ATOM      2  C   UNL     1    -143.021 102.100  32.734  1.00  0.00     0.004 C 
BRANCH   2   3
ATOM      3  C   UNL     1    -143.690 101.979  34.111  1.00  0.00     0.027 C 
BRANCH   3   4
ATOM      4  C   UNL     1    -143.249 103.084  35.028  1.00  0.00    -0.025 C 
ATOM      5  C   UNL     1    -142.556 104.134  34.574  1.00  0.00     0.020 C 
BRANCH   5   6
ATOM      6  C   UNL     1    -142.131 105.230  35.457  1.00  0.00     0.064 C 
ATOM      7  O   UNL     1    -141.421 106.160  34.995  1.00  0.00    -0.545 OA
ATOM      8  O   UNL     1    -142.500 105.254  36.798  1.00  0.00    -0.545 OA
ENDBRANCH   5   6
ENDBRANCH   3   4
ENDBRANCH   2   3
ENDBRANCH   1   2
BRANCH   1   9
ATOM      9  C   UNL     1    -142.832  99.822  31.502  1.00  0.00     0.000 C 
BRANCH   9  10
ATOM     10  C   UNL     1    -142.852  98.927  32.751  1.00  0.00     0.000 C 
BRANCH  10  11
ATOM     11  C   UNL     1    -141.473  98.887  33.421  1.00  0.00    -0.000 C 
BRANCH  11  12
ATOM     12  C   UNL     1    -141.602  98.975  34.950  1.00  0.00    -0.000 C 
BRANCH  12  13
ATOM     13  C   UNL     1    -143.059  99.133  35.411  1.00  0.00    -0.003 C 
ATOM     14  C   UNL     1    -143.238  98.876  36.907  1.00  0.00     0.004 C 
ENDBRANCH  12  13
ENDBRANCH  11  12
ENDBRANCH  10  11
ENDBRANCH   9  10
ENDBRANCH   1   9
TORSDOF 9
ENDMDL
MODEL 9
REMARK VINA RESULT:    -4.382      5.193      6.354
REMARK INTER + INTRA:          -7.345
REMARK INTER:                  -6.961
REMARK INTRA:                  -0.385
REMARK UNBOUND:                -0.658
REMARK SMILES CCCCCCCCCC=CC(=O)[O-]
REMARK SMILES IDX 7 1 8 2 9 3 10 4 11 5 12 6 13 7 14 8 6 9 5 10 4 11 3 12 2 13
REMARK SMILES IDX 1 14
REMARK H PARENT
REMARK Flexibility Score: inf
ROOT
ATOM      1  C   UNL     1    -130.363 113.678  41.969  1.00  0.00     0.000 C 
ENDROOT
BRANCH   1   2
ATOM      2  C   UNL     1    -129.757 112.262  41.989  1.00  0.00     0.004 C 
BRANCH   2   3
ATOM      3  C   UNL     1    -129.786 111.579  40.613  1.00  0.00     0.027 C 
BRANCH   3   4
ATOM      4  C   UNL     1    -129.712 110.085  40.747  1.00  0.00    -0.025 C 
ATOM      5  C   UNL     1    -129.863 109.281  39.691  1.00  0.00     0.020 C 
BRANCH   5   6
ATOM      6  C   UNL     1    -129.777 107.818  39.804  1.00  0.00     0.064 C 
ATOM      7  O   UNL     1    -130.081 107.099  38.817  1.00  0.00    -0.545 OA
ATOM      8  O   UNL     1    -129.367 107.214  40.988  1.00  0.00    -0.545 OA
ENDBRANCH   5   6
ENDBRANCH   3   4
ENDBRANCH   2   3
ENDBRANCH   1   2
BRANCH   1   9
ATOM      9  C   UNL     1    -129.684 114.689  42.910  1.00  0.00     0.000 C 
BRANCH   9  10
ATOM     10  C   UNL     1    -129.583 114.186  44.358  1.00  0.00     0.000 C 
BRANCH  10  11
ATOM     11  C   UNL     1    -129.709 115.347  45.353  1.00  0.00    -0.000 C 
BRANCH  11  12
ATOM     12  C   UNL     1    -129.781 116.695  44.619  1.00  0.00    -0.000 C 
BRANCH  12  13
ATOM     13  C   UNL     1    -130.173 117.853  45.550  1.00  0.00    -0.003 C 
ATOM     14  C   UNL     1    -130.903 117.381  46.808  1.00  0.00     0.004 C 
ENDBRANCH  12  13
ENDBRANCH  11  12
ENDBRANCH  10  11
ENDBRANCH   9  10
ENDBRANCH   1   9
TORSDOF 9
ENDMDL
