MODEL 1
REMARK VINA RESULT:    -3.951      0.000      0.000
REMARK INTER + INTRA:          -6.851
REMARK INTER:                  -6.030
REMARK INTRA:                  -0.821
REMARK UNBOUND:                -0.821
REMARK SMILES O=C([O-])CCCCCCCCC(=O)[O-]
REMARK SMILES IDX 7 1 6 2 5 3 4 4 2 5 1 6 3 7 8 8 9 9 10 10 11 11 12 12 13 13
REMARK SMILES IDX 14 14
REMARK H PARENT
REMARK Flexibility Score: inf
ROOT
ATOM      1  C   UNL     1     -22.604 -13.091 -19.457  1.00  0.00     0.000 C 
ENDROOT
BRANCH   1   2
ATOM      2  C   UNL     1     -22.868 -12.676 -17.998  1.00  0.00     0.000 C 
BRANCH   2   3
ATOM      3  C   UNL     1     -22.759 -13.858 -17.021  1.00  0.00     0.006 C 
BRANCH   3   4
ATOM      4  C   UNL     1     -22.368 -13.420 -15.602  1.00  0.00     0.053 C 
BRANCH   4   5
ATOM      5  C   UNL     1     -23.591 -13.202 -14.770  1.00  0.00     0.041 C 
ATOM      6  O   UNL     1     -24.190 -12.095 -14.799  1.00  0.00    -0.550 OA
ATOM      7  O   UNL     1     -24.100 -14.239 -13.996  1.00  0.00    -0.550 OA
ENDBRANCH   4   5
ENDBRANCH   3   4
ENDBRANCH   2   3
ENDBRANCH   1   2
BRANCH   1   8
ATOM      8  C   UNL     1     -21.540 -12.212 -20.134  1.00  0.00     0.000 C 
BRANCH   8   9
ATOM      9  C   UNL     1     -20.324 -11.950 -19.228  1.00  0.00     0.000 C 
BRANCH   9  10
ATOM     10  C   UNL     1     -19.350 -13.142 -19.179  1.00  0.00     0.006 C 
BRANCH  10  11
ATOM     11  C   UNL     1     -19.037 -13.643 -17.760  1.00  0.00     0.053 C 
BRANCH  11  12
ATOM     12  C   UNL     1     -18.921 -15.136 -17.705  1.00  0.00     0.041 C 
ATOM     13  O   UNL     1     -17.836 -15.698 -18.005  1.00  0.00    -0.550 OA
ATOM     14  O   UNL     1     -20.002 -15.903 -17.290  1.00  0.00    -0.550 OA
ENDBRANCH  11  12
ENDBRANCH  10  11
ENDBRANCH   9  10
ENDBRANCH   8   9
ENDBRANCH   1   8
TORSDOF 9
ENDMDL
MODEL 2
REMARK VINA RESULT:    -3.917     13.056     13.881
REMARK INTER + INTRA:          -6.800
REMARK INTER:                  -6.203
REMARK INTRA:                  -0.597
REMARK UNBOUND:                -0.821
REMARK SMILES O=C([O-])CCCCCCCCC(=O)[O-]
REMARK SMILES IDX 7 1 6 2 5 3 4 4 2 5 1 6 3 7 8 8 9 9 10 10 11 11 12 12 13 13
REMARK SMILES IDX 14 14
REMARK H PARENT
REMARK Flexibility Score: inf
ROOT
ATOM      1  C   UNL     1     -26.132 -20.823 -29.452  1.00  0.00     0.000 C 
ENDROOT
BRANCH   1   2
ATOM      2  C   UNL     1     -27.666 -20.770 -29.342  1.00  0.00     0.000 C 
BRANCH   2   3
ATOM      3  C   UNL     1     -28.167 -21.117 -27.930  1.00  0.00     0.006 C 
BRANCH   3   4
ATOM      4  C   UNL     1     -27.885 -20.004 -26.911  1.00  0.00     0.053 C 
BRANCH   4   5
ATOM      5  C   UNL     1     -29.167 -19.418 -26.411  1.00  0.00     0.041 C 
ATOM      6  O   UNL     1     -30.035 -20.155 -25.875  1.00  0.00    -0.550 OA
ATOM      7  O   UNL     1     -29.383 -18.048 -26.492  1.00  0.00    -0.550 OA
ENDBRANCH   4   5
ENDBRANCH   3   4
ENDBRANCH   2   3
ENDBRANCH   1   2
BRANCH   1   8
ATOM      8  C   UNL     1     -25.615 -22.231 -29.788  1.00  0.00     0.000 C 
BRANCH   8   9
ATOM      9  C   UNL     1     -25.124 -22.994 -28.544  1.00  0.00     0.000 C 
BRANCH   9  10
ATOM     10  C   UNL     1     -24.435 -22.076 -27.518  1.00  0.00     0.006 C 
BRANCH  10  11
ATOM     11  C   UNL     1     -23.259 -22.730 -26.775  1.00  0.00     0.053 C 
BRANCH  11  12
ATOM     12  C   UNL     1     -21.978 -22.617 -27.542  1.00  0.00     0.041 C 
ATOM     13  O   UNL     1     -21.688 -21.547 -28.136  1.00  0.00    -0.550 OA
ATOM     14  O   UNL     1     -21.089 -23.684 -27.571  1.00  0.00    -0.550 OA
ENDBRANCH  11  12
ENDBRANCH  10  11
ENDBRANCH   9  10
ENDBRANCH   8   9
ENDBRANCH   1   8
TORSDOF 9
ENDMDL
MODEL 3
REMARK VINA RESULT:    -3.855      2.525      5.567
REMARK INTER + INTRA:          -6.705
REMARK INTER:                  -5.981
REMARK INTRA:                  -0.723
REMARK UNBOUND:                -0.821
REMARK SMILES O=C([O-])CCCCCCCCC(=O)[O-]
REMARK SMILES IDX 7 1 6 2 5 3 4 4 2 5 1 6 3 7 8 8 9 9 10 10 11 11 12 12 13 13
REMARK SMILES IDX 14 14
REMARK H PARENT
REMARK Flexibility Score: inf
ROOT
ATOM      1  C   UNL     1     -23.410 -12.217 -15.689  1.00  0.00     0.000 C 
ENDROOT
BRANCH   1   2
ATOM      2  C   UNL     1     -22.669 -12.668 -16.961  1.00  0.00     0.000 C 
BRANCH   2   3
ATOM      3  C   UNL     1     -21.625 -13.761 -16.678  1.00  0.00     0.006 C 
BRANCH   3   4
ATOM      4  C   UNL     1     -20.907 -14.237 -17.948  1.00  0.00     0.053 C 
BRANCH   4   5
ATOM      5  C   UNL     1     -19.710 -13.384 -18.221  1.00  0.00     0.041 C 
ATOM      6  O   UNL     1     -18.606 -13.644 -17.673  1.00  0.00    -0.550 OA
ATOM      7  O   UNL     1     -19.799 -12.328 -19.120  1.00  0.00    -0.550 OA
ENDBRANCH   4   5
ENDBRANCH   3   4
ENDBRANCH   2   3
ENDBRANCH   1   2
BRANCH   1   8
ATOM      8  C   UNL     1     -23.394 -13.289 -14.588  1.00  0.00     0.000 C 
BRANCH   8   9
ATOM      9  C   UNL     1     -24.803 -13.628 -14.069  1.00  0.00     0.000 C 
BRANCH   9  10
ATOM     10  C   UNL     1     -25.073 -15.143 -14.032  1.00  0.00     0.006 C 
BRANCH  10  11
ATOM     11  C   UNL     1     -23.878 -16.008 -14.464  1.00  0.00     0.053 C 
BRANCH  11  12
ATOM     12  C   UNL     1     -24.173 -16.795 -15.703  1.00  0.00     0.041 C 
ATOM     13  O   UNL     1     -23.763 -16.391 -16.822  1.00  0.00    -0.550 OA
ATOM     14  O   UNL     1     -24.872 -17.992 -15.617  1.00  0.00    -0.550 OA
ENDBRANCH  11  12
ENDBRANCH  10  11
ENDBRANCH   9  10
ENDBRANCH   8   9
ENDBRANCH   1   8
TORSDOF 9
ENDMDL
MODEL 4
REMARK VINA RESULT:    -3.852      2.505      6.355
REMARK INTER + INTRA:          -6.701
REMARK INTER:                  -6.147
REMARK INTRA:                  -0.554
REMARK UNBOUND:                -0.821
REMARK SMILES O=C([O-])CCCCCCCCC(=O)[O-]
REMARK SMILES IDX 7 1 6 2 5 3 4 4 2 5 1 6 3 7 8 8 9 9 10 10 11 11 12 12 13 13
REMARK SMILES IDX 14 14
REMARK H PARENT
REMARK Flexibility Score: inf
ROOT
ATOM      1  C   UNL     1     -23.067 -12.721 -15.068  1.00  0.00     0.000 C 
ENDROOT
BRANCH   1   2
ATOM      2  C   UNL     1     -23.123 -12.014 -16.434  1.00  0.00     0.000 C 
BRANCH   2   3
ATOM      3  C   UNL     1     -22.339 -12.768 -17.520  1.00  0.00     0.006 C 
BRANCH   3   4
ATOM      4  C   UNL     1     -21.382 -13.818 -16.939  1.00  0.00     0.053 C 
BRANCH   4   5
ATOM      5  C   UNL     1     -20.091 -13.821 -17.695  1.00  0.00     0.041 C 
ATOM      6  O   UNL     1     -19.817 -12.881 -18.487  1.00  0.00    -0.550 OA
ATOM      7  O   UNL     1     -19.167 -14.838 -17.488  1.00  0.00    -0.550 OA
ENDBRANCH   4   5
ENDBRANCH   3   4
ENDBRANCH   2   3
ENDBRANCH   1   2
BRANCH   1   8
ATOM      8  C   UNL     1     -24.341 -12.496 -14.238  1.00  0.00     0.000 C 
BRANCH   8   9
ATOM      9  C   UNL     1     -25.086 -13.806 -13.926  1.00  0.00     0.000 C 
BRANCH   9  10
ATOM     10  C   UNL     1     -24.239 -15.056 -14.228  1.00  0.00     0.006 C 
BRANCH  10  11
ATOM     11  C   UNL     1     -25.060 -16.341 -14.426  1.00  0.00     0.053 C 
BRANCH  11  12
ATOM     12  C   UNL     1     -26.130 -16.489 -13.389  1.00  0.00     0.041 C 
ATOM     13  O   UNL     1     -27.339 -16.328 -13.699  1.00  0.00    -0.550 OA
ATOM     14  O   UNL     1     -25.794 -16.837 -12.087  1.00  0.00    -0.550 OA
ENDBRANCH  11  12
ENDBRANCH  10  11
ENDBRANCH   9  10
ENDBRANCH   8   9
ENDBRANCH   1   8
TORSDOF 9
ENDMDL
MODEL 5
REMARK VINA RESULT:    -3.850      2.217      3.188
REMARK INTER + INTRA:          -6.697
REMARK INTER:                  -6.041
REMARK INTRA:                  -0.656
REMARK UNBOUND:                -0.821
REMARK SMILES O=C([O-])CCCCCCCCC(=O)[O-]
REMARK SMILES IDX 7 1 6 2 5 3 4 4 2 5 1 6 3 7 8 8 9 9 10 10 11 11 12 12 13 13
REMARK SMILES IDX 14 14
REMARK H PARENT
REMARK Flexibility Score: inf
ROOT
ATOM      1  C   UNL     1     -22.712 -13.188 -17.274  1.00  0.00     0.000 C 
ENDROOT
BRANCH   1   2
ATOM      2  C   UNL     1     -23.090 -12.240 -16.122  1.00  0.00     0.000 C 
BRANCH   2   3
ATOM      3  C   UNL     1     -23.077 -12.940 -14.754  1.00  0.00     0.006 C 
BRANCH   3   4
ATOM      4  C   UNL     1     -24.472 -13.025 -14.118  1.00  0.00     0.053 C 
BRANCH   4   5
ATOM      5  C   UNL     1     -24.973 -14.434 -14.150  1.00  0.00     0.041 C 
ATOM      6  O   UNL     1     -26.191 -14.679 -13.942  1.00  0.00    -0.550 OA
ATOM      7  O   UNL     1     -24.105 -15.474 -14.458  1.00  0.00    -0.550 OA
ENDBRANCH   4   5
ENDBRANCH   3   4
ENDBRANCH   2   3
ENDBRANCH   1   2
BRANCH   1   8
ATOM      8  C   UNL     1     -21.284 -13.740 -17.137  1.00  0.00     0.000 C 
BRANCH   8   9
ATOM      9  C   UNL     1     -20.333 -13.201 -18.220  1.00  0.00     0.000 C 
BRANCH   9  10
ATOM     10  C   UNL     1     -21.011 -12.177 -19.150  1.00  0.00     0.006 C 
BRANCH  10  11
ATOM     11  C   UNL     1     -21.033 -12.588 -20.631  1.00  0.00     0.053 C 
BRANCH  11  12
ATOM     12  C   UNL     1     -21.722 -13.901 -20.839  1.00  0.00     0.041 C 
ATOM     13  O   UNL     1     -22.969 -13.992 -20.696  1.00  0.00    -0.550 OA
ATOM     14  O   UNL     1     -20.990 -15.017 -21.226  1.00  0.00    -0.550 OA
ENDBRANCH  11  12
ENDBRANCH  10  11
ENDBRANCH   9  10
ENDBRANCH   8   9
ENDBRANCH   1   8
TORSDOF 9
ENDMDL
MODEL 6
REMARK VINA RESULT:    -3.822      1.128      5.169
REMARK INTER + INTRA:          -6.655
REMARK INTER:                  -5.834
REMARK INTRA:                  -0.821
REMARK UNBOUND:                -0.821
REMARK SMILES O=C([O-])CCCCCCCCC(=O)[O-]
REMARK SMILES IDX 7 1 6 2 5 3 4 4 2 5 1 6 3 7 8 8 9 9 10 10 11 11 12 12 13 13
REMARK SMILES IDX 14 14
REMARK H PARENT
REMARK Flexibility Score: inf
ROOT
ATOM      1  C   UNL     1     -21.284 -13.636 -19.175  1.00  0.00     0.000 C 
ENDROOT
BRANCH   1   2
ATOM      2  C   UNL     1     -20.130 -12.802 -18.592  1.00  0.00     0.000 C 
BRANCH   2   3
ATOM      3  C   UNL     1     -19.165 -13.645 -17.741  1.00  0.00     0.006 C 
BRANCH   3   4
ATOM      4  C   UNL     1     -19.630 -15.100 -17.584  1.00  0.00     0.053 C 
BRANCH   4   5
ATOM      5  C   UNL     1     -18.466 -16.032 -17.689  1.00  0.00     0.041 C 
ATOM      6  O   UNL     1     -17.448 -15.704 -18.353  1.00  0.00    -0.550 OA
ATOM      7  O   UNL     1     -18.484 -17.246 -17.012  1.00  0.00    -0.550 OA
ENDBRANCH   4   5
ENDBRANCH   3   4
ENDBRANCH   2   3
ENDBRANCH   1   2
BRANCH   1   8
ATOM      8  C   UNL     1     -22.643 -13.275 -18.553  1.00  0.00     0.000 C 
BRANCH   8   9
ATOM      9  C   UNL     1     -22.570 -12.031 -17.650  1.00  0.00     0.000 C 
BRANCH   9  10
ATOM     10  C   UNL     1     -23.007 -12.322 -16.202  1.00  0.00     0.006 C 
BRANCH  10  11
ATOM     11  C   UNL     1     -22.750 -13.767 -15.744  1.00  0.00     0.053 C 
BRANCH  11  12
ATOM     12  C   UNL     1     -23.699 -14.190 -14.665  1.00  0.00     0.041 C 
ATOM     13  O   UNL     1     -23.750 -15.394 -14.303  1.00  0.00    -0.550 OA
ATOM     14  O   UNL     1     -24.501 -13.247 -14.035  1.00  0.00    -0.550 OA
ENDBRANCH  11  12
ENDBRANCH  10  11
ENDBRANCH   9  10
ENDBRANCH   8   9
ENDBRANCH   1   8
TORSDOF 9
ENDMDL
MODEL 7
REMARK VINA RESULT:    -3.817      1.426      5.187
REMARK INTER + INTRA:          -6.646
REMARK INTER:                  -5.861
REMARK INTRA:                  -0.785
REMARK UNBOUND:                -0.821
REMARK SMILES O=C([O-])CCCCCCCCC(=O)[O-]
REMARK SMILES IDX 7 1 6 2 5 3 4 4 2 5 1 6 3 7 8 8 9 9 10 10 11 11 12 12 13 13
REMARK SMILES IDX 14 14
REMARK H PARENT
REMARK Flexibility Score: inf
ROOT
ATOM      1  C   UNL     1     -22.925 -14.009 -19.674  1.00  0.00     0.000 C 
ENDROOT
BRANCH   1   2
ATOM      2  C   UNL     1     -22.406 -12.585 -19.943  1.00  0.00     0.000 C 
BRANCH   2   3
ATOM      3  C   UNL     1     -20.976 -12.577 -20.507  1.00  0.00     0.006 C 
BRANCH   3   4
ATOM      4  C   UNL     1     -19.926 -12.192 -19.455  1.00  0.00     0.053 C 
BRANCH   4   5
ATOM      5  C   UNL     1     -19.317 -13.418 -18.854  1.00  0.00     0.041 C 
ATOM      6  O   UNL     1     -19.032 -14.406 -19.581  1.00  0.00    -0.550 OA
ATOM      7  O   UNL     1     -19.017 -13.453 -17.497  1.00  0.00    -0.550 OA
ENDBRANCH   4   5
ENDBRANCH   3   4
ENDBRANCH   2   3
ENDBRANCH   1   2
BRANCH   1   8
ATOM      8  C   UNL     1     -22.803 -14.409 -18.195  1.00  0.00     0.000 C 
BRANCH   8   9
ATOM      9  C   UNL     1     -22.759 -13.193 -17.253  1.00  0.00     0.000 C 
BRANCH   9  10
ATOM     10  C   UNL     1     -22.281 -13.556 -15.835  1.00  0.00     0.006 C 
BRANCH  10  11
ATOM     11  C   UNL     1     -23.224 -13.093 -14.713  1.00  0.00     0.053 C 
BRANCH  11  12
ATOM     12  C   UNL     1     -24.172 -14.175 -14.294  1.00  0.00     0.041 C 
ATOM     13  O   UNL     1     -23.800 -15.377 -14.291  1.00  0.00    -0.550 OA
ATOM     14  O   UNL     1     -25.456 -13.850 -13.875  1.00  0.00    -0.550 OA
ENDBRANCH  11  12
ENDBRANCH  10  11
ENDBRANCH   9  10
ENDBRANCH   8   9
ENDBRANCH   1   8
TORSDOF 9
ENDMDL
MODEL 8
REMARK VINA RESULT:    -3.814      2.478      3.209
REMARK INTER + INTRA:          -6.642
REMARK INTER:                  -5.967
REMARK INTRA:                  -0.676
REMARK UNBOUND:                -0.821
REMARK SMILES O=C([O-])CCCCCCCCC(=O)[O-]
REMARK SMILES IDX 7 1 6 2 5 3 4 4 2 5 1 6 3 7 8 8 9 9 10 10 11 11 12 12 13 13
REMARK SMILES IDX 14 14
REMARK H PARENT
REMARK Flexibility Score: inf
ROOT
ATOM      1  C   UNL     1     -21.428 -13.603 -17.222  1.00  0.00     0.000 C 
ENDROOT
BRANCH   1   2
ATOM      2  C   UNL     1     -22.798 -12.902 -17.240  1.00  0.00     0.000 C 
BRANCH   2   3
ATOM      3  C   UNL     1     -23.214 -12.386 -15.853  1.00  0.00     0.006 C 
BRANCH   3   4
ATOM      4  C   UNL     1     -22.870 -13.370 -14.726  1.00  0.00     0.053 C 
BRANCH   4   5
ATOM      5  C   UNL     1     -24.094 -14.110 -14.290  1.00  0.00     0.041 C 
ATOM      6  O   UNL     1     -24.170 -15.358 -14.445  1.00  0.00    -0.550 OA
ATOM      7  O   UNL     1     -25.132 -13.430 -13.665  1.00  0.00    -0.550 OA
ENDBRANCH   4   5
ENDBRANCH   3   4
ENDBRANCH   2   3
ENDBRANCH   1   2
BRANCH   1   8
ATOM      8  C   UNL     1     -20.484 -13.076 -18.315  1.00  0.00     0.000 C 
BRANCH   8   9
ATOM      9  C   UNL     1     -21.088 -11.901 -19.104  1.00  0.00     0.000 C 
BRANCH   9  10
ATOM     10  C   UNL     1     -21.284 -12.227 -20.597  1.00  0.00     0.006 C 
BRANCH  10  11
ATOM     11  C   UNL     1     -21.048 -13.703 -20.957  1.00  0.00     0.053 C 
BRANCH  11  12
ATOM     12  C   UNL     1     -22.333 -14.450 -21.132  1.00  0.00     0.041 C 
ATOM     13  O   UNL     1     -23.307 -14.225 -20.368  1.00  0.00    -0.550 OA
ATOM     14  O   UNL     1     -22.467 -15.372 -22.163  1.00  0.00    -0.550 OA
ENDBRANCH  11  12
ENDBRANCH  10  11
ENDBRANCH   9  10
ENDBRANCH   8   9
ENDBRANCH   1   8
TORSDOF 9
ENDMDL
MODEL 9
REMARK VINA RESULT:    -3.783      2.782      4.201
REMARK INTER + INTRA:          -6.595
REMARK INTER:                  -6.012
REMARK INTRA:                  -0.583
REMARK UNBOUND:                -0.821
REMARK SMILES O=C([O-])CCCCCCCCC(=O)[O-]
REMARK SMILES IDX 7 1 6 2 5 3 4 4 2 5 1 6 3 7 8 8 9 9 10 10 11 11 12 12 13 13
REMARK SMILES IDX 14 14
REMARK H PARENT
REMARK Flexibility Score: inf
ROOT
ATOM      1  C   UNL     1     -24.401 -13.026 -14.286  1.00  0.00     0.000 C 
ENDROOT
BRANCH   1   2
ATOM      2  C   UNL     1     -24.799 -14.479 -13.970  1.00  0.00     0.000 C 
BRANCH   2   3
ATOM      3  C   UNL     1     -24.036 -15.499 -14.831  1.00  0.00     0.006 C 
BRANCH   3   4
ATOM      4  C   UNL     1     -24.679 -16.893 -14.808  1.00  0.00     0.053 C 
BRANCH   4   5
ATOM      5  C   UNL     1     -23.827 -17.846 -14.033  1.00  0.00     0.041 C 
ATOM      6  O   UNL     1     -22.641 -18.072 -14.390  1.00  0.00    -0.550 OA
ATOM      7  O   UNL     1     -24.327 -18.450 -12.885  1.00  0.00    -0.550 OA
ENDBRANCH   4   5
ENDBRANCH   3   4
ENDBRANCH   2   3
ENDBRANCH   1   2
BRANCH   1   8
ATOM      8  C   UNL     1     -23.030 -12.928 -14.973  1.00  0.00     0.000 C 
BRANCH   8   9
ATOM      9  C   UNL     1     -23.068 -12.077 -16.255  1.00  0.00     0.000 C 
BRANCH   9  10
ATOM     10  C   UNL     1     -22.502 -12.821 -17.479  1.00  0.00     0.006 C 
BRANCH  10  11
ATOM     11  C   UNL     1     -21.362 -13.799 -17.151  1.00  0.00     0.053 C 
BRANCH  11  12
ATOM     12  C   UNL     1     -20.090 -13.433 -17.852  1.00  0.00     0.041 C 
ATOM     13  O   UNL     1     -18.980 -13.790 -17.378  1.00  0.00    -0.550 OA
ATOM     14  O   UNL     1     -20.133 -12.726 -19.047  1.00  0.00    -0.550 OA
ENDBRANCH  11  12
ENDBRANCH  10  11
ENDBRANCH   9  10
ENDBRANCH   8   9
ENDBRANCH   1   8
TORSDOF 9
ENDMDL
