MODEL 1
REMARK VINA RESULT:    -4.272      0.000      0.000
REMARK INTER + INTRA:          -4.647
REMARK INTER:                  -4.647
REMARK INTRA:                   0.000
REMARK UNBOUND:                 0.000
REMARK SMILES Cc1cc(O)c2c(c1)C(=O)c1cc(O)cc(O)c1C2=O
REMARK SMILES IDX 1 1 2 2 8 3 7 4 6 5 4 6 3 7 19 8 20 9 18 10 11 11 9 12 10 13
REMARK SMILES IDX 12 14 13 15 15 16 16 17 5 18 17 20 14 22
REMARK H PARENT 5 19 17 21 14 23
REMARK Flexibility Score: inf
ROOT
ATOM      1  C   UNL     1      27.763  -2.088 -24.656  1.00  0.00     0.044 C 
ATOM      2  C   UNL     1      27.662  -3.326 -23.813  1.00  0.00    -0.047 A 
ATOM      3  C   UNL     1      26.539  -4.154 -23.912  1.00  0.00     0.016 A 
ATOM      4  C   UNL     1      26.444  -5.328 -23.146  1.00  0.00     0.038 A 
ATOM      5  C   UNL     1      27.492  -5.682 -22.264  1.00  0.00     0.076 A 
ATOM      6  C   UNL     1      28.671  -4.888 -22.245  1.00  0.00     0.127 A 
ATOM      7  C   UNL     1      28.729  -3.710 -22.997  1.00  0.00     0.050 A 
ATOM      8  C   UNL     1      27.290  -6.843 -21.353  1.00  0.00     0.201 C 
ATOM      9  O   UNL     1      27.974  -6.947 -20.300  1.00  0.00    -0.288 OA
ATOM     10  C   UNL     1      26.204  -7.822 -21.620  1.00  0.00     0.076 A 
ATOM     11  C   UNL     1      25.196  -7.493 -22.551  1.00  0.00     0.041 A 
ATOM     12  C   UNL     1      25.251  -6.201 -23.272  1.00  0.00     0.194 C 
ATOM     13  O   UNL     1      24.289  -5.851 -24.010  1.00  0.00    -0.289 OA
ATOM     14  C   UNL     1      24.143  -8.393 -22.787  1.00  0.00     0.059 A 
ATOM     15  C   UNL     1      24.088  -9.616 -22.111  1.00  0.00     0.120 A 
ATOM     16  C   UNL     1      25.087  -9.947 -21.196  1.00  0.00     0.093 A 
ATOM     17  C   UNL     1      26.146  -9.064 -20.945  1.00  0.00     0.131 A 
ENDROOT
BRANCH   6  18
ATOM     18  O   UNL     1      29.816  -5.245 -21.531  1.00  0.00    -0.507 OA
ATOM     19  H   UNL     1      30.637  -4.661 -21.456  1.00  0.00     0.293 HD
ENDBRANCH   6  18
BRANCH  17  20
ATOM     20  O   UNL     1      27.138  -9.428 -20.034  1.00  0.00    -0.507 OA
ATOM     21  H   UNL     1      27.937  -9.984 -20.311  1.00  0.00     0.293 HD
ENDBRANCH  17  20
BRANCH  15  22
ATOM     22  O   UNL     1      23.046 -10.510 -22.343  1.00  0.00    -0.508 OA
ATOM     23  H   UNL     1      22.080 -10.256 -22.168  1.00  0.00     0.293 HD
ENDBRANCH  15  22
TORSDOF 3
ENDMDL
MODEL 2
REMARK VINA RESULT:    -3.559      2.172      3.007
REMARK INTER + INTRA:          -3.871
REMARK INTER:                  -3.871
REMARK INTRA:                   0.000
REMARK UNBOUND:                 0.000
REMARK SMILES Cc1cc(O)c2c(c1)C(=O)c1cc(O)cc(O)c1C2=O
REMARK SMILES IDX 1 1 2 2 8 3 7 4 6 5 4 6 3 7 19 8 20 9 18 10 11 11 9 12 10 13
REMARK SMILES IDX 12 14 13 15 15 16 16 17 5 18 17 20 14 22
REMARK H PARENT 5 19 17 21 14 23
REMARK Flexibility Score: inf
ROOT
ATOM      1  C   UNL     1      31.051  -4.866 -22.152  1.00  0.00     0.044 C 
ATOM      2  C   UNL     1      29.568  -5.031 -21.995  1.00  0.00    -0.047 A 
ATOM      3  C   UNL     1      28.948  -6.223 -22.384  1.00  0.00     0.016 A 
ATOM      4  C   UNL     1      27.563  -6.398 -22.220  1.00  0.00     0.038 A 
ATOM      5  C   UNL     1      26.783  -5.362 -21.655  1.00  0.00     0.076 A 
ATOM      6  C   UNL     1      27.436  -4.196 -21.171  1.00  0.00     0.127 A 
ATOM      7  C   UNL     1      28.811  -4.035 -21.372  1.00  0.00     0.050 A 
ATOM      8  C   UNL     1      25.301  -5.517 -21.642  1.00  0.00     0.201 C 
ATOM      9  O   UNL     1      24.560  -4.503 -21.548  1.00  0.00    -0.288 OA
ATOM     10  C   UNL     1      24.688  -6.855 -21.854  1.00  0.00     0.076 A 
ATOM     11  C   UNL     1      25.488  -7.904 -22.355  1.00  0.00     0.041 A 
ATOM     12  C   UNL     1      26.924  -7.673 -22.627  1.00  0.00     0.194 C 
ATOM     13  O   UNL     1      27.610  -8.570 -23.191  1.00  0.00    -0.289 OA
ATOM     14  C   UNL     1      24.914  -9.165 -22.596  1.00  0.00     0.059 A 
ATOM     15  C   UNL     1      23.557  -9.389 -22.337  1.00  0.00     0.120 A 
ATOM     16  C   UNL     1      22.767  -8.355 -21.835  1.00  0.00     0.093 A 
ATOM     17  C   UNL     1      23.319  -7.091 -21.589  1.00  0.00     0.131 A 
ENDROOT
BRANCH   6  18
ATOM     18  O   UNL     1      26.775  -3.195 -20.457  1.00  0.00    -0.507 OA
ATOM     19  H   UNL     1      26.549  -3.263 -19.474  1.00  0.00     0.293 HD
ENDBRANCH   6  18
BRANCH  17  20
ATOM     20  O   UNL     1      22.508  -6.080 -21.074  1.00  0.00    -0.507 OA
ATOM     21  H   UNL     1      22.869  -5.154 -20.881  1.00  0.00     0.293 HD
ENDBRANCH  17  20
BRANCH  15  22
ATOM     22  O   UNL     1      22.986 -10.637 -22.575  1.00  0.00    -0.508 OA
ATOM     23  H   UNL     1      23.311 -11.235 -23.325  1.00  0.00     0.293 HD
ENDBRANCH  15  22
TORSDOF 3
ENDMDL
MODEL 3
REMARK VINA RESULT:    -3.353      1.919      3.924
REMARK INTER + INTRA:          -3.647
REMARK INTER:                  -3.647
REMARK INTRA:                   0.000
REMARK UNBOUND:                 0.000
REMARK SMILES Cc1cc(O)c2c(c1)C(=O)c1cc(O)cc(O)c1C2=O
REMARK SMILES IDX 1 1 2 2 8 3 7 4 6 5 4 6 3 7 19 8 20 9 18 10 11 11 9 12 10 13
REMARK SMILES IDX 12 14 13 15 15 16 16 17 5 18 17 20 14 22
REMARK H PARENT 5 19 17 21 14 23
REMARK Flexibility Score: inf
ROOT
ATOM      1  C   UNL     1      27.735  -2.178 -25.474  1.00  0.00     0.044 C 
ATOM      2  C   UNL     1      27.218  -3.252 -24.563  1.00  0.00    -0.047 A 
ATOM      3  C   UNL     1      28.035  -3.770 -23.552  1.00  0.00     0.016 A 
ATOM      4  C   UNL     1      27.554  -4.758 -22.677  1.00  0.00     0.038 A 
ATOM      5  C   UNL     1      26.231  -5.238 -22.814  1.00  0.00     0.076 A 
ATOM      6  C   UNL     1      25.377  -4.635 -23.778  1.00  0.00     0.127 A 
ATOM      7  C   UNL     1      25.889  -3.673 -24.654  1.00  0.00     0.050 A 
ATOM      8  C   UNL     1      25.805  -6.395 -21.976  1.00  0.00     0.201 C 
ATOM      9  O   UNL     1      24.831  -7.109 -22.331  1.00  0.00    -0.288 OA
ATOM     10  C   UNL     1      26.598  -6.781 -20.779  1.00  0.00     0.076 A 
ATOM     11  C   UNL     1      27.893  -6.246 -20.611  1.00  0.00     0.041 A 
ATOM     12  C   UNL     1      28.430  -5.287 -21.603  1.00  0.00     0.194 C 
ATOM     13  O   UNL     1      29.630  -4.906 -21.523  1.00  0.00    -0.289 OA
ATOM     14  C   UNL     1      28.669  -6.631 -19.504  1.00  0.00     0.059 A 
ATOM     15  C   UNL     1      28.165  -7.534 -18.563  1.00  0.00     0.120 A 
ATOM     16  C   UNL     1      26.883  -8.058 -18.722  1.00  0.00     0.093 A 
ATOM     17  C   UNL     1      26.093  -7.689 -19.819  1.00  0.00     0.131 A 
ENDROOT
BRANCH   6  18
ATOM     18  O   UNL     1      24.016  -4.929 -23.878  1.00  0.00    -0.507 OA
ATOM     19  H   UNL     1      23.302  -4.475 -23.326  1.00  0.00     0.293 HD
ENDBRANCH   6  18
BRANCH  17  20
ATOM     20  O   UNL     1      24.808  -8.218 -19.945  1.00  0.00    -0.507 OA
ATOM     21  H   UNL     1      24.511  -9.027 -19.414  1.00  0.00     0.293 HD
ENDBRANCH  17  20
BRANCH  15  22
ATOM     22  O   UNL     1      28.932  -7.917 -17.465  1.00  0.00    -0.508 OA
ATOM     23  H   UNL     1      29.767  -8.480 -17.571  1.00  0.00     0.293 HD
ENDBRANCH  15  22
TORSDOF 3
ENDMDL
MODEL 4
REMARK VINA RESULT:    -3.176      2.591      3.542
REMARK INTER + INTRA:          -3.455
REMARK INTER:                  -3.455
REMARK INTRA:                   0.000
REMARK UNBOUND:                 0.000
REMARK SMILES Cc1cc(O)c2c(c1)C(=O)c1cc(O)cc(O)c1C2=O
REMARK SMILES IDX 1 1 2 2 8 3 7 4 6 5 4 6 3 7 19 8 20 9 18 10 11 11 9 12 10 13
REMARK SMILES IDX 12 14 13 15 15 16 16 17 5 18 17 20 14 22
REMARK H PARENT 5 19 17 21 14 23
REMARK Flexibility Score: inf
ROOT
ATOM      1  C   UNL     1      31.479  -5.090 -21.617  1.00  0.00     0.044 C 
ATOM      2  C   UNL     1      30.216  -5.759 -22.073  1.00  0.00    -0.047 A 
ATOM      3  C   UNL     1      29.050  -5.658 -21.306  1.00  0.00     0.016 A 
ATOM      4  C   UNL     1      27.855  -6.260 -21.735  1.00  0.00     0.038 A 
ATOM      5  C   UNL     1      27.823  -6.975 -22.954  1.00  0.00     0.076 A 
ATOM      6  C   UNL     1      28.984  -6.986 -23.775  1.00  0.00     0.127 A 
ATOM      7  C   UNL     1      30.168  -6.404 -23.312  1.00  0.00     0.050 A 
ATOM      8  C   UNL     1      26.588  -7.732 -23.301  1.00  0.00     0.201 C 
ATOM      9  O   UNL     1      26.639  -8.687 -24.121  1.00  0.00    -0.288 OA
ATOM     10  C   UNL     1      25.311  -7.441 -22.596  1.00  0.00     0.076 A 
ATOM     11  C   UNL     1      25.340  -6.669 -21.415  1.00  0.00     0.041 A 
ATOM     12  C   UNL     1      26.626  -6.133 -20.914  1.00  0.00     0.194 C 
ATOM     13  O   UNL     1      26.672  -5.551 -19.796  1.00  0.00    -0.289 OA
ATOM     14  C   UNL     1      24.146  -6.417 -20.717  1.00  0.00     0.059 A 
ATOM     15  C   UNL     1      22.928  -6.919 -21.188  1.00  0.00     0.120 A 
ATOM     16  C   UNL     1      22.896  -7.675 -22.359  1.00  0.00     0.093 A 
ATOM     17  C   UNL     1      24.075  -7.939 -23.069  1.00  0.00     0.131 A 
ENDROOT
BRANCH   6  18
ATOM     18  O   UNL     1      29.000  -7.526 -25.062  1.00  0.00    -0.507 OA
ATOM     19  H   UNL     1      28.833  -6.986 -25.900  1.00  0.00     0.293 HD
ENDBRANCH   6  18
BRANCH  17  20
ATOM     20  O   UNL     1      24.011  -8.687 -24.245  1.00  0.00    -0.507 OA
ATOM     21  H   UNL     1      24.762  -8.678 -24.924  1.00  0.00     0.293 HD
ENDBRANCH  17  20
BRANCH  15  22
ATOM     22  O   UNL     1      21.744  -6.670 -20.498  1.00  0.00    -0.508 OA
ATOM     23  H   UNL     1      21.728  -6.569 -19.490  1.00  0.00     0.293 HD
ENDBRANCH  15  22
TORSDOF 3
ENDMDL
MODEL 5
REMARK VINA RESULT:    -2.624      2.809      5.289
REMARK INTER + INTRA:          -2.854
REMARK INTER:                  -2.854
REMARK INTRA:                   0.000
REMARK UNBOUND:                 0.000
REMARK SMILES Cc1cc(O)c2c(c1)C(=O)c1cc(O)cc(O)c1C2=O
REMARK SMILES IDX 1 1 2 2 8 3 7 4 6 5 4 6 3 7 19 8 20 9 18 10 11 11 9 12 10 13
REMARK SMILES IDX 12 14 13 15 15 16 16 17 5 18 17 20 14 22
REMARK H PARENT 5 19 17 21 14 23
REMARK Flexibility Score: inf
ROOT
ATOM      1  C   UNL     1      28.182  -6.633 -17.528  1.00  0.00     0.044 C 
ATOM      2  C   UNL     1      27.581  -6.908 -18.875  1.00  0.00    -0.047 A 
ATOM      3  C   UNL     1      28.320  -6.666 -20.038  1.00  0.00     0.016 A 
ATOM      4  C   UNL     1      27.777  -6.943 -21.304  1.00  0.00     0.038 A 
ATOM      5  C   UNL     1      26.470  -7.472 -21.410  1.00  0.00     0.076 A 
ATOM      6  C   UNL     1      25.766  -7.808 -20.221  1.00  0.00     0.127 A 
ATOM      7  C   UNL     1      26.318  -7.498 -18.975  1.00  0.00     0.050 A 
ATOM      8  C   UNL     1      25.866  -7.605 -22.766  1.00  0.00     0.201 C 
ATOM      9  O   UNL     1      24.614  -7.665 -22.898  1.00  0.00    -0.288 OA
ATOM     10  C   UNL     1      26.728  -7.550 -23.976  1.00  0.00     0.076 A 
ATOM     11  C   UNL     1      28.055  -7.084 -23.853  1.00  0.00     0.041 A 
ATOM     12  C   UNL     1      28.579  -6.691 -22.526  1.00  0.00     0.194 C 
ATOM     13  O   UNL     1      29.719  -6.158 -22.433  1.00  0.00    -0.289 OA
ATOM     14  C   UNL     1      28.870  -6.992 -24.994  1.00  0.00     0.059 A 
ATOM     15  C   UNL     1      28.380  -7.365 -26.250  1.00  0.00     0.120 A 
ATOM     16  C   UNL     1      27.072  -7.833 -26.373  1.00  0.00     0.093 A 
ATOM     17  C   UNL     1      26.242  -7.932 -25.248  1.00  0.00     0.131 A 
ENDROOT
BRANCH   6  18
ATOM     18  O   UNL     1      24.542  -8.481 -20.227  1.00  0.00    -0.507 OA
ATOM     19  H   UNL     1      23.745  -8.192 -20.776  1.00  0.00     0.293 HD
ENDBRANCH   6  18
BRANCH  17  20
ATOM     20  O   UNL     1      24.942  -8.416 -25.399  1.00  0.00    -0.507 OA
ATOM     21  H   UNL     1      24.573  -9.145 -24.800  1.00  0.00     0.293 HD
ENDBRANCH  17  20
BRANCH  15  22
ATOM     22  O   UNL     1      29.186  -7.275 -27.383  1.00  0.00    -0.508 OA
ATOM     23  H   UNL     1      29.501  -8.102 -27.877  1.00  0.00     0.293 HD
ENDBRANCH  15  22
TORSDOF 3
ENDMDL
MODEL 6
REMARK VINA RESULT:    -2.556      2.893      4.338
REMARK INTER + INTRA:          -2.780
REMARK INTER:                  -2.780
REMARK INTRA:                   0.000
REMARK UNBOUND:                 0.000
REMARK SMILES Cc1cc(O)c2c(c1)C(=O)c1cc(O)cc(O)c1C2=O
REMARK SMILES IDX 1 1 2 2 8 3 7 4 6 5 4 6 3 7 19 8 20 9 18 10 11 11 9 12 10 13
REMARK SMILES IDX 12 14 13 15 15 16 16 17 5 18 17 20 14 22
REMARK H PARENT 5 19 17 21 14 23
REMARK Flexibility Score: inf
ROOT
ATOM      1  C   UNL     1      27.004  -2.893 -18.344  1.00  0.00     0.044 C 
ATOM      2  C   UNL     1      26.893  -4.056 -19.286  1.00  0.00    -0.047 A 
ATOM      3  C   UNL     1      27.158  -3.885 -20.649  1.00  0.00     0.016 A 
ATOM      4  C   UNL     1      27.081  -4.972 -21.537  1.00  0.00     0.038 A 
ATOM      5  C   UNL     1      26.733  -6.254 -21.053  1.00  0.00     0.076 A 
ATOM      6  C   UNL     1      26.563  -6.438 -19.653  1.00  0.00     0.127 A 
ATOM      7  C   UNL     1      26.618  -5.336 -18.795  1.00  0.00     0.050 A 
ATOM      8  C   UNL     1      26.505  -7.347 -22.040  1.00  0.00     0.201 C 
ATOM      9  O   UNL     1      25.813  -8.351 -21.724  1.00  0.00    -0.288 OA
ATOM     10  C   UNL     1      26.995  -7.205 -23.437  1.00  0.00     0.076 A 
ATOM     11  C   UNL     1      27.406  -5.935 -23.895  1.00  0.00     0.041 A 
ATOM     12  C   UNL     1      27.377  -4.775 -22.976  1.00  0.00     0.194 C 
ATOM     13  O   UNL     1      27.624  -3.618 -23.417  1.00  0.00    -0.289 OA
ATOM     14  C   UNL     1      27.837  -5.778 -25.224  1.00  0.00     0.059 A 
ATOM     15  C   UNL     1      27.869  -6.873 -26.094  1.00  0.00     0.120 A 
ATOM     16  C   UNL     1      27.471  -8.131 -25.641  1.00  0.00     0.093 A 
ATOM     17  C   UNL     1      27.037  -8.309 -24.321  1.00  0.00     0.131 A 
ENDROOT
BRANCH   6  18
ATOM     18  O   UNL     1      26.378  -7.692 -19.068  1.00  0.00    -0.507 OA
ATOM     19  H   UNL     1      26.916  -8.512 -19.315  1.00  0.00     0.293 HD
ENDBRANCH   6  18
BRANCH  17  20
ATOM     20  O   UNL     1      26.657  -9.581 -23.892  1.00  0.00    -0.507 OA
ATOM     21  H   UNL     1      25.773  -9.744 -23.427  1.00  0.00     0.293 HD
ENDBRANCH  17  20
BRANCH  15  22
ATOM     22  O   UNL     1      28.295  -6.721 -27.411  1.00  0.00    -0.508 OA
ATOM     23  H   UNL     1      27.724  -7.023 -28.192  1.00  0.00     0.293 HD
ENDBRANCH  15  22
TORSDOF 3
ENDMDL
MODEL 7
REMARK VINA RESULT:    -2.528      2.631      4.532
REMARK INTER + INTRA:          -2.750
REMARK INTER:                  -2.750
REMARK INTRA:                   0.000
REMARK UNBOUND:                 0.000
REMARK SMILES Cc1cc(O)c2c(c1)C(=O)c1cc(O)cc(O)c1C2=O
REMARK SMILES IDX 1 1 2 2 8 3 7 4 6 5 4 6 3 7 19 8 20 9 18 10 11 11 9 12 10 13
REMARK SMILES IDX 12 14 13 15 15 16 16 17 5 18 17 20 14 22
REMARK H PARENT 5 19 17 21 14 23
REMARK Flexibility Score: inf
ROOT
ATOM      1  C   UNL     1      31.533  -6.252 -22.754  1.00  0.00     0.044 C 
ATOM      2  C   UNL     1      30.043  -6.380 -22.879  1.00  0.00    -0.047 A 
ATOM      3  C   UNL     1      29.202  -5.465 -22.235  1.00  0.00     0.016 A 
ATOM      4  C   UNL     1      27.806  -5.560 -22.365  1.00  0.00     0.038 A 
ATOM      5  C   UNL     1      27.239  -6.589 -23.153  1.00  0.00     0.076 A 
ATOM      6  C   UNL     1      28.103  -7.451 -23.883  1.00  0.00     0.127 A 
ATOM      7  C   UNL     1      29.488  -7.353 -23.715  1.00  0.00     0.050 A 
ATOM      8  C   UNL     1      25.759  -6.757 -23.141  1.00  0.00     0.201 C 
ATOM      9  O   UNL     1      25.245  -7.861 -23.464  1.00  0.00    -0.288 OA
ATOM     10  C   UNL     1      24.887  -5.664 -22.637  1.00  0.00     0.076 A 
ATOM     11  C   UNL     1      25.467  -4.604 -21.908  1.00  0.00     0.041 A 
ATOM     12  C   UNL     1      26.930  -4.575 -21.685  1.00  0.00     0.194 C 
ATOM     13  O   UNL     1      27.435  -3.698 -20.931  1.00  0.00    -0.289 OA
ATOM     14  C   UNL     1      24.651  -3.581 -21.393  1.00  0.00     0.059 A 
ATOM     15  C   UNL     1      23.268  -3.603 -21.604  1.00  0.00     0.120 A 
ATOM     16  C   UNL     1      22.693  -4.645 -22.330  1.00  0.00     0.093 A 
ATOM     17  C   UNL     1      23.489  -5.674 -22.851  1.00  0.00     0.131 A 
ENDROOT
BRANCH   6  18
ATOM     18  O   UNL     1      27.638  -8.387 -24.808  1.00  0.00    -0.507 OA
ATOM     19  H   UNL     1      26.850  -8.228 -25.421  1.00  0.00     0.293 HD
ENDBRANCH   6  18
BRANCH  17  20
ATOM     20  O   UNL     1      22.888  -6.697 -23.585  1.00  0.00    -0.507 OA
ATOM     21  H   UNL     1      22.687  -7.601 -23.175  1.00  0.00     0.293 HD
ENDBRANCH  17  20
BRANCH  15  22
ATOM     22  O   UNL     1      22.457  -2.591 -21.095  1.00  0.00    -0.508 OA
ATOM     23  H   UNL     1      22.640  -1.614 -21.293  1.00  0.00     0.293 HD
ENDBRANCH  15  22
TORSDOF 3
ENDMDL
MODEL 8
REMARK VINA RESULT:    -2.462      1.558      3.272
REMARK INTER + INTRA:          -2.678
REMARK INTER:                  -2.678
REMARK INTRA:                   0.000
REMARK UNBOUND:                 0.000
REMARK SMILES Cc1cc(O)c2c(c1)C(=O)c1cc(O)cc(O)c1C2=O
REMARK SMILES IDX 1 1 2 2 8 3 7 4 6 5 4 6 3 7 19 8 20 9 18 10 11 11 9 12 10 13
REMARK SMILES IDX 12 14 13 15 15 16 16 17 5 18 17 20 14 22
REMARK H PARENT 5 19 17 21 14 23
REMARK Flexibility Score: inf
ROOT
ATOM      1  C   UNL     1      27.815  -2.289 -25.309  1.00  0.00     0.044 C 
ATOM      2  C   UNL     1      26.991  -3.333 -24.614  1.00  0.00    -0.047 A 
ATOM      3  C   UNL     1      27.594  -4.500 -24.132  1.00  0.00     0.016 A 
ATOM      4  C   UNL     1      26.836  -5.474 -23.459  1.00  0.00     0.038 A 
ATOM      5  C   UNL     1      25.449  -5.277 -23.263  1.00  0.00     0.076 A 
ATOM      6  C   UNL     1      24.866  -4.045 -23.667  1.00  0.00     0.127 A 
ATOM      7  C   UNL     1      25.635  -3.105 -24.359  1.00  0.00     0.050 A 
ATOM      8  C   UNL     1      24.649  -6.395 -22.689  1.00  0.00     0.201 C 
ATOM      9  O   UNL     1      23.404  -6.442 -22.874  1.00  0.00    -0.288 OA
ATOM     10  C   UNL     1      25.329  -7.521 -21.995  1.00  0.00     0.076 A 
ATOM     11  C   UNL     1      26.724  -7.673 -22.139  1.00  0.00     0.041 A 
ATOM     12  C   UNL     1      27.494  -6.699 -22.944  1.00  0.00     0.194 C 
ATOM     13  O   UNL     1      28.718  -6.903 -23.177  1.00  0.00    -0.289 OA
ATOM     14  C   UNL     1      27.376  -8.754 -21.519  1.00  0.00     0.059 A 
ATOM     15  C   UNL     1      26.653  -9.676 -20.755  1.00  0.00     0.120 A 
ATOM     16  C   UNL     1      25.275  -9.522 -20.605  1.00  0.00     0.093 A 
ATOM     17  C   UNL     1      24.606  -8.453 -21.215  1.00  0.00     0.131 A 
ENDROOT
BRANCH   6  18
ATOM     18  O   UNL     1      23.547  -3.696 -23.372  1.00  0.00    -0.507 OA
ATOM     19  H   UNL     1      23.288  -3.031 -22.656  1.00  0.00     0.293 HD
ENDBRANCH   6  18
BRANCH  17  20
ATOM     20  O   UNL     1      23.229  -8.317 -21.036  1.00  0.00    -0.507 OA
ATOM     21  H   UNL     1      22.668  -9.059 -20.635  1.00  0.00     0.293 HD
ENDBRANCH  17  20
BRANCH  15  22
ATOM     22  O   UNL     1      27.295 -10.747 -20.140  1.00  0.00    -0.508 OA
ATOM     23  H   UNL     1      27.007 -11.087 -19.229  1.00  0.00     0.293 HD
ENDBRANCH  15  22
TORSDOF 3
ENDMDL
MODEL 9
REMARK VINA RESULT:    -2.152      1.525      3.315
REMARK INTER + INTRA:          -2.341
REMARK INTER:                  -2.341
REMARK INTRA:                   0.000
REMARK UNBOUND:                 0.000
REMARK SMILES Cc1cc(O)c2c(c1)C(=O)c1cc(O)cc(O)c1C2=O
REMARK SMILES IDX 1 1 2 2 8 3 7 4 6 5 4 6 3 7 19 8 20 9 18 10 11 11 9 12 10 13
REMARK SMILES IDX 12 14 13 15 15 16 16 17 5 18 17 20 14 22
REMARK H PARENT 5 19 17 21 14 23
REMARK Flexibility Score: inf
ROOT
ATOM      1  C   UNL     1      29.862  -1.490 -22.365  1.00  0.00     0.044 C 
ATOM      2  C   UNL     1      29.027  -2.706 -22.643  1.00  0.00    -0.047 A 
ATOM      3  C   UNL     1      29.067  -3.800 -21.772  1.00  0.00     0.016 A 
ATOM      4  C   UNL     1      28.272  -4.934 -22.009  1.00  0.00     0.038 A 
ATOM      5  C   UNL     1      27.420  -4.975 -23.137  1.00  0.00     0.076 A 
ATOM      6  C   UNL     1      27.312  -3.820 -23.959  1.00  0.00     0.127 A 
ATOM      7  C   UNL     1      28.134  -2.715 -23.718  1.00  0.00     0.050 A 
ATOM      8  C   UNL     1      26.713  -6.250 -23.446  1.00  0.00     0.201 C 
ATOM      9  O   UNL     1      26.295  -6.475 -24.613  1.00  0.00    -0.288 OA
ATOM     10  C   UNL     1      26.598  -7.310 -22.410  1.00  0.00     0.076 A 
ATOM     11  C   UNL     1      27.402  -7.229 -21.253  1.00  0.00     0.041 A 
ATOM     12  C   UNL     1      28.318  -6.081 -21.070  1.00  0.00     0.194 C 
ATOM     13  O   UNL     1      29.126  -6.070 -20.101  1.00  0.00    -0.289 OA
ATOM     14  C   UNL     1      27.332  -8.243 -20.282  1.00  0.00     0.059 A 
ATOM     15  C   UNL     1      26.466  -9.329 -20.450  1.00  0.00     0.120 A 
ATOM     16  C   UNL     1      25.665  -9.407 -21.588  1.00  0.00     0.093 A 
ATOM     17  C   UNL     1      25.720  -8.407 -22.569  1.00  0.00     0.131 A 
ENDROOT
BRANCH   6  18
ATOM     18  O   UNL     1      26.383  -3.709 -24.995  1.00  0.00    -0.507 OA
ATOM     19  H   UNL     1      26.028  -4.497 -25.519  1.00  0.00     0.293 HD
ENDBRANCH   6  18
BRANCH  17  20
ATOM     20  O   UNL     1      24.897  -8.505 -23.691  1.00  0.00    -0.507 OA
ATOM     21  H   UNL     1      24.779  -9.378 -24.191  1.00  0.00     0.293 HD
ENDBRANCH  17  20
BRANCH  15  22
ATOM     22  O   UNL     1      26.394 -10.335 -19.489  1.00  0.00    -0.508 OA
ATOM     23  H   UNL     1      26.189 -11.295 -19.741  1.00  0.00     0.293 HD
ENDBRANCH  15  22
TORSDOF 3
ENDMDL
