MODEL 1
REMARK VINA RESULT:    -2.172      0.000      0.000
REMARK INTER + INTRA:          -6.831
REMARK INTER:                  -4.204
REMARK INTRA:                  -2.627
REMARK UNBOUND:                -2.627
REMARK SMILES CCCCCCCCCCCCCCCCCC(=O)[O-]
REMARK SMILES IDX 10 1 11 2 12 3 13 4 14 5 15 6 16 7 17 8 18 9 19 10 20 11
REMARK SMILES IDX 9 12 8 13 7 14 6 15 5 16 4 17 3 18 2 19 1 20
REMARK H PARENT
REMARK Flexibility Score: inf
ROOT
ATOM      1  C   UNL     1      73.366  88.423  91.750  1.00  0.00     0.000 C 
ENDROOT
BRANCH   1   2
ATOM      2  C   UNL     1      73.125  87.678  93.076  1.00  0.00     0.000 C 
BRANCH   2   3
ATOM      3  C   UNL     1      72.792  86.190  92.872  1.00  0.00     0.000 C 
BRANCH   3   4
ATOM      4  C   UNL     1      74.030  85.289  92.996  1.00  0.00     0.000 C 
BRANCH   4   5
ATOM      5  C   UNL     1      74.220  84.376  91.771  1.00  0.00     0.000 C 
BRANCH   5   6
ATOM      6  C   UNL     1      75.101  83.155  92.075  1.00  0.00     0.000 C 
BRANCH   6   7
ATOM      7  C   UNL     1      76.477  83.544  92.637  1.00  0.00     0.006 C 
BRANCH   7   8
ATOM      8  C   UNL     1      77.597  83.137  91.675  1.00  0.00     0.053 C 
BRANCH   8   9
ATOM      9  C   UNL     1      78.935  83.409  92.284  1.00  0.00     0.041 C 
ATOM     10  O   UNL     1      79.232  84.572  92.667  1.00  0.00    -0.550 OA
ATOM     11  O   UNL     1      79.876  82.391  92.384  1.00  0.00    -0.550 OA
ENDBRANCH   8   9
ENDBRANCH   7   8
ENDBRANCH   6   7
ENDBRANCH   5   6
ENDBRANCH   4   5
ENDBRANCH   3   4
ENDBRANCH   2   3
ENDBRANCH   1   2
BRANCH   1  12
ATOM     12  C   UNL     1      72.990  87.628  90.483  1.00  0.00     0.000 C 
BRANCH  12  13
ATOM     13  C   UNL     1      74.151  87.380  89.501  1.00  0.00    -0.000 C 
BRANCH  13  14
ATOM     14  C   UNL     1      75.514  87.951  89.943  1.00  0.00    -0.000 C 
BRANCH  14  15
ATOM     15  C   UNL     1      76.569  86.902  90.339  1.00  0.00    -0.000 C 
BRANCH  15  16
ATOM     16  C   UNL     1      77.121  87.115  91.758  1.00  0.00    -0.000 C 
BRANCH  16  17
ATOM     17  C   UNL     1      76.768  88.497  92.337  1.00  0.00    -0.000 C 
BRANCH  17  18
ATOM     18  C   UNL     1      77.785  89.614  92.035  1.00  0.00    -0.000 C 
BRANCH  18  19
ATOM     19  C   UNL     1      77.129  90.989  91.849  1.00  0.00    -0.003 C 
ATOM     20  C   UNL     1      75.802  91.073  92.598  1.00  0.00     0.004 C 
ENDBRANCH  18  19
ENDBRANCH  17  18
ENDBRANCH  16  17
ENDBRANCH  15  16
ENDBRANCH  14  15
ENDBRANCH  13  14
ENDBRANCH  12  13
ENDBRANCH   1  12
TORSDOF 16
ENDMDL
MODEL 2
REMARK VINA RESULT:    -2.152     15.609     17.637
REMARK INTER + INTRA:          -6.792
REMARK INTER:                  -3.957
REMARK INTRA:                  -2.835
REMARK UNBOUND:                -2.627
REMARK SMILES CCCCCCCCCCCCCCCCCC(=O)[O-]
REMARK SMILES IDX 10 1 11 2 12 3 13 4 14 5 15 6 16 7 17 8 18 9 19 10 20 11
REMARK SMILES IDX 9 12 8 13 7 14 6 15 5 16 4 17 3 18 2 19 1 20
REMARK H PARENT
REMARK Flexibility Score: inf
ROOT
ATOM      1  C   UNL     1      72.058  79.106  74.395  1.00  0.00     0.000 C 
ENDROOT
BRANCH   1   2
ATOM      2  C   UNL     1      72.277  77.946  75.383  1.00  0.00     0.000 C 
BRANCH   2   3
ATOM      3  C   UNL     1      72.494  78.427  76.828  1.00  0.00     0.000 C 
BRANCH   3   4
ATOM      4  C   UNL     1      71.921  79.831  77.072  1.00  0.00     0.000 C 
BRANCH   4   5
ATOM      5  C   UNL     1      72.929  80.767  77.763  1.00  0.00     0.000 C 
BRANCH   5   6
ATOM      6  C   UNL     1      72.252  81.765  78.716  1.00  0.00     0.000 C 
BRANCH   6   7
ATOM      7  C   UNL     1      72.826  83.184  78.590  1.00  0.00     0.006 C 
BRANCH   7   8
ATOM      8  C   UNL     1      73.975  83.222  77.578  1.00  0.00     0.053 C 
BRANCH   8   9
ATOM      9  C   UNL     1      73.872  84.438  76.714  1.00  0.00     0.041 C 
ATOM     10  O   UNL     1      73.115  85.388  77.045  1.00  0.00    -0.550 OA
ATOM     11  O   UNL     1      74.574  84.503  75.516  1.00  0.00    -0.550 OA
ENDBRANCH   8   9
ENDBRANCH   7   8
ENDBRANCH   6   7
ENDBRANCH   5   6
ENDBRANCH   4   5
ENDBRANCH   3   4
ENDBRANCH   2   3
ENDBRANCH   1   2
BRANCH   1  12
ATOM     12  C   UNL     1      72.902  79.028  73.107  1.00  0.00     0.000 C 
BRANCH  12  13
ATOM     13  C   UNL     1      74.030  80.072  73.003  1.00  0.00    -0.000 C 
BRANCH  13  14
ATOM     14  C   UNL     1      74.089  81.089  74.161  1.00  0.00    -0.000 C 
BRANCH  14  15
ATOM     15  C   UNL     1      75.382  81.061  74.996  1.00  0.00    -0.000 C 
BRANCH  15  16
ATOM     16  C   UNL     1      75.742  79.651  75.493  1.00  0.00    -0.000 C 
BRANCH  16  17
ATOM     17  C   UNL     1      76.322  79.648  76.919  1.00  0.00    -0.000 C 
BRANCH  17  18
ATOM     18  C   UNL     1      76.137  78.333  77.699  1.00  0.00    -0.000 C 
BRANCH  18  19
ATOM     19  C   UNL     1      76.228  77.087  76.806  1.00  0.00    -0.003 C 
ATOM     20  C   UNL     1      75.268  75.999  77.280  1.00  0.00     0.004 C 
ENDBRANCH  18  19
ENDBRANCH  17  18
ENDBRANCH  16  17
ENDBRANCH  15  16
ENDBRANCH  14  15
ENDBRANCH  13  14
ENDBRANCH  12  13
ENDBRANCH   1  12
TORSDOF 16
ENDMDL
MODEL 3
REMARK VINA RESULT:    -2.122     12.509     15.546
REMARK INTER + INTRA:          -6.734
REMARK INTER:                  -4.038
REMARK INTRA:                  -2.696
REMARK UNBOUND:                -2.627
REMARK SMILES CCCCCCCCCCCCCCCCCC(=O)[O-]
REMARK SMILES IDX 10 1 11 2 12 3 13 4 14 5 15 6 16 7 17 8 18 9 19 10 20 11
REMARK SMILES IDX 9 12 8 13 7 14 6 15 5 16 4 17 3 18 2 19 1 20
REMARK H PARENT
REMARK Flexibility Score: inf
ROOT
ATOM      1  C   UNL     1      91.799  84.971  92.055  1.00  0.00     0.000 C 
ENDROOT
BRANCH   1   2
ATOM      2  C   UNL     1      91.061  86.263  92.449  1.00  0.00     0.000 C 
BRANCH   2   3
ATOM      3  C   UNL     1      90.627  87.097  91.231  1.00  0.00     0.000 C 
BRANCH   3   4
ATOM      4  C   UNL     1      91.093  86.482  89.902  1.00  0.00     0.000 C 
BRANCH   4   5
ATOM      5  C   UNL     1      91.299  87.541  88.804  1.00  0.00     0.000 C 
BRANCH   5   6
ATOM      6  C   UNL     1      91.132  86.965  87.389  1.00  0.00     0.000 C 
BRANCH   6   7
ATOM      7  C   UNL     1      89.671  86.627  87.057  1.00  0.00     0.006 C 
BRANCH   7   8
ATOM      8  C   UNL     1      89.559  85.233  86.434  1.00  0.00     0.053 C 
BRANCH   8   9
ATOM      9  C   UNL     1      89.102  85.330  85.013  1.00  0.00     0.041 C 
ATOM     10  O   UNL     1      88.331  86.260  84.658  1.00  0.00    -0.550 OA
ATOM     11  O   UNL     1      89.487  84.364  84.090  1.00  0.00    -0.550 OA
ENDBRANCH   8   9
ENDBRANCH   7   8
ENDBRANCH   6   7
ENDBRANCH   5   6
ENDBRANCH   4   5
ENDBRANCH   3   4
ENDBRANCH   2   3
ENDBRANCH   1   2
BRANCH   1  12
ATOM     12  C   UNL     1      91.637  83.803  93.048  1.00  0.00     0.000 C 
BRANCH  12  13
ATOM     13  C   UNL     1      90.225  83.187  93.103  1.00  0.00    -0.000 C 
BRANCH  13  14
ATOM     14  C   UNL     1      90.092  81.797  92.449  1.00  0.00    -0.000 C 
BRANCH  14  15
ATOM     15  C   UNL     1      91.019  81.545  91.246  1.00  0.00    -0.000 C 
BRANCH  15  16
ATOM     16  C   UNL     1      90.281  81.609  89.899  1.00  0.00    -0.000 C 
BRANCH  16  17
ATOM     17  C   UNL     1      89.926  83.047  89.477  1.00  0.00    -0.000 C 
BRANCH  17  18
ATOM     18  C   UNL     1      88.422  83.375  89.465  1.00  0.00    -0.000 C 
BRANCH  18  19
ATOM     19  C   UNL     1      88.037  84.469  90.471  1.00  0.00    -0.003 C 
ATOM     20  C   UNL     1      87.426  85.676  89.764  1.00  0.00     0.004 C 
ENDBRANCH  18  19
ENDBRANCH  17  18
ENDBRANCH  16  17
ENDBRANCH  15  16
ENDBRANCH  14  15
ENDBRANCH  13  14
ENDBRANCH  12  13
ENDBRANCH   1  12
TORSDOF 16
ENDMDL
MODEL 4
REMARK VINA RESULT:    -2.122     16.281     18.038
REMARK INTER + INTRA:          -6.734
REMARK INTER:                  -3.958
REMARK INTRA:                  -2.775
REMARK UNBOUND:                -2.627
REMARK SMILES CCCCCCCCCCCCCCCCCC(=O)[O-]
REMARK SMILES IDX 10 1 11 2 12 3 13 4 14 5 15 6 16 7 17 8 18 9 19 10 20 11
REMARK SMILES IDX 9 12 8 13 7 14 6 15 5 16 4 17 3 18 2 19 1 20
REMARK H PARENT
REMARK Flexibility Score: inf
ROOT
ATOM      1  C   UNL     1      72.338  77.752  76.254  1.00  0.00     0.000 C 
ENDROOT
BRANCH   1   2
ATOM      2  C   UNL     1      72.233  79.188  76.801  1.00  0.00     0.000 C 
BRANCH   2   3
ATOM      3  C   UNL     1      73.487  79.622  77.579  1.00  0.00     0.000 C 
BRANCH   3   4
ATOM      4  C   UNL     1      73.824  78.663  78.732  1.00  0.00     0.000 C 
BRANCH   4   5
ATOM      5  C   UNL     1      72.733  78.642  79.818  1.00  0.00     0.000 C 
BRANCH   5   6
ATOM      6  C   UNL     1      72.253  77.220  80.146  1.00  0.00     0.000 C 
BRANCH   6   7
ATOM      7  C   UNL     1      73.105  76.137  79.465  1.00  0.00     0.006 C 
BRANCH   7   8
ATOM      8  C   UNL     1      73.437  75.006  80.443  1.00  0.00     0.053 C 
BRANCH   8   9
ATOM      9  C   UNL     1      73.287  73.676  79.777  1.00  0.00     0.041 C 
ATOM     10  O   UNL     1      73.348  72.617  80.455  1.00  0.00    -0.550 OA
ATOM     11  O   UNL     1      73.131  73.602  78.398  1.00  0.00    -0.550 OA
ENDBRANCH   8   9
ENDBRANCH   7   8
ENDBRANCH   6   7
ENDBRANCH   5   6
ENDBRANCH   4   5
ENDBRANCH   3   4
ENDBRANCH   2   3
ENDBRANCH   1   2
BRANCH   1  12
ATOM     12  C   UNL     1      72.255  77.635  74.719  1.00  0.00     0.000 C 
BRANCH  12  13
ATOM     13  C   UNL     1      72.113  78.975  73.971  1.00  0.00    -0.000 C 
BRANCH  13  14
ATOM     14  C   UNL     1      73.355  79.410  73.167  1.00  0.00    -0.000 C 
BRANCH  14  15
ATOM     15  C   UNL     1      74.388  80.239  73.951  1.00  0.00    -0.000 C 
BRANCH  15  16
ATOM     16  C   UNL     1      75.747  79.533  74.081  1.00  0.00    -0.000 C 
BRANCH  16  17
ATOM     17  C   UNL     1      75.709  78.066  73.613  1.00  0.00    -0.000 C 
BRANCH  17  18
ATOM     18  C   UNL     1      76.350  77.053  74.578  1.00  0.00    -0.000 C 
BRANCH  18  19
ATOM     19  C   UNL     1      76.059  77.361  76.053  1.00  0.00    -0.003 C 
ATOM     20  C   UNL     1      75.689  76.093  76.818  1.00  0.00     0.004 C 
ENDBRANCH  18  19
ENDBRANCH  17  18
ENDBRANCH  16  17
ENDBRANCH  15  16
ENDBRANCH  14  15
ENDBRANCH  13  14
ENDBRANCH  12  13
ENDBRANCH   1  12
TORSDOF 16
ENDMDL
MODEL 5
REMARK VINA RESULT:    -2.110     17.350     18.745
REMARK INTER + INTRA:          -6.711
REMARK INTER:                  -4.349
REMARK INTRA:                  -2.362
REMARK UNBOUND:                -2.627
REMARK SMILES CCCCCCCCCCCCCCCCCC(=O)[O-]
REMARK SMILES IDX 10 1 11 2 12 3 13 4 14 5 15 6 16 7 17 8 18 9 19 10 20 11
REMARK SMILES IDX 9 12 8 13 7 14 6 15 5 16 4 17 3 18 2 19 1 20
REMARK H PARENT
REMARK Flexibility Score: inf
ROOT
ATOM      1  C   UNL     1      84.071  88.998  73.087  1.00  0.00     0.000 C 
ENDROOT
BRANCH   1   2
ATOM      2  C   UNL     1      82.827  88.102  72.952  1.00  0.00     0.000 C 
BRANCH   2   3
ATOM      3  C   UNL     1      81.544  88.783  73.460  1.00  0.00     0.000 C 
BRANCH   3   4
ATOM      4  C   UNL     1      81.302  88.537  74.957  1.00  0.00     0.000 C 
BRANCH   4   5
ATOM      5  C   UNL     1      81.993  87.258  75.463  1.00  0.00     0.000 C 
BRANCH   5   6
ATOM      6  C   UNL     1      83.116  87.552  76.471  1.00  0.00     0.000 C 
BRANCH   6   7
ATOM      7  C   UNL     1      84.360  86.682  76.239  1.00  0.00     0.006 C 
BRANCH   7   8
ATOM      8  C   UNL     1      85.620  87.546  76.127  1.00  0.00     0.053 C 
BRANCH   8   9
ATOM      9  C   UNL     1      86.675  86.835  75.340  1.00  0.00     0.041 C 
ATOM     10  O   UNL     1      86.388  86.297  74.238  1.00  0.00    -0.550 OA
ATOM     11  O   UNL     1      87.964  86.722  75.847  1.00  0.00    -0.550 OA
ENDBRANCH   8   9
ENDBRANCH   7   8
ENDBRANCH   6   7
ENDBRANCH   5   6
ENDBRANCH   4   5
ENDBRANCH   3   4
ENDBRANCH   2   3
ENDBRANCH   1   2
BRANCH   1  12
ATOM     12  C   UNL     1      83.799  90.509  72.949  1.00  0.00     0.000 C 
BRANCH  12  13
ATOM     13  C   UNL     1      84.203  91.358  74.170  1.00  0.00    -0.000 C 
BRANCH  13  14
ATOM     14  C   UNL     1      83.058  91.677  75.152  1.00  0.00    -0.000 C 
BRANCH  14  15
ATOM     15  C   UNL     1      83.311  91.261  76.613  1.00  0.00    -0.000 C 
BRANCH  15  16
ATOM     16  C   UNL     1      84.787  90.939  76.896  1.00  0.00    -0.000 C 
BRANCH  16  17
ATOM     17  C   UNL     1      85.151  91.057  78.387  1.00  0.00    -0.000 C 
BRANCH  17  18
ATOM     18  C   UNL     1      86.424  91.869  78.689  1.00  0.00    -0.000 C 
BRANCH  18  19
ATOM     19  C   UNL     1      87.555  91.016  79.281  1.00  0.00    -0.003 C 
ATOM     20  C   UNL     1      88.923  91.574  78.898  1.00  0.00     0.004 C 
ENDBRANCH  18  19
ENDBRANCH  17  18
ENDBRANCH  16  17
ENDBRANCH  15  16
ENDBRANCH  14  15
ENDBRANCH  13  14
ENDBRANCH  12  13
ENDBRANCH   1  12
TORSDOF 16
ENDMDL
MODEL 6
REMARK VINA RESULT:    -2.082     16.584     18.534
REMARK INTER + INTRA:          -6.657
REMARK INTER:                  -4.211
REMARK INTRA:                  -2.446
REMARK UNBOUND:                -2.627
REMARK SMILES CCCCCCCCCCCCCCCCCC(=O)[O-]
REMARK SMILES IDX 10 1 11 2 12 3 13 4 14 5 15 6 16 7 17 8 18 9 19 10 20 11
REMARK SMILES IDX 9 12 8 13 7 14 6 15 5 16 4 17 3 18 2 19 1 20
REMARK H PARENT
REMARK Flexibility Score: inf
ROOT
ATOM      1  C   UNL     1      83.268  87.292  75.879  1.00  0.00     0.000 C 
ENDROOT
BRANCH   1   2
ATOM      2  C   UNL     1      81.885  87.937  75.680  1.00  0.00     0.000 C 
BRANCH   2   3
ATOM      3  C   UNL     1      81.235  88.376  77.003  1.00  0.00     0.000 C 
BRANCH   3   4
ATOM      4  C   UNL     1      80.111  89.402  76.794  1.00  0.00     0.000 C 
BRANCH   4   5
ATOM      5  C   UNL     1      79.329  89.161  75.491  1.00  0.00     0.000 C 
BRANCH   5   6
ATOM      6  C   UNL     1      77.853  88.816  75.742  1.00  0.00     0.000 C 
BRANCH   6   7
ATOM      7  C   UNL     1      76.996  88.926  74.473  1.00  0.00     0.006 C 
BRANCH   7   8
ATOM      8  C   UNL     1      75.765  89.804  74.716  1.00  0.00     0.053 C 
BRANCH   8   9
ATOM      9  C   UNL     1      76.089  91.242  74.465  1.00  0.00     0.041 C 
ATOM     10  O   UNL     1      76.101  91.692  73.289  1.00  0.00    -0.550 OA
ATOM     11  O   UNL     1      76.428  92.075  75.524  1.00  0.00    -0.550 OA
ENDBRANCH   8   9
ENDBRANCH   7   8
ENDBRANCH   6   7
ENDBRANCH   5   6
ENDBRANCH   4   5
ENDBRANCH   3   4
ENDBRANCH   2   3
ENDBRANCH   1   2
BRANCH   1  12
ATOM     12  C   UNL     1      84.148  87.240  74.614  1.00  0.00     0.000 C 
BRANCH  12  13
ATOM     13  C   UNL     1      84.751  88.592  74.185  1.00  0.00    -0.000 C 
BRANCH  13  14
ATOM     14  C   UNL     1      84.070  89.256  72.971  1.00  0.00    -0.000 C 
BRANCH  14  15
ATOM     15  C   UNL     1      83.367  90.594  73.263  1.00  0.00    -0.000 C 
BRANCH  15  16
ATOM     16  C   UNL     1      83.945  91.318  74.490  1.00  0.00    -0.000 C 
BRANCH  16  17
ATOM     17  C   UNL     1      82.898  91.563  75.591  1.00  0.00    -0.000 C 
BRANCH  17  18
ATOM     18  C   UNL     1      83.416  91.417  77.034  1.00  0.00    -0.000 C 
BRANCH  18  19
ATOM     19  C   UNL     1      84.874  90.942  77.103  1.00  0.00    -0.003 C 
ATOM     20  C   UNL     1      85.003  89.682  77.955  1.00  0.00     0.004 C 
ENDBRANCH  18  19
ENDBRANCH  17  18
ENDBRANCH  16  17
ENDBRANCH  15  16
ENDBRANCH  14  15
ENDBRANCH  13  14
ENDBRANCH  12  13
ENDBRANCH   1  12
TORSDOF 16
ENDMDL
MODEL 7
REMARK VINA RESULT:    -2.079     15.293     17.697
REMARK INTER + INTRA:          -6.652
REMARK INTER:                  -3.513
REMARK INTRA:                  -3.138
REMARK UNBOUND:                -2.627
REMARK SMILES CCCCCCCCCCCCCCCCCC(=O)[O-]
REMARK SMILES IDX 10 1 11 2 12 3 13 4 14 5 15 6 16 7 17 8 18 9 19 10 20 11
REMARK SMILES IDX 9 12 8 13 7 14 6 15 5 16 4 17 3 18 2 19 1 20
REMARK H PARENT
REMARK Flexibility Score: inf
ROOT
ATOM      1  C   UNL     1      74.348  74.163  83.483  1.00  0.00     0.000 C 
ENDROOT
BRANCH   1   2
ATOM      2  C   UNL     1      74.991  75.477  83.003  1.00  0.00     0.000 C 
BRANCH   2   3
ATOM      3  C   UNL     1      76.332  75.256  82.284  1.00  0.00     0.000 C 
BRANCH   3   4
ATOM      4  C   UNL     1      76.746  73.776  82.255  1.00  0.00     0.000 C 
BRANCH   4   5
ATOM      5  C   UNL     1      77.885  73.502  81.256  1.00  0.00     0.000 C 
BRANCH   5   6
ATOM      6  C   UNL     1      77.594  74.068  79.858  1.00  0.00     0.000 C 
BRANCH   6   7
ATOM      7  C   UNL     1      77.548  72.977  78.777  1.00  0.00     0.006 C 
BRANCH   7   8
ATOM      8  C   UNL     1      78.191  73.468  77.476  1.00  0.00     0.053 C 
BRANCH   8   9
ATOM      9  C   UNL     1      77.263  73.260  76.322  1.00  0.00     0.041 C 
ATOM     10  O   UNL     1      77.237  72.154  75.721  1.00  0.00    -0.550 OA
ATOM     11  O   UNL     1      76.461  74.304  75.877  1.00  0.00    -0.550 OA
ENDBRANCH   8   9
ENDBRANCH   7   8
ENDBRANCH   6   7
ENDBRANCH   5   6
ENDBRANCH   4   5
ENDBRANCH   3   4
ENDBRANCH   2   3
ENDBRANCH   1   2
BRANCH   1  12
ATOM     12  C   UNL     1      72.829  74.058  83.236  1.00  0.00     0.000 C 
BRANCH  12  13
ATOM     13  C   UNL     1      72.430  73.362  81.921  1.00  0.00    -0.000 C 
BRANCH  13  14
ATOM     14  C   UNL     1      73.351  72.204  81.487  1.00  0.00    -0.000 C 
BRANCH  14  15
ATOM     15  C   UNL     1      74.173  72.460  80.211  1.00  0.00    -0.000 C 
BRANCH  15  16
ATOM     16  C   UNL     1      73.378  73.207  79.128  1.00  0.00    -0.000 C 
BRANCH  16  17
ATOM     17  C   UNL     1      74.130  74.426  78.565  1.00  0.00    -0.000 C 
BRANCH  17  18
ATOM     18  C   UNL     1      74.015  75.713  79.403  1.00  0.00    -0.000 C 
BRANCH  18  19
ATOM     19  C   UNL     1      72.566  76.188  79.577  1.00  0.00    -0.003 C 
ATOM     20  C   UNL     1      72.402  76.998  80.860  1.00  0.00     0.004 C 
ENDBRANCH  18  19
ENDBRANCH  17  18
ENDBRANCH  16  17
ENDBRANCH  15  16
ENDBRANCH  14  15
ENDBRANCH  13  14
ENDBRANCH  12  13
ENDBRANCH   1  12
TORSDOF 16
ENDMDL
MODEL 8
REMARK VINA RESULT:    -2.041     16.465     18.222
REMARK INTER + INTRA:          -6.578
REMARK INTER:                  -3.510
REMARK INTRA:                  -3.068
REMARK UNBOUND:                -2.627
REMARK SMILES CCCCCCCCCCCCCCCCCC(=O)[O-]
REMARK SMILES IDX 10 1 11 2 12 3 13 4 14 5 15 6 16 7 17 8 18 9 19 10 20 11
REMARK SMILES IDX 9 12 8 13 7 14 6 15 5 16 4 17 3 18 2 19 1 20
REMARK H PARENT
REMARK Flexibility Score: inf
ROOT
ATOM      1  C   UNL     1      83.113  91.400  75.098  1.00  0.00     0.000 C 
ENDROOT
BRANCH   1   2
ATOM      2  C   UNL     1      84.460  91.163  75.805  1.00  0.00     0.000 C 
BRANCH   2   3
ATOM      3  C   UNL     1      84.311  90.967  77.323  1.00  0.00     0.000 C 
BRANCH   3   4
ATOM      4  C   UNL     1      85.657  91.033  78.060  1.00  0.00     0.000 C 
BRANCH   4   5
ATOM      5  C   UNL     1      85.913  89.791  78.932  1.00  0.00     0.000 C 
BRANCH   5   6
ATOM      6  C   UNL     1      87.347  89.256  78.792  1.00  0.00     0.000 C 
BRANCH   6   7
ATOM      7  C   UNL     1      87.405  87.721  78.778  1.00  0.00     0.006 C 
BRANCH   7   8
ATOM      8  C   UNL     1      86.165  87.120  79.447  1.00  0.00     0.053 C 
BRANCH   8   9
ATOM      9  C   UNL     1      85.978  85.698  79.022  1.00  0.00     0.041 C 
ATOM     10  O   UNL     1      84.992  85.037  79.441  1.00  0.00    -0.550 OA
ATOM     11  O   UNL     1      86.918  85.087  78.202  1.00  0.00    -0.550 OA
ENDBRANCH   8   9
ENDBRANCH   7   8
ENDBRANCH   6   7
ENDBRANCH   5   6
ENDBRANCH   4   5
ENDBRANCH   3   4
ENDBRANCH   2   3
ENDBRANCH   1   2
BRANCH   1  12
ATOM     12  C   UNL     1      83.183  91.414  73.558  1.00  0.00     0.000 C 
BRANCH  12  13
ATOM     13  C   UNL     1      83.901  90.206  72.928  1.00  0.00    -0.000 C 
BRANCH  13  14
ATOM     14  C   UNL     1      83.172  88.856  73.084  1.00  0.00    -0.000 C 
BRANCH  14  15
ATOM     15  C   UNL     1      84.074  87.657  73.427  1.00  0.00    -0.000 C 
BRANCH  15  16
ATOM     16  C   UNL     1      85.362  88.068  74.159  1.00  0.00    -0.000 C 
BRANCH  16  17
ATOM     17  C   UNL     1      85.352  87.687  75.651  1.00  0.00    -0.000 C 
BRANCH  17  18
ATOM     18  C   UNL     1      84.147  86.842  76.103  1.00  0.00    -0.000 C 
BRANCH  18  19
ATOM     19  C   UNL     1      83.279  87.547  77.154  1.00  0.00    -0.003 C 
ATOM     20  C   UNL     1      81.988  88.076  76.536  1.00  0.00     0.004 C 
ENDBRANCH  18  19
ENDBRANCH  17  18
ENDBRANCH  16  17
ENDBRANCH  15  16
ENDBRANCH  14  15
ENDBRANCH  13  14
ENDBRANCH  12  13
ENDBRANCH   1  12
TORSDOF 16
ENDMDL
MODEL 9
REMARK VINA RESULT:    -2.033      3.069      5.441
REMARK INTER + INTRA:          -6.563
REMARK INTER:                  -3.951
REMARK INTRA:                  -2.612
REMARK UNBOUND:                -2.627
REMARK SMILES CCCCCCCCCCCCCCCCCC(=O)[O-]
REMARK SMILES IDX 10 1 11 2 12 3 13 4 14 5 15 6 16 7 17 8 18 9 19 10 20 11
REMARK SMILES IDX 9 12 8 13 7 14 6 15 5 16 4 17 3 18 2 19 1 20
REMARK H PARENT
REMARK Flexibility Score: inf
ROOT
ATOM      1  C   UNL     1      77.490  88.911  91.574  1.00  0.00     0.000 C 
ENDROOT
BRANCH   1   2
ATOM      2  C   UNL     1      77.889  88.359  92.955  1.00  0.00     0.000 C 
BRANCH   2   3
ATOM      3  C   UNL     1      78.027  86.827  92.967  1.00  0.00     0.000 C 
BRANCH   3   4
ATOM      4  C   UNL     1      79.424  86.359  92.532  1.00  0.00     0.000 C 
BRANCH   4   5
ATOM      5  C   UNL     1      79.416  85.686  91.148  1.00  0.00     0.000 C 
BRANCH   5   6
ATOM      6  C   UNL     1      80.767  85.803  90.425  1.00  0.00     0.000 C 
BRANCH   6   7
ATOM      7  C   UNL     1      80.629  86.369  89.004  1.00  0.00     0.006 C 
BRANCH   7   8
ATOM      8  C   UNL     1      79.799  87.657  89.006  1.00  0.00     0.053 C 
BRANCH   8   9
ATOM      9  C   UNL     1      79.474  88.073  87.606  1.00  0.00     0.041 C 
ATOM     10  O   UNL     1      78.937  87.257  86.812  1.00  0.00    -0.550 OA
ATOM     11  O   UNL     1      79.810  89.346  87.162  1.00  0.00    -0.550 OA
ENDBRANCH   8   9
ENDBRANCH   7   8
ENDBRANCH   6   7
ENDBRANCH   5   6
ENDBRANCH   4   5
ENDBRANCH   3   4
ENDBRANCH   2   3
ENDBRANCH   1   2
BRANCH   1  12
ATOM     12  C   UNL     1      76.849  90.313  91.598  1.00  0.00     0.000 C 
BRANCH  12  13
ATOM     13  C   UNL     1      76.034  90.635  92.866  1.00  0.00    -0.000 C 
BRANCH  13  14
ATOM     14  C   UNL     1      74.517  90.385  92.750  1.00  0.00    -0.000 C 
BRANCH  14  15
ATOM     15  C   UNL     1      74.085  88.911  92.853  1.00  0.00    -0.000 C 
BRANCH  15  16
ATOM     16  C   UNL     1      73.370  88.408  91.589  1.00  0.00    -0.000 C 
BRANCH  16  17
ATOM     17  C   UNL     1      74.323  87.726  90.590  1.00  0.00    -0.000 C 
BRANCH  17  18
ATOM     18  C   UNL     1      74.854  86.348  91.027  1.00  0.00    -0.000 C 
BRANCH  18  19
ATOM     19  C   UNL     1      75.902  85.775  90.062  1.00  0.00    -0.003 C 
ATOM     20  C   UNL     1      76.140  86.717  88.885  1.00  0.00     0.004 C 
ENDBRANCH  18  19
ENDBRANCH  17  18
ENDBRANCH  16  17
ENDBRANCH  15  16
ENDBRANCH  14  15
ENDBRANCH  13  14
ENDBRANCH  12  13
ENDBRANCH   1  12
TORSDOF 16
ENDMDL
