MODEL 1
REMARK VINA RESULT:    -4.215      0.000      0.000
REMARK INTER + INTRA:          -6.440
REMARK INTER:                  -6.432
REMARK INTRA:                  -0.008
REMARK UNBOUND:                -0.008
REMARK SMILES CC1=CCC[C@H](C)C(=O)C[C@H](C(C)C)C(=O)C1
REMARK SMILES IDX 8 1 9 2 6 3 7 4 5 5 4 6 3 7 2 8 1 9 10 11 11 12 15 13 16 14
REMARK SMILES IDX 17 15 12 17 13 18 14 19
REMARK H PARENT
REMARK Flexibility Score: 70.00
ROOT
ATOM      1  C   UNL     1      10.937 -17.876 -19.974  1.00  0.00     0.136 C 
ATOM      2  O   UNL     1      10.462 -17.636 -18.872  1.00  0.00    -0.299 OA
ENDROOT
BRANCH   1   3
ATOM      3  C   UNL     1       9.999 -18.411 -21.042  1.00  0.00     0.053 C 
ATOM      4  C   UNL     1       8.686 -19.025 -20.529  1.00  0.00     0.016 C 
BRANCH   3   5
ATOM      5  C   UNL     1       9.841 -17.417 -22.219  1.00  0.00     0.015 C 
BRANCH   5   6
ATOM      6  C   UNL     1       9.934 -17.925 -23.681  1.00  0.00     0.028 C 
BRANCH   6   7
ATOM      7  C   UNL     1      10.957 -17.315 -24.609  1.00  0.00    -0.028 C 
ATOM      8  C   UNL     1      12.236 -17.718 -24.768  1.00  0.00    -0.070 CG0
ATOM      9  C   UNL     1      12.980 -17.219 -25.982  1.00  0.00     0.039 C 
ATOM     10  G   UNL     1      12.912 -18.711 -23.847  1.00  0.00     0.000 G0
ENDBRANCH   6   7
ENDBRANCH   5   6
ENDBRANCH   3   5
ENDBRANCH   1   3
BRANCH   1  11
ATOM     11  C   UNL     1      12.392 -17.545 -20.221  1.00  0.00     0.087 C 
BRANCH  11  12
ATOM     12  C   UNL     1      13.108 -18.569 -21.154  1.00  0.00     0.066 C 
BRANCH  12  13
ATOM     13  C   UNL     1      13.417 -18.047 -22.565  1.00  0.00     0.140 C 
ATOM     14  O   UNL     1      14.162 -17.084 -22.676  1.00  0.00    -0.299 OA
BRANCH  13  15
ATOM     15  C   UNL     1      12.940 -18.701 -23.849  1.00  0.00     0.106 CG0
ATOM     16  G   UNL     1      12.241 -17.725 -24.771  1.00  0.00     0.000 G0
ENDBRANCH  13  15
ENDBRANCH  12  13
BRANCH  12  17
ATOM     17  C   UNL     1      14.380 -19.196 -20.487  1.00  0.00    -0.006 C 
ATOM     18  C   UNL     1      14.444 -20.724 -20.649  1.00  0.00     0.008 C 
ATOM     19  C   UNL     1      14.548 -18.812 -19.009  1.00  0.00     0.008 C 
ENDBRANCH  12  17
ENDBRANCH  11  12
ENDBRANCH   1  11
TORSDOF 1
ENDMDL
MODEL 2
REMARK VINA RESULT:    -3.960      2.386      4.376
REMARK INTER + INTRA:          -6.052
REMARK INTER:                  -5.875
REMARK INTRA:                  -0.177
REMARK UNBOUND:                -0.008
REMARK SMILES CC1=CCC[C@H](C)C(=O)C[C@H](C(C)C)C(=O)C1
REMARK SMILES IDX 8 1 9 2 6 3 7 4 5 5 4 6 3 7 2 8 1 9 10 11 11 12 15 13 16 14
REMARK SMILES IDX 17 15 12 17 13 18 14 19
REMARK H PARENT
REMARK Flexibility Score: 70.00
ROOT
ATOM      1  C   UNL     1      13.179 -17.518 -20.287  1.00  0.00     0.136 C 
ATOM      2  O   UNL     1      12.450 -17.201 -19.357  1.00  0.00    -0.299 OA
ENDROOT
BRANCH   1   3
ATOM      3  C   UNL     1      14.450 -18.280 -19.956  1.00  0.00     0.053 C 
ATOM      4  C   UNL     1      15.428 -17.565 -19.010  1.00  0.00     0.016 C 
BRANCH   3   5
ATOM      5  C   UNL     1      14.157 -19.759 -19.600  1.00  0.00     0.015 C 
BRANCH   5   6
ATOM      6  C   UNL     1      14.541 -20.886 -20.591  1.00  0.00     0.028 C 
BRANCH   6   7
ATOM      7  C   UNL     1      15.578 -20.611 -21.653  1.00  0.00    -0.028 C 
ATOM      8  C   UNL     1      15.343 -20.184 -22.913  1.00  0.00    -0.070 CG0
ATOM      9  C   UNL     1      16.510 -19.634 -23.694  1.00  0.00     0.039 C 
ATOM     10  G   UNL     1      13.961 -20.145 -23.529  1.00  0.00     0.000 G0
ENDBRANCH   6   7
ENDBRANCH   5   6
ENDBRANCH   3   5
ENDBRANCH   1   3
BRANCH   1  11
ATOM     11  C   UNL     1      12.728 -17.206 -21.697  1.00  0.00     0.087 C 
BRANCH  11  12
ATOM     12  C   UNL     1      13.802 -17.541 -22.777  1.00  0.00     0.066 C 
BRANCH  12  13
ATOM     13  C   UNL     1      13.440 -18.714 -23.702  1.00  0.00     0.140 C 
ATOM     14  O   UNL     1      12.744 -18.485 -24.681  1.00  0.00    -0.299 OA
BRANCH  13  15
ATOM     15  C   UNL     1      13.964 -20.129 -23.543  1.00  0.00     0.106 CG0
ATOM     16  G   UNL     1      15.335 -20.170 -22.904  1.00  0.00     0.000 G0
ENDBRANCH  13  15
ENDBRANCH  12  13
BRANCH  12  17
ATOM     17  C   UNL     1      14.236 -16.280 -23.599  1.00  0.00    -0.006 C 
ATOM     18  C   UNL     1      15.586 -15.706 -23.138  1.00  0.00     0.008 C 
ATOM     19  C   UNL     1      13.171 -15.173 -23.628  1.00  0.00     0.008 C 
ENDBRANCH  12  17
ENDBRANCH  11  12
ENDBRANCH   1  11
TORSDOF 1
ENDMDL
MODEL 3
REMARK VINA RESULT:    -3.878      2.205      4.633
REMARK INTER + INTRA:          -5.927
REMARK INTER:                  -5.663
REMARK INTRA:                  -0.263
REMARK UNBOUND:                -0.008
REMARK SMILES CC1=CCC[C@H](C)C(=O)C[C@H](C(C)C)C(=O)C1
REMARK SMILES IDX 8 1 9 2 6 3 7 4 5 5 4 6 3 7 2 8 1 9 10 11 11 12 15 13 16 14
REMARK SMILES IDX 17 15 12 17 13 18 14 19
REMARK H PARENT
REMARK Flexibility Score: 70.00
ROOT
ATOM      1  C   UNL     1      12.948 -18.229 -20.239  1.00  0.00     0.136 C 
ATOM      2  O   UNL     1      12.355 -17.258 -19.789  1.00  0.00    -0.299 OA
ENDROOT
BRANCH   1   3
ATOM      3  C   UNL     1      13.813 -19.029 -19.282  1.00  0.00     0.053 C 
ATOM      4  C   UNL     1      14.045 -20.500 -19.666  1.00  0.00     0.016 C 
BRANCH   3   5
ATOM      5  C   UNL     1      15.087 -18.251 -18.869  1.00  0.00     0.015 C 
BRANCH   5   6
ATOM      6  C   UNL     1      15.874 -17.435 -19.925  1.00  0.00     0.028 C 
BRANCH   6   7
ATOM      7  C   UNL     1      16.577 -18.163 -21.045  1.00  0.00    -0.028 C 
ATOM      8  C   UNL     1      16.542 -17.843 -22.357  1.00  0.00    -0.070 CG0
ATOM      9  C   UNL     1      17.580 -18.466 -23.256  1.00  0.00     0.039 C 
ATOM     10  G   UNL     1      15.582 -16.826 -22.936  1.00  0.00     0.000 G0
ENDBRANCH   6   7
ENDBRANCH   5   6
ENDBRANCH   3   5
ENDBRANCH   1   3
BRANCH   1  11
ATOM     11  C   UNL     1      12.714 -18.611 -21.684  1.00  0.00     0.087 C 
BRANCH  11  12
ATOM     12  C   UNL     1      12.937 -17.431 -22.679  1.00  0.00     0.066 C 
BRANCH  12  13
ATOM     13  C   UNL     1      14.277 -17.468 -23.430  1.00  0.00     0.140 C 
ATOM     14  O   UNL     1      14.305 -17.984 -24.538  1.00  0.00    -0.299 OA
BRANCH  13  15
ATOM     15  C   UNL     1      15.558 -16.821 -22.936  1.00  0.00     0.106 CG0
ATOM     16  G   UNL     1      16.533 -17.828 -22.367  1.00  0.00     0.000 G0
ENDBRANCH  13  15
ENDBRANCH  12  13
BRANCH  12  17
ATOM     17  C   UNL     1      11.734 -17.249 -23.666  1.00  0.00    -0.006 C 
ATOM     18  C   UNL     1      11.711 -15.858 -24.323  1.00  0.00     0.008 C 
ATOM     19  C   UNL     1      10.370 -17.559 -23.033  1.00  0.00     0.008 C 
ENDBRANCH  12  17
ENDBRANCH  11  12
ENDBRANCH   1  11
TORSDOF 1
ENDMDL
MODEL 4
REMARK VINA RESULT:    -3.878      2.131      3.919
REMARK INTER + INTRA:          -5.925
REMARK INTER:                  -5.510
REMARK INTRA:                  -0.415
REMARK UNBOUND:                -0.008
REMARK SMILES CC1=CCC[C@H](C)C(=O)C[C@H](C(C)C)C(=O)C1
REMARK SMILES IDX 8 1 9 2 6 3 7 4 5 5 4 6 3 7 2 8 1 9 10 11 11 12 15 13 16 14
REMARK SMILES IDX 17 15 12 17 13 18 14 19
REMARK H PARENT
REMARK Flexibility Score: 70.00
ROOT
ATOM      1  C   UNL     1      12.826 -16.853 -23.056  1.00  0.00     0.136 C 
ATOM      2  O   UNL     1      12.933 -15.674 -23.365  1.00  0.00    -0.299 OA
ENDROOT
BRANCH   1   3
ATOM      3  C   UNL     1      11.994 -17.744 -23.960  1.00  0.00     0.053 C 
ATOM      4  C   UNL     1      10.696 -17.121 -24.500  1.00  0.00     0.016 C 
BRANCH   3   5
ATOM      5  C   UNL     1      12.866 -18.462 -25.021  1.00  0.00     0.015 C 
BRANCH   5   6
ATOM      6  C   UNL     1      13.399 -19.891 -24.750  1.00  0.00     0.028 C 
BRANCH   6   7
ATOM      7  C   UNL     1      14.842 -20.074 -24.341  1.00  0.00    -0.028 C 
ATOM      8  C   UNL     1      15.286 -20.646 -23.202  1.00  0.00    -0.070 CG0
ATOM      9  C   UNL     1      16.738 -21.051 -23.144  1.00  0.00     0.039 C 
ATOM     10  G   UNL     1      14.382 -20.982 -22.036  1.00  0.00     0.000 G0
ENDBRANCH   6   7
ENDBRANCH   5   6
ENDBRANCH   3   5
ENDBRANCH   1   3
BRANCH   1  11
ATOM     11  C   UNL     1      13.593 -17.356 -21.853  1.00  0.00     0.087 C 
BRANCH  11  12
ATOM     12  C   UNL     1      13.071 -18.725 -21.316  1.00  0.00     0.066 C 
BRANCH  12  13
ATOM     13  C   UNL     1      14.159 -19.789 -21.107  1.00  0.00     0.140 C 
ATOM     14  O   UNL     1      14.841 -19.729 -20.095  1.00  0.00    -0.299 OA
BRANCH  13  15
ATOM     15  C   UNL     1      14.389 -20.977 -22.024  1.00  0.00     0.106 CG0
ATOM     16  G   UNL     1      15.286 -20.640 -23.194  1.00  0.00     0.000 G0
ENDBRANCH  13  15
ENDBRANCH  12  13
BRANCH  12  17
ATOM     17  C   UNL     1      12.178 -18.564 -20.039  1.00  0.00    -0.006 C 
ATOM     18  C   UNL     1      10.683 -18.424 -20.374  1.00  0.00     0.008 C 
ATOM     19  C   UNL     1      12.625 -17.417 -19.121  1.00  0.00     0.008 C 
ENDBRANCH  12  17
ENDBRANCH  11  12
ENDBRANCH   1  11
TORSDOF 1
ENDMDL
MODEL 5
REMARK VINA RESULT:    -3.866      5.914      8.233
REMARK INTER + INTRA:          -5.908
REMARK INTER:                  -5.494
REMARK INTRA:                  -0.414
REMARK UNBOUND:                -0.008
REMARK SMILES CC1=CCC[C@H](C)C(=O)C[C@H](C(C)C)C(=O)C1
REMARK SMILES IDX 8 1 9 2 6 3 7 4 5 5 4 6 3 7 2 8 1 9 10 11 11 12 15 13 16 14
REMARK SMILES IDX 17 15 12 17 13 18 14 19
REMARK H PARENT
REMARK Flexibility Score: 70.00
ROOT
ATOM      1  C   UNL     1      19.541 -22.727 -24.640  1.00  0.00     0.136 C 
ATOM      2  O   UNL     1      20.491 -23.344 -25.103  1.00  0.00    -0.299 OA
ENDROOT
BRANCH   1   3
ATOM      3  C   UNL     1      19.837 -21.440 -23.891  1.00  0.00     0.053 C 
ATOM      4  C   UNL     1      20.329 -21.609 -22.444  1.00  0.00     0.016 C 
BRANCH   3   5
ATOM      5  C   UNL     1      20.662 -20.450 -24.751  1.00  0.00     0.015 C 
BRANCH   5   6
ATOM      6  C   UNL     1      19.941 -19.376 -25.604  1.00  0.00     0.028 C 
BRANCH   6   7
ATOM      7  C   UNL     1      19.094 -19.811 -26.775  1.00  0.00    -0.028 C 
ATOM      8  C   UNL     1      17.753 -19.976 -26.778  1.00  0.00    -0.070 CG0
ATOM      9  C   UNL     1      17.063 -20.067 -28.116  1.00  0.00     0.039 C 
ATOM     10  G   UNL     1      16.916 -19.975 -25.517  1.00  0.00     0.000 G0
ENDBRANCH   6   7
ENDBRANCH   5   6
ENDBRANCH   3   5
ENDBRANCH   1   3
BRANCH   1  11
ATOM     11  C   UNL     1      18.144 -23.237 -24.917  1.00  0.00     0.087 C 
BRANCH  11  12
ATOM     12  C   UNL     1      17.029 -22.379 -24.244  1.00  0.00     0.066 C 
BRANCH  12  13
ATOM     13  C   UNL     1      16.347 -21.366 -25.176  1.00  0.00     0.140 C 
ATOM     14  O   UNL     1      15.244 -21.644 -25.625  1.00  0.00    -0.299 OA
BRANCH  13  15
ATOM     15  C   UNL     1      16.900 -19.992 -25.507  1.00  0.00     0.106 CG0
ATOM     16  G   UNL     1      17.757 -19.999 -26.755  1.00  0.00     0.000 G0
ENDBRANCH  13  15
ENDBRANCH  12  13
BRANCH  12  17
ATOM     17  C   UNL     1      15.975 -23.258 -23.488  1.00  0.00    -0.006 C 
ATOM     18  C   UNL     1      15.282 -22.500 -22.342  1.00  0.00     0.008 C 
ATOM     19  C   UNL     1      16.544 -24.589 -22.975  1.00  0.00     0.008 C 
ENDBRANCH  12  17
ENDBRANCH  11  12
ENDBRANCH   1  11
TORSDOF 1
ENDMDL
MODEL 6
REMARK VINA RESULT:    -3.835      5.679      7.962
REMARK INTER + INTRA:          -5.861
REMARK INTER:                  -5.392
REMARK INTRA:                  -0.469
REMARK UNBOUND:                -0.008
REMARK SMILES CC1=CCC[C@H](C)C(=O)C[C@H](C(C)C)C(=O)C1
REMARK SMILES IDX 8 1 9 2 6 3 7 4 5 5 4 6 3 7 2 8 1 9 10 11 11 12 15 13 16 14
REMARK SMILES IDX 17 15 12 17 13 18 14 19
REMARK H PARENT
REMARK Flexibility Score: 70.00
ROOT
ATOM      1  C   UNL     1      17.538 -24.146 -23.135  1.00  0.00     0.136 C 
ATOM      2  O   UNL     1      17.478 -25.368 -23.117  1.00  0.00    -0.299 OA
ENDROOT
BRANCH   1   3
ATOM      3  C   UNL     1      18.881 -23.504 -22.834  1.00  0.00     0.053 C 
ATOM      4  C   UNL     1      19.507 -23.872 -21.479  1.00  0.00     0.016 C 
BRANCH   3   5
ATOM      5  C   UNL     1      19.843 -23.588 -24.045  1.00  0.00     0.015 C 
BRANCH   5   6
ATOM      6  C   UNL     1      19.290 -23.464 -25.487  1.00  0.00     0.028 C 
BRANCH   6   7
ATOM      7  C   UNL     1      19.371 -22.133 -26.195  1.00  0.00    -0.028 C 
ATOM      8  C   UNL     1      18.334 -21.325 -26.507  1.00  0.00    -0.070 CG0
ATOM      9  C   UNL     1      18.649 -19.899 -26.886  1.00  0.00     0.039 C 
ATOM     10  G   UNL     1      16.888 -21.757 -26.400  1.00  0.00     0.000 G0
ENDBRANCH   6   7
ENDBRANCH   5   6
ENDBRANCH   3   5
ENDBRANCH   1   3
BRANCH   1  11
ATOM     11  C   UNL     1      16.304 -23.368 -23.537  1.00  0.00     0.087 C 
BRANCH  11  12
ATOM     12  C   UNL     1      16.568 -21.841 -23.718  1.00  0.00     0.066 C 
BRANCH  12  13
ATOM     13  C   UNL     1      16.215 -21.289 -25.107  1.00  0.00     0.140 C 
ATOM     14  O   UNL     1      15.410 -20.371 -25.177  1.00  0.00    -0.299 OA
BRANCH  13  15
ATOM     15  C   UNL     1      16.868 -21.735 -26.403  1.00  0.00     0.106 CG0
ATOM     16  G   UNL     1      18.321 -21.320 -26.491  1.00  0.00     0.000 G0
ENDBRANCH  13  15
ENDBRANCH  12  13
BRANCH  12  17
ATOM     17  C   UNL     1      15.917 -20.984 -22.580  1.00  0.00    -0.006 C 
ATOM     18  C   UNL     1      16.954 -20.204 -21.755  1.00  0.00     0.008 C 
ATOM     19  C   UNL     1      15.001 -21.795 -21.651  1.00  0.00     0.008 C 
ENDBRANCH  12  17
ENDBRANCH  11  12
ENDBRANCH   1  11
TORSDOF 1
ENDMDL
MODEL 7
REMARK VINA RESULT:    -3.820      5.926      8.419
REMARK INTER + INTRA:          -5.838
REMARK INTER:                  -5.380
REMARK INTRA:                  -0.458
REMARK UNBOUND:                -0.008
REMARK SMILES CC1=CCC[C@H](C)C(=O)C[C@H](C(C)C)C(=O)C1
REMARK SMILES IDX 8 1 9 2 6 3 7 4 5 5 4 6 3 7 2 8 1 9 10 11 11 12 15 13 16 14
REMARK SMILES IDX 17 15 12 17 13 18 14 19
REMARK H PARENT
REMARK Flexibility Score: 70.00
ROOT
ATOM      1  C   UNL     1      19.644 -23.558 -22.843  1.00  0.00     0.136 C 
ATOM      2  O   UNL     1      19.991 -23.960 -21.740  1.00  0.00    -0.299 OA
ENDROOT
BRANCH   1   3
ATOM      3  C   UNL     1      18.927 -24.538 -23.754  1.00  0.00     0.053 C 
ATOM      4  C   UNL     1      19.825 -25.554 -24.480  1.00  0.00     0.016 C 
BRANCH   3   5
ATOM      5  C   UNL     1      17.672 -25.142 -23.075  1.00  0.00     0.015 C 
BRANCH   5   6
ATOM      6  C   UNL     1      16.567 -24.210 -22.517  1.00  0.00     0.028 C 
BRANCH   6   7
ATOM      7  C   UNL     1      15.682 -23.457 -23.481  1.00  0.00    -0.028 C 
ATOM      8  C   UNL     1      15.726 -22.132 -23.743  1.00  0.00    -0.070 CG0
ATOM      9  C   UNL     1      15.014 -21.641 -24.979  1.00  0.00     0.039 C 
ATOM     10  G   UNL     1      16.528 -21.151 -22.917  1.00  0.00     0.000 G0
ENDBRANCH   6   7
ENDBRANCH   5   6
ENDBRANCH   3   5
ENDBRANCH   1   3
BRANCH   1  11
ATOM     11  C   UNL     1      19.875 -22.103 -23.187  1.00  0.00     0.087 C 
BRANCH  11  12
ATOM     12  C   UNL     1      18.866 -21.551 -24.240  1.00  0.00     0.066 C 
BRANCH  12  13
ATOM     13  C   UNL     1      17.776 -20.633 -23.665  1.00  0.00     0.140 C 
ATOM     14  O   UNL     1      17.864 -19.431 -23.870  1.00  0.00    -0.299 OA
BRANCH  13  15
ATOM     15  C   UNL     1      16.535 -21.120 -22.939  1.00  0.00     0.106 CG0
ATOM     16  G   UNL     1      15.739 -22.115 -23.755  1.00  0.00     0.000 G0
ENDBRANCH  13  15
ENDBRANCH  12  13
BRANCH  12  17
ATOM     17  C   UNL     1      19.584 -20.886 -25.463  1.00  0.00    -0.006 C 
ATOM     18  C   UNL     1      19.268 -21.591 -26.793  1.00  0.00     0.008 C 
ATOM     19  C   UNL     1      21.104 -20.753 -25.282  1.00  0.00     0.008 C 
ENDBRANCH  12  17
ENDBRANCH  11  12
ENDBRANCH   1  11
TORSDOF 1
ENDMDL
MODEL 8
REMARK VINA RESULT:    -3.812      2.041      4.138
REMARK INTER + INTRA:          -5.825
REMARK INTER:                  -5.684
REMARK INTRA:                  -0.141
REMARK UNBOUND:                -0.008
REMARK SMILES CC1=CCC[C@H](C)C(=O)C[C@H](C(C)C)C(=O)C1
REMARK SMILES IDX 8 1 9 2 6 3 7 4 5 5 4 6 3 7 2 8 1 9 10 11 11 12 15 13 16 14
REMARK SMILES IDX 17 15 12 17 13 18 14 19
REMARK H PARENT
REMARK Flexibility Score: 70.00
ROOT
ATOM      1  C   UNL     1      15.016 -20.779 -21.661  1.00  0.00     0.136 C 
ATOM      2  O   UNL     1      14.727 -21.961 -21.788  1.00  0.00    -0.299 OA
ENDROOT
BRANCH   1   3
ATOM      3  C   UNL     1      15.670 -20.084 -22.842  1.00  0.00     0.053 C 
ATOM      4  C   UNL     1      17.159 -20.401 -23.061  1.00  0.00     0.016 C 
BRANCH   3   5
ATOM      5  C   UNL     1      14.790 -20.162 -24.115  1.00  0.00     0.015 C 
BRANCH   5   6
ATOM      6  C   UNL     1      14.080 -18.891 -24.646  1.00  0.00     0.028 C 
BRANCH   6   7
ATOM      7  C   UNL     1      12.632 -18.654 -24.291  1.00  0.00    -0.028 C 
ATOM      8  C   UNL     1      12.166 -17.822 -23.334  1.00  0.00    -0.070 CG0
ATOM      9  C   UNL     1      10.702 -17.461 -23.374  1.00  0.00     0.039 C 
ATOM     10  G   UNL     1      13.057 -17.170 -22.298  1.00  0.00     0.000 G0
ENDBRANCH   6   7
ENDBRANCH   5   6
ENDBRANCH   3   5
ENDBRANCH   1   3
BRANCH   1  11
ATOM     11  C   UNL     1      14.628 -20.075 -20.379  1.00  0.00     0.087 C 
BRANCH  11  12
ATOM     12  C   UNL     1      14.561 -18.523 -20.523  1.00  0.00     0.066 C 
BRANCH  12  13
ATOM     13  C   UNL     1      13.216 -17.984 -21.036  1.00  0.00     0.140 C 
ATOM     14  O   UNL     1      12.222 -18.158 -20.346  1.00  0.00    -0.299 OA
BRANCH  13  15
ATOM     15  C   UNL     1      13.045 -17.159 -22.298  1.00  0.00     0.106 CG0
ATOM     16  G   UNL     1      12.171 -17.847 -23.325  1.00  0.00     0.000 G0
ENDBRANCH  13  15
ENDBRANCH  12  13
BRANCH  12  17
ATOM     17  C   UNL     1      15.013 -17.783 -19.219  1.00  0.00    -0.006 C 
ATOM     18  C   UNL     1      16.532 -17.546 -19.167  1.00  0.00     0.008 C 
ATOM     19  C   UNL     1      14.538 -18.470 -17.930  1.00  0.00     0.008 C 
ENDBRANCH  12  17
ENDBRANCH  11  12
ENDBRANCH   1  11
TORSDOF 1
ENDMDL
MODEL 9
REMARK VINA RESULT:    -3.673      2.970      4.679
REMARK INTER + INTRA:          -5.613
REMARK INTER:                  -5.197
REMARK INTRA:                  -0.416
REMARK UNBOUND:                -0.008
REMARK SMILES CC1=CCC[C@H](C)C(=O)C[C@H](C(C)C)C(=O)C1
REMARK SMILES IDX 8 1 9 2 6 3 7 4 5 5 4 6 3 7 2 8 1 9 10 11 11 12 15 13 16 14
REMARK SMILES IDX 17 15 12 17 13 18 14 19
REMARK H PARENT
REMARK Flexibility Score: 70.00
ROOT
ATOM      1  C   UNL     1      15.728 -16.927 -21.956  1.00  0.00     0.136 C 
ATOM      2  O   UNL     1      16.583 -16.062 -21.822  1.00  0.00    -0.299 OA
ENDROOT
BRANCH   1   3
ATOM      3  C   UNL     1      14.893 -16.899 -23.223  1.00  0.00     0.053 C 
ATOM      4  C   UNL     1      14.206 -15.561 -23.540  1.00  0.00     0.016 C 
BRANCH   3   5
ATOM      5  C   UNL     1      15.634 -17.553 -24.416  1.00  0.00     0.015 C 
BRANCH   5   6
ATOM      6  C   UNL     1      15.242 -18.976 -24.888  1.00  0.00     0.028 C 
BRANCH   6   7
ATOM      7  C   UNL     1      15.789 -20.174 -24.148  1.00  0.00    -0.028 C 
ATOM      8  C   UNL     1      15.140 -20.907 -23.217  1.00  0.00    -0.070 CG0
ATOM      9  C   UNL     1      15.717 -22.255 -22.863  1.00  0.00     0.039 C 
ATOM     10  G   UNL     1      13.827 -20.482 -22.597  1.00  0.00     0.000 G0
ENDBRANCH   6   7
ENDBRANCH   5   6
ENDBRANCH   3   5
ENDBRANCH   1   3
BRANCH   1  11
ATOM     11  C   UNL     1      15.622 -18.006 -20.901  1.00  0.00     0.087 C 
BRANCH  11  12
ATOM     12  C   UNL     1      14.174 -18.559 -20.728  1.00  0.00     0.066 C 
BRANCH  12  13
ATOM     13  C   UNL     1      13.991 -20.025 -21.150  1.00  0.00     0.140 C 
ATOM     14  O   UNL     1      13.885 -20.871 -20.273  1.00  0.00    -0.299 OA
BRANCH  13  15
ATOM     15  C   UNL     1      13.834 -20.494 -22.585  1.00  0.00     0.106 CG0
ATOM     16  G   UNL     1      15.150 -20.909 -23.205  1.00  0.00     0.000 G0
ENDBRANCH  13  15
ENDBRANCH  12  13
BRANCH  12  17
ATOM     17  C   UNL     1      13.606 -18.305 -19.290  1.00  0.00    -0.006 C 
ATOM     18  C   UNL     1      12.324 -17.455 -19.299  1.00  0.00     0.008 C 
ATOM     19  C   UNL     1      14.636 -17.700 -18.324  1.00  0.00     0.008 C 
ENDBRANCH  12  17
ENDBRANCH  11  12
ENDBRANCH   1  11
TORSDOF 1
ENDMDL
