MODEL 1
REMARK VINA RESULT:    -2.942      0.000      0.000
REMARK INTER + INTRA:          -3.560
REMARK INTER:                  -3.458
REMARK INTRA:                  -0.102
REMARK UNBOUND:                -0.102
REMARK SMILES O=C([O-])CCC(=O)[O-]
REMARK SMILES IDX 4 1 2 2 1 3 3 4 5 5 6 6 7 7 8 8
REMARK H PARENT
REMARK Flexibility Score: inf
ROOT
ATOM      1  C   UNL     1      10.480 -20.567  30.533  1.00  0.00     0.059 C 
ENDROOT
BRANCH   1   2
ATOM      2  C   UNL     1      10.310 -19.253  31.232  1.00  0.00     0.042 C 
ATOM      3  O   UNL     1       9.277 -19.027  31.915  1.00  0.00    -0.550 OA
ATOM      4  O   UNL     1      11.274 -18.262  31.094  1.00  0.00    -0.550 OA
ENDBRANCH   1   2
BRANCH   1   5
ATOM      5  C   UNL     1       9.342 -20.831  29.543  1.00  0.00     0.059 C 
BRANCH   5   6
ATOM      6  C   UNL     1       9.676 -20.330  28.171  1.00  0.00     0.042 C 
ATOM      7  O   UNL     1       9.477 -19.124  27.870  1.00  0.00    -0.550 OA
ATOM      8  O   UNL     1      10.246 -21.187  27.237  1.00  0.00    -0.550 OA
ENDBRANCH   5   6
ENDBRANCH   1   5
TORSDOF 3
ENDMDL
MODEL 2
REMARK VINA RESULT:    -2.929      0.085      3.710
REMARK INTER + INTRA:          -3.545
REMARK INTER:                  -3.436
REMARK INTRA:                  -0.110
REMARK UNBOUND:                -0.102
REMARK SMILES O=C([O-])CCC(=O)[O-]
REMARK SMILES IDX 4 1 2 2 1 3 3 4 5 5 6 6 7 7 8 8
REMARK H PARENT
REMARK Flexibility Score: inf
ROOT
ATOM      1  C   UNL     1       9.302 -20.804  29.495  1.00  0.00     0.059 C 
ENDROOT
BRANCH   1   2
ATOM      2  C   UNL     1       9.678 -20.308  28.132  1.00  0.00     0.042 C 
ATOM      3  O   UNL     1       9.439 -19.117  27.803  1.00  0.00    -0.550 OA
ATOM      4  O   UNL     1      10.258 -21.173  27.213  1.00  0.00    -0.550 OA
ENDBRANCH   1   2
BRANCH   1   5
ATOM      5  C   UNL     1      10.440 -20.606  30.502  1.00  0.00     0.059 C 
BRANCH   5   6
ATOM      6  C   UNL     1      10.338 -19.284  31.198  1.00  0.00     0.042 C 
ATOM      7  O   UNL     1      11.253 -18.429  31.073  1.00  0.00    -0.550 OA
ATOM      8  O   UNL     1       9.210 -18.981  31.953  1.00  0.00    -0.550 OA
ENDBRANCH   5   6
ENDBRANCH   1   5
TORSDOF 3
ENDMDL
MODEL 3
REMARK VINA RESULT:    -2.924      0.093      1.619
REMARK INTER + INTRA:          -3.539
REMARK INTER:                  -3.428
REMARK INTRA:                  -0.111
REMARK UNBOUND:                -0.102
REMARK SMILES O=C([O-])CCC(=O)[O-]
REMARK SMILES IDX 4 1 2 2 1 3 3 4 5 5 6 6 7 7 8 8
REMARK H PARENT
REMARK Flexibility Score: inf
ROOT
ATOM      1  C   UNL     1      10.462 -20.572  30.527  1.00  0.00     0.059 C 
ENDROOT
BRANCH   1   2
ATOM      2  C   UNL     1      10.333 -19.232  31.186  1.00  0.00     0.042 C 
ATOM      3  O   UNL     1      11.250 -18.378  31.069  1.00  0.00    -0.550 OA
ATOM      4  O   UNL     1       9.217 -18.943  31.961  1.00  0.00    -0.550 OA
ENDBRANCH   1   2
BRANCH   1   5
ATOM      5  C   UNL     1       9.345 -20.809  29.506  1.00  0.00     0.059 C 
BRANCH   5   6
ATOM      6  C   UNL     1       9.740 -20.340  28.138  1.00  0.00     0.042 C 
ATOM      7  O   UNL     1      10.246 -21.146  27.313  1.00  0.00    -0.550 OA
ATOM      8  O   UNL     1       9.510 -19.023  27.762  1.00  0.00    -0.550 OA
ENDBRANCH   5   6
ENDBRANCH   1   5
TORSDOF 3
ENDMDL
MODEL 4
REMARK VINA RESULT:    -2.902      9.534     11.152
REMARK INTER + INTRA:          -3.513
REMARK INTER:                  -3.383
REMARK INTRA:                  -0.129
REMARK UNBOUND:                -0.102
REMARK SMILES O=C([O-])CCC(=O)[O-]
REMARK SMILES IDX 4 1 2 2 1 3 3 4 5 5 6 6 7 7 8 8
REMARK H PARENT
REMARK Flexibility Score: inf
ROOT
ATOM      1  C   UNL     1       8.092 -21.653  38.563  1.00  0.00     0.059 C 
ENDROOT
BRANCH   1   2
ATOM      2  C   UNL     1       7.083 -22.735  38.325  1.00  0.00     0.042 C 
ATOM      3  O   UNL     1       6.010 -22.478  37.719  1.00  0.00    -0.550 OA
ATOM      4  O   UNL     1       7.311 -24.018  38.807  1.00  0.00    -0.550 OA
ENDBRANCH   1   2
BRANCH   1   5
ATOM      5  C   UNL     1       7.788 -20.872  39.846  1.00  0.00     0.059 C 
BRANCH   5   6
ATOM      6  C   UNL     1       8.404 -21.521  41.047  1.00  0.00     0.042 C 
ATOM      7  O   UNL     1       9.624 -21.349  41.306  1.00  0.00    -0.550 OA
ATOM      8  O   UNL     1       7.619 -22.283  41.904  1.00  0.00    -0.550 OA
ENDBRANCH   5   6
ENDBRANCH   1   5
TORSDOF 3
ENDMDL
MODEL 5
REMARK VINA RESULT:    -2.896      9.490     10.549
REMARK INTER + INTRA:          -3.505
REMARK INTER:                  -3.380
REMARK INTRA:                  -0.125
REMARK UNBOUND:                -0.102
REMARK SMILES O=C([O-])CCC(=O)[O-]
REMARK SMILES IDX 4 1 2 2 1 3 3 4 5 5 6 6 7 7 8 8
REMARK H PARENT
REMARK Flexibility Score: inf
ROOT
ATOM      1  C   UNL     1       7.735 -20.884  39.723  1.00  0.00     0.059 C 
ENDROOT
BRANCH   1   2
ATOM      2  C   UNL     1       8.276 -21.502  40.976  1.00  0.00     0.042 C 
ATOM      3  O   UNL     1       7.531 -22.204  41.709  1.00  0.00    -0.550 OA
ATOM      4  O   UNL     1       9.591 -21.268  41.355  1.00  0.00    -0.550 OA
ENDBRANCH   1   2
BRANCH   1   5
ATOM      5  C   UNL     1       8.093 -21.714  38.486  1.00  0.00     0.059 C 
BRANCH   5   6
ATOM      6  C   UNL     1       7.076 -22.783  38.224  1.00  0.00     0.042 C 
ATOM      7  O   UNL     1       7.297 -23.970  38.580  1.00  0.00    -0.550 OA
ATOM      8  O   UNL     1       5.865 -22.458  37.624  1.00  0.00    -0.550 OA
ENDBRANCH   5   6
ENDBRANCH   1   5
TORSDOF 3
ENDMDL
MODEL 6
REMARK VINA RESULT:    -2.869      0.753      1.331
REMARK INTER + INTRA:          -3.474
REMARK INTER:                  -3.370
REMARK INTRA:                  -0.105
REMARK UNBOUND:                -0.102
REMARK SMILES O=C([O-])CCC(=O)[O-]
REMARK SMILES IDX 4 1 2 2 1 3 3 4 5 5 6 6 7 7 8 8
REMARK H PARENT
REMARK Flexibility Score: inf
ROOT
ATOM      1  C   UNL     1       9.262 -19.754  30.910  1.00  0.00     0.059 C 
ENDROOT
BRANCH   1   2
ATOM      2  C   UNL     1      10.113 -18.736  31.608  1.00  0.00     0.042 C 
ATOM      3  O   UNL     1      11.243 -18.431  31.146  1.00  0.00    -0.550 OA
ATOM      4  O   UNL     1       9.673 -18.156  32.791  1.00  0.00    -0.550 OA
ENDBRANCH   1   2
BRANCH   1   5
ATOM      5  C   UNL     1      10.086 -20.609  29.942  1.00  0.00     0.059 C 
BRANCH   5   6
ATOM      6  C   UNL     1       9.792 -20.264  28.513  1.00  0.00     0.042 C 
ATOM      7  O   UNL     1       9.199 -19.190  28.229  1.00  0.00    -0.550 OA
ATOM      8  O   UNL     1      10.210 -21.110  27.494  1.00  0.00    -0.550 OA
ENDBRANCH   5   6
ENDBRANCH   1   5
TORSDOF 3
ENDMDL
MODEL 7
REMARK VINA RESULT:    -2.846      1.514      3.629
REMARK INTER + INTRA:          -3.448
REMARK INTER:                  -3.404
REMARK INTRA:                  -0.044
REMARK UNBOUND:                -0.102
REMARK SMILES O=C([O-])CCC(=O)[O-]
REMARK SMILES IDX 4 1 2 2 1 3 3 4 5 5 6 6 7 7 8 8
REMARK H PARENT
REMARK Flexibility Score: inf
ROOT
ATOM      1  C   UNL     1      10.613 -20.172  30.833  1.00  0.00     0.059 C 
ENDROOT
BRANCH   1   2
ATOM      2  C   UNL     1       9.636 -20.621  29.789  1.00  0.00     0.042 C 
ATOM      3  O   UNL     1       8.448 -20.889  30.106  1.00  0.00    -0.550 OA
ATOM      4  O   UNL     1      10.050 -20.783  28.473  1.00  0.00    -0.550 OA
ENDBRANCH   1   2
BRANCH   1   5
ATOM      5  C   UNL     1      10.052 -19.016  31.669  1.00  0.00     0.059 C 
BRANCH   5   6
ATOM      6  C   UNL     1      10.571 -17.692  31.198  1.00  0.00     0.042 C 
ATOM      7  O   UNL     1      10.791 -17.495  29.974  1.00  0.00    -0.550 OA
ATOM      8  O   UNL     1      10.772 -16.661  32.108  1.00  0.00    -0.550 OA
ENDBRANCH   5   6
ENDBRANCH   1   5
TORSDOF 3
ENDMDL
MODEL 8
REMARK VINA RESULT:    -2.704      9.355     10.491
REMARK INTER + INTRA:          -3.280
REMARK INTER:                  -3.160
REMARK INTRA:                  -0.120
REMARK UNBOUND:                -0.102
REMARK SMILES O=C([O-])CCC(=O)[O-]
REMARK SMILES IDX 4 1 2 2 1 3 3 4 5 5 6 6 7 7 8 8
REMARK H PARENT
REMARK Flexibility Score: inf
ROOT
ATOM      1  C   UNL     1       7.611 -22.345  38.164  1.00  0.00     0.059 C 
ENDROOT
BRANCH   1   2
ATOM      2  C   UNL     1       7.619 -21.072  38.955  1.00  0.00     0.042 C 
ATOM      3  O   UNL     1       8.114 -21.048  40.112  1.00  0.00    -0.550 OA
ATOM      4  O   UNL     1       7.044 -19.923  38.428  1.00  0.00    -0.550 OA
ENDBRANCH   1   2
BRANCH   1   5
ATOM      5  C   UNL     1       6.735 -23.414  38.825  1.00  0.00     0.059 C 
BRANCH   5   6
ATOM      6  C   UNL     1       7.556 -24.546  39.364  1.00  0.00     0.042 C 
ATOM      7  O   UNL     1       8.049 -24.478  40.520  1.00  0.00    -0.550 OA
ATOM      8  O   UNL     1       7.743 -25.693  38.602  1.00  0.00    -0.550 OA
ENDBRANCH   5   6
ENDBRANCH   1   5
TORSDOF 3
ENDMDL
MODEL 9
REMARK VINA RESULT:    -2.644      1.824      2.466
REMARK INTER + INTRA:          -3.210
REMARK INTER:                  -3.094
REMARK INTRA:                  -0.116
REMARK UNBOUND:                -0.102
REMARK SMILES O=C([O-])CCC(=O)[O-]
REMARK SMILES IDX 4 1 2 2 1 3 3 4 5 5 6 6 7 7 8 8
REMARK H PARENT
REMARK Flexibility Score: inf
ROOT
ATOM      1  C   UNL     1      10.850 -17.977  30.932  1.00  0.00     0.059 C 
ENDROOT
BRANCH   1   2
ATOM      2  C   UNL     1      10.133 -17.070  31.885  1.00  0.00     0.042 C 
ATOM      3  O   UNL     1       8.888 -17.173  32.042  1.00  0.00    -0.550 OA
ATOM      4  O   UNL     1      10.833 -16.084  32.568  1.00  0.00    -0.550 OA
ENDBRANCH   1   2
BRANCH   1   5
ATOM      5  C   UNL     1      10.681 -19.449  31.319  1.00  0.00     0.059 C 
BRANCH   5   6
ATOM      6  C   UNL     1       9.761 -20.166  30.378  1.00  0.00     0.042 C 
ATOM      7  O   UNL     1       8.535 -20.272  30.647  1.00  0.00    -0.550 OA
ATOM      8  O   UNL     1      10.251 -20.679  29.183  1.00  0.00    -0.550 OA
ENDBRANCH   5   6
ENDBRANCH   1   5
TORSDOF 3
ENDMDL
