MODEL 1
REMARK VINA RESULT:    -3.762      0.000      0.000
REMARK INTER + INTRA:         -12.022
REMARK INTER:                  -8.162
REMARK INTRA:                  -3.861
REMARK UNBOUND:                -3.861
REMARK SMILES CCCCCCCCCCCCCCCCCCCCCC(=O)[O-]
REMARK SMILES IDX 12 1 11 2 10 3 9 4 8 5 7 6 6 7 5 8 4 9 3 10 2 11 1 12 13 13
REMARK SMILES IDX 14 14 15 15 16 16 17 17 18 18 19 19 20 20 21 21 22 22 23 23
REMARK SMILES IDX 24 24
REMARK H PARENT
REMARK Flexibility Score: inf
ROOT
ATOM      1  C   UNL     1      77.180 -76.587  -0.388  1.00  0.00     0.000 C 
ENDROOT
BRANCH   1   2
ATOM      2  C   UNL     1      77.065 -75.248  -1.136  1.00  0.00     0.000 C 
BRANCH   2   3
ATOM      3  C   UNL     1      78.072 -75.119  -2.288  1.00  0.00     0.000 C 
BRANCH   3   4
ATOM      4  C   UNL     1      77.410 -74.501  -3.526  1.00  0.00    -0.000 C 
BRANCH   4   5
ATOM      5  C   UNL     1      77.515 -72.971  -3.502  1.00  0.00    -0.000 C 
BRANCH   5   6
ATOM      6  C   UNL     1      76.205 -72.324  -3.968  1.00  0.00    -0.000 C 
BRANCH   6   7
ATOM      7  C   UNL     1      75.048 -73.334  -3.935  1.00  0.00    -0.000 C 
BRANCH   7   8
ATOM      8  C   UNL     1      74.145 -73.159  -2.704  1.00  0.00    -0.000 C 
BRANCH   8   9
ATOM      9  C   UNL     1      74.319 -71.786  -2.031  1.00  0.00    -0.000 C 
BRANCH   9  10
ATOM     10  C   UNL     1      74.079 -71.847  -0.508  1.00  0.00    -0.000 C 
BRANCH  10  11
ATOM     11  C   UNL     1      72.933 -70.941  -0.028  1.00  0.00    -0.003 C 
ATOM     12  C   UNL     1      73.422 -69.679   0.681  1.00  0.00     0.004 C 
ENDBRANCH  10  11
ENDBRANCH   9  10
ENDBRANCH   8   9
ENDBRANCH   7   8
ENDBRANCH   6   7
ENDBRANCH   5   6
ENDBRANCH   4   5
ENDBRANCH   3   4
ENDBRANCH   2   3
ENDBRANCH   1   2
BRANCH   1  13
ATOM     13  C   UNL     1      77.991 -77.671  -1.122  1.00  0.00     0.000 C 
BRANCH  13  14
ATOM     14  C   UNL     1      77.103 -78.769  -1.734  1.00  0.00     0.000 C 
BRANCH  14  15
ATOM     15  C   UNL     1      76.751 -78.491  -3.203  1.00  0.00     0.000 C 
BRANCH  15  16
ATOM     16  C   UNL     1      75.234 -78.390  -3.438  1.00  0.00     0.000 C 
BRANCH  16  17
ATOM     17  C   UNL     1      74.693 -76.961  -3.245  1.00  0.00     0.000 C 
BRANCH  17  18
ATOM     18  C   UNL     1      73.501 -76.840  -2.277  1.00  0.00     0.000 C 
BRANCH  18  19
ATOM     19  C   UNL     1      73.628 -77.760  -1.052  1.00  0.00     0.000 C 
BRANCH  19  20
ATOM     20  C   UNL     1      73.509 -76.994   0.276  1.00  0.00     0.006 C 
BRANCH  20  21
ATOM     21  C   UNL     1      73.563 -75.472   0.090  1.00  0.00     0.053 C 
BRANCH  21  22
ATOM     22  C   UNL     1      72.264 -74.852   0.499  1.00  0.00     0.041 C 
ATOM     23  O   UNL     1      71.506 -74.341  -0.367  1.00  0.00    -0.550 OA
ATOM     24  O   UNL     1      71.868 -74.882   1.829  1.00  0.00    -0.550 OA
ENDBRANCH  21  22
ENDBRANCH  20  21
ENDBRANCH  19  20
ENDBRANCH  18  19
ENDBRANCH  17  18
ENDBRANCH  16  17
ENDBRANCH  15  16
ENDBRANCH  14  15
ENDBRANCH  13  14
ENDBRANCH   1  13
TORSDOF 20
ENDMDL
MODEL 2
REMARK VINA RESULT:    -3.726      1.390      1.899
REMARK INTER + INTRA:         -11.943
REMARK INTER:                  -8.277
REMARK INTRA:                  -3.666
REMARK UNBOUND:                -3.861
REMARK SMILES CCCCCCCCCCCCCCCCCCCCCC(=O)[O-]
REMARK SMILES IDX 12 1 11 2 10 3 9 4 8 5 7 6 6 7 5 8 4 9 3 10 2 11 1 12 13 13
REMARK SMILES IDX 14 14 15 15 16 16 17 17 18 18 19 19 20 20 21 21 22 22 23 23
REMARK SMILES IDX 24 24
REMARK H PARENT
REMARK Flexibility Score: inf
ROOT
ATOM      1  C   UNL     1      78.250 -76.611  -1.268  1.00  0.00     0.000 C 
ENDROOT
BRANCH   1   2
ATOM      2  C   UNL     1      77.095 -75.894  -0.547  1.00  0.00     0.000 C 
BRANCH   2   3
ATOM      3  C   UNL     1      76.645 -74.615  -1.267  1.00  0.00     0.000 C 
BRANCH   3   4
ATOM      4  C   UNL     1      77.709 -74.146  -2.266  1.00  0.00    -0.000 C 
BRANCH   4   5
ATOM      5  C   UNL     1      77.064 -73.581  -3.536  1.00  0.00    -0.000 C 
BRANCH   5   6
ATOM      6  C   UNL     1      75.716 -74.259  -3.816  1.00  0.00    -0.000 C 
BRANCH   6   7
ATOM      7  C   UNL     1      74.585 -73.223  -3.903  1.00  0.00    -0.000 C 
BRANCH   7   8
ATOM      8  C   UNL     1      75.006 -71.842  -3.376  1.00  0.00    -0.000 C 
BRANCH   8   9
ATOM      9  C   UNL     1      74.547 -71.595  -1.928  1.00  0.00    -0.000 C 
BRANCH   9  10
ATOM     10  C   UNL     1      73.312 -72.442  -1.555  1.00  0.00    -0.000 C 
BRANCH  10  11
ATOM     11  C   UNL     1      72.530 -71.894  -0.350  1.00  0.00    -0.003 C 
ATOM     12  C   UNL     1      73.118 -70.599   0.210  1.00  0.00     0.004 C 
ENDBRANCH  10  11
ENDBRANCH   9  10
ENDBRANCH   8   9
ENDBRANCH   7   8
ENDBRANCH   6   7
ENDBRANCH   5   6
ENDBRANCH   4   5
ENDBRANCH   3   4
ENDBRANCH   2   3
ENDBRANCH   1   2
BRANCH   1  13
ATOM     13  C   UNL     1      77.848 -77.902  -2.006  1.00  0.00     0.000 C 
BRANCH  13  14
ATOM     14  C   UNL     1      77.180 -77.630  -3.365  1.00  0.00     0.000 C 
BRANCH  14  15
ATOM     15  C   UNL     1      75.686 -77.991  -3.369  1.00  0.00     0.000 C 
BRANCH  15  16
ATOM     16  C   UNL     1      75.286 -78.859  -2.164  1.00  0.00     0.000 C 
BRANCH  16  17
ATOM     17  C   UNL     1      74.142 -78.244  -1.337  1.00  0.00     0.000 C 
BRANCH  17  18
ATOM     18  C   UNL     1      73.737 -76.816  -1.746  1.00  0.00     0.000 C 
BRANCH  18  19
ATOM     19  C   UNL     1      73.214 -75.980  -0.566  1.00  0.00     0.000 C 
BRANCH  19  20
ATOM     20  C   UNL     1      73.746 -76.475   0.789  1.00  0.00     0.006 C 
BRANCH  20  21
ATOM     21  C   UNL     1      72.630 -76.956   1.726  1.00  0.00     0.053 C 
BRANCH  21  22
ATOM     22  C   UNL     1      72.917 -76.541   3.134  1.00  0.00     0.041 C 
ATOM     23  O   UNL     1      72.165 -75.718   3.718  1.00  0.00    -0.550 OA
ATOM     24  O   UNL     1      73.988 -77.100   3.819  1.00  0.00    -0.550 OA
ENDBRANCH  21  22
ENDBRANCH  20  21
ENDBRANCH  19  20
ENDBRANCH  18  19
ENDBRANCH  17  18
ENDBRANCH  16  17
ENDBRANCH  15  16
ENDBRANCH  14  15
ENDBRANCH  13  14
ENDBRANCH   1  13
TORSDOF 20
ENDMDL
MODEL 3
REMARK VINA RESULT:    -3.658      1.234      2.001
REMARK INTER + INTRA:         -11.795
REMARK INTER:                  -8.314
REMARK INTRA:                  -3.482
REMARK UNBOUND:                -3.861
REMARK SMILES CCCCCCCCCCCCCCCCCCCCCC(=O)[O-]
REMARK SMILES IDX 12 1 11 2 10 3 9 4 8 5 7 6 6 7 5 8 4 9 3 10 2 11 1 12 13 13
REMARK SMILES IDX 14 14 15 15 16 16 17 17 18 18 19 19 20 20 21 21 22 22 23 23
REMARK SMILES IDX 24 24
REMARK H PARENT
REMARK Flexibility Score: inf
ROOT
ATOM      1  C   UNL     1      77.358 -76.017  -0.831  1.00  0.00     0.000 C 
ENDROOT
BRANCH   1   2
ATOM      2  C   UNL     1      76.711 -74.667  -1.191  1.00  0.00     0.000 C 
BRANCH   2   3
ATOM      3  C   UNL     1      77.473 -73.914  -2.290  1.00  0.00     0.000 C 
BRANCH   3   4
ATOM      4  C   UNL     1      76.650 -73.854  -3.582  1.00  0.00    -0.000 C 
BRANCH   4   5
ATOM      5  C   UNL     1      76.351 -72.404  -3.979  1.00  0.00    -0.000 C 
BRANCH   5   6
ATOM      6  C   UNL     1      75.181 -71.841  -3.162  1.00  0.00    -0.000 C 
BRANCH   6   7
ATOM      7  C   UNL     1      73.902 -72.661  -3.393  1.00  0.00    -0.000 C 
BRANCH   7   8
ATOM      8  C   UNL     1      73.128 -72.929  -2.093  1.00  0.00    -0.000 C 
BRANCH   8   9
ATOM      9  C   UNL     1      73.871 -72.418  -0.845  1.00  0.00    -0.000 C 
BRANCH   9  10
ATOM     10  C   UNL     1      73.085 -71.312  -0.111  1.00  0.00    -0.000 C 
BRANCH  10  11
ATOM     11  C   UNL     1      73.841 -69.976  -0.020  1.00  0.00    -0.003 C 
ATOM     12  C   UNL     1      73.185 -68.977   0.931  1.00  0.00     0.004 C 
ENDBRANCH  10  11
ENDBRANCH   9  10
ENDBRANCH   8   9
ENDBRANCH   7   8
ENDBRANCH   6   7
ENDBRANCH   5   6
ENDBRANCH   4   5
ENDBRANCH   3   4
ENDBRANCH   2   3
ENDBRANCH   1   2
BRANCH   1  13
ATOM     13  C   UNL     1      78.650 -76.340  -1.603  1.00  0.00     0.000 C 
BRANCH  13  14
ATOM     14  C   UNL     1      78.732 -77.814  -2.040  1.00  0.00     0.000 C 
BRANCH  14  15
ATOM     15  C   UNL     1      78.031 -78.760  -1.053  1.00  0.00     0.000 C 
BRANCH  15  16
ATOM     16  C   UNL     1      76.958 -79.630  -1.730  1.00  0.00     0.000 C 
BRANCH  16  17
ATOM     17  C   UNL     1      76.661 -79.195  -3.177  1.00  0.00     0.000 C 
BRANCH  17  18
ATOM     18  C   UNL     1      75.221 -78.711  -3.431  1.00  0.00     0.000 C 
BRANCH  18  19
ATOM     19  C   UNL     1      75.107 -77.180  -3.504  1.00  0.00     0.000 C 
BRANCH  19  20
ATOM     20  C   UNL     1      74.091 -76.615  -2.498  1.00  0.00     0.006 C 
BRANCH  20  21
ATOM     21  C   UNL     1      73.976 -77.469  -1.227  1.00  0.00     0.053 C 
BRANCH  21  22
ATOM     22  C   UNL     1      73.296 -76.697  -0.141  1.00  0.00     0.041 C 
ATOM     23  O   UNL     1      73.862 -75.698   0.376  1.00  0.00    -0.550 OA
ATOM     24  O   UNL     1      72.016 -77.050   0.267  1.00  0.00    -0.550 OA
ENDBRANCH  21  22
ENDBRANCH  20  21
ENDBRANCH  19  20
ENDBRANCH  18  19
ENDBRANCH  17  18
ENDBRANCH  16  17
ENDBRANCH  15  16
ENDBRANCH  14  15
ENDBRANCH  13  14
ENDBRANCH   1  13
TORSDOF 20
ENDMDL
MODEL 4
REMARK VINA RESULT:    -3.609      1.381      4.530
REMARK INTER + INTRA:         -11.690
REMARK INTER:                  -7.979
REMARK INTRA:                  -3.710
REMARK UNBOUND:                -3.861
REMARK SMILES CCCCCCCCCCCCCCCCCCCCCC(=O)[O-]
REMARK SMILES IDX 12 1 11 2 10 3 9 4 8 5 7 6 6 7 5 8 4 9 3 10 2 11 1 12 13 13
REMARK SMILES IDX 14 14 15 15 16 16 17 17 18 18 19 19 20 20 21 21 22 22 23 23
REMARK SMILES IDX 24 24
REMARK H PARENT
REMARK Flexibility Score: inf
ROOT
ATOM      1  C   UNL     1      78.247 -76.642  -1.177  1.00  0.00     0.000 C 
ENDROOT
BRANCH   1   2
ATOM      2  C   UNL     1      78.210 -78.180  -1.144  1.00  0.00     0.000 C 
BRANCH   2   3
ATOM      3  C   UNL     1      76.941 -78.761  -1.783  1.00  0.00     0.000 C 
BRANCH   3   4
ATOM      4  C   UNL     1      76.894 -78.452  -3.284  1.00  0.00    -0.000 C 
BRANCH   4   5
ATOM      5  C   UNL     1      75.586 -77.746  -3.661  1.00  0.00    -0.000 C 
BRANCH   5   6
ATOM      6  C   UNL     1      74.569 -77.825  -2.515  1.00  0.00    -0.000 C 
BRANCH   6   7
ATOM      7  C   UNL     1      73.496 -76.733  -2.653  1.00  0.00    -0.000 C 
BRANCH   7   8
ATOM      8  C   UNL     1      72.852 -76.363  -1.308  1.00  0.00    -0.000 C 
BRANCH   8   9
ATOM      9  C   UNL     1      73.471 -77.128  -0.124  1.00  0.00    -0.000 C 
BRANCH   9  10
ATOM     10  C   UNL     1      73.550 -76.263   1.151  1.00  0.00    -0.000 C 
BRANCH  10  11
ATOM     11  C   UNL     1      72.664 -76.777   2.299  1.00  0.00    -0.003 C 
ATOM     12  C   UNL     1      73.445 -77.055   3.582  1.00  0.00     0.004 C 
ENDBRANCH  10  11
ENDBRANCH   9  10
ENDBRANCH   8   9
ENDBRANCH   7   8
ENDBRANCH   6   7
ENDBRANCH   5   6
ENDBRANCH   4   5
ENDBRANCH   3   4
ENDBRANCH   2   3
ENDBRANCH   1   2
BRANCH   1  13
ATOM     13  C   UNL     1      77.023 -75.953  -0.547  1.00  0.00     0.000 C 
BRANCH  13  14
ATOM     14  C   UNL     1      76.504 -74.772  -1.388  1.00  0.00     0.000 C 
BRANCH  14  15
ATOM     15  C   UNL     1      77.545 -74.267  -2.398  1.00  0.00     0.000 C 
BRANCH  15  16
ATOM     16  C   UNL     1      76.900 -73.621  -3.637  1.00  0.00     0.000 C 
BRANCH  16  17
ATOM     17  C   UNL     1      75.420 -74.011  -3.812  1.00  0.00     0.000 C 
BRANCH  17  18
ATOM     18  C   UNL     1      74.422 -72.841  -3.722  1.00  0.00     0.000 C 
BRANCH  18  19
ATOM     19  C   UNL     1      74.908 -71.709  -2.802  1.00  0.00     0.000 C 
BRANCH  19  20
ATOM     20  C   UNL     1      74.136 -71.657  -1.473  1.00  0.00     0.006 C 
BRANCH  20  21
ATOM     21  C   UNL     1      72.999 -72.687  -1.406  1.00  0.00     0.053 C 
BRANCH  21  22
ATOM     22  C   UNL     1      72.147 -72.443  -0.200  1.00  0.00     0.041 C 
ATOM     23  O   UNL     1      71.579 -73.407   0.379  1.00  0.00    -0.550 OA
ATOM     24  O   UNL     1      72.019 -71.160   0.313  1.00  0.00    -0.550 OA
ENDBRANCH  21  22
ENDBRANCH  20  21
ENDBRANCH  19  20
ENDBRANCH  18  19
ENDBRANCH  17  18
ENDBRANCH  16  17
ENDBRANCH  15  16
ENDBRANCH  14  15
ENDBRANCH  13  14
ENDBRANCH   1  13
TORSDOF 20
ENDMDL
MODEL 5
REMARK VINA RESULT:    -3.576      1.530      4.928
REMARK INTER + INTRA:         -11.618
REMARK INTER:                  -7.991
REMARK INTRA:                  -3.626
REMARK UNBOUND:                -3.861
REMARK SMILES CCCCCCCCCCCCCCCCCCCCCC(=O)[O-]
REMARK SMILES IDX 12 1 11 2 10 3 9 4 8 5 7 6 6 7 5 8 4 9 3 10 2 11 1 12 13 13
REMARK SMILES IDX 14 14 15 15 16 16 17 17 18 18 19 19 20 20 21 21 22 22 23 23
REMARK SMILES IDX 24 24
REMARK H PARENT
REMARK Flexibility Score: inf
ROOT
ATOM      1  C   UNL     1      77.532 -77.274  -0.730  1.00  0.00     0.000 C 
ENDROOT
BRANCH   1   2
ATOM      2  C   UNL     1      78.650 -77.939  -1.553  1.00  0.00     0.000 C 
BRANCH   2   3
ATOM      3  C   UNL     1      78.265 -79.334  -2.065  1.00  0.00     0.000 C 
BRANCH   3   4
ATOM      4  C   UNL     1      76.801 -79.651  -1.739  1.00  0.00    -0.000 C 
BRANCH   4   5
ATOM      5  C   UNL     1      76.074 -80.220  -2.963  1.00  0.00    -0.000 C 
BRANCH   5   6
ATOM      6  C   UNL     1      75.996 -79.181  -4.088  1.00  0.00    -0.000 C 
BRANCH   6   7
ATOM      7  C   UNL     1      74.702 -78.358  -3.991  1.00  0.00    -0.000 C 
BRANCH   7   8
ATOM      8  C   UNL     1      74.964 -76.883  -3.648  1.00  0.00    -0.000 C 
BRANCH   8   9
ATOM      9  C   UNL     1      74.277 -76.448  -2.341  1.00  0.00    -0.000 C 
BRANCH   9  10
ATOM     10  C   UNL     1      73.534 -77.614  -1.656  1.00  0.00    -0.000 C 
BRANCH  10  11
ATOM     11  C   UNL     1      73.345 -77.420  -0.143  1.00  0.00    -0.003 C 
ATOM     12  C   UNL     1      73.999 -76.145   0.387  1.00  0.00     0.004 C 
ENDBRANCH  10  11
ENDBRANCH   9  10
ENDBRANCH   8   9
ENDBRANCH   7   8
ENDBRANCH   6   7
ENDBRANCH   5   6
ENDBRANCH   4   5
ENDBRANCH   3   4
ENDBRANCH   2   3
ENDBRANCH   1   2
BRANCH   1  13
ATOM     13  C   UNL     1      77.469 -75.740  -0.846  1.00  0.00     0.000 C 
BRANCH  13  14
ATOM     14  C   UNL     1      78.001 -75.221  -2.193  1.00  0.00     0.000 C 
BRANCH  14  15
ATOM     15  C   UNL     1      77.622 -73.754  -2.450  1.00  0.00     0.000 C 
BRANCH  15  16
ATOM     16  C   UNL     1      76.779 -73.577  -3.725  1.00  0.00     0.000 C 
BRANCH  16  17
ATOM     17  C   UNL     1      76.335 -72.120  -3.950  1.00  0.00     0.000 C 
BRANCH  17  18
ATOM     18  C   UNL     1      74.954 -71.762  -3.370  1.00  0.00     0.000 C 
BRANCH  18  19
ATOM     19  C   UNL     1      74.048 -72.990  -3.179  1.00  0.00     0.000 C 
BRANCH  19  20
ATOM     20  C   UNL     1      72.963 -72.762  -2.114  1.00  0.00     0.006 C 
BRANCH  20  21
ATOM     21  C   UNL     1      73.543 -72.578  -0.705  1.00  0.00     0.053 C 
BRANCH  21  22
ATOM     22  C   UNL     1      73.165 -71.239  -0.157  1.00  0.00     0.041 C 
ATOM     23  O   UNL     1      72.062 -71.083   0.430  1.00  0.00    -0.550 OA
ATOM     24  O   UNL     1      74.052 -70.174  -0.250  1.00  0.00    -0.550 OA
ENDBRANCH  21  22
ENDBRANCH  20  21
ENDBRANCH  19  20
ENDBRANCH  18  19
ENDBRANCH  17  18
ENDBRANCH  16  17
ENDBRANCH  15  16
ENDBRANCH  14  15
ENDBRANCH  13  14
ENDBRANCH   1  13
TORSDOF 20
ENDMDL
MODEL 6
REMARK VINA RESULT:    -3.575      1.870      4.900
REMARK INTER + INTRA:         -11.615
REMARK INTER:                  -7.825
REMARK INTRA:                  -3.790
REMARK UNBOUND:                -3.861
REMARK SMILES CCCCCCCCCCCCCCCCCCCCCC(=O)[O-]
REMARK SMILES IDX 12 1 11 2 10 3 9 4 8 5 7 6 6 7 5 8 4 9 3 10 2 11 1 12 13 13
REMARK SMILES IDX 14 14 15 15 16 16 17 17 18 18 19 19 20 20 21 21 22 22 23 23
REMARK SMILES IDX 24 24
REMARK H PARENT
REMARK Flexibility Score: inf
ROOT
ATOM      1  C   UNL     1      75.191 -76.520  -0.776  1.00  0.00     0.000 C 
ENDROOT
BRANCH   1   2
ATOM      2  C   UNL     1      75.377 -77.689  -1.760  1.00  0.00     0.000 C 
BRANCH   2   3
ATOM      3  C   UNL     1      74.731 -77.426  -3.127  1.00  0.00     0.000 C 
BRANCH   3   4
ATOM      4  C   UNL     1      73.586 -76.413  -3.006  1.00  0.00    -0.000 C 
BRANCH   4   5
ATOM      5  C   UNL     1      72.263 -77.015  -3.495  1.00  0.00    -0.000 C 
BRANCH   5   6
ATOM      6  C   UNL     1      71.877 -78.243  -2.661  1.00  0.00    -0.000 C 
BRANCH   6   7
ATOM      7  C   UNL     1      70.935 -77.856  -1.511  1.00  0.00    -0.000 C 
BRANCH   7   8
ATOM      8  C   UNL     1      71.686 -77.589  -0.196  1.00  0.00    -0.000 C 
BRANCH   8   9
ATOM      9  C   UNL     1      71.669 -76.103   0.205  1.00  0.00    -0.000 C 
BRANCH   9  10
ATOM     10  C   UNL     1      72.321 -75.864   1.583  1.00  0.00    -0.000 C 
BRANCH  10  11
ATOM     11  C   UNL     1      72.966 -77.124   2.186  1.00  0.00    -0.003 C 
ATOM     12  C   UNL     1      73.341 -76.961   3.658  1.00  0.00     0.004 C 
ENDBRANCH  10  11
ENDBRANCH   9  10
ENDBRANCH   8   9
ENDBRANCH   7   8
ENDBRANCH   6   7
ENDBRANCH   5   6
ENDBRANCH   4   5
ENDBRANCH   3   4
ENDBRANCH   2   3
ENDBRANCH   1   2
BRANCH   1  13
ATOM     13  C   UNL     1      76.489 -75.792  -0.383  1.00  0.00     0.000 C 
BRANCH  13  14
ATOM     14  C   UNL     1      77.755 -76.564  -0.797  1.00  0.00     0.000 C 
BRANCH  14  15
ATOM     15  C   UNL     1      78.569 -75.826  -1.871  1.00  0.00     0.000 C 
BRANCH  15  16
ATOM     16  C   UNL     1      77.892 -74.524  -2.334  1.00  0.00     0.000 C 
BRANCH  16  17
ATOM     17  C   UNL     1      77.399 -74.593  -3.791  1.00  0.00     0.000 C 
BRANCH  17  18
ATOM     18  C   UNL     1      76.056 -73.888  -4.059  1.00  0.00     0.000 C 
BRANCH  18  19
ATOM     19  C   UNL     1      75.736 -72.795  -3.026  1.00  0.00     0.000 C 
BRANCH  19  20
ATOM     20  C   UNL     1      74.403 -73.041  -2.300  1.00  0.00     0.006 C 
BRANCH  20  21
ATOM     21  C   UNL     1      74.462 -72.679  -0.810  1.00  0.00     0.053 C 
BRANCH  21  22
ATOM     22  C   UNL     1      73.517 -71.558  -0.509  1.00  0.00     0.041 C 
ATOM     23  O   UNL     1      72.314 -71.629  -0.872  1.00  0.00    -0.550 OA
ATOM     24  O   UNL     1      73.954 -70.456   0.215  1.00  0.00    -0.550 OA
ENDBRANCH  21  22
ENDBRANCH  20  21
ENDBRANCH  19  20
ENDBRANCH  18  19
ENDBRANCH  17  18
ENDBRANCH  16  17
ENDBRANCH  15  16
ENDBRANCH  14  15
ENDBRANCH  13  14
ENDBRANCH   1  13
TORSDOF 20
ENDMDL
MODEL 7
REMARK VINA RESULT:    -3.536      1.863      2.906
REMARK INTER + INTRA:         -11.531
REMARK INTER:                  -7.473
REMARK INTRA:                  -4.058
REMARK UNBOUND:                -3.861
REMARK SMILES CCCCCCCCCCCCCCCCCCCCCC(=O)[O-]
REMARK SMILES IDX 12 1 11 2 10 3 9 4 8 5 7 6 6 7 5 8 4 9 3 10 2 11 1 12 13 13
REMARK SMILES IDX 14 14 15 15 16 16 17 17 18 18 19 19 20 20 21 21 22 22 23 23
REMARK SMILES IDX 24 24
REMARK H PARENT
REMARK Flexibility Score: inf
ROOT
ATOM      1  C   UNL     1      75.213 -76.453  -1.063  1.00  0.00     0.000 C 
ENDROOT
BRANCH   1   2
ATOM      2  C   UNL     1      76.530 -76.138  -0.331  1.00  0.00     0.000 C 
BRANCH   2   3
ATOM      3  C   UNL     1      77.751 -76.795  -0.990  1.00  0.00     0.000 C 
BRANCH   3   4
ATOM      4  C   UNL     1      78.477 -75.803  -1.907  1.00  0.00    -0.000 C 
BRANCH   4   5
ATOM      5  C   UNL     1      78.180 -76.095  -3.382  1.00  0.00    -0.000 C 
BRANCH   5   6
ATOM      6  C   UNL     1      77.496 -74.898  -4.053  1.00  0.00    -0.000 C 
BRANCH   6   7
ATOM      7  C   UNL     1      77.466 -73.682  -3.113  1.00  0.00    -0.000 C 
BRANCH   7   8
ATOM      8  C   UNL     1      76.710 -72.487  -3.716  1.00  0.00    -0.000 C 
BRANCH   8   9
ATOM      9  C   UNL     1      75.187 -72.588  -3.516  1.00  0.00    -0.000 C 
BRANCH   9  10
ATOM     10  C   UNL     1      74.814 -72.987  -2.073  1.00  0.00    -0.000 C 
BRANCH  10  11
ATOM     11  C   UNL     1      73.310 -72.874  -1.772  1.00  0.00    -0.003 C 
ATOM     12  C   UNL     1      72.845 -73.819  -0.666  1.00  0.00     0.004 C 
ENDBRANCH  10  11
ENDBRANCH   9  10
ENDBRANCH   8   9
ENDBRANCH   7   8
ENDBRANCH   6   7
ENDBRANCH   5   6
ENDBRANCH   4   5
ENDBRANCH   3   4
ENDBRANCH   2   3
ENDBRANCH   1   2
BRANCH   1  13
ATOM     13  C   UNL     1      75.191 -77.803  -1.802  1.00  0.00     0.000 C 
BRANCH  13  14
ATOM     14  C   UNL     1      74.581 -77.703  -3.211  1.00  0.00     0.000 C 
BRANCH  14  15
ATOM     15  C   UNL     1      74.268 -76.254  -3.615  1.00  0.00     0.000 C 
BRANCH  15  16
ATOM     16  C   UNL     1      72.758 -75.992  -3.754  1.00  0.00     0.000 C 
BRANCH  16  17
ATOM     17  C   UNL     1      71.902 -77.208  -3.353  1.00  0.00     0.000 C 
BRANCH  17  18
ATOM     18  C   UNL     1      71.071 -77.025  -2.068  1.00  0.00     0.000 C 
BRANCH  18  19
ATOM     19  C   UNL     1      71.427 -78.046  -0.975  1.00  0.00     0.000 C 
BRANCH  19  20
ATOM     20  C   UNL     1      72.055 -77.387   0.265  1.00  0.00     0.006 C 
BRANCH  20  21
ATOM     21  C   UNL     1      72.079 -78.319   1.484  1.00  0.00     0.053 C 
BRANCH  21  22
ATOM     22  C   UNL     1      72.716 -77.633   2.651  1.00  0.00     0.041 C 
ATOM     23  O   UNL     1      73.420 -76.603   2.474  1.00  0.00    -0.550 OA
ATOM     24  O   UNL     1      72.494 -78.101   3.939  1.00  0.00    -0.550 OA
ENDBRANCH  21  22
ENDBRANCH  20  21
ENDBRANCH  19  20
ENDBRANCH  18  19
ENDBRANCH  17  18
ENDBRANCH  16  17
ENDBRANCH  15  16
ENDBRANCH  14  15
ENDBRANCH  13  14
ENDBRANCH   1  13
TORSDOF 20
ENDMDL
MODEL 8
REMARK VINA RESULT:    -3.505      1.091      4.596
REMARK INTER + INTRA:         -11.464
REMARK INTER:                  -7.559
REMARK INTRA:                  -3.905
REMARK UNBOUND:                -3.861
REMARK SMILES CCCCCCCCCCCCCCCCCCCCCC(=O)[O-]
REMARK SMILES IDX 12 1 11 2 10 3 9 4 8 5 7 6 6 7 5 8 4 9 3 10 2 11 1 12 13 13
REMARK SMILES IDX 14 14 15 15 16 16 17 17 18 18 19 19 20 20 21 21 22 22 23 23
REMARK SMILES IDX 24 24
REMARK H PARENT
REMARK Flexibility Score: inf
ROOT
ATOM      1  C   UNL     1      76.844 -75.035  -1.171  1.00  0.00     0.000 C 
ENDROOT
BRANCH   1   2
ATOM      2  C   UNL     1      77.069 -76.320  -0.354  1.00  0.00     0.000 C 
BRANCH   2   3
ATOM      3  C   UNL     1      78.003 -77.317  -1.053  1.00  0.00     0.000 C 
BRANCH   3   4
ATOM      4  C   UNL     1      77.248 -78.595  -1.438  1.00  0.00    -0.000 C 
BRANCH   4   5
ATOM      5  C   UNL     1      77.365 -78.874  -2.941  1.00  0.00    -0.000 C 
BRANCH   5   6
ATOM      6  C   UNL     1      76.489 -77.909  -3.748  1.00  0.00    -0.000 C 
BRANCH   6   7
ATOM      7  C   UNL     1      75.050 -77.888  -3.210  1.00  0.00    -0.000 C 
BRANCH   7   8
ATOM      8  C   UNL     1      74.394 -76.503  -3.329  1.00  0.00    -0.000 C 
BRANCH   8   9
ATOM      9  C   UNL     1      73.310 -76.267  -2.261  1.00  0.00    -0.000 C 
BRANCH   9  10
ATOM     10  C   UNL     1      73.227 -77.429  -1.249  1.00  0.00    -0.000 C 
BRANCH  10  11
ATOM     11  C   UNL     1      73.415 -76.986   0.212  1.00  0.00    -0.003 C 
ATOM     12  C   UNL     1      73.472 -75.469   0.379  1.00  0.00     0.004 C 
ENDBRANCH  10  11
ENDBRANCH   9  10
ENDBRANCH   8   9
ENDBRANCH   7   8
ENDBRANCH   6   7
ENDBRANCH   5   6
ENDBRANCH   4   5
ENDBRANCH   3   4
ENDBRANCH   2   3
ENDBRANCH   1   2
BRANCH   1  13
ATOM     13  C   UNL     1      77.950 -74.719  -2.195  1.00  0.00     0.000 C 
BRANCH  13  14
ATOM     14  C   UNL     1      77.394 -74.369  -3.586  1.00  0.00     0.000 C 
BRANCH  14  15
ATOM     15  C   UNL     1      77.104 -72.868  -3.744  1.00  0.00     0.000 C 
BRANCH  15  16
ATOM     16  C   UNL     1      75.627 -72.584  -4.067  1.00  0.00     0.000 C 
BRANCH  16  17
ATOM     17  C   UNL     1      74.920 -71.773  -2.965  1.00  0.00     0.000 C 
BRANCH  17  18
ATOM     18  C   UNL     1      74.238 -72.615  -1.871  1.00  0.00     0.000 C 
BRANCH  18  19
ATOM     19  C   UNL     1      73.977 -71.822  -0.579  1.00  0.00     0.000 C 
BRANCH  19  20
ATOM     20  C   UNL     1      72.505 -71.401  -0.433  1.00  0.00     0.006 C 
BRANCH  20  21
ATOM     21  C   UNL     1      71.527 -72.486  -0.904  1.00  0.00     0.053 C 
BRANCH  21  22
ATOM     22  C   UNL     1      70.655 -72.928   0.228  1.00  0.00     0.041 C 
ATOM     23  O   UNL     1      71.139 -73.073   1.381  1.00  0.00    -0.550 OA
ATOM     24  O   UNL     1      69.297 -73.132   0.021  1.00  0.00    -0.550 OA
ENDBRANCH  21  22
ENDBRANCH  20  21
ENDBRANCH  19  20
ENDBRANCH  18  19
ENDBRANCH  17  18
ENDBRANCH  16  17
ENDBRANCH  15  16
ENDBRANCH  14  15
ENDBRANCH  13  14
ENDBRANCH   1  13
TORSDOF 20
ENDMDL
MODEL 9
REMARK VINA RESULT:    -3.499      2.033      5.885
REMARK INTER + INTRA:         -11.450
REMARK INTER:                  -8.560
REMARK INTRA:                  -2.889
REMARK UNBOUND:                -3.861
REMARK SMILES CCCCCCCCCCCCCCCCCCCCCC(=O)[O-]
REMARK SMILES IDX 12 1 11 2 10 3 9 4 8 5 7 6 6 7 5 8 4 9 3 10 2 11 1 12 13 13
REMARK SMILES IDX 14 14 15 15 16 16 17 17 18 18 19 19 20 20 21 21 22 22 23 23
REMARK SMILES IDX 24 24
REMARK H PARENT
REMARK Flexibility Score: inf
ROOT
ATOM      1  C   UNL     1      76.868 -74.626  -1.356  1.00  0.00     0.000 C 
ENDROOT
BRANCH   1   2
ATOM      2  C   UNL     1      77.485 -75.897  -0.746  1.00  0.00     0.000 C 
BRANCH   2   3
ATOM      3  C   UNL     1      78.575 -76.516  -1.632  1.00  0.00     0.000 C 
BRANCH   3   4
ATOM      4  C   UNL     1      78.339 -78.020  -1.819  1.00  0.00    -0.000 C 
BRANCH   4   5
ATOM      5  C   UNL     1      76.853 -78.321  -2.050  1.00  0.00    -0.000 C 
BRANCH   5   6
ATOM      6  C   UNL     1      76.480 -78.141  -3.527  1.00  0.00    -0.000 C 
BRANCH   6   7
ATOM      7  C   UNL     1      75.231 -77.259  -3.677  1.00  0.00    -0.000 C 
BRANCH   7   8
ATOM      8  C   UNL     1      74.365 -77.238  -2.407  1.00  0.00    -0.000 C 
BRANCH   8   9
ATOM      9  C   UNL     1      73.018 -77.957  -2.597  1.00  0.00    -0.000 C 
BRANCH   9  10
ATOM     10  C   UNL     1      72.938 -78.700  -3.947  1.00  0.00    -0.000 C 
BRANCH  10  11
ATOM     11  C   UNL     1      72.583 -80.190  -3.811  1.00  0.00    -0.003 C 
ATOM     12  C   UNL     1      73.805 -81.083  -3.606  1.00  0.00     0.004 C 
ENDBRANCH  10  11
ENDBRANCH   9  10
ENDBRANCH   8   9
ENDBRANCH   7   8
ENDBRANCH   6   7
ENDBRANCH   5   6
ENDBRANCH   4   5
ENDBRANCH   3   4
ENDBRANCH   2   3
ENDBRANCH   1   2
BRANCH   1  13
ATOM     13  C   UNL     1      77.478 -74.192  -2.701  1.00  0.00     0.000 C 
BRANCH  13  14
ATOM     14  C   UNL     1      76.415 -73.774  -3.732  1.00  0.00     0.000 C 
BRANCH  14  15
ATOM     15  C   UNL     1      76.283 -72.248  -3.854  1.00  0.00     0.000 C 
BRANCH  15  16
ATOM     16  C   UNL     1      74.916 -71.734  -3.372  1.00  0.00     0.000 C 
BRANCH  16  17
ATOM     17  C   UNL     1      73.960 -72.870  -2.963  1.00  0.00     0.000 C 
BRANCH  17  18
ATOM     18  C   UNL     1      73.620 -72.928  -1.462  1.00  0.00     0.000 C 
BRANCH  18  19
ATOM     19  C   UNL     1      73.968 -71.627  -0.719  1.00  0.00     0.000 C 
BRANCH  19  20
ATOM     20  C   UNL     1      72.746 -70.996  -0.032  1.00  0.00     0.006 C 
BRANCH  20  21
ATOM     21  C   UNL     1      73.127 -69.872   0.942  1.00  0.00     0.053 C 
BRANCH  21  22
ATOM     22  C   UNL     1      72.130 -69.789   2.055  1.00  0.00     0.041 C 
ATOM     23  O   UNL     1      72.387 -70.303   3.176  1.00  0.00    -0.550 OA
ATOM     24  O   UNL     1      70.938 -69.100   1.871  1.00  0.00    -0.550 OA
ENDBRANCH  21  22
ENDBRANCH  20  21
ENDBRANCH  19  20
ENDBRANCH  18  19
ENDBRANCH  17  18
ENDBRANCH  16  17
ENDBRANCH  15  16
ENDBRANCH  14  15
ENDBRANCH  13  14
ENDBRANCH   1  13
TORSDOF 20
ENDMDL
