MODEL 1
REMARK VINA RESULT:    -7.544      0.000      0.000
REMARK INTER + INTRA:          -8.206
REMARK INTER:                  -8.206
REMARK INTRA:                   0.000
REMARK UNBOUND:                 0.000
REMARK SMILES Cc1cc(O)c2c(c1)C(=O)c1cc(O)cc(O)c1C2=O
REMARK SMILES IDX 1 1 2 2 8 3 7 4 6 5 4 6 3 7 19 8 20 9 18 10 11 11 9 12 10 13
REMARK SMILES IDX 12 14 13 15 15 16 16 17 5 18 17 20 14 22
REMARK H PARENT 5 19 17 21 14 23
REMARK Flexibility Score: inf
ROOT
ATOM      1  C   UNL     1     -12.618  59.827  13.192  1.00  0.00     0.044 C 
ATOM      2  C   UNL     1     -12.408  58.953  14.394  1.00  0.00    -0.047 A 
ATOM      3  C   UNL     1     -13.455  58.728  15.293  1.00  0.00     0.016 A 
ATOM      4  C   UNL     1     -13.261  57.933  16.435  1.00  0.00     0.038 A 
ATOM      5  C   UNL     1     -11.996  57.353  16.681  1.00  0.00     0.076 A 
ATOM      6  C   UNL     1     -10.917  57.653  15.811  1.00  0.00     0.127 A 
ATOM      7  C   UNL     1     -11.140  58.430  14.670  1.00  0.00     0.050 A 
ATOM      8  C   UNL     1     -11.869  56.401  17.814  1.00  0.00     0.201 C 
ATOM      9  O   UNL     1     -11.028  55.464  17.755  1.00  0.00    -0.288 OA
ATOM     10  C   UNL     1     -12.855  56.440  18.925  1.00  0.00     0.076 A 
ATOM     11  C   UNL     1     -14.118  57.023  18.677  1.00  0.00     0.041 A 
ATOM     12  C   UNL     1     -14.374  57.707  17.387  1.00  0.00     0.194 C 
ATOM     13  O   UNL     1     -15.536  58.118  17.110  1.00  0.00    -0.289 OA
ATOM     14  C   UNL     1     -15.124  56.957  19.656  1.00  0.00     0.059 A 
ATOM     15  C   UNL     1     -14.880  56.331  20.882  1.00  0.00     0.120 A 
ATOM     16  C   UNL     1     -13.623  55.790  21.146  1.00  0.00     0.093 A 
ATOM     17  C   UNL     1     -12.599  55.860  20.196  1.00  0.00     0.131 A 
ENDROOT
BRANCH   6  18
ATOM     18  O   UNL     1      -9.608  57.233  16.060  1.00  0.00    -0.507 OA
ATOM     19  H   UNL     1      -8.809  57.851  16.040  1.00  0.00     0.293 HD
ENDBRANCH   6  18
BRANCH  17  20
ATOM     20  O   UNL     1     -11.341  55.379  20.567  1.00  0.00    -0.507 OA
ATOM     21  H   UNL     1     -10.681  55.907  21.120  1.00  0.00     0.293 HD
ENDBRANCH  17  20
BRANCH  15  22
ATOM     22  O   UNL     1     -15.879  56.252  21.849  1.00  0.00    -0.508 OA
ATOM     23  H   UNL     1     -16.658  55.611  21.758  1.00  0.00     0.293 HD
ENDBRANCH  15  22
TORSDOF 3
ENDMDL
MODEL 2
REMARK VINA RESULT:    -7.286      2.830      4.443
REMARK INTER + INTRA:          -7.925
REMARK INTER:                  -7.925
REMARK INTRA:                   0.000
REMARK UNBOUND:                 0.000
REMARK SMILES Cc1cc(O)c2c(c1)C(=O)c1cc(O)cc(O)c1C2=O
REMARK SMILES IDX 1 1 2 2 8 3 7 4 6 5 4 6 3 7 19 8 20 9 18 10 11 11 9 12 10 13
REMARK SMILES IDX 12 14 13 15 15 16 16 17 5 18 17 20 14 22
REMARK H PARENT 5 19 17 21 14 23
REMARK Flexibility Score: inf
ROOT
ATOM      1  C   UNL     1     -19.125  56.544  17.002  1.00  0.00     0.044 C 
ATOM      2  C   UNL     1     -17.668  56.488  17.358  1.00  0.00    -0.047 A 
ATOM      3  C   UNL     1     -17.185  55.476  18.194  1.00  0.00     0.016 A 
ATOM      4  C   UNL     1     -15.828  55.432  18.554  1.00  0.00     0.038 A 
ATOM      5  C   UNL     1     -14.939  56.418  18.070  1.00  0.00     0.076 A 
ATOM      6  C   UNL     1     -15.450  57.487  17.292  1.00  0.00     0.127 A 
ATOM      7  C   UNL     1     -16.800  57.499  16.929  1.00  0.00     0.050 A 
ATOM      8  C   UNL     1     -13.489  56.255  18.349  1.00  0.00     0.201 C 
ATOM      9  O   UNL     1     -12.638  56.702  17.535  1.00  0.00    -0.288 OA
ATOM     10  C   UNL     1     -13.048  55.404  19.486  1.00  0.00     0.076 A 
ATOM     11  C   UNL     1     -13.941  54.421  19.970  1.00  0.00     0.041 A 
ATOM     12  C   UNL     1     -15.326  54.361  19.447  1.00  0.00     0.194 C 
ATOM     13  O   UNL     1     -16.087  53.410  19.782  1.00  0.00    -0.289 OA
ATOM     14  C   UNL     1     -13.512  53.508  20.948  1.00  0.00     0.059 A 
ATOM     15  C   UNL     1     -12.212  53.574  21.459  1.00  0.00     0.120 A 
ATOM     16  C   UNL     1     -11.342  54.568  21.013  1.00  0.00     0.093 A 
ATOM     17  C   UNL     1     -11.751  55.500  20.055  1.00  0.00     0.131 A 
ENDROOT
BRANCH   6  18
ATOM     18  O   UNL     1     -14.665  58.572  16.891  1.00  0.00    -0.507 OA
ATOM     19  H   UNL     1     -13.655  58.572  16.922  1.00  0.00     0.293 HD
ENDBRANCH   6  18
BRANCH  17  20
ATOM     20  O   UNL     1     -10.855  56.521  19.725  1.00  0.00    -0.507 OA
ATOM     21  H   UNL     1     -10.948  57.103  18.904  1.00  0.00     0.293 HD
ENDBRANCH  17  20
BRANCH  15  22
ATOM     22  O   UNL     1     -11.780  52.663  22.420  1.00  0.00    -0.508 OA
ATOM     23  H   UNL     1     -11.403  51.758  22.162  1.00  0.00     0.293 HD
ENDBRANCH  15  22
TORSDOF 3
ENDMDL
MODEL 3
REMARK VINA RESULT:    -7.231      2.100      6.189
REMARK INTER + INTRA:          -7.865
REMARK INTER:                  -7.865
REMARK INTRA:                   0.000
REMARK UNBOUND:                 0.000
REMARK SMILES Cc1cc(O)c2c(c1)C(=O)c1cc(O)cc(O)c1C2=O
REMARK SMILES IDX 1 1 2 2 8 3 7 4 6 5 4 6 3 7 19 8 20 9 18 10 11 11 9 12 10 13
REMARK SMILES IDX 12 14 13 15 15 16 16 17 5 18 17 20 14 22
REMARK H PARENT 5 19 17 21 14 23
REMARK Flexibility Score: inf
ROOT
ATOM      1  C   UNL     1     -17.349  53.749  21.460  1.00  0.00     0.044 C 
ATOM      2  C   UNL     1     -16.620  54.627  20.484  1.00  0.00    -0.047 A 
ATOM      3  C   UNL     1     -15.439  54.183  19.882  1.00  0.00     0.016 A 
ATOM      4  C   UNL     1     -14.736  55.008  18.990  1.00  0.00     0.038 A 
ATOM      5  C   UNL     1     -15.223  56.301  18.694  1.00  0.00     0.076 A 
ATOM      6  C   UNL     1     -16.375  56.777  19.372  1.00  0.00     0.127 A 
ATOM      7  C   UNL     1     -17.069  55.930  20.240  1.00  0.00     0.050 A 
ATOM      8  C   UNL     1     -14.537  57.086  17.636  1.00  0.00     0.201 C 
ATOM      9  O   UNL     1     -15.190  57.914  16.946  1.00  0.00    -0.288 OA
ATOM     10  C   UNL     1     -13.134  56.761  17.268  1.00  0.00     0.076 A 
ATOM     11  C   UNL     1     -12.649  55.467  17.567  1.00  0.00     0.041 A 
ATOM     12  C   UNL     1     -13.480  54.532  18.361  1.00  0.00     0.194 C 
ATOM     13  O   UNL     1     -13.107  53.337  18.524  1.00  0.00    -0.289 OA
ATOM     14  C   UNL     1     -11.378  55.076  17.114  1.00  0.00     0.059 A 
ATOM     15  C   UNL     1     -10.582  55.962  16.382  1.00  0.00     0.120 A 
ATOM     16  C   UNL     1     -11.040  57.251  16.120  1.00  0.00     0.093 A 
ATOM     17  C   UNL     1     -12.293  57.672  16.576  1.00  0.00     0.131 A 
ENDROOT
BRANCH   6  18
ATOM     18  O   UNL     1     -16.840  58.088  19.240  1.00  0.00    -0.507 OA
ATOM     19  H   UNL     1     -16.576  58.840  19.861  1.00  0.00     0.293 HD
ENDBRANCH   6  18
BRANCH  17  20
ATOM     20  O   UNL     1     -12.646  59.006  16.355  1.00  0.00    -0.507 OA
ATOM     21  H   UNL     1     -12.543  59.471  15.464  1.00  0.00     0.293 HD
ENDBRANCH  17  20
BRANCH  15  22
ATOM     22  O   UNL     1      -9.326  55.572  15.920  1.00  0.00    -0.508 OA
ATOM     23  H   UNL     1      -8.728  56.209  15.407  1.00  0.00     0.293 HD
ENDBRANCH  15  22
TORSDOF 3
ENDMDL
MODEL 4
REMARK VINA RESULT:    -7.004      2.795      5.540
REMARK INTER + INTRA:          -7.618
REMARK INTER:                  -7.618
REMARK INTRA:                   0.000
REMARK UNBOUND:                 0.000
REMARK SMILES Cc1cc(O)c2c(c1)C(=O)c1cc(O)cc(O)c1C2=O
REMARK SMILES IDX 1 1 2 2 8 3 7 4 6 5 4 6 3 7 19 8 20 9 18 10 11 11 9 12 10 13
REMARK SMILES IDX 12 14 13 15 15 16 16 17 5 18 17 20 14 22
REMARK H PARENT 5 19 17 21 14 23
REMARK Flexibility Score: inf
ROOT
ATOM      1  C   UNL     1     -11.625  52.646  22.250  1.00  0.00     0.044 C 
ATOM      2  C   UNL     1     -12.154  53.687  21.307  1.00  0.00    -0.047 A 
ATOM      3  C   UNL     1     -13.523  53.753  21.027  1.00  0.00     0.016 A 
ATOM      4  C   UNL     1     -14.024  54.706  20.125  1.00  0.00     0.038 A 
ATOM      5  C   UNL     1     -13.140  55.608  19.491  1.00  0.00     0.076 A 
ATOM      6  C   UNL     1     -11.745  55.480  19.714  1.00  0.00     0.127 A 
ATOM      7  C   UNL     1     -11.272  54.538  20.632  1.00  0.00     0.050 A 
ATOM      8  C   UNL     1     -13.720  56.694  18.660  1.00  0.00     0.201 C 
ATOM      9  O   UNL     1     -13.117  57.795  18.556  1.00  0.00    -0.288 OA
ATOM     10  C   UNL     1     -15.093  56.549  18.110  1.00  0.00     0.076 A 
ATOM     11  C   UNL     1     -15.974  55.645  18.745  1.00  0.00     0.041 A 
ATOM     12  C   UNL     1     -15.475  54.765  19.828  1.00  0.00     0.194 C 
ATOM     13  O   UNL     1     -16.283  54.047  20.482  1.00  0.00    -0.289 OA
ATOM     14  C   UNL     1     -17.319  55.579  18.342  1.00  0.00     0.059 A 
ATOM     15  C   UNL     1     -17.789  56.393  17.307  1.00  0.00     0.120 A 
ATOM     16  C   UNL     1     -16.914  57.257  16.652  1.00  0.00     0.093 A 
ATOM     17  C   UNL     1     -15.567  57.326  17.020  1.00  0.00     0.131 A 
ENDROOT
BRANCH   6  18
ATOM     18  O   UNL     1     -10.797  56.239  19.023  1.00  0.00    -0.507 OA
ATOM     19  H   UNL     1     -11.036  56.998  18.400  1.00  0.00     0.293 HD
ENDBRANCH   6  18
BRANCH  17  20
ATOM     20  O   UNL     1     -14.731  58.147  16.259  1.00  0.00    -0.507 OA
ATOM     21  H   UNL     1     -14.786  59.156  16.259  1.00  0.00     0.293 HD
ENDBRANCH  17  20
BRANCH  15  22
ATOM     22  O   UNL     1     -19.125  56.340  16.914  1.00  0.00    -0.508 OA
ATOM     23  H   UNL     1     -19.577  57.126  16.462  1.00  0.00     0.293 HD
ENDBRANCH  15  22
TORSDOF 3
ENDMDL
MODEL 5
REMARK VINA RESULT:    -6.858      1.417      1.610
REMARK INTER + INTRA:          -7.459
REMARK INTER:                  -7.459
REMARK INTRA:                   0.000
REMARK UNBOUND:                 0.000
REMARK SMILES Cc1cc(O)c2c(c1)C(=O)c1cc(O)cc(O)c1C2=O
REMARK SMILES IDX 1 1 2 2 8 3 7 4 6 5 4 6 3 7 19 8 20 9 18 10 11 11 9 12 10 13
REMARK SMILES IDX 12 14 13 15 15 16 16 17 5 18 17 20 14 22
REMARK H PARENT 5 19 17 21 14 23
REMARK Flexibility Score: inf
ROOT
ATOM      1  C   UNL     1     -11.932  59.495  14.182  1.00  0.00     0.044 C 
ATOM      2  C   UNL     1     -12.245  58.412  15.173  1.00  0.00    -0.047 A 
ATOM      3  C   UNL     1     -13.443  58.441  15.893  1.00  0.00     0.016 A 
ATOM      4  C   UNL     1     -13.732  57.447  16.843  1.00  0.00     0.038 A 
ATOM      5  C   UNL     1     -12.805  56.406  17.076  1.00  0.00     0.076 A 
ATOM      6  C   UNL     1     -11.557  56.429  16.404  1.00  0.00     0.127 A 
ATOM      7  C   UNL     1     -11.300  57.417  15.448  1.00  0.00     0.050 A 
ATOM      8  C   UNL     1     -13.208  55.295  17.976  1.00  0.00     0.201 C 
ATOM      9  O   UNL     1     -12.743  54.139  17.792  1.00  0.00    -0.288 OA
ATOM     10  C   UNL     1     -14.296  55.505  18.966  1.00  0.00     0.076 A 
ATOM     11  C   UNL     1     -15.220  56.549  18.732  1.00  0.00     0.041 A 
ATOM     12  C   UNL     1     -15.001  57.489  17.608  1.00  0.00     0.194 C 
ATOM     13  O   UNL     1     -15.885  58.343  17.317  1.00  0.00    -0.289 OA
ATOM     14  C   UNL     1     -16.339  56.693  19.569  1.00  0.00     0.059 A 
ATOM     15  C   UNL     1     -16.539  55.820  20.642  1.00  0.00     0.120 A 
ATOM     16  C   UNL     1     -15.609  54.815  20.901  1.00  0.00     0.093 A 
ATOM     17  C   UNL     1     -14.477  54.663  20.095  1.00  0.00     0.131 A 
ENDROOT
BRANCH   6  18
ATOM     18  O   UNL     1     -10.534  55.517  16.680  1.00  0.00    -0.507 OA
ATOM     19  H   UNL     1     -10.001  55.518  17.538  1.00  0.00     0.293 HD
ENDBRANCH   6  18
BRANCH  17  20
ATOM     20  O   UNL     1     -13.543  53.693  20.470  1.00  0.00    -0.507 OA
ATOM     21  H   UNL     1     -12.950  53.772  21.284  1.00  0.00     0.293 HD
ENDBRANCH  17  20
BRANCH  15  22
ATOM     22  O   UNL     1     -17.655  55.952  21.466  1.00  0.00    -0.508 OA
ATOM     23  H   UNL     1     -17.721  56.693  22.155  1.00  0.00     0.293 HD
ENDBRANCH  15  22
TORSDOF 3
ENDMDL
MODEL 6
REMARK VINA RESULT:    -6.833      1.463      6.186
REMARK INTER + INTRA:          -7.432
REMARK INTER:                  -7.432
REMARK INTRA:                   0.000
REMARK UNBOUND:                 0.000
REMARK SMILES Cc1cc(O)c2c(c1)C(=O)c1cc(O)cc(O)c1C2=O
REMARK SMILES IDX 1 1 2 2 8 3 7 4 6 5 4 6 3 7 19 8 20 9 18 10 11 11 9 12 10 13
REMARK SMILES IDX 12 14 13 15 15 16 16 17 5 18 17 20 14 22
REMARK H PARENT 5 19 17 21 14 23
REMARK Flexibility Score: inf
ROOT
ATOM      1  C   UNL     1     -11.104  53.635  21.873  1.00  0.00     0.044 C 
ATOM      2  C   UNL     1     -11.857  54.536  20.938  1.00  0.00    -0.047 A 
ATOM      3  C   UNL     1     -11.362  54.793  19.656  1.00  0.00     0.016 A 
ATOM      4  C   UNL     1     -12.045  55.657  18.784  1.00  0.00     0.038 A 
ATOM      5  C   UNL     1     -13.245  56.274  19.203  1.00  0.00     0.076 A 
ATOM      6  C   UNL     1     -13.697  56.076  20.532  1.00  0.00     0.127 A 
ATOM      7  C   UNL     1     -13.011  55.196  21.375  1.00  0.00     0.050 A 
ATOM      8  C   UNL     1     -14.016  57.061  18.206  1.00  0.00     0.201 C 
ATOM      9  O   UNL     1     -15.270  57.138  18.301  1.00  0.00    -0.288 OA
ATOM     10  C   UNL     1     -13.332  57.595  16.999  1.00  0.00     0.076 A 
ATOM     11  C   UNL     1     -12.130  56.976  16.584  1.00  0.00     0.041 A 
ATOM     12  C   UNL     1     -11.509  55.930  17.429  1.00  0.00     0.194 C 
ATOM     13  O   UNL     1     -10.507  55.287  17.005  1.00  0.00    -0.289 OA
ATOM     14  C   UNL     1     -11.527  57.361  15.375  1.00  0.00     0.059 A 
ATOM     15  C   UNL     1     -12.099  58.362  14.584  1.00  0.00     0.120 A 
ATOM     16  C   UNL     1     -13.262  59.002  15.009  1.00  0.00     0.093 A 
ATOM     17  C   UNL     1     -13.870  58.652  16.219  1.00  0.00     0.131 A 
ENDROOT
BRANCH   6  18
ATOM     18  O   UNL     1     -14.794  56.756  21.066  1.00  0.00    -0.507 OA
ATOM     19  H   UNL     1     -15.722  56.719  20.668  1.00  0.00     0.293 HD
ENDBRANCH   6  18
BRANCH  17  20
ATOM     20  O   UNL     1     -14.980  59.399  16.624  1.00  0.00    -0.507 OA
ATOM     21  H   UNL     1     -14.940  60.383  16.848  1.00  0.00     0.293 HD
ENDBRANCH  17  20
BRANCH  15  22
ATOM     22  O   UNL     1     -11.511  58.737  13.378  1.00  0.00    -0.508 OA
ATOM     23  H   UNL     1     -10.911  59.550  13.310  1.00  0.00     0.293 HD
ENDBRANCH  15  22
TORSDOF 3
ENDMDL
MODEL 7
REMARK VINA RESULT:    -6.813      1.599      3.462
REMARK INTER + INTRA:          -7.410
REMARK INTER:                  -7.410
REMARK INTRA:                   0.000
REMARK UNBOUND:                 0.000
REMARK SMILES Cc1cc(O)c2c(c1)C(=O)c1cc(O)cc(O)c1C2=O
REMARK SMILES IDX 1 1 2 2 8 3 7 4 6 5 4 6 3 7 19 8 20 9 18 10 11 11 9 12 10 13
REMARK SMILES IDX 12 14 13 15 15 16 16 17 5 18 17 20 14 22
REMARK H PARENT 5 19 17 21 14 23
REMARK Flexibility Score: inf
ROOT
ATOM      1  C   UNL     1      -8.802  55.627  14.838  1.00  0.00     0.044 C 
ATOM      2  C   UNL     1     -10.110  56.175  15.330  1.00  0.00    -0.047 A 
ATOM      3  C   UNL     1     -10.502  55.979  16.658  1.00  0.00     0.016 A 
ATOM      4  C   UNL     1     -11.736  56.464  17.120  1.00  0.00     0.038 A 
ATOM      5  C   UNL     1     -12.594  57.159  16.238  1.00  0.00     0.076 A 
ATOM      6  C   UNL     1     -12.229  57.281  14.873  1.00  0.00     0.127 A 
ATOM      7  C   UNL     1     -10.987  56.807  14.441  1.00  0.00     0.050 A 
ATOM      8  C   UNL     1     -13.820  57.785  16.797  1.00  0.00     0.201 C 
ATOM      9  O   UNL     1     -14.288  58.828  16.269  1.00  0.00    -0.288 OA
ATOM     10  C   UNL     1     -14.380  57.292  18.082  1.00  0.00     0.076 A 
ATOM     11  C   UNL     1     -13.520  56.596  18.962  1.00  0.00     0.041 A 
ATOM     12  C   UNL     1     -12.147  56.245  18.528  1.00  0.00     0.194 C 
ATOM     13  O   UNL     1     -11.335  55.736  19.350  1.00  0.00    -0.289 OA
ATOM     14  C   UNL     1     -13.972  56.234  20.242  1.00  0.00     0.059 A 
ATOM     15  C   UNL     1     -15.274  56.545  20.648  1.00  0.00     0.120 A 
ATOM     16  C   UNL     1     -16.138  57.196  19.769  1.00  0.00     0.093 A 
ATOM     17  C   UNL     1     -15.718  57.549  18.482  1.00  0.00     0.131 A 
ENDROOT
BRANCH   6  18
ATOM     18  O   UNL     1     -13.080  57.829  13.910  1.00  0.00    -0.507 OA
ATOM     19  H   UNL     1     -13.995  58.204  14.121  1.00  0.00     0.293 HD
ENDBRANCH   6  18
BRANCH  17  20
ATOM     20  O   UNL     1     -16.666  58.115  17.627  1.00  0.00    -0.507 OA
ATOM     21  H   UNL     1     -16.459  58.862  16.978  1.00  0.00     0.293 HD
ENDBRANCH  17  20
BRANCH  15  22
ATOM     22  O   UNL     1     -15.721  56.200  21.921  1.00  0.00    -0.508 OA
ATOM     23  H   UNL     1     -16.639  55.798  22.070  1.00  0.00     0.293 HD
ENDBRANCH  15  22
TORSDOF 3
ENDMDL
MODEL 8
REMARK VINA RESULT:    -6.787      2.476      3.942
REMARK INTER + INTRA:          -7.382
REMARK INTER:                  -7.382
REMARK INTRA:                   0.000
REMARK UNBOUND:                 0.000
REMARK SMILES Cc1cc(O)c2c(c1)C(=O)c1cc(O)cc(O)c1C2=O
REMARK SMILES IDX 1 1 2 2 8 3 7 4 6 5 4 6 3 7 19 8 20 9 18 10 11 11 9 12 10 13
REMARK SMILES IDX 12 14 13 15 15 16 16 17 5 18 17 20 14 22
REMARK H PARENT 5 19 17 21 14 23
REMARK Flexibility Score: inf
ROOT
ATOM      1  C   UNL     1     -10.411  53.639  14.981  1.00  0.00     0.044 C 
ATOM      2  C   UNL     1     -11.422  54.450  15.737  1.00  0.00    -0.047 A 
ATOM      3  C   UNL     1     -12.033  53.925  16.881  1.00  0.00     0.016 A 
ATOM      4  C   UNL     1     -13.001  54.666  17.580  1.00  0.00     0.038 A 
ATOM      5  C   UNL     1     -13.363  55.954  17.126  1.00  0.00     0.076 A 
ATOM      6  C   UNL     1     -12.802  56.445  15.920  1.00  0.00     0.127 A 
ATOM      7  C   UNL     1     -11.826  55.699  15.253  1.00  0.00     0.050 A 
ATOM      8  C   UNL     1     -14.277  56.765  17.972  1.00  0.00     0.201 C 
ATOM      9  O   UNL     1     -14.190  58.022  17.962  1.00  0.00    -0.288 OA
ATOM     10  C   UNL     1     -15.157  56.093  18.962  1.00  0.00     0.076 A 
ATOM     11  C   UNL     1     -14.793  54.803  19.412  1.00  0.00     0.041 A 
ATOM     12  C   UNL     1     -13.649  54.099  18.787  1.00  0.00     0.194 C 
ATOM     13  O   UNL     1     -13.242  53.005  19.267  1.00  0.00    -0.289 OA
ATOM     14  C   UNL     1     -15.521  54.192  20.446  1.00  0.00     0.059 A 
ATOM     15  C   UNL     1     -16.614  54.844  21.025  1.00  0.00     0.120 A 
ATOM     16  C   UNL     1     -17.001  56.099  20.557  1.00  0.00     0.093 A 
ATOM     17  C   UNL     1     -16.305  56.720  19.515  1.00  0.00     0.131 A 
ENDROOT
BRANCH   6  18
ATOM     18  O   UNL     1     -13.209  57.646  15.333  1.00  0.00    -0.507 OA
ATOM     19  H   UNL     1     -14.105  58.078  15.507  1.00  0.00     0.293 HD
ENDBRANCH   6  18
BRANCH  17  20
ATOM     20  O   UNL     1     -16.806  57.934  19.038  1.00  0.00    -0.507 OA
ATOM     21  H   UNL     1     -16.648  58.822  19.494  1.00  0.00     0.293 HD
ENDBRANCH  17  20
BRANCH  15  22
ATOM     22  O   UNL     1     -17.330  54.247  22.060  1.00  0.00    -0.508 OA
ATOM     23  H   UNL     1     -18.024  54.760  22.592  1.00  0.00     0.293 HD
ENDBRANCH  15  22
TORSDOF 3
ENDMDL
MODEL 9
REMARK VINA RESULT:    -6.750      1.808      5.496
REMARK INTER + INTRA:          -7.342
REMARK INTER:                  -7.342
REMARK INTRA:                   0.000
REMARK UNBOUND:                 0.000
REMARK SMILES Cc1cc(O)c2c(c1)C(=O)c1cc(O)cc(O)c1C2=O
REMARK SMILES IDX 1 1 2 2 8 3 7 4 6 5 4 6 3 7 19 8 20 9 18 10 11 11 9 12 10 13
REMARK SMILES IDX 12 14 13 15 15 16 16 17 5 18 17 20 14 22
REMARK H PARENT 5 19 17 21 14 23
REMARK Flexibility Score: inf
ROOT
ATOM      1  C   UNL     1     -17.625  54.243  20.602  1.00  0.00     0.044 C 
ATOM      2  C   UNL     1     -16.326  54.763  20.060  1.00  0.00    -0.047 A 
ATOM      3  C   UNL     1     -16.316  55.838  19.166  1.00  0.00     0.016 A 
ATOM      4  C   UNL     1     -15.107  56.314  18.632  1.00  0.00     0.038 A 
ATOM      5  C   UNL     1     -13.887  55.703  18.998  1.00  0.00     0.076 A 
ATOM      6  C   UNL     1     -13.911  54.560  19.838  1.00  0.00     0.127 A 
ATOM      7  C   UNL     1     -15.124  54.117  20.374  1.00  0.00     0.050 A 
ATOM      8  C   UNL     1     -12.621  56.325  18.532  1.00  0.00     0.201 C 
ATOM      9  O   UNL     1     -11.577  56.222  19.229  1.00  0.00    -0.288 OA
ATOM     10  C   UNL     1     -12.632  57.221  17.346  1.00  0.00     0.076 A 
ATOM     11  C   UNL     1     -13.855  57.829  16.981  1.00  0.00     0.041 A 
ATOM     12  C   UNL     1     -15.105  57.450  17.679  1.00  0.00     0.194 C 
ATOM     13  O   UNL     1     -16.175  58.078  17.445  1.00  0.00    -0.289 OA
ATOM     14  C   UNL     1     -13.879  58.787  15.953  1.00  0.00     0.059 A 
ATOM     15  C   UNL     1     -12.705  59.133  15.277  1.00  0.00     0.120 A 
ATOM     16  C   UNL     1     -11.505  58.506  15.608  1.00  0.00     0.093 A 
ATOM     17  C   UNL     1     -11.457  57.535  16.613  1.00  0.00     0.131 A 
ENDROOT
BRANCH   6  18
ATOM     18  O   UNL     1     -12.766  53.817  20.135  1.00  0.00    -0.507 OA
ATOM     19  H   UNL     1     -12.554  53.461  21.056  1.00  0.00     0.293 HD
ENDBRANCH   6  18
BRANCH  17  20
ATOM     20  O   UNL     1     -10.239  56.885  16.825  1.00  0.00    -0.507 OA
ATOM     21  H   UNL     1     -10.159  55.897  17.024  1.00  0.00     0.293 HD
ENDBRANCH  17  20
BRANCH  15  22
ATOM     22  O   UNL     1     -12.724  60.091  14.267  1.00  0.00    -0.508 OA
ATOM     23  H   UNL     1     -12.721  61.083  14.475  1.00  0.00     0.293 HD
ENDBRANCH  15  22
TORSDOF 3
ENDMDL
