MODEL 1
REMARK VINA RESULT:    -5.326      0.000      0.000
REMARK INTER + INTRA:          -6.039
REMARK INTER:                  -5.793
REMARK INTRA:                  -0.246
REMARK UNBOUND:                -0.246
REMARK SMILES CC(C)c1cc2c(cc1O)[C@]1(C)CCCC(C)(C)[C@H]1CC2=O
REMARK SMILES IDX 4 1 9 2 8 3 7 4 6 5 5 6 21 7 22 8 20 9 19 10 11 11 13 12
REMARK SMILES IDX 14 13 15 14 16 15 17 16 18 17 12 18 2 19 1 20 3 21 10 22
REMARK H PARENT 10 23
REMARK Flexibility Score: inf
ROOT
ATOM      1  C   UNL     1      -3.374 -38.805 222.394  1.00  0.00    -0.003 A 
ATOM      2  C   UNL     1      -2.294 -39.494 221.798  1.00  0.00     0.119 A 
ATOM      3  C   UNL     1      -2.417 -40.011 220.503  1.00  0.00     0.051 A 
ATOM      4  C   UNL     1      -3.576 -39.783 219.737  1.00  0.00    -0.027 A 
ATOM      5  C   UNL     1      -4.658 -39.089 220.332  1.00  0.00     0.022 A 
ATOM      6  C   UNL     1      -4.550 -38.614 221.649  1.00  0.00     0.020 A 
ATOM      7  C   UNL     1      -5.889 -38.817 219.540  1.00  0.00     0.163 C 
ATOM      8  O   UNL     1      -6.967 -38.529 220.129  1.00  0.00    -0.294 OA
ATOM      9  C   UNL     1      -5.886 -38.914 218.032  1.00  0.00     0.086 C 
ATOM     10  C   UNL     1      -4.454 -39.150 217.490  1.00  0.00     0.013 C 
ATOM     11  C   UNL     1      -3.748 -40.308 218.298  1.00  0.00    -0.003 C 
ATOM     12  C   UNL     1      -2.390 -40.638 217.616  1.00  0.00     0.012 C 
ATOM     13  C   UNL     1      -2.509 -41.055 216.133  1.00  0.00     0.001 C 
ATOM     14  C   UNL     1      -3.768 -40.555 215.413  1.00  0.00     0.007 C 
ATOM     15  C   UNL     1      -4.282 -39.182 215.905  1.00  0.00    -0.031 C 
ATOM     16  C   UNL     1      -5.595 -38.888 215.141  1.00  0.00     0.011 C 
ATOM     17  C   UNL     1      -3.253 -38.096 215.468  1.00  0.00     0.011 C 
ATOM     18  C   UNL     1      -4.583 -41.617 218.410  1.00  0.00     0.017 C 
ENDROOT
BRANCH   1  19
ATOM     19  C   UNL     1      -3.286 -38.209 223.791  1.00  0.00     0.017 C 
ATOM     20  C   UNL     1      -4.643 -38.281 224.507  1.00  0.00     0.012 C 
ATOM     21  C   UNL     1      -2.718 -36.782 223.788  1.00  0.00     0.012 C 
ENDBRANCH   1  19
BRANCH   2  22
ATOM     22  O   UNL     1      -1.084 -39.636 222.472  1.00  0.00    -0.508 OA
ATOM     23  H   UNL     1      -1.043 -39.826 223.469  1.00  0.00     0.293 HD
ENDBRANCH   2  22
TORSDOF 2
ENDMDL
MODEL 2
REMARK VINA RESULT:    -5.165      1.826      7.243
REMARK INTER + INTRA:          -5.864
REMARK INTER:                  -5.658
REMARK INTRA:                  -0.206
REMARK UNBOUND:                -0.246
REMARK SMILES CC(C)c1cc2c(cc1O)[C@]1(C)CCCC(C)(C)[C@H]1CC2=O
REMARK SMILES IDX 4 1 9 2 8 3 7 4 6 5 5 6 21 7 22 8 20 9 19 10 11 11 13 12
REMARK SMILES IDX 14 13 15 14 16 15 17 16 18 17 12 18 2 19 1 20 3 21 10 22
REMARK H PARENT 10 23
REMARK Flexibility Score: inf
ROOT
ATOM      1  C   UNL     1      -4.607 -39.539 220.104  1.00  0.00    -0.003 A 
ATOM      2  C   UNL     1      -5.924 -39.248 220.522  1.00  0.00     0.119 A 
ATOM      3  C   UNL     1      -6.151 -38.641 221.762  1.00  0.00     0.051 A 
ATOM      4  C   UNL     1      -5.079 -38.229 222.577  1.00  0.00    -0.027 A 
ATOM      5  C   UNL     1      -3.757 -38.518 222.157  1.00  0.00     0.022 A 
ATOM      6  C   UNL     1      -3.534 -39.171 220.933  1.00  0.00     0.020 A 
ATOM      7  C   UNL     1      -2.603 -38.078 222.988  1.00  0.00     0.163 C 
ATOM      8  O   UNL     1      -1.472 -38.612 222.829  1.00  0.00    -0.294 OA
ATOM      9  C   UNL     1      -2.766 -37.020 224.055  1.00  0.00     0.086 C 
ATOM     10  C   UNL     1      -4.184 -36.398 224.013  1.00  0.00     0.013 C 
ATOM     11  C   UNL     1      -5.278 -37.534 223.938  1.00  0.00    -0.003 C 
ATOM     12  C   UNL     1      -6.683 -36.885 224.078  1.00  0.00     0.012 C 
ATOM     13  C   UNL     1      -6.883 -36.075 225.379  1.00  0.00     0.001 C 
ATOM     14  C   UNL     1      -5.594 -35.555 226.029  1.00  0.00     0.007 C 
ATOM     15  C   UNL     1      -4.473 -35.199 225.025  1.00  0.00    -0.031 C 
ATOM     16  C   UNL     1      -3.233 -34.787 225.855  1.00  0.00     0.011 C 
ATOM     17  C   UNL     1      -4.920 -33.936 224.227  1.00  0.00     0.011 C 
ATOM     18  C   UNL     1      -5.128 -38.643 225.019  1.00  0.00     0.017 C 
ENDROOT
BRANCH   1  19
ATOM     19  C   UNL     1      -4.305 -40.181 218.758  1.00  0.00     0.017 C 
ATOM     20  C   UNL     1      -2.961 -40.926 218.792  1.00  0.00     0.012 C 
ATOM     21  C   UNL     1      -4.370 -39.177 217.598  1.00  0.00     0.012 C 
ENDBRANCH   1  19
BRANCH   2  22
ATOM     22  O   UNL     1      -7.009 -39.525 219.695  1.00  0.00    -0.508 OA
ATOM     23  H   UNL     1      -7.020 -40.328 219.072  1.00  0.00     0.293 HD
ENDBRANCH   2  22
TORSDOF 2
ENDMDL
MODEL 3
REMARK VINA RESULT:    -4.962      1.354      6.873
REMARK INTER + INTRA:          -5.644
REMARK INTER:                  -5.401
REMARK INTRA:                  -0.242
REMARK UNBOUND:                -0.246
REMARK SMILES CC(C)c1cc2c(cc1O)[C@]1(C)CCCC(C)(C)[C@H]1CC2=O
REMARK SMILES IDX 4 1 9 2 8 3 7 4 6 5 5 6 21 7 22 8 20 9 19 10 11 11 13 12
REMARK SMILES IDX 14 13 15 14 16 15 17 16 18 17 12 18 2 19 1 20 3 21 10 22
REMARK H PARENT 10 23
REMARK Flexibility Score: inf
ROOT
ATOM      1  C   UNL     1      -4.590 -40.027 219.229  1.00  0.00    -0.003 A 
ATOM      2  C   UNL     1      -5.831 -39.725 219.832  1.00  0.00     0.119 A 
ATOM      3  C   UNL     1      -5.876 -39.232 221.142  1.00  0.00     0.051 A 
ATOM      4  C   UNL     1      -4.694 -38.946 221.852  1.00  0.00    -0.027 A 
ATOM      5  C   UNL     1      -3.449 -39.246 221.246  1.00  0.00     0.022 A 
ATOM      6  C   UNL     1      -3.408 -39.786 219.950  1.00  0.00     0.020 A 
ATOM      7  C   UNL     1      -2.182 -38.937 221.965  1.00  0.00     0.163 C 
ATOM      8  O   UNL     1      -1.107 -39.499 221.619  1.00  0.00    -0.294 OA
ATOM      9  C   UNL     1      -2.161 -37.982 223.136  1.00  0.00     0.086 C 
ATOM     10  C   UNL     1      -3.539 -37.301 223.327  1.00  0.00     0.013 C 
ATOM     11  C   UNL     1      -4.692 -38.379 223.285  1.00  0.00    -0.003 C 
ATOM     12  C   UNL     1      -6.035 -37.690 223.656  1.00  0.00     0.012 C 
ATOM     13  C   UNL     1      -6.035 -37.003 225.040  1.00  0.00     0.001 C 
ATOM     14  C   UNL     1      -4.652 -36.601 225.570  1.00  0.00     0.007 C 
ATOM     15  C   UNL     1      -3.641 -36.195 224.472  1.00  0.00    -0.031 C 
ATOM     16  C   UNL     1      -2.291 -35.918 225.177  1.00  0.00     0.011 C 
ATOM     17  C   UNL     1      -4.114 -34.844 223.855  1.00  0.00     0.011 C 
ATOM     18  C   UNL     1      -4.473 -39.593 224.233  1.00  0.00     0.017 C 
ENDROOT
BRANCH   1  19
ATOM     19  C   UNL     1      -4.485 -40.547 217.803  1.00  0.00     0.017 C 
ATOM     20  C   UNL     1      -3.286 -41.496 217.650  1.00  0.00     0.012 C 
ATOM     21  C   UNL     1      -4.453 -39.416 216.764  1.00  0.00     0.012 C 
ENDBRANCH   1  19
BRANCH   2  22
ATOM     22  O   UNL     1      -7.020 -39.875 219.124  1.00  0.00    -0.508 OA
ATOM     23  H   UNL     1      -7.915 -39.586 219.508  1.00  0.00     0.293 HD
ENDBRANCH   2  22
TORSDOF 2
ENDMDL
MODEL 4
REMARK VINA RESULT:    -4.647      2.210      6.057
REMARK INTER + INTRA:          -5.301
REMARK INTER:                  -5.070
REMARK INTRA:                  -0.231
REMARK UNBOUND:                -0.246
REMARK SMILES CC(C)c1cc2c(cc1O)[C@]1(C)CCCC(C)(C)[C@H]1CC2=O
REMARK SMILES IDX 4 1 9 2 8 3 7 4 6 5 5 6 21 7 22 8 20 9 19 10 11 11 13 12
REMARK SMILES IDX 14 13 15 14 16 15 17 16 18 17 12 18 2 19 1 20 3 21 10 22
REMARK H PARENT 10 23
REMARK Flexibility Score: inf
ROOT
ATOM      1  C   UNL     1      -4.011 -39.787 216.834  1.00  0.00    -0.003 A 
ATOM      2  C   UNL     1      -3.186 -40.839 217.288  1.00  0.00     0.119 A 
ATOM      3  C   UNL     1      -2.956 -41.014 218.657  1.00  0.00     0.051 A 
ATOM      4  C   UNL     1      -3.607 -40.207 219.612  1.00  0.00    -0.027 A 
ATOM      5  C   UNL     1      -4.437 -39.153 219.157  1.00  0.00     0.022 A 
ATOM      6  C   UNL     1      -4.627 -38.950 217.781  1.00  0.00     0.020 A 
ATOM      7  C   UNL     1      -5.152 -38.296 220.143  1.00  0.00     0.163 C 
ATOM      8  O   UNL     1      -5.596 -37.169 219.792  1.00  0.00    -0.294 OA
ATOM      9  C   UNL     1      -5.327 -38.735 221.579  1.00  0.00     0.086 C 
ATOM     10  C   UNL     1      -4.832 -40.188 221.783  1.00  0.00     0.013 C 
ATOM     11  C   UNL     1      -3.407 -40.378 221.130  1.00  0.00    -0.003 C 
ATOM     12  C   UNL     1      -2.867 -41.786 221.508  1.00  0.00     0.012 C 
ATOM     13  C   UNL     1      -2.765 -42.041 223.028  1.00  0.00     0.001 C 
ATOM     14  C   UNL     1      -3.691 -41.180 223.898  1.00  0.00     0.007 C 
ATOM     15  C   UNL     1      -5.040 -40.821 223.233  1.00  0.00    -0.031 C 
ATOM     16  C   UNL     1      -5.792 -39.883 224.207  1.00  0.00     0.011 C 
ATOM     17  C   UNL     1      -5.886 -42.125 223.119  1.00  0.00     0.011 C 
ATOM     18  C   UNL     1      -2.358 -39.309 221.554  1.00  0.00     0.017 C 
ENDROOT
BRANCH   1  19
ATOM     19  C   UNL     1      -4.306 -39.564 215.358  1.00  0.00     0.017 C 
ATOM     20  C   UNL     1      -3.183 -38.760 214.686  1.00  0.00     0.012 C 
ATOM     21  C   UNL     1      -5.683 -38.926 215.122  1.00  0.00     0.012 C 
ENDBRANCH   1  19
BRANCH   2  22
ATOM     22  O   UNL     1      -2.621 -41.738 216.387  1.00  0.00    -0.508 OA
ATOM     23  H   UNL     1      -1.806 -42.296 216.624  1.00  0.00     0.293 HD
ENDBRANCH   2  22
TORSDOF 2
ENDMDL
MODEL 5
REMARK VINA RESULT:    -4.548      1.259      1.549
REMARK INTER + INTRA:          -5.193
REMARK INTER:                  -4.949
REMARK INTRA:                  -0.244
REMARK UNBOUND:                -0.246
REMARK SMILES CC(C)c1cc2c(cc1O)[C@]1(C)CCCC(C)(C)[C@H]1CC2=O
REMARK SMILES IDX 4 1 9 2 8 3 7 4 6 5 5 6 21 7 22 8 20 9 19 10 11 11 13 12
REMARK SMILES IDX 14 13 15 14 16 15 17 16 18 17 12 18 2 19 1 20 3 21 10 22
REMARK H PARENT 10 23
REMARK Flexibility Score: inf
ROOT
ATOM      1  C   UNL     1      -3.242 -37.674 223.263  1.00  0.00    -0.003 A 
ATOM      2  C   UNL     1      -2.144 -38.384 222.730  1.00  0.00     0.119 A 
ATOM      3  C   UNL     1      -2.323 -39.244 221.640  1.00  0.00     0.051 A 
ATOM      4  C   UNL     1      -3.573 -39.353 220.999  1.00  0.00    -0.027 A 
ATOM      5  C   UNL     1      -4.673 -38.639 221.531  1.00  0.00     0.022 A 
ATOM      6  C   UNL     1      -4.501 -37.814 222.655  1.00  0.00     0.020 A 
ATOM      7  C   UNL     1      -6.002 -38.720 220.863  1.00  0.00     0.163 C 
ATOM      8  O   UNL     1      -7.045 -38.395 221.493  1.00  0.00    -0.294 OA
ATOM      9  C   UNL     1      -6.134 -39.224 219.444  1.00  0.00     0.086 C 
ATOM     10  C   UNL     1      -4.744 -39.450 218.800  1.00  0.00     0.013 C 
ATOM     11  C   UNL     1      -3.813 -40.266 219.780  1.00  0.00    -0.003 C 
ATOM     12  C   UNL     1      -2.497 -40.628 219.036  1.00  0.00     0.012 C 
ATOM     13  C   UNL     1      -2.704 -41.442 217.739  1.00  0.00     0.001 C 
ATOM     14  C   UNL     1      -4.084 -41.290 217.085  1.00  0.00     0.007 C 
ATOM     15  C   UNL     1      -4.725 -39.895 217.268  1.00  0.00    -0.031 C 
ATOM     16  C   UNL     1      -6.135 -39.956 216.632  1.00  0.00     0.011 C 
ATOM     17  C   UNL     1      -3.899 -38.869 216.435  1.00  0.00     0.011 C 
ATOM     18  C   UNL     1      -4.450 -41.573 220.335  1.00  0.00     0.017 C 
ENDROOT
BRANCH   1  19
ATOM     19  C   UNL     1      -3.098 -36.714 224.435  1.00  0.00     0.017 C 
ATOM     20  C   UNL     1      -3.776 -37.275 225.694  1.00  0.00     0.012 C 
ATOM     21  C   UNL     1      -3.594 -35.299 224.102  1.00  0.00     0.012 C 
ENDBRANCH   1  19
BRANCH   2  22
ATOM     22  O   UNL     1      -0.865 -38.212 223.254  1.00  0.00    -0.508 OA
ATOM     23  H   UNL     1      -0.700 -37.691 224.110  1.00  0.00     0.293 HD
ENDBRANCH   2  22
TORSDOF 2
ENDMDL
MODEL 6
REMARK VINA RESULT:    -4.521      1.752      2.032
REMARK INTER + INTRA:          -5.164
REMARK INTER:                  -4.921
REMARK INTRA:                  -0.243
REMARK UNBOUND:                -0.246
REMARK SMILES CC(C)c1cc2c(cc1O)[C@]1(C)CCCC(C)(C)[C@H]1CC2=O
REMARK SMILES IDX 4 1 9 2 8 3 7 4 6 5 5 6 21 7 22 8 20 9 19 10 11 11 13 12
REMARK SMILES IDX 14 13 15 14 16 15 17 16 18 17 12 18 2 19 1 20 3 21 10 22
REMARK H PARENT 10 23
REMARK Flexibility Score: inf
ROOT
ATOM      1  C   UNL     1      -5.047 -39.380 222.376  1.00  0.00    -0.003 A 
ATOM      2  C   UNL     1      -4.931 -40.729 221.975  1.00  0.00     0.119 A 
ATOM      3  C   UNL     1      -4.988 -41.069 220.619  1.00  0.00     0.051 A 
ATOM      4  C   UNL     1      -5.075 -40.075 219.624  1.00  0.00    -0.027 A 
ATOM      5  C   UNL     1      -5.188 -38.722 220.025  1.00  0.00     0.022 A 
ATOM      6  C   UNL     1      -5.179 -38.388 221.389  1.00  0.00     0.020 A 
ATOM      7  C   UNL     1      -5.262 -37.648 218.995  1.00  0.00     0.163 C 
ATOM      8  O   UNL     1      -5.707 -36.509 219.303  1.00  0.00    -0.294 OA
ATOM      9  C   UNL     1      -4.845 -37.906 217.565  1.00  0.00     0.086 C 
ATOM     10  C   UNL     1      -4.211 -39.312 217.413  1.00  0.00     0.013 C 
ATOM     11  C   UNL     1      -5.114 -40.398 218.117  1.00  0.00    -0.003 C 
ATOM     12  C   UNL     1      -4.546 -41.808 217.793  1.00  0.00     0.012 C 
ATOM     13  C   UNL     1      -4.457 -42.125 216.283  1.00  0.00     0.001 C 
ATOM     14  C   UNL     1      -4.379 -40.900 215.362  1.00  0.00     0.007 C 
ATOM     15  C   UNL     1      -3.638 -39.689 215.973  1.00  0.00    -0.031 C 
ATOM     16  C   UNL     1      -3.740 -38.530 214.951  1.00  0.00     0.011 C 
ATOM     17  C   UNL     1      -2.127 -40.055 216.090  1.00  0.00     0.011 C 
ATOM     18  C   UNL     1      -6.614 -40.355 217.703  1.00  0.00     0.017 C 
ENDROOT
BRANCH   1  19
ATOM     19  C   UNL     1      -4.973 -38.956 223.835  1.00  0.00     0.017 C 
ATOM     20  C   UNL     1      -5.860 -37.729 224.098  1.00  0.00     0.012 C 
ATOM     21  C   UNL     1      -3.530 -38.728 224.310  1.00  0.00     0.012 C 
ENDBRANCH   1  19
BRANCH   2  22
ATOM     22  O   UNL     1      -4.719 -41.733 222.916  1.00  0.00    -0.508 OA
ATOM     23  H   UNL     1      -5.447 -42.397 223.167  1.00  0.00     0.293 HD
ENDBRANCH   2  22
TORSDOF 2
ENDMDL
MODEL 7
REMARK VINA RESULT:    -4.510      1.789      6.497
REMARK INTER + INTRA:          -5.152
REMARK INTER:                  -4.908
REMARK INTRA:                  -0.244
REMARK UNBOUND:                -0.246
REMARK SMILES CC(C)c1cc2c(cc1O)[C@]1(C)CCCC(C)(C)[C@H]1CC2=O
REMARK SMILES IDX 4 1 9 2 8 3 7 4 6 5 5 6 21 7 22 8 20 9 19 10 11 11 13 12
REMARK SMILES IDX 14 13 15 14 16 15 17 16 18 17 12 18 2 19 1 20 3 21 10 22
REMARK H PARENT 10 23
REMARK Flexibility Score: inf
ROOT
ATOM      1  C   UNL     1      -3.605 -39.625 216.155  1.00  0.00    -0.003 A 
ATOM      2  C   UNL     1      -4.811 -39.030 216.588  1.00  0.00     0.119 A 
ATOM      3  C   UNL     1      -5.178 -39.086 217.938  1.00  0.00     0.051 A 
ATOM      4  C   UNL     1      -4.322 -39.654 218.901  1.00  0.00    -0.027 A 
ATOM      5  C   UNL     1      -3.111 -40.248 218.467  1.00  0.00     0.022 A 
ATOM      6  C   UNL     1      -2.768 -40.233 217.105  1.00  0.00     0.020 A 
ATOM      7  C   UNL     1      -2.177 -40.839 219.465  1.00  0.00     0.163 C 
ATOM      8  O   UNL     1      -1.296 -41.661 219.094  1.00  0.00    -0.294 OA
ATOM      9  C   UNL     1      -2.286 -40.500 220.934  1.00  0.00     0.086 C 
ATOM     10  C   UNL     1      -3.334 -39.385 221.175  1.00  0.00     0.013 C 
ATOM     11  C   UNL     1      -4.670 -39.715 220.401  1.00  0.00    -0.003 C 
ATOM     12  C   UNL     1      -5.753 -38.676 220.806  1.00  0.00     0.012 C 
ATOM     13  C   UNL     1      -6.046 -38.622 222.323  1.00  0.00     0.001 C 
ATOM     14  C   UNL     1      -4.911 -39.123 223.226  1.00  0.00     0.007 C 
ATOM     15  C   UNL     1      -3.491 -38.858 222.672  1.00  0.00    -0.031 C 
ATOM     16  C   UNL     1      -2.490 -39.507 223.657  1.00  0.00     0.011 C 
ATOM     17  C   UNL     1      -3.234 -37.321 222.715  1.00  0.00     0.011 C 
ATOM     18  C   UNL     1      -5.227 -41.146 220.660  1.00  0.00     0.017 C 
ENDROOT
BRANCH   1  19
ATOM     19  C   UNL     1      -3.151 -39.577 214.703  1.00  0.00     0.017 C 
ATOM     20  C   UNL     1      -3.733 -40.754 213.905  1.00  0.00     0.012 C 
ATOM     21  C   UNL     1      -1.624 -39.494 214.566  1.00  0.00     0.012 C 
ENDBRANCH   1  19
BRANCH   2  22
ATOM     22  O   UNL     1      -5.630 -38.349 215.691  1.00  0.00    -0.508 OA
ATOM     23  H   UNL     1      -5.249 -37.784 214.938  1.00  0.00     0.293 HD
ENDBRANCH   2  22
TORSDOF 2
ENDMDL
MODEL 8
REMARK VINA RESULT:    -4.257      3.174      5.554
REMARK INTER + INTRA:          -4.877
REMARK INTER:                  -4.669
REMARK INTRA:                  -0.208
REMARK UNBOUND:                -0.246
REMARK SMILES CC(C)c1cc2c(cc1O)[C@]1(C)CCCC(C)(C)[C@H]1CC2=O
REMARK SMILES IDX 4 1 9 2 8 3 7 4 6 5 5 6 21 7 22 8 20 9 19 10 11 11 13 12
REMARK SMILES IDX 14 13 15 14 16 15 17 16 18 17 12 18 2 19 1 20 3 21 10 22
REMARK H PARENT 10 23
REMARK Flexibility Score: inf
ROOT
ATOM      1  C   UNL     1      -3.480 -34.043 224.389  1.00  0.00    -0.003 A 
ATOM      2  C   UNL     1      -2.212 -34.625 224.171  1.00  0.00     0.119 A 
ATOM      3  C   UNL     1      -2.101 -35.996 223.909  1.00  0.00     0.051 A 
ATOM      4  C   UNL     1      -3.247 -36.803 223.770  1.00  0.00    -0.027 A 
ATOM      5  C   UNL     1      -4.519 -36.219 223.986  1.00  0.00     0.022 A 
ATOM      6  C   UNL     1      -4.624 -34.854 224.296  1.00  0.00     0.020 A 
ATOM      7  C   UNL     1      -5.749 -37.044 223.828  1.00  0.00     0.163 C 
ATOM      8  O   UNL     1      -6.835 -36.662 224.343  1.00  0.00    -0.294 OA
ATOM      9  C   UNL     1      -5.717 -38.362 223.088  1.00  0.00     0.086 C 
ATOM     10  C   UNL     1      -4.337 -38.597 222.424  1.00  0.00     0.013 C 
ATOM     11  C   UNL     1      -3.178 -38.311 223.457  1.00  0.00    -0.003 C 
ATOM     12  C   UNL     1      -1.824 -38.726 222.816  1.00  0.00     0.012 C 
ATOM     13  C   UNL     1      -1.757 -40.206 222.376  1.00  0.00     0.001 C 
ATOM     14  C   UNL     1      -3.113 -40.867 222.097  1.00  0.00     0.007 C 
ATOM     15  C   UNL     1      -4.185 -39.908 221.529  1.00  0.00    -0.031 C 
ATOM     16  C   UNL     1      -5.498 -40.718 221.401  1.00  0.00     0.011 C 
ATOM     17  C   UNL     1      -3.759 -39.509 220.083  1.00  0.00     0.011 C 
ATOM     18  C   UNL     1      -3.334 -39.046 224.819  1.00  0.00     0.017 C 
ENDROOT
BRANCH   1  19
ATOM     19  C   UNL     1      -3.656 -32.556 224.659  1.00  0.00     0.017 C 
ATOM     20  C   UNL     1      -3.332 -32.220 226.123  1.00  0.00     0.012 C 
ATOM     21  C   UNL     1      -5.045 -32.043 224.251  1.00  0.00     0.012 C 
ENDBRANCH   1  19
BRANCH   2  22
ATOM     22  O   UNL     1      -1.061 -33.842 224.175  1.00  0.00    -0.508 OA
ATOM     23  H   UNL     1      -0.295 -34.008 223.528  1.00  0.00     0.293 HD
ENDBRANCH   2  22
TORSDOF 2
ENDMDL
