MODEL 1
REMARK VINA RESULT:    -4.987      0.000      0.000
REMARK INTER + INTRA:          -6.472
REMARK INTER:                  -6.153
REMARK INTRA:                  -0.319
REMARK UNBOUND:                -0.319
REMARK SMILES C=CC[C@H](C)C(=O)CC
REMARK SMILES IDX 4 1 5 2 6 3 7 4 8 5 9 6 3 7 2 8 1 9
REMARK H PARENT
REMARK Flexibility Score: inf
ROOT
ATOM      1  C   UNL     1       6.901  20.792   6.488  1.00  0.00     0.057 C 
ATOM      2  C   UNL     1       6.355  21.467   7.754  1.00  0.00     0.016 C 
ENDROOT
BRANCH   1   3
ATOM      3  C   UNL     1       6.109  21.246   5.280  1.00  0.00     0.135 C 
ATOM      4  O   UNL     1       5.103  21.924   5.435  1.00  0.00    -0.299 OA
BRANCH   3   5
ATOM      5  C   UNL     1       6.542  20.885   3.884  1.00  0.00     0.072 C 
ATOM      6  C   UNL     1       5.364  20.957   2.917  1.00  0.00     0.012 C 
ENDBRANCH   3   5
ENDBRANCH   1   3
BRANCH   1   7
ATOM      7  C   UNL     1       6.858  19.255   6.597  1.00  0.00     0.038 C 
BRANCH   7   8
ATOM      8  C   UNL     1       5.617  18.786   7.311  1.00  0.00    -0.034 C 
ATOM      9  C   UNL     1       4.522  18.405   6.648  1.00  0.00     0.004 C 
ENDBRANCH   7   8
ENDBRANCH   1   7
TORSDOF 4
ENDMDL
MODEL 2
REMARK VINA RESULT:    -4.797      1.222      1.626
REMARK INTER + INTRA:          -6.238
REMARK INTER:                  -5.810
REMARK INTRA:                  -0.428
REMARK UNBOUND:                -0.319
REMARK SMILES C=CC[C@H](C)C(=O)CC
REMARK SMILES IDX 4 1 5 2 6 3 7 4 8 5 9 6 3 7 2 8 1 9
REMARK H PARENT
REMARK Flexibility Score: inf
ROOT
ATOM      1  C   UNL     1       5.320  21.849   6.859  1.00  0.00     0.057 C 
ATOM      2  C   UNL     1       3.971  21.415   7.449  1.00  0.00     0.016 C 
ENDROOT
BRANCH   1   3
ATOM      3  C   UNL     1       5.314  21.650   5.359  1.00  0.00     0.135 C 
ATOM      4  O   UNL     1       4.280  21.819   4.729  1.00  0.00    -0.299 OA
BRANCH   3   5
ATOM      5  C   UNL     1       6.565  21.253   4.620  1.00  0.00     0.072 C 
ATOM      6  C   UNL     1       6.284  20.099   3.663  1.00  0.00     0.012 C 
ENDBRANCH   3   5
ENDBRANCH   1   3
BRANCH   1   7
ATOM      7  C   UNL     1       6.494  21.072   7.488  1.00  0.00     0.038 C 
BRANCH   7   8
ATOM      8  C   UNL     1       6.084  19.678   7.888  1.00  0.00    -0.034 C 
ATOM      9  C   UNL     1       6.411  18.609   7.157  1.00  0.00     0.004 C 
ENDBRANCH   7   8
ENDBRANCH   1   7
TORSDOF 4
ENDMDL
MODEL 3
REMARK VINA RESULT:    -4.666      1.498      3.380
REMARK INTER + INTRA:          -6.076
REMARK INTER:                  -5.664
REMARK INTRA:                  -0.412
REMARK UNBOUND:                -0.319
REMARK SMILES C=CC[C@H](C)C(=O)CC
REMARK SMILES IDX 4 1 5 2 6 3 7 4 8 5 9 6 3 7 2 8 1 9
REMARK H PARENT
REMARK Flexibility Score: inf
ROOT
ATOM      1  C   UNL     1       5.162  21.354   7.097  1.00  0.00     0.057 C 
ATOM      2  C   UNL     1       6.536  21.786   7.628  1.00  0.00     0.016 C 
ENDROOT
BRANCH   1   3
ATOM      3  C   UNL     1       4.955  19.875   7.348  1.00  0.00     0.135 C 
ATOM      4  O   UNL     1       3.829  19.403   7.290  1.00  0.00    -0.299 OA
BRANCH   3   5
ATOM      5  C   UNL     1       6.115  18.968   7.665  1.00  0.00     0.072 C 
ATOM      6  C   UNL     1       6.608  18.262   6.406  1.00  0.00     0.012 C 
ENDBRANCH   3   5
ENDBRANCH   1   3
BRANCH   1   7
ATOM      7  C   UNL     1       5.010  21.657   5.593  1.00  0.00     0.038 C 
BRANCH   7   8
ATOM      8  C   UNL     1       6.289  21.389   4.842  1.00  0.00    -0.034 C 
ATOM      9  C   UNL     1       6.300  20.734   3.678  1.00  0.00     0.004 C 
ENDBRANCH   7   8
ENDBRANCH   1   7
TORSDOF 4
ENDMDL
MODEL 4
REMARK VINA RESULT:    -4.602      2.085      3.440
REMARK INTER + INTRA:          -5.996
REMARK INTER:                  -5.621
REMARK INTRA:                  -0.375
REMARK UNBOUND:                -0.319
REMARK SMILES C=CC[C@H](C)C(=O)CC
REMARK SMILES IDX 4 1 5 2 6 3 7 4 8 5 9 6 3 7 2 8 1 9
REMARK H PARENT
REMARK Flexibility Score: inf
ROOT
ATOM      1  C   UNL     1       5.827  19.823   7.748  1.00  0.00     0.057 C 
ATOM      2  C   UNL     1       6.500  18.585   7.139  1.00  0.00     0.016 C 
ENDROOT
BRANCH   1   3
ATOM      3  C   UNL     1       4.357  19.841   7.387  1.00  0.00     0.135 C 
ATOM      4  O   UNL     1       3.863  18.880   6.813  1.00  0.00    -0.299 OA
BRANCH   3   5
ATOM      5  C   UNL     1       3.485  21.021   7.726  1.00  0.00     0.072 C 
ATOM      6  C   UNL     1       2.868  21.616   6.465  1.00  0.00     0.012 C 
ENDBRANCH   3   5
ENDBRANCH   1   3
BRANCH   1   7
ATOM      7  C   UNL     1       6.500  21.128   7.278  1.00  0.00     0.038 C 
BRANCH   7   8
ATOM      8  C   UNL     1       7.146  20.961   5.927  1.00  0.00    -0.034 C 
ATOM      9  C   UNL     1       6.500  21.251   4.795  1.00  0.00     0.004 C 
ENDBRANCH   7   8
ENDBRANCH   1   7
TORSDOF 4
ENDMDL
MODEL 5
REMARK VINA RESULT:    -4.495      1.584      3.116
REMARK INTER + INTRA:          -5.865
REMARK INTER:                  -5.417
REMARK INTRA:                  -0.449
REMARK UNBOUND:                -0.319
REMARK SMILES C=CC[C@H](C)C(=O)CC
REMARK SMILES IDX 4 1 5 2 6 3 7 4 8 5 9 6 3 7 2 8 1 9
REMARK H PARENT
REMARK Flexibility Score: inf
ROOT
ATOM      1  C   UNL     1       6.317  20.852   7.354  1.00  0.00     0.057 C 
ATOM      2  C   UNL     1       6.216  19.356   7.680  1.00  0.00     0.016 C 
ENDROOT
BRANCH   1   3
ATOM      3  C   UNL     1       4.940  21.480   7.380  1.00  0.00     0.135 C 
ATOM      4  O   UNL     1       4.804  22.657   7.080  1.00  0.00    -0.299 OA
BRANCH   3   5
ATOM      5  C   UNL     1       3.725  20.676   7.765  1.00  0.00     0.072 C 
ATOM      6  C   UNL     1       2.825  20.446   6.556  1.00  0.00     0.012 C 
ENDBRANCH   3   5
ENDBRANCH   1   3
BRANCH   1   7
ATOM      7  C   UNL     1       6.978  21.094   5.982  1.00  0.00     0.038 C 
BRANCH   7   8
ATOM      8  C   UNL     1       6.303  20.299   4.895  1.00  0.00    -0.034 C 
ATOM      9  C   UNL     1       6.163  20.776   3.655  1.00  0.00     0.004 C 
ENDBRANCH   7   8
ENDBRANCH   1   7
TORSDOF 4
ENDMDL
MODEL 6
REMARK VINA RESULT:    -4.412      1.657      2.771
REMARK INTER + INTRA:          -5.762
REMARK INTER:                  -5.423
REMARK INTRA:                  -0.339
REMARK UNBOUND:                -0.319
REMARK SMILES C=CC[C@H](C)C(=O)CC
REMARK SMILES IDX 4 1 5 2 6 3 7 4 8 5 9 6 3 7 2 8 1 9
REMARK H PARENT
REMARK Flexibility Score: inf
ROOT
ATOM      1  C   UNL     1       5.816  20.745   5.289  1.00  0.00     0.057 C 
ATOM      2  C   UNL     1       6.662  20.887   4.017  1.00  0.00     0.016 C 
ENDROOT
BRANCH   1   3
ATOM      3  C   UNL     1       4.655  21.715   5.246  1.00  0.00     0.135 C 
ATOM      4  O   UNL     1       4.046  21.885   4.200  1.00  0.00    -0.299 OA
BRANCH   3   5
ATOM      5  C   UNL     1       4.227  22.474   6.475  1.00  0.00     0.072 C 
ATOM      6  C   UNL     1       3.131  21.720   7.222  1.00  0.00     0.012 C 
ENDBRANCH   3   5
ENDBRANCH   1   3
BRANCH   1   7
ATOM      7  C   UNL     1       6.653  20.984   6.562  1.00  0.00     0.038 C 
BRANCH   7   8
ATOM      8  C   UNL     1       6.420  19.906   7.588  1.00  0.00    -0.034 C 
ATOM      9  C   UNL     1       6.253  18.626   7.242  1.00  0.00     0.004 C 
ENDBRANCH   7   8
ENDBRANCH   1   7
TORSDOF 4
ENDMDL
MODEL 7
REMARK VINA RESULT:    -4.402      1.551      2.594
REMARK INTER + INTRA:          -5.750
REMARK INTER:                  -5.301
REMARK INTRA:                  -0.449
REMARK UNBOUND:                -0.319
REMARK SMILES C=CC[C@H](C)C(=O)CC
REMARK SMILES IDX 4 1 5 2 6 3 7 4 8 5 9 6 3 7 2 8 1 9
REMARK H PARENT
REMARK Flexibility Score: inf
ROOT
ATOM      1  C   UNL     1       5.989  21.667   6.224  1.00  0.00     0.057 C 
ATOM      2  C   UNL     1       6.527  21.820   7.653  1.00  0.00     0.016 C 
ENDROOT
BRANCH   1   3
ATOM      3  C   UNL     1       4.481  21.806   6.224  1.00  0.00     0.135 C 
ATOM      4  O   UNL     1       3.910  22.221   5.225  1.00  0.00    -0.299 OA
BRANCH   3   5
ATOM      5  C   UNL     1       3.664  21.435   7.434  1.00  0.00     0.072 C 
ATOM      6  C   UNL     1       2.860  20.166   7.175  1.00  0.00     0.012 C 
ENDBRANCH   3   5
ENDBRANCH   1   3
BRANCH   1   7
ATOM      7  C   UNL     1       6.392  20.315   5.603  1.00  0.00     0.038 C 
BRANCH   7   8
ATOM      8  C   UNL     1       6.843  19.336   6.656  1.00  0.00    -0.034 C 
ATOM      9  C   UNL     1       6.059  18.339   7.075  1.00  0.00     0.004 C 
ENDBRANCH   7   8
ENDBRANCH   1   7
TORSDOF 4
ENDMDL
MODEL 8
REMARK VINA RESULT:    -4.364      2.131      2.690
REMARK INTER + INTRA:          -5.703
REMARK INTER:                  -5.475
REMARK INTRA:                  -0.228
REMARK UNBOUND:                -0.319
REMARK SMILES C=CC[C@H](C)C(=O)CC
REMARK SMILES IDX 4 1 5 2 6 3 7 4 8 5 9 6 3 7 2 8 1 9
REMARK H PARENT
REMARK Flexibility Score: inf
ROOT
ATOM      1  C   UNL     1       4.847  20.985   7.784  1.00  0.00     0.057 C 
ATOM      2  C   UNL     1       3.719  19.990   7.477  1.00  0.00     0.016 C 
ENDROOT
BRANCH   1   3
ATOM      3  C   UNL     1       4.913  22.040   6.701  1.00  0.00     0.135 C 
ATOM      4  O   UNL     1       5.698  21.907   5.773  1.00  0.00    -0.299 OA
BRANCH   3   5
ATOM      5  C   UNL     1       4.022  23.254   6.740  1.00  0.00     0.072 C 
ATOM      6  C   UNL     1       3.245  23.396   5.435  1.00  0.00     0.012 C 
ENDBRANCH   3   5
ENDBRANCH   1   3
BRANCH   1   7
ATOM      7  C   UNL     1       6.211  20.279   7.914  1.00  0.00     0.038 C 
BRANCH   7   8
ATOM      8  C   UNL     1       6.141  18.849   7.444  1.00  0.00    -0.034 C 
ATOM      9  C   UNL     1       6.747  18.443   6.325  1.00  0.00     0.004 C 
ENDBRANCH   7   8
ENDBRANCH   1   7
TORSDOF 4
ENDMDL
MODEL 9
REMARK VINA RESULT:    -4.212      2.180      3.614
REMARK INTER + INTRA:          -5.516
REMARK INTER:                  -5.195
REMARK INTRA:                  -0.322
REMARK UNBOUND:                -0.319
REMARK SMILES C=CC[C@H](C)C(=O)CC
REMARK SMILES IDX 4 1 5 2 6 3 7 4 8 5 9 6 3 7 2 8 1 9
REMARK H PARENT
REMARK Flexibility Score: inf
ROOT
ATOM      1  C   UNL     1       5.154  21.410   7.243  1.00  0.00     0.057 C 
ATOM      2  C   UNL     1       6.590  21.788   7.633  1.00  0.00     0.016 C 
ENDROOT
BRANCH   1   3
ATOM      3  C   UNL     1       4.960  19.915   7.378  1.00  0.00     0.135 C 
ATOM      4  O   UNL     1       3.829  19.450   7.398  1.00  0.00    -0.299 OA
BRANCH   3   5
ATOM      5  C   UNL     1       6.138  18.982   7.484  1.00  0.00     0.072 C 
ATOM      6  C   UNL     1       6.517  18.433   6.113  1.00  0.00     0.012 C 
ENDBRANCH   3   5
ENDBRANCH   1   3
BRANCH   1   7
ATOM      7  C   UNL     1       4.817  21.856   5.807  1.00  0.00     0.038 C 
BRANCH   7   8
ATOM      8  C   UNL     1       3.530  22.639   5.758  1.00  0.00    -0.034 C 
ATOM      9  C   UNL     1       3.094  23.346   6.804  1.00  0.00     0.004 C 
ENDBRANCH   7   8
ENDBRANCH   1   7
TORSDOF 4
ENDMDL
