MODEL 1
REMARK VINA RESULT:    -4.863      0.000      0.000
REMARK INTER + INTRA:          -5.110
REMARK INTER:                  -5.289
REMARK INTRA:                   0.179
REMARK UNBOUND:                 0.179
REMARK SMILES CC(=O)[C@H]1CC[C@@H]2[C@@H]3CC=C4C[C@@H](O)CC[C@@]4(C)[C@H]3CC[C@]12C
REMARK SMILES IDX 4 1 5 2 6 3 7 4 22 5 21 6 20 7 19 8 8 9 9 10 10 11 11 12
REMARK SMILES IDX 17 13 16 14 15 15 13 16 12 17 18 18 23 19 2 20 1 21 3 22
REMARK SMILES IDX 14 23
REMARK H PARENT 14 24
REMARK Flexibility Score: inf
ROOT
ATOM      1  C   UNL     1     -12.717  11.168   6.134  1.00  0.00     0.062 C 
ATOM      2  C   UNL     1     -12.268   9.876   5.453  1.00  0.00     0.012 C 
ATOM      3  C   UNL     1     -12.553  10.110   3.983  1.00  0.00     0.005 C 
ATOM      4  C   UNL     1     -13.884  10.868   3.968  1.00  0.00    -0.001 C 
ATOM      5  C   UNL     1     -13.952  11.669   5.311  1.00  0.00    -0.020 C 
ATOM      6  C   UNL     1     -13.876  13.211   5.080  1.00  0.00     0.008 C 
ATOM      7  C   UNL     1     -12.867  13.608   3.989  1.00  0.00     0.005 C 
ATOM      8  C   UNL     1     -13.166  12.954   2.607  1.00  0.00     0.003 C 
ATOM      9  C   UNL     1     -14.128  11.747   2.714  1.00  0.00     0.000 C 
ATOM     10  C   UNL     1     -14.056  10.951   1.406  1.00  0.00     0.031 C 
ATOM     11  C   UNL     1     -14.377  11.840   0.239  1.00  0.00    -0.027 C 
ATOM     12  C   UNL     1     -14.162  13.178   0.239  1.00  0.00    -0.065 C 
ATOM     13  C   UNL     1     -13.630  13.946   1.468  1.00  0.00    -0.008 C 
ATOM     14  C   UNL     1     -14.776  14.894   1.948  1.00  0.00     0.014 C 
ATOM     15  C   UNL     1     -15.404  15.736   0.815  1.00  0.00     0.033 C 
ATOM     16  C   UNL     1     -15.874  14.875  -0.374  1.00  0.00     0.118 C 
ATOM     17  C   UNL     1     -14.732  13.997  -0.900  1.00  0.00     0.063 C 
ATOM     18  C   UNL     1     -12.394  14.783   1.037  1.00  0.00     0.016 C 
ATOM     19  C   UNL     1     -15.294  11.349   6.019  1.00  0.00     0.012 C 
ENDROOT
BRANCH   1  20
ATOM     20  C   UNL     1     -12.927  11.064   7.638  1.00  0.00     0.133 C 
ATOM     21  C   UNL     1     -12.480   9.876   8.442  1.00  0.00     0.088 C 
ATOM     22  O   UNL     1     -13.466  11.994   8.219  1.00  0.00    -0.300 OA
ENDBRANCH   1  20
BRANCH  16  23
ATOM     23  O   UNL     1     -16.953  14.060   0.011  1.00  0.00    -0.393 OA
ATOM     24  H   UNL     1     -17.747  14.380  -0.492  1.00  0.00     0.210 HD
ENDBRANCH  16  23
TORSDOF 2
ENDMDL
MODEL 2
REMARK VINA RESULT:    -4.692      1.318      6.645
REMARK INTER + INTRA:          -4.924
REMARK INTER:                  -4.834
REMARK INTRA:                  -0.090
REMARK UNBOUND:                 0.179
REMARK SMILES CC(=O)[C@H]1CC[C@@H]2[C@@H]3CC=C4C[C@@H](O)CC[C@@]4(C)[C@H]3CC[C@]12C
REMARK SMILES IDX 4 1 5 2 6 3 7 4 22 5 21 6 20 7 19 8 8 9 9 10 10 11 11 12
REMARK SMILES IDX 17 13 16 14 15 15 13 16 12 17 18 18 23 19 2 20 1 21 3 22
REMARK SMILES IDX 14 23
REMARK H PARENT 14 24
REMARK Flexibility Score: inf
ROOT
ATOM      1  C   UNL     1     -14.820  13.670   1.336  1.00  0.00     0.062 C 
ATOM      2  C   UNL     1     -14.365  12.453   0.531  1.00  0.00     0.012 C 
ATOM      3  C   UNL     1     -13.882  11.471   1.580  1.00  0.00     0.005 C 
ATOM      4  C   UNL     1     -13.166  12.342   2.616  1.00  0.00    -0.001 C 
ATOM      5  C   UNL     1     -13.851  13.747   2.564  1.00  0.00    -0.020 C 
ATOM      6  C   UNL     1     -14.638  14.067   3.872  1.00  0.00     0.008 C 
ATOM      7  C   UNL     1     -15.400  12.853   4.430  1.00  0.00     0.005 C 
ATOM      8  C   UNL     1     -14.477  11.637   4.739  1.00  0.00     0.003 C 
ATOM      9  C   UNL     1     -13.098  11.743   4.046  1.00  0.00     0.000 C 
ATOM     10  C   UNL     1     -12.427  10.366   4.083  1.00  0.00     0.031 C 
ATOM     11  C   UNL     1     -12.322   9.878   5.499  1.00  0.00    -0.027 C 
ATOM     12  C   UNL     1     -13.179  10.249   6.482  1.00  0.00    -0.065 C 
ATOM     13  C   UNL     1     -14.314  11.274   6.268  1.00  0.00    -0.008 C 
ATOM     14  C   UNL     1     -13.969  12.528   7.134  1.00  0.00     0.014 C 
ATOM     15  C   UNL     1     -13.597  12.193   8.595  1.00  0.00     0.033 C 
ATOM     16  C   UNL     1     -12.476  11.140   8.695  1.00  0.00     0.118 C 
ATOM     17  C   UNL     1     -12.841   9.875   7.910  1.00  0.00     0.063 C 
ATOM     18  C   UNL     1     -15.651  10.646   6.750  1.00  0.00     0.016 C 
ATOM     19  C   UNL     1     -12.758  14.832   2.377  1.00  0.00     0.012 C 
ENDROOT
BRANCH   1  20
ATOM     20  C   UNL     1     -14.970  14.954   0.532  1.00  0.00     0.133 C 
ATOM     21  C   UNL     1     -16.021  15.985   0.834  1.00  0.00     0.088 C 
ATOM     22  O   UNL     1     -14.191  15.163  -0.386  1.00  0.00    -0.300 OA
ENDBRANCH   1  20
BRANCH  16  23
ATOM     23  O   UNL     1     -11.268  11.665   8.203  1.00  0.00    -0.393 OA
ATOM     24  H   UNL     1     -11.312  12.650   8.326  1.00  0.00     0.210 HD
ENDBRANCH  16  23
TORSDOF 2
ENDMDL
MODEL 3
REMARK VINA RESULT:    -3.299      1.752      2.859
REMARK INTER + INTRA:          -3.409
REMARK INTER:                  -3.308
REMARK INTRA:                  -0.101
REMARK UNBOUND:                 0.179
REMARK SMILES CC(=O)[C@H]1CC[C@@H]2[C@@H]3CC=C4C[C@@H](O)CC[C@@]4(C)[C@H]3CC[C@]12C
REMARK SMILES IDX 4 1 5 2 6 3 7 4 22 5 21 6 20 7 19 8 8 9 9 10 10 11 11 12
REMARK SMILES IDX 17 13 16 14 15 15 13 16 12 17 18 18 23 19 2 20 1 21 3 22
REMARK SMILES IDX 14 23
REMARK H PARENT 14 24
REMARK Flexibility Score: inf
ROOT
ATOM      1  C   UNL     1     -13.413  10.875   5.606  1.00  0.00     0.062 C 
ATOM      2  C   UNL     1     -14.814  11.089   6.178  1.00  0.00     0.012 C 
ATOM      3  C   UNL     1     -15.438  12.121   5.260  1.00  0.00     0.005 C 
ATOM      4  C   UNL     1     -14.298  13.095   4.949  1.00  0.00    -0.001 C 
ATOM      5  C   UNL     1     -12.972  12.269   5.043  1.00  0.00    -0.020 C 
ATOM      6  C   UNL     1     -12.277  12.112   3.655  1.00  0.00     0.008 C 
ATOM      7  C   UNL     1     -13.271  11.857   2.509  1.00  0.00     0.005 C 
ATOM      8  C   UNL     1     -14.339  12.981   2.360  1.00  0.00     0.003 C 
ATOM      9  C   UNL     1     -14.443  13.876   3.617  1.00  0.00     0.000 C 
ATOM     10  C   UNL     1     -15.746  14.678   3.537  1.00  0.00     0.031 C 
ATOM     11  C   UNL     1     -15.790  15.470   2.262  1.00  0.00    -0.027 C 
ATOM     12  C   UNL     1     -15.143  15.099   1.130  1.00  0.00    -0.065 C 
ATOM     13  C   UNL     1     -14.230  13.857   1.050  1.00  0.00    -0.008 C 
ATOM     14  C   UNL     1     -12.774  14.373   0.810  1.00  0.00     0.014 C 
ATOM     15  C   UNL     1     -12.658  15.400  -0.337  1.00  0.00     0.033 C 
ATOM     16  C   UNL     1     -13.633  16.584  -0.175  1.00  0.00     0.118 C 
ATOM     17  C   UNL     1     -15.075  16.088  -0.016  1.00  0.00     0.063 C 
ATOM     18  C   UNL     1     -14.686  12.979  -0.147  1.00  0.00     0.016 C 
ATOM     19  C   UNL     1     -11.992  13.000   5.997  1.00  0.00     0.012 C 
ENDROOT
BRANCH   1  20
ATOM     20  C   UNL     1     -12.427  10.205   6.552  1.00  0.00     0.133 C 
ATOM     21  C   UNL     1     -12.749   9.913   7.992  1.00  0.00     0.088 C 
ATOM     22  O   UNL     1     -11.333   9.875   6.119  1.00  0.00    -0.300 OA
ENDBRANCH   1  20
BRANCH  16  23
ATOM     23  O   UNL     1     -13.277  17.359   0.943  1.00  0.00    -0.393 OA
ATOM     24  H   UNL     1     -12.491  16.917   1.359  1.00  0.00     0.210 HD
ENDBRANCH  16  23
TORSDOF 2
ENDMDL
