MODEL 1
REMARK VINA RESULT:    -4.990      0.000      0.000
REMARK INTER + INTRA:          -5.985
REMARK INTER:                  -5.719
REMARK INTRA:                  -0.266
REMARK UNBOUND:                -0.266
REMARK SMILES COc1ccc(C(C)=O)c(O)c1
REMARK SMILES IDX 6 1 10 2 12 3 3 4 4 5 5 6 7 7 8 8 9 9 11 10 2 12 1 13
REMARK H PARENT 11 11
REMARK Flexibility Score: inf
ROOT
ATOM      1  C   UNL     1       7.123 -62.105  -9.669  1.00  0.00     0.059 A 
ATOM      2  C   UNL     1       7.424 -62.530 -10.986  1.00  0.00     0.130 A 
ATOM      3  C   UNL     1       8.204 -63.675 -11.187  1.00  0.00     0.093 A 
ATOM      4  C   UNL     1       8.667 -64.432 -10.096  1.00  0.00     0.122 A 
ATOM      5  C   UNL     1       8.343 -64.025  -8.799  1.00  0.00     0.047 A 
ATOM      6  C   UNL     1       7.580 -62.876  -8.586  1.00  0.00     0.019 A 
ENDROOT
BRANCH   1   7
ATOM      7  C   UNL     1       6.375 -60.854  -9.398  1.00  0.00     0.163 C 
ATOM      8  C   UNL     1       5.948 -60.493  -8.008  1.00  0.00     0.093 C 
ATOM      9  O   UNL     1       6.160 -60.035 -10.331  1.00  0.00    -0.294 OA
ENDBRANCH   1   7
BRANCH   2  10
ATOM     10  O   UNL     1       6.944 -61.862 -12.115  1.00  0.00    -0.507 OA
ATOM     11  H   UNL     1       7.483 -61.177 -12.627  1.00  0.00     0.293 HD
ENDBRANCH   2  10
BRANCH   4  12
ATOM     12  O   UNL     1       9.445 -65.589 -10.256  1.00  0.00    -0.497 OA
ATOM     13  C   UNL     1       9.358 -66.468 -11.373  1.00  0.00     0.278 C 
ENDBRANCH   4  12
TORSDOF 3
ENDMDL
MODEL 2
REMARK VINA RESULT:    -4.833      1.684      2.308
REMARK INTER + INTRA:          -5.805
REMARK INTER:                  -5.507
REMARK INTRA:                  -0.298
REMARK UNBOUND:                -0.266
REMARK SMILES COc1ccc(C(C)=O)c(O)c1
REMARK SMILES IDX 6 1 10 2 12 3 3 4 4 5 5 6 7 7 8 8 9 9 11 10 2 12 1 13
REMARK H PARENT 11 11
REMARK Flexibility Score: inf
ROOT
ATOM      1  C   UNL     1       7.307 -62.411  -9.562  1.00  0.00     0.059 A 
ATOM      2  C   UNL     1       7.971 -63.372  -8.761  1.00  0.00     0.130 A 
ATOM      3  C   UNL     1       8.632 -64.448  -9.367  1.00  0.00     0.093 A 
ATOM      4  C   UNL     1       8.674 -64.570 -10.768  1.00  0.00     0.122 A 
ATOM      5  C   UNL     1       8.042 -63.604 -11.554  1.00  0.00     0.047 A 
ATOM      6  C   UNL     1       7.367 -62.536 -10.961  1.00  0.00     0.019 A 
ENDROOT
BRANCH   1   7
ATOM      7  C   UNL     1       6.522 -61.302  -8.970  1.00  0.00     0.163 C 
ATOM      8  C   UNL     1       6.051 -60.153  -9.809  1.00  0.00     0.093 C 
ATOM      9  O   UNL     1       6.170 -61.355  -7.762  1.00  0.00    -0.294 OA
ENDBRANCH   1   7
BRANCH   2  10
ATOM     10  O   UNL     1       8.023 -63.277  -7.368  1.00  0.00    -0.507 OA
ATOM     11  H   UNL     1       8.408 -62.480  -6.879  1.00  0.00     0.293 HD
ENDBRANCH   2  10
BRANCH   4  12
ATOM     12  O   UNL     1       9.330 -65.629 -11.413  1.00  0.00    -0.497 OA
ATOM     13  C   UNL     1       9.330 -66.976 -10.951  1.00  0.00     0.278 C 
ENDBRANCH   4  12
TORSDOF 3
ENDMDL
MODEL 3
REMARK VINA RESULT:    -4.811      1.334      4.642
REMARK INTER + INTRA:          -5.780
REMARK INTER:                  -5.550
REMARK INTRA:                  -0.230
REMARK UNBOUND:                -0.266
REMARK SMILES COc1ccc(C(C)=O)c(O)c1
REMARK SMILES IDX 6 1 10 2 12 3 3 4 4 5 5 6 7 7 8 8 9 9 11 10 2 12 1 13
REMARK H PARENT 11 11
REMARK Flexibility Score: inf
ROOT
ATOM      1  C   UNL     1       8.477 -64.569 -10.945  1.00  0.00     0.059 A 
ATOM      2  C   UNL     1       7.829 -63.601 -11.751  1.00  0.00     0.130 A 
ATOM      3  C   UNL     1       7.305 -62.443 -11.165  1.00  0.00     0.093 A 
ATOM      4  C   UNL     1       7.444 -62.209  -9.785  1.00  0.00     0.122 A 
ATOM      5  C   UNL     1       8.110 -63.152  -8.998  1.00  0.00     0.047 A 
ATOM      6  C   UNL     1       8.621 -64.318  -9.569  1.00  0.00     0.019 A 
ENDROOT
BRANCH   1   7
ATOM      7  C   UNL     1       8.973 -65.850 -11.500  1.00  0.00     0.163 C 
ATOM      8  C   UNL     1       9.459 -66.946 -10.602  1.00  0.00     0.093 C 
ATOM      9  O   UNL     1       8.914 -66.064 -12.741  1.00  0.00    -0.294 OA
ENDBRANCH   1   7
BRANCH   2  10
ATOM     10  O   UNL     1       7.712 -63.740 -13.137  1.00  0.00    -0.507 OA
ATOM     11  H   UNL     1       7.097 -63.172 -13.703  1.00  0.00     0.293 HD
ENDBRANCH   2  10
BRANCH   4  12
ATOM     12  O   UNL     1       6.939 -61.058  -9.161  1.00  0.00    -0.497 OA
ATOM     13  C   UNL     1       5.943 -60.210  -9.723  1.00  0.00     0.278 C 
ENDBRANCH   4  12
TORSDOF 3
ENDMDL
MODEL 4
REMARK VINA RESULT:    -4.672      1.569      2.571
REMARK INTER + INTRA:          -5.621
REMARK INTER:                  -5.299
REMARK INTRA:                  -0.322
REMARK UNBOUND:                -0.266
REMARK SMILES COc1ccc(C(C)=O)c(O)c1
REMARK SMILES IDX 6 1 10 2 12 3 3 4 4 5 5 6 7 7 8 8 9 9 11 10 2 12 1 13
REMARK H PARENT 11 11
REMARK Flexibility Score: inf
ROOT
ATOM      1  C   UNL     1       5.672 -61.049  -7.892  1.00  0.00     0.059 A 
ATOM      2  C   UNL     1       6.364 -60.900  -9.118  1.00  0.00     0.130 A 
ATOM      3  C   UNL     1       7.327 -61.844  -9.495  1.00  0.00     0.093 A 
ATOM      4  C   UNL     1       7.593 -62.963  -8.685  1.00  0.00     0.122 A 
ATOM      5  C   UNL     1       6.887 -63.122  -7.491  1.00  0.00     0.047 A 
ATOM      6  C   UNL     1       5.937 -62.178  -7.097  1.00  0.00     0.019 A 
ENDROOT
BRANCH   1   7
ATOM      7  C   UNL     1       4.707 -60.035  -7.406  1.00  0.00     0.163 C 
ATOM      8  C   UNL     1       4.603 -59.702  -5.949  1.00  0.00     0.093 C 
ATOM      9  O   UNL     1       4.015 -59.379  -8.229  1.00  0.00    -0.294 OA
ENDBRANCH   1   7
BRANCH   2  10
ATOM     10  O   UNL     1       6.104 -59.847 -10.000  1.00  0.00    -0.507 OA
ATOM     11  H   UNL     1       6.686 -59.023 -10.069  1.00  0.00     0.293 HD
ENDBRANCH   2  10
BRANCH   4  12
ATOM     12  O   UNL     1       8.545 -63.935  -9.030  1.00  0.00    -0.497 OA
ATOM     13  C   UNL     1       8.713 -64.465 -10.342  1.00  0.00     0.278 C 
ENDBRANCH   4  12
TORSDOF 3
ENDMDL
MODEL 5
REMARK VINA RESULT:    -4.657      1.988      5.050
REMARK INTER + INTRA:          -5.604
REMARK INTER:                  -5.297
REMARK INTRA:                  -0.306
REMARK UNBOUND:                -0.266
REMARK SMILES COc1ccc(C(C)=O)c(O)c1
REMARK SMILES IDX 6 1 10 2 12 3 3 4 4 5 5 6 7 7 8 8 9 9 11 10 2 12 1 13
REMARK H PARENT 11 11
REMARK Flexibility Score: inf
ROOT
ATOM      1  C   UNL     1       6.885 -61.996  -8.994  1.00  0.00     0.059 A 
ATOM      2  C   UNL     1       6.191 -60.762  -9.053  1.00  0.00     0.130 A 
ATOM      3  C   UNL     1       5.421 -60.343  -7.961  1.00  0.00     0.093 A 
ATOM      4  C   UNL     1       5.356 -61.116  -6.788  1.00  0.00     0.122 A 
ATOM      5  C   UNL     1       6.066 -62.317  -6.723  1.00  0.00     0.047 A 
ATOM      6  C   UNL     1       6.823 -62.753  -7.812  1.00  0.00     0.019 A 
ENDROOT
BRANCH   1   7
ATOM      7  C   UNL     1       7.643 -62.527 -10.151  1.00  0.00     0.163 C 
ATOM      8  C   UNL     1       8.639 -63.634  -9.982  1.00  0.00     0.093 C 
ATOM      9  O   UNL     1       7.396 -62.105 -11.313  1.00  0.00    -0.294 OA
ENDBRANCH   1   7
BRANCH   2  10
ATOM     10  O   UNL     1       6.263 -59.916 -10.162  1.00  0.00    -0.507 OA
ATOM     11  H   UNL     1       6.028 -58.933 -10.128  1.00  0.00     0.293 HD
ENDBRANCH   2  10
BRANCH   4  12
ATOM     12  O   UNL     1       4.602 -60.726  -5.669  1.00  0.00    -0.497 OA
ATOM     13  C   UNL     1       4.161 -59.395  -5.421  1.00  0.00     0.278 C 
ENDBRANCH   4  12
TORSDOF 3
ENDMDL
MODEL 6
REMARK VINA RESULT:    -4.463      2.507      3.986
REMARK INTER + INTRA:          -5.382
REMARK INTER:                  -5.040
REMARK INTRA:                  -0.341
REMARK UNBOUND:                -0.266
REMARK SMILES COc1ccc(C(C)=O)c(O)c1
REMARK SMILES IDX 6 1 10 2 12 3 3 4 4 5 5 6 7 7 8 8 9 9 11 10 2 12 1 13
REMARK H PARENT 11 11
REMARK Flexibility Score: inf
ROOT
ATOM      1  C   UNL     1       5.205 -60.501  -7.672  1.00  0.00     0.059 A 
ATOM      2  C   UNL     1       5.779 -61.754  -7.342  1.00  0.00     0.130 A 
ATOM      3  C   UNL     1       6.617 -62.399  -8.259  1.00  0.00     0.093 A 
ATOM      4  C   UNL     1       6.927 -61.803  -9.495  1.00  0.00     0.122 A 
ATOM      5  C   UNL     1       6.383 -60.554  -9.804  1.00  0.00     0.047 A 
ATOM      6  C   UNL     1       5.532 -59.909  -8.904  1.00  0.00     0.019 A 
ENDROOT
BRANCH   1   7
ATOM      7  C   UNL     1       4.245 -59.817  -6.775  1.00  0.00     0.163 C 
ATOM      8  C   UNL     1       2.867 -59.460  -7.244  1.00  0.00     0.093 C 
ATOM      9  O   UNL     1       4.551 -59.599  -5.573  1.00  0.00    -0.294 OA
ENDBRANCH   1   7
BRANCH   2  10
ATOM     10  O   UNL     1       5.564 -62.373  -6.108  1.00  0.00    -0.507 OA
ATOM     11  H   UNL     1       6.078 -62.136  -5.271  1.00  0.00     0.293 HD
ENDBRANCH   2  10
BRANCH   4  12
ATOM     12  O   UNL     1       7.768 -62.414 -10.438  1.00  0.00    -0.497 OA
ATOM     13  C   UNL     1       8.590 -63.545 -10.168  1.00  0.00     0.278 C 
ENDBRANCH   4  12
TORSDOF 3
ENDMDL
MODEL 7
REMARK VINA RESULT:    -4.441      2.337      5.561
REMARK INTER + INTRA:          -5.356
REMARK INTER:                  -5.048
REMARK INTRA:                  -0.308
REMARK UNBOUND:                -0.266
REMARK SMILES COc1ccc(C(C)=O)c(O)c1
REMARK SMILES IDX 6 1 10 2 12 3 3 4 4 5 5 6 7 7 8 8 9 9 11 10 2 12 1 13
REMARK H PARENT 11 11
REMARK Flexibility Score: inf
ROOT
ATOM      1  C   UNL     1       6.836 -62.202  -8.705  1.00  0.00     0.059 A 
ATOM      2  C   UNL     1       5.929 -62.101  -7.622  1.00  0.00     0.130 A 
ATOM      3  C   UNL     1       4.999 -61.054  -7.586  1.00  0.00     0.093 A 
ATOM      4  C   UNL     1       4.931 -60.117  -8.633  1.00  0.00     0.122 A 
ATOM      5  C   UNL     1       5.808 -60.237  -9.713  1.00  0.00     0.047 A 
ATOM      6  C   UNL     1       6.750 -61.267  -9.751  1.00  0.00     0.019 A 
ENDROOT
BRANCH   1   7
ATOM      7  C   UNL     1       7.894 -63.238  -8.749  1.00  0.00     0.163 C 
ATOM      8  C   UNL     1       8.578 -63.592 -10.035  1.00  0.00     0.093 C 
ATOM      9  O   UNL     1       8.291 -63.780  -7.683  1.00  0.00    -0.294 OA
ENDBRANCH   1   7
BRANCH   2  10
ATOM     10  O   UNL     1       5.899 -63.034  -6.582  1.00  0.00    -0.507 OA
ATOM     11  H   UNL     1       5.281 -62.960  -5.786  1.00  0.00     0.293 HD
ENDBRANCH   2  10
BRANCH   4  12
ATOM     12  O   UNL     1       4.010 -59.058  -8.638  1.00  0.00    -0.497 OA
ATOM     13  C   UNL     1       2.710 -59.126  -9.215  1.00  0.00     0.278 C 
ENDBRANCH   4  12
TORSDOF 3
ENDMDL
MODEL 8
REMARK VINA RESULT:    -4.198      3.184      6.519
REMARK INTER + INTRA:          -5.077
REMARK INTER:                  -4.728
REMARK INTRA:                  -0.349
REMARK UNBOUND:                -0.266
REMARK SMILES COc1ccc(C(C)=O)c(O)c1
REMARK SMILES IDX 6 1 10 2 12 3 3 4 4 5 5 6 7 7 8 8 9 9 11 10 2 12 1 13
REMARK H PARENT 11 11
REMARK Flexibility Score: inf
ROOT
ATOM      1  C   UNL     1       4.952 -60.180  -8.554  1.00  0.00     0.059 A 
ATOM      2  C   UNL     1       3.575 -60.108  -8.876  1.00  0.00     0.130 A 
ATOM      3  C   UNL     1       2.635 -59.857  -7.869  1.00  0.00     0.093 A 
ATOM      4  C   UNL     1       3.045 -59.641  -6.540  1.00  0.00     0.122 A 
ATOM      5  C   UNL     1       4.406 -59.684  -6.232  1.00  0.00     0.047 A 
ATOM      6  C   UNL     1       5.351 -59.950  -7.226  1.00  0.00     0.019 A 
ENDROOT
BRANCH   1   7
ATOM      7  C   UNL     1       5.978 -60.527  -9.565  1.00  0.00     0.163 C 
ATOM      8  C   UNL     1       7.013 -61.575  -9.289  1.00  0.00     0.093 C 
ATOM      9  O   UNL     1       5.942 -59.997 -10.707  1.00  0.00    -0.294 OA
ENDBRANCH   1   7
BRANCH   2  10
ATOM     10  O   UNL     1       3.105 -60.249 -10.185  1.00  0.00    -0.507 OA
ATOM     11  H   UNL     1       3.329 -59.603 -10.929  1.00  0.00     0.293 HD
ENDBRANCH   2  10
BRANCH   4  12
ATOM     12  O   UNL     1       2.136 -59.381  -5.504  1.00  0.00    -0.497 OA
ATOM     13  C   UNL     1       2.506 -58.940  -4.201  1.00  0.00     0.278 C 
ENDBRANCH   4  12
TORSDOF 3
ENDMDL
MODEL 9
REMARK VINA RESULT:    -4.076      3.310      6.129
REMARK INTER + INTRA:          -4.938
REMARK INTER:                  -4.601
REMARK INTRA:                  -0.337
REMARK UNBOUND:                -0.266
REMARK SMILES COc1ccc(C(C)=O)c(O)c1
REMARK SMILES IDX 6 1 10 2 12 3 3 4 4 5 5 6 7 7 8 8 9 9 11 10 2 12 1 13
REMARK H PARENT 11 11
REMARK Flexibility Score: inf
ROOT
ATOM      1  C   UNL     1       5.365 -61.419  -7.676  1.00  0.00     0.059 A 
ATOM      2  C   UNL     1       5.420 -60.391  -8.648  1.00  0.00     0.130 A 
ATOM      3  C   UNL     1       4.333 -59.524  -8.809  1.00  0.00     0.093 A 
ATOM      4  C   UNL     1       3.194 -59.638  -7.991  1.00  0.00     0.122 A 
ATOM      5  C   UNL     1       3.156 -60.635  -7.013  1.00  0.00     0.047 A 
ATOM      6  C   UNL     1       4.228 -61.516  -6.855  1.00  0.00     0.019 A 
ENDROOT
BRANCH   1   7
ATOM      7  C   UNL     1       6.450 -62.416  -7.523  1.00  0.00     0.163 C 
ATOM      8  C   UNL     1       6.782 -63.001  -6.184  1.00  0.00     0.093 C 
ATOM      9  O   UNL     1       7.058 -62.846  -8.540  1.00  0.00    -0.294 OA
ENDBRANCH   1   7
BRANCH   2  10
ATOM     10  O   UNL     1       6.545 -60.181  -9.451  1.00  0.00    -0.507 OA
ATOM     11  H   UNL     1       6.525 -60.233 -10.460  1.00  0.00     0.293 HD
ENDBRANCH   2  10
BRANCH   4  12
ATOM     12  O   UNL     1       2.087 -58.785  -8.115  1.00  0.00    -0.497 OA
ATOM     13  C   UNL     1       1.783 -58.028  -9.283  1.00  0.00     0.278 C 
ENDBRANCH   4  12
TORSDOF 3
ENDMDL
