MODEL 1
REMARK VINA RESULT:    -3.570      0.000      0.000
REMARK INTER + INTRA:          -9.284
REMARK INTER:                  -6.909
REMARK INTRA:                  -2.375
REMARK UNBOUND:                -2.375
REMARK SMILES CCCCCCCCCCCCCCCCCC(=O)[O-]
REMARK SMILES IDX 10 1 11 2 12 3 13 4 14 5 15 6 16 7 17 8 18 9 19 10 20 11
REMARK SMILES IDX 9 12 8 13 7 14 6 15 5 16 4 17 3 18 2 19 1 20
REMARK H PARENT
REMARK Flexibility Score: inf
ROOT
ATOM      1  C   UNL     1    -103.197  30.446 -35.792  1.00  0.00     0.000 C 
ENDROOT
BRANCH   1   2
ATOM      2  C   UNL     1    -103.037  30.753 -34.289  1.00  0.00     0.000 C 
BRANCH   2   3
ATOM      3  C   UNL     1    -101.790  31.578 -33.927  1.00  0.00     0.000 C 
BRANCH   3   4
ATOM      4  C   UNL     1    -100.503  30.735 -33.912  1.00  0.00     0.000 C 
BRANCH   4   5
ATOM      5  C   UNL     1     -99.555  31.078 -35.073  1.00  0.00     0.000 C 
BRANCH   5   6
ATOM      6  C   UNL     1     -99.521  29.979 -36.150  1.00  0.00     0.000 C 
BRANCH   6   7
ATOM      7  C   UNL     1     -99.631  30.543 -37.578  1.00  0.00     0.006 C 
BRANCH   7   8
ATOM      8  C   UNL     1     -99.719  32.075 -37.652  1.00  0.00     0.053 C 
BRANCH   8   9
ATOM      9  C   UNL     1     -98.454  32.687 -38.172  1.00  0.00     0.041 C 
ATOM     10  O   UNL     1     -97.573  33.098 -37.372  1.00  0.00    -0.550 OA
ATOM     11  O   UNL     1     -98.235  32.773 -39.541  1.00  0.00    -0.550 OA
ENDBRANCH   8   9
ENDBRANCH   7   8
ENDBRANCH   6   7
ENDBRANCH   5   6
ENDBRANCH   4   5
ENDBRANCH   3   4
ENDBRANCH   2   3
ENDBRANCH   1   2
BRANCH   1  12
ATOM     12  C   UNL     1    -103.140  31.676 -36.720  1.00  0.00     0.000 C 
BRANCH  12  13
ATOM     13  C   UNL     1    -103.409  31.380 -38.208  1.00  0.00    -0.000 C 
BRANCH  13  14
ATOM     14  C   UNL     1    -104.728  31.959 -38.757  1.00  0.00    -0.000 C 
BRANCH  14  15
ATOM     15  C   UNL     1    -105.420  32.988 -37.841  1.00  0.00    -0.000 C 
BRANCH  15  16
ATOM     16  C   UNL     1    -106.954  32.870 -37.770  1.00  0.00    -0.000 C 
BRANCH  16  17
ATOM     17  C   UNL     1    -107.488  32.877 -36.330  1.00  0.00    -0.000 C 
BRANCH  17  18
ATOM     18  C   UNL     1    -106.408  32.412 -35.343  1.00  0.00    -0.000 C 
BRANCH  18  19
ATOM     19  C   UNL     1    -106.566  33.047 -33.952  1.00  0.00    -0.003 C 
ATOM     20  C   UNL     1    -105.230  33.459 -33.334  1.00  0.00     0.004 C 
ENDBRANCH  18  19
ENDBRANCH  17  18
ENDBRANCH  16  17
ENDBRANCH  15  16
ENDBRANCH  14  15
ENDBRANCH  13  14
ENDBRANCH  12  13
ENDBRANCH   1  12
TORSDOF 16
ENDMDL
MODEL 2
REMARK VINA RESULT:    -3.568      2.353      6.782
REMARK INTER + INTRA:          -9.280
REMARK INTER:                  -7.749
REMARK INTRA:                  -1.531
REMARK UNBOUND:                -2.375
REMARK SMILES CCCCCCCCCCCCCCCCCC(=O)[O-]
REMARK SMILES IDX 10 1 11 2 12 3 13 4 14 5 15 6 16 7 17 8 18 9 19 10 20 11
REMARK SMILES IDX 9 12 8 13 7 14 6 15 5 16 4 17 3 18 2 19 1 20
REMARK H PARENT
REMARK Flexibility Score: inf
ROOT
ATOM      1  C   UNL     1    -103.433  30.906 -35.038  1.00  0.00     0.000 C 
ENDROOT
BRANCH   1   2
ATOM      2  C   UNL     1    -103.879  32.370 -35.226  1.00  0.00     0.000 C 
BRANCH   2   3
ATOM      3  C   UNL     1    -104.733  32.938 -34.079  1.00  0.00     0.000 C 
BRANCH   3   4
ATOM      4  C   UNL     1    -106.195  32.460 -34.134  1.00  0.00     0.000 C 
BRANCH   4   5
ATOM      5  C   UNL     1    -106.604  31.963 -35.530  1.00  0.00     0.000 C 
BRANCH   5   6
ATOM      6  C   UNL     1    -107.461  32.989 -36.292  1.00  0.00     0.000 C 
BRANCH   6   7
ATOM      7  C   UNL     1    -107.148  33.024 -37.799  1.00  0.00     0.006 C 
BRANCH   7   8
ATOM      8  C   UNL     1    -105.655  33.169 -38.135  1.00  0.00     0.053 C 
BRANCH   8   9
ATOM      9  C   UNL     1    -105.094  31.925 -38.752  1.00  0.00     0.041 C 
ATOM     10  O   UNL     1    -103.853  31.710 -38.731  1.00  0.00    -0.550 OA
ATOM     11  O   UNL     1    -105.945  30.988 -39.325  1.00  0.00    -0.550 OA
ENDBRANCH   8   9
ENDBRANCH   7   8
ENDBRANCH   6   7
ENDBRANCH   5   6
ENDBRANCH   4   5
ENDBRANCH   3   4
ENDBRANCH   2   3
ENDBRANCH   1   2
BRANCH   1  12
ATOM     12  C   UNL     1    -103.176  30.483 -33.578  1.00  0.00     0.000 C 
BRANCH  12  13
ATOM     13  C   UNL     1    -101.724  30.074 -33.267  1.00  0.00    -0.000 C 
BRANCH  13  14
ATOM     14  C   UNL     1    -100.656  31.107 -33.678  1.00  0.00    -0.000 C 
BRANCH  14  15
ATOM     15  C   UNL     1     -99.526  30.557 -34.572  1.00  0.00    -0.000 C 
BRANCH  15  16
ATOM     16  C   UNL     1     -99.835  30.544 -36.080  1.00  0.00    -0.000 C 
BRANCH  16  17
ATOM     17  C   UNL     1     -99.926  31.954 -36.684  1.00  0.00    -0.000 C 
BRANCH  17  18
ATOM     18  C   UNL     1     -99.309  31.989 -38.090  1.00  0.00    -0.000 C 
BRANCH  18  19
ATOM     19  C   UNL     1     -98.359  33.180 -38.289  1.00  0.00    -0.003 C 
ATOM     20  C   UNL     1     -97.205  32.864 -39.239  1.00  0.00     0.004 C 
ENDBRANCH  18  19
ENDBRANCH  17  18
ENDBRANCH  16  17
ENDBRANCH  15  16
ENDBRANCH  14  15
ENDBRANCH  13  14
ENDBRANCH  12  13
ENDBRANCH   1  12
TORSDOF 16
ENDMDL
MODEL 3
REMARK VINA RESULT:    -3.551      3.697      7.328
REMARK INTER + INTRA:          -9.247
REMARK INTER:                  -6.990
REMARK INTRA:                  -2.258
REMARK UNBOUND:                -2.375
REMARK SMILES CCCCCCCCCCCCCCCCCC(=O)[O-]
REMARK SMILES IDX 10 1 11 2 12 3 13 4 14 5 15 6 16 7 17 8 18 9 19 10 20 11
REMARK SMILES IDX 9 12 8 13 7 14 6 15 5 16 4 17 3 18 2 19 1 20
REMARK H PARENT
REMARK Flexibility Score: inf
ROOT
ATOM      1  C   UNL     1    -103.256  31.939 -35.315  1.00  0.00     0.000 C 
ENDROOT
BRANCH   1   2
ATOM      2  C   UNL     1    -103.548  30.447 -35.574  1.00  0.00     0.000 C 
BRANCH   2   3
ATOM      3  C   UNL     1    -103.733  30.071 -37.055  1.00  0.00     0.000 C 
BRANCH   3   4
ATOM      4  C   UNL     1    -103.234  31.167 -38.013  1.00  0.00     0.000 C 
BRANCH   4   5
ATOM      5  C   UNL     1    -104.353  31.729 -38.905  1.00  0.00     0.000 C 
BRANCH   5   6
ATOM      6  C   UNL     1    -105.752  31.517 -38.298  1.00  0.00     0.000 C 
BRANCH   6   7
ATOM      7  C   UNL     1    -106.412  32.834 -37.852  1.00  0.00     0.006 C 
BRANCH   7   8
ATOM      8  C   UNL     1    -106.766  32.894 -36.358  1.00  0.00     0.053 C 
BRANCH   8   9
ATOM      9  C   UNL     1    -108.087  32.249 -36.068  1.00  0.00     0.041 C 
ATOM     10  O   UNL     1    -108.374  31.894 -34.894  1.00  0.00    -0.550 OA
ATOM     11  O   UNL     1    -109.013  32.070 -37.087  1.00  0.00    -0.550 OA
ENDBRANCH   8   9
ENDBRANCH   7   8
ENDBRANCH   6   7
ENDBRANCH   5   6
ENDBRANCH   4   5
ENDBRANCH   3   4
ENDBRANCH   2   3
ENDBRANCH   1   2
BRANCH   1  12
ATOM     12  C   UNL     1    -102.008  32.220 -34.455  1.00  0.00     0.000 C 
BRANCH  12  13
ATOM     13  C   UNL     1    -101.228  30.968 -34.013  1.00  0.00    -0.000 C 
BRANCH  13  14
ATOM     14  C   UNL     1     -99.889  30.746 -34.744  1.00  0.00    -0.000 C 
BRANCH  14  15
ATOM     15  C   UNL     1     -99.981  29.902 -36.032  1.00  0.00    -0.000 C 
BRANCH  15  16
ATOM     16  C   UNL     1     -99.494  30.608 -37.310  1.00  0.00    -0.000 C 
BRANCH  16  17
ATOM     17  C   UNL     1     -99.815  32.110 -37.322  1.00  0.00    -0.000 C 
BRANCH  17  18
ATOM     18  C   UNL     1     -98.527  32.945 -37.378  1.00  0.00    -0.000 C 
BRANCH  18  19
ATOM     19  C   UNL     1     -98.240  33.495 -38.784  1.00  0.00    -0.003 C 
ATOM     20  C   UNL     1     -97.126  32.733 -39.501  1.00  0.00     0.004 C 
ENDBRANCH  18  19
ENDBRANCH  17  18
ENDBRANCH  16  17
ENDBRANCH  15  16
ENDBRANCH  14  15
ENDBRANCH  13  14
ENDBRANCH  12  13
ENDBRANCH   1  12
TORSDOF 16
ENDMDL
MODEL 4
REMARK VINA RESULT:    -3.413      3.407      7.459
REMARK INTER + INTRA:          -8.981
REMARK INTER:                  -6.850
REMARK INTRA:                  -2.131
REMARK UNBOUND:                -2.375
REMARK SMILES CCCCCCCCCCCCCCCCCC(=O)[O-]
REMARK SMILES IDX 10 1 11 2 12 3 13 4 14 5 15 6 16 7 17 8 18 9 19 10 20 11
REMARK SMILES IDX 9 12 8 13 7 14 6 15 5 16 4 17 3 18 2 19 1 20
REMARK H PARENT
REMARK Flexibility Score: inf
ROOT
ATOM      1  C   UNL     1    -102.964  32.478 -35.844  1.00  0.00     0.000 C 
ENDROOT
BRANCH   1   2
ATOM      2  C   UNL     1    -103.151  31.516 -37.034  1.00  0.00     0.000 C 
BRANCH   2   3
ATOM      3  C   UNL     1    -104.453  31.718 -37.830  1.00  0.00     0.000 C 
BRANCH   3   4
ATOM      4  C   UNL     1    -105.159  33.042 -37.489  1.00  0.00     0.000 C 
BRANCH   4   5
ATOM      5  C   UNL     1    -106.595  32.835 -36.981  1.00  0.00     0.000 C 
BRANCH   5   6
ATOM      6  C   UNL     1    -106.655  31.926 -35.740  1.00  0.00     0.000 C 
BRANCH   6   7
ATOM      7  C   UNL     1    -107.090  32.681 -34.471  1.00  0.00     0.006 C 
BRANCH   7   8
ATOM      8  C   UNL     1    -105.927  33.201 -33.611  1.00  0.00     0.053 C 
BRANCH   8   9
ATOM      9  C   UNL     1    -106.071  32.807 -32.173  1.00  0.00     0.041 C 
ATOM     10  O   UNL     1    -105.278  31.973 -31.661  1.00  0.00    -0.550 OA
ATOM     11  O   UNL     1    -107.062  33.385 -31.390  1.00  0.00    -0.550 OA
ENDBRANCH   8   9
ENDBRANCH   7   8
ENDBRANCH   6   7
ENDBRANCH   5   6
ENDBRANCH   4   5
ENDBRANCH   3   4
ENDBRANCH   2   3
ENDBRANCH   1   2
BRANCH   1  12
ATOM     12  C   UNL     1    -102.764  31.795 -34.476  1.00  0.00     0.000 C 
BRANCH  12  13
ATOM     13  C   UNL     1    -101.832  30.569 -34.492  1.00  0.00    -0.000 C 
BRANCH  13  14
ATOM     14  C   UNL     1    -100.376  30.856 -34.076  1.00  0.00    -0.000 C 
BRANCH  14  15
ATOM     15  C   UNL     1     -99.338  30.746 -35.211  1.00  0.00    -0.000 C 
BRANCH  15  16
ATOM     16  C   UNL     1     -99.835  30.033 -36.482  1.00  0.00    -0.000 C 
BRANCH  16  17
ATOM     17  C   UNL     1     -99.535  30.821 -37.765  1.00  0.00    -0.000 C 
BRANCH  17  18
ATOM     18  C   UNL     1     -99.523  32.332 -37.491  1.00  0.00    -0.000 C 
BRANCH  18  19
ATOM     19  C   UNL     1     -98.162  32.977 -37.795  1.00  0.00    -0.003 C 
ATOM     20  C   UNL     1     -97.944  33.222 -39.288  1.00  0.00     0.004 C 
ENDBRANCH  18  19
ENDBRANCH  17  18
ENDBRANCH  16  17
ENDBRANCH  15  16
ENDBRANCH  14  15
ENDBRANCH  13  14
ENDBRANCH  12  13
ENDBRANCH   1  12
TORSDOF 16
ENDMDL
MODEL 5
REMARK VINA RESULT:    -3.389      2.540      6.446
REMARK INTER + INTRA:          -8.934
REMARK INTER:                  -7.131
REMARK INTRA:                  -1.804
REMARK UNBOUND:                -2.375
REMARK SMILES CCCCCCCCCCCCCCCCCC(=O)[O-]
REMARK SMILES IDX 10 1 11 2 12 3 13 4 14 5 15 6 16 7 17 8 18 9 19 10 20 11
REMARK SMILES IDX 9 12 8 13 7 14 6 15 5 16 4 17 3 18 2 19 1 20
REMARK H PARENT
REMARK Flexibility Score: inf
ROOT
ATOM      1  C   UNL     1    -102.384  31.886 -33.678  1.00  0.00     0.000 C 
ENDROOT
BRANCH   1   2
ATOM      2  C   UNL     1    -103.385  31.524 -32.563  1.00  0.00     0.000 C 
BRANCH   2   3
ATOM      3  C   UNL     1    -104.266  32.690 -32.080  1.00  0.00     0.000 C 
BRANCH   3   4
ATOM      4  C   UNL     1    -105.693  32.634 -32.655  1.00  0.00     0.000 C 
BRANCH   4   5
ATOM      5  C   UNL     1    -106.012  31.284 -33.319  1.00  0.00     0.000 C 
BRANCH   5   6
ATOM      6  C   UNL     1    -106.519  31.444 -34.763  1.00  0.00     0.000 C 
BRANCH   6   7
ATOM      7  C   UNL     1    -105.933  32.682 -35.466  1.00  0.00     0.006 C 
BRANCH   7   8
ATOM      8  C   UNL     1    -104.709  32.392 -36.349  1.00  0.00     0.053 C 
BRANCH   8   9
ATOM      9  C   UNL     1    -104.994  32.632 -37.800  1.00  0.00     0.041 C 
ATOM     10  O   UNL     1    -105.804  33.531 -38.147  1.00  0.00    -0.550 OA
ATOM     11  O   UNL     1    -104.339  31.884 -38.770  1.00  0.00    -0.550 OA
ENDBRANCH   8   9
ENDBRANCH   7   8
ENDBRANCH   6   7
ENDBRANCH   5   6
ENDBRANCH   4   5
ENDBRANCH   3   4
ENDBRANCH   2   3
ENDBRANCH   1   2
BRANCH   1  12
ATOM     12  C   UNL     1    -101.041  31.132 -33.620  1.00  0.00     0.000 C 
BRANCH  12  13
ATOM     13  C   UNL     1    -100.860  30.042 -34.694  1.00  0.00    -0.000 C 
BRANCH  13  14
ATOM     14  C   UNL     1    -101.960  30.005 -35.773  1.00  0.00    -0.000 C 
BRANCH  14  15
ATOM     15  C   UNL     1    -101.498  30.398 -37.190  1.00  0.00    -0.000 C 
BRANCH  15  16
ATOM     16  C   UNL     1    -100.033  30.860 -37.294  1.00  0.00    -0.000 C 
BRANCH  16  17
ATOM     17  C   UNL     1     -99.868  32.373 -37.082  1.00  0.00    -0.000 C 
BRANCH  17  18
ATOM     18  C   UNL     1     -98.416  32.806 -37.331  1.00  0.00    -0.000 C 
BRANCH  18  19
ATOM     19  C   UNL     1     -98.219  33.443 -38.716  1.00  0.00    -0.003 C 
ATOM     20  C   UNL     1     -97.164  32.722 -39.555  1.00  0.00     0.004 C 
ENDBRANCH  18  19
ENDBRANCH  17  18
ENDBRANCH  16  17
ENDBRANCH  15  16
ENDBRANCH  14  15
ENDBRANCH  13  14
ENDBRANCH  12  13
ENDBRANCH   1  12
TORSDOF 16
ENDMDL
MODEL 6
REMARK VINA RESULT:    -3.369      1.288      1.977
REMARK INTER + INTRA:          -8.895
REMARK INTER:                  -6.395
REMARK INTRA:                  -2.500
REMARK UNBOUND:                -2.375
REMARK SMILES CCCCCCCCCCCCCCCCCC(=O)[O-]
REMARK SMILES IDX 10 1 11 2 12 3 13 4 14 5 15 6 16 7 17 8 18 9 19 10 20 11
REMARK SMILES IDX 9 12 8 13 7 14 6 15 5 16 4 17 3 18 2 19 1 20
REMARK H PARENT
REMARK Flexibility Score: inf
ROOT
ATOM      1  C   UNL     1    -103.978  33.156 -35.617  1.00  0.00     0.000 C 
ENDROOT
BRANCH   1   2
ATOM      2  C   UNL     1    -104.323  32.685 -34.189  1.00  0.00     0.000 C 
BRANCH   2   3
ATOM      3  C   UNL     1    -103.856  31.259 -33.848  1.00  0.00     0.000 C 
BRANCH   3   4
ATOM      4  C   UNL     1    -102.646  31.241 -32.898  1.00  0.00     0.000 C 
BRANCH   4   5
ATOM      5  C   UNL     1    -101.309  31.411 -33.639  1.00  0.00     0.000 C 
BRANCH   5   6
ATOM      6  C   UNL     1    -101.083  30.323 -34.702  1.00  0.00     0.000 C 
BRANCH   6   7
ATOM      7  C   UNL     1     -99.960  30.683 -35.693  1.00  0.00     0.006 C 
BRANCH   7   8
ATOM      8  C   UNL     1    -100.090  32.081 -36.319  1.00  0.00     0.053 C 
BRANCH   8   9
ATOM      9  C   UNL     1     -99.353  32.185 -37.619  1.00  0.00     0.041 C 
ATOM     10  O   UNL     1     -99.353  31.219 -38.426  1.00  0.00    -0.550 OA
ATOM     11  O   UNL     1     -98.693  33.361 -37.952  1.00  0.00    -0.550 OA
ENDBRANCH   8   9
ENDBRANCH   7   8
ENDBRANCH   6   7
ENDBRANCH   5   6
ENDBRANCH   4   5
ENDBRANCH   3   4
ENDBRANCH   2   3
ENDBRANCH   1   2
BRANCH   1  12
ATOM     12  C   UNL     1    -103.791  32.027 -36.650  1.00  0.00     0.000 C 
BRANCH  12  13
ATOM     13  C   UNL     1    -104.619  32.182 -37.939  1.00  0.00    -0.000 C 
BRANCH  13  14
ATOM     14  C   UNL     1    -105.543  33.415 -37.973  1.00  0.00    -0.000 C 
BRANCH  14  15
ATOM     15  C   UNL     1    -107.031  33.124 -37.693  1.00  0.00    -0.000 C 
BRANCH  15  16
ATOM     16  C   UNL     1    -107.330  31.710 -37.160  1.00  0.00    -0.000 C 
BRANCH  16  17
ATOM     17  C   UNL     1    -107.728  31.702 -35.677  1.00  0.00    -0.000 C 
BRANCH  17  18
ATOM     18  C   UNL     1    -107.923  33.132 -35.153  1.00  0.00    -0.000 C 
BRANCH  18  19
ATOM     19  C   UNL     1    -108.044  33.190 -33.622  1.00  0.00    -0.003 C 
ATOM     20  C   UNL     1    -107.757  31.845 -32.955  1.00  0.00     0.004 C 
ENDBRANCH  18  19
ENDBRANCH  17  18
ENDBRANCH  16  17
ENDBRANCH  15  16
ENDBRANCH  14  15
ENDBRANCH  13  14
ENDBRANCH  12  13
ENDBRANCH   1  12
TORSDOF 16
ENDMDL
MODEL 7
REMARK VINA RESULT:    -3.333      3.493      5.710
REMARK INTER + INTRA:          -8.826
REMARK INTER:                  -6.580
REMARK INTRA:                  -2.246
REMARK UNBOUND:                -2.375
REMARK SMILES CCCCCCCCCCCCCCCCCC(=O)[O-]
REMARK SMILES IDX 10 1 11 2 12 3 13 4 14 5 15 6 16 7 17 8 18 9 19 10 20 11
REMARK SMILES IDX 9 12 8 13 7 14 6 15 5 16 4 17 3 18 2 19 1 20
REMARK H PARENT
REMARK Flexibility Score: inf
ROOT
ATOM      1  C   UNL     1     -99.974  32.022 -36.142  1.00  0.00     0.000 C 
ENDROOT
BRANCH   1   2
ATOM      2  C   UNL     1     -99.104  31.267 -35.117  1.00  0.00     0.000 C 
BRANCH   2   3
ATOM      3  C   UNL     1     -99.717  29.958 -34.587  1.00  0.00     0.000 C 
BRANCH   3   4
ATOM      4  C   UNL     1    -101.251  30.018 -34.488  1.00  0.00     0.000 C 
BRANCH   4   5
ATOM      5  C   UNL     1    -101.738  30.519 -33.118  1.00  0.00     0.000 C 
BRANCH   5   6
ATOM      6  C   UNL     1    -102.472  31.868 -33.211  1.00  0.00     0.000 C 
BRANCH   6   7
ATOM      7  C   UNL     1    -103.916  31.796 -32.683  1.00  0.00     0.006 C 
BRANCH   7   8
ATOM      8  C   UNL     1    -104.759  33.050 -32.966  1.00  0.00     0.053 C 
BRANCH   8   9
ATOM      9  C   UNL     1    -106.228  32.759 -32.930  1.00  0.00     0.041 C 
ATOM     10  O   UNL     1    -106.715  32.066 -31.997  1.00  0.00    -0.550 OA
ATOM     11  O   UNL     1    -107.065  33.279 -33.909  1.00  0.00    -0.550 OA
ENDBRANCH   8   9
ENDBRANCH   7   8
ENDBRANCH   6   7
ENDBRANCH   5   6
ENDBRANCH   4   5
ENDBRANCH   3   4
ENDBRANCH   2   3
ENDBRANCH   1   2
BRANCH   1  12
ATOM     12  C   UNL     1     -99.213  32.576 -37.363  1.00  0.00     0.000 C 
BRANCH  12  13
ATOM     13  C   UNL     1     -99.162  31.633 -38.579  1.00  0.00    -0.000 C 
BRANCH  13  14
ATOM     14  C   UNL     1     -99.881  30.283 -38.385  1.00  0.00    -0.000 C 
BRANCH  14  15
ATOM     15  C   UNL     1    -101.227  30.147 -39.124  1.00  0.00    -0.000 C 
BRANCH  15  16
ATOM     16  C   UNL     1    -102.468  30.094 -38.214  1.00  0.00    -0.000 C 
BRANCH  16  17
ATOM     17  C   UNL     1    -103.174  31.452 -38.087  1.00  0.00    -0.000 C 
BRANCH  17  18
ATOM     18  C   UNL     1    -103.848  31.593 -36.714  1.00  0.00    -0.000 C 
BRANCH  18  19
ATOM     19  C   UNL     1    -104.667  32.888 -36.588  1.00  0.00    -0.003 C 
ATOM     20  C   UNL     1    -105.480  33.197 -37.845  1.00  0.00     0.004 C 
ENDBRANCH  18  19
ENDBRANCH  17  18
ENDBRANCH  16  17
ENDBRANCH  15  16
ENDBRANCH  14  15
ENDBRANCH  13  14
ENDBRANCH  12  13
ENDBRANCH   1  12
TORSDOF 16
ENDMDL
MODEL 8
REMARK VINA RESULT:    -3.237      4.148      7.299
REMARK INTER + INTRA:          -8.639
REMARK INTER:                  -6.765
REMARK INTRA:                  -1.874
REMARK UNBOUND:                -2.375
REMARK SMILES CCCCCCCCCCCCCCCCCC(=O)[O-]
REMARK SMILES IDX 10 1 11 2 12 3 13 4 14 5 15 6 16 7 17 8 18 9 19 10 20 11
REMARK SMILES IDX 9 12 8 13 7 14 6 15 5 16 4 17 3 18 2 19 1 20
REMARK H PARENT
REMARK Flexibility Score: inf
ROOT
ATOM      1  C   UNL     1    -104.317  32.721 -36.216  1.00  0.00     0.000 C 
ENDROOT
BRANCH   1   2
ATOM      2  C   UNL     1    -104.157  31.755 -35.026  1.00  0.00     0.000 C 
BRANCH   2   3
ATOM      3  C   UNL     1    -102.990  32.084 -34.078  1.00  0.00     0.000 C 
BRANCH   3   4
ATOM      4  C   UNL     1    -103.218  31.558 -32.650  1.00  0.00     0.000 C 
BRANCH   4   5
ATOM      5  C   UNL     1    -104.604  31.927 -32.096  1.00  0.00     0.000 C 
BRANCH   5   6
ATOM      6  C   UNL     1    -104.661  33.368 -31.560  1.00  0.00     0.000 C 
BRANCH   6   7
ATOM      7  C   UNL     1    -105.493  34.303 -32.456  1.00  0.00     0.006 C 
BRANCH   7   8
ATOM      8  C   UNL     1    -106.714  33.637 -33.110  1.00  0.00     0.053 C 
BRANCH   8   9
ATOM      9  C   UNL     1    -107.960  34.448 -32.931  1.00  0.00     0.041 C 
ATOM     10  O   UNL     1    -108.793  34.545 -33.871  1.00  0.00    -0.550 OA
ATOM     11  O   UNL     1    -108.217  35.071 -31.717  1.00  0.00    -0.550 OA
ENDBRANCH   8   9
ENDBRANCH   7   8
ENDBRANCH   6   7
ENDBRANCH   5   6
ENDBRANCH   4   5
ENDBRANCH   3   4
ENDBRANCH   2   3
ENDBRANCH   1   2
BRANCH   1  12
ATOM     12  C   UNL     1    -104.383  32.046 -37.601  1.00  0.00     0.000 C 
BRANCH  12  13
ATOM     13  C   UNL     1    -103.531  30.771 -37.744  1.00  0.00    -0.000 C 
BRANCH  13  14
ATOM     14  C   UNL     1    -102.503  30.802 -38.892  1.00  0.00    -0.000 C 
BRANCH  14  15
ATOM     15  C   UNL     1    -101.031  30.658 -38.455  1.00  0.00    -0.000 C 
BRANCH  15  16
ATOM     16  C   UNL     1    -100.765  30.921 -36.962  1.00  0.00    -0.000 C 
BRANCH  16  17
ATOM     17  C   UNL     1    -100.151  32.304 -36.699  1.00  0.00    -0.000 C 
BRANCH  17  18
ATOM     18  C   UNL     1     -98.687  32.351 -37.162  1.00  0.00    -0.000 C 
BRANCH  18  19
ATOM     19  C   UNL     1     -98.459  33.361 -38.297  1.00  0.00    -0.003 C 
ATOM     20  C   UNL     1     -97.363  32.921 -39.268  1.00  0.00     0.004 C 
ENDBRANCH  18  19
ENDBRANCH  17  18
ENDBRANCH  16  17
ENDBRANCH  15  16
ENDBRANCH  14  15
ENDBRANCH  13  14
ENDBRANCH  12  13
ENDBRANCH   1  12
TORSDOF 16
ENDMDL
MODEL 9
REMARK VINA RESULT:    -3.171      3.178      7.175
REMARK INTER + INTRA:          -8.512
REMARK INTER:                  -6.461
REMARK INTRA:                  -2.051
REMARK UNBOUND:                -2.375
REMARK SMILES CCCCCCCCCCCCCCCCCC(=O)[O-]
REMARK SMILES IDX 10 1 11 2 12 3 13 4 14 5 15 6 16 7 17 8 18 9 19 10 20 11
REMARK SMILES IDX 9 12 8 13 7 14 6 15 5 16 4 17 3 18 2 19 1 20
REMARK H PARENT
REMARK Flexibility Score: inf
ROOT
ATOM      1  C   UNL     1    -103.489  31.701 -38.145  1.00  0.00     0.000 C 
ENDROOT
BRANCH   1   2
ATOM      2  C   UNL     1    -104.930  31.466 -38.641  1.00  0.00     0.000 C 
BRANCH   2   3
ATOM      3  C   UNL     1    -105.907  32.621 -38.358  1.00  0.00     0.000 C 
BRANCH   3   4
ATOM      4  C   UNL     1    -107.060  32.208 -37.426  1.00  0.00     0.000 C 
BRANCH   4   5
ATOM      5  C   UNL     1    -106.958  32.856 -36.035  1.00  0.00     0.000 C 
BRANCH   5   6
ATOM      6  C   UNL     1    -106.645  31.831 -34.930  1.00  0.00     0.000 C 
BRANCH   6   7
ATOM      7  C   UNL     1    -105.781  32.419 -33.801  1.00  0.00     0.006 C 
BRANCH   7   8
ATOM      8  C   UNL     1    -106.443  33.570 -33.027  1.00  0.00     0.053 C 
BRANCH   8   9
ATOM      9  C   UNL     1    -105.460  34.313 -32.175  1.00  0.00     0.041 C 
ATOM     10  O   UNL     1    -105.471  35.572 -32.145  1.00  0.00    -0.550 OA
ATOM     11  O   UNL     1    -104.552  33.614 -31.389  1.00  0.00    -0.550 OA
ENDBRANCH   8   9
ENDBRANCH   7   8
ENDBRANCH   6   7
ENDBRANCH   5   6
ENDBRANCH   4   5
ENDBRANCH   3   4
ENDBRANCH   2   3
ENDBRANCH   1   2
BRANCH   1  12
ATOM     12  C   UNL     1    -103.316  31.695 -36.613  1.00  0.00     0.000 C 
BRANCH  12  13
ATOM     13  C   UNL     1    -103.479  30.317 -35.945  1.00  0.00    -0.000 C 
BRANCH  13  14
ATOM     14  C   UNL     1    -102.622  30.102 -34.682  1.00  0.00    -0.000 C 
BRANCH  14  15
ATOM     15  C   UNL     1    -101.692  31.276 -34.316  1.00  0.00    -0.000 C 
BRANCH  15  16
ATOM     16  C   UNL     1    -100.203  30.909 -34.176  1.00  0.00    -0.000 C 
BRANCH  16  17
ATOM     17  C   UNL     1     -99.466  30.880 -35.523  1.00  0.00    -0.000 C 
BRANCH  17  18
ATOM     18  C   UNL     1     -99.816  32.114 -36.367  1.00  0.00    -0.000 C 
BRANCH  18  19
ATOM     19  C   UNL     1     -99.471  31.932 -37.854  1.00  0.00    -0.003 C 
ATOM     20  C   UNL     1     -98.413  32.921 -38.341  1.00  0.00     0.004 C 
ENDBRANCH  18  19
ENDBRANCH  17  18
ENDBRANCH  16  17
ENDBRANCH  15  16
ENDBRANCH  14  15
ENDBRANCH  13  14
ENDBRANCH  12  13
ENDBRANCH   1  12
TORSDOF 16
ENDMDL
