MODEL 1
REMARK VINA RESULT:    -2.367      0.000      0.000
REMARK INTER + INTRA:          -7.396
REMARK INTER:                  -5.411
REMARK INTRA:                  -1.985
REMARK UNBOUND:                -1.985
REMARK SMILES CCCCCCCCCCCCCCCCCCCCCCCC(=O)[O-]
REMARK SMILES IDX 13 1 14 2 15 3 16 4 17 5 18 6 19 7 20 8 21 9 22 10 23 11
REMARK SMILES IDX 24 12 25 13 26 14 12 15 11 16 10 17 9 18 8 19 7 20 6 21 5 22
REMARK SMILES IDX 4 23 3 24 2 25 1 26
REMARK H PARENT
REMARK Flexibility Score: inf
ROOT
ATOM      1  C   UNL     1       8.836 -36.247  13.794  1.00  0.00     0.000 C 
ENDROOT
BRANCH   1   2
ATOM      2  C   UNL     1       7.619 -36.043  12.876  1.00  0.00     0.000 C 
BRANCH   2   3
ATOM      3  C   UNL     1       6.298 -36.421  13.564  1.00  0.00     0.000 C 
BRANCH   3   4
ATOM      4  C   UNL     1       6.329 -37.842  14.156  1.00  0.00     0.000 C 
BRANCH   4   5
ATOM      5  C   UNL     1       6.112 -37.856  15.676  1.00  0.00     0.000 C 
BRANCH   5   6
ATOM      6  C   UNL     1       6.159 -36.446  16.291  1.00  0.00     0.000 C 
BRANCH   6   7
ATOM      7  C   UNL     1       6.891 -36.419  17.642  1.00  0.00     0.000 C 
BRANCH   7   8
ATOM      8  C   UNL     1       7.832 -35.210  17.777  1.00  0.00     0.000 C 
BRANCH   8   9
ATOM      9  C   UNL     1       7.265 -34.115  18.701  1.00  0.00     0.000 C 
BRANCH   9  10
ATOM     10  C   UNL     1       7.412 -32.676  18.167  1.00  0.00     0.006 C 
BRANCH  10  11
ATOM     11  C   UNL     1       8.761 -32.379  17.493  1.00  0.00     0.053 C 
BRANCH  11  12
ATOM     12  C   UNL     1       9.625 -31.496  18.339  1.00  0.00     0.041 C 
ATOM     13  O   UNL     1      10.357 -30.623  17.802  1.00  0.00    -0.550 OA
ATOM     14  O   UNL     1       9.587 -31.606  19.723  1.00  0.00    -0.550 OA
ENDBRANCH  11  12
ENDBRANCH  10  11
ENDBRANCH   9  10
ENDBRANCH   8   9
ENDBRANCH   7   8
ENDBRANCH   6   7
ENDBRANCH   5   6
ENDBRANCH   4   5
ENDBRANCH   3   4
ENDBRANCH   2   3
ENDBRANCH   1   2
BRANCH   1  15
ATOM     15  C   UNL     1       9.052 -35.072  14.762  1.00  0.00     0.000 C 
BRANCH  15  16
ATOM     16  C   UNL     1       8.412 -33.769  14.251  1.00  0.00     0.000 C 
BRANCH  16  17
ATOM     17  C   UNL     1       9.410 -32.603  14.192  1.00  0.00     0.000 C 
BRANCH  17  18
ATOM     18  C   UNL     1      10.781 -33.022  13.630  1.00  0.00    -0.000 C 
BRANCH  18  19
ATOM     19  C   UNL     1      11.639 -31.803  13.254  1.00  0.00    -0.000 C 
BRANCH  19  20
ATOM     20  C   UNL     1      12.634 -31.428  14.368  1.00  0.00    -0.000 C 
BRANCH  20  21
ATOM     21  C   UNL     1      13.474 -30.187  14.010  1.00  0.00    -0.000 C 
BRANCH  21  22
ATOM     22  C   UNL     1      14.999 -30.428  14.018  1.00  0.00    -0.000 C 
BRANCH  22  23
ATOM     23  C   UNL     1      15.464 -31.691  14.774  1.00  0.00    -0.000 C 
BRANCH  23  24
ATOM     24  C   UNL     1      16.997 -31.863  14.820  1.00  0.00    -0.000 C 
BRANCH  24  25
ATOM     25  C   UNL     1      17.601 -32.128  13.430  1.00  0.00    -0.003 C 
ATOM     26  C   UNL     1      19.049 -31.650  13.360  1.00  0.00     0.004 C 
ENDBRANCH  24  25
ENDBRANCH  23  24
ENDBRANCH  22  23
ENDBRANCH  21  22
ENDBRANCH  20  21
ENDBRANCH  19  20
ENDBRANCH  18  19
ENDBRANCH  17  18
ENDBRANCH  16  17
ENDBRANCH  15  16
ENDBRANCH   1  15
TORSDOF 22
ENDMDL
MODEL 2
REMARK VINA RESULT:    -1.533      2.829      7.948
REMARK INTER + INTRA:          -5.490
REMARK INTER:                  -3.460
REMARK INTRA:                  -2.030
REMARK UNBOUND:                -1.985
REMARK SMILES CCCCCCCCCCCCCCCCCCCCCCCC(=O)[O-]
REMARK SMILES IDX 13 1 14 2 15 3 16 4 17 5 18 6 19 7 20 8 21 9 22 10 23 11
REMARK SMILES IDX 24 12 25 13 26 14 12 15 11 16 10 17 9 18 8 19 7 20 6 21 5 22
REMARK SMILES IDX 4 23 3 24 2 25 1 26
REMARK H PARENT
REMARK Flexibility Score: inf
ROOT
ATOM      1  C   UNL     1       9.630 -36.229  12.876  1.00  0.00     0.000 C 
ENDROOT
BRANCH   1   2
ATOM      2  C   UNL     1       9.470 -34.994  13.780  1.00  0.00     0.000 C 
BRANCH   2   3
ATOM      3  C   UNL     1       8.616 -33.897  13.125  1.00  0.00     0.000 C 
BRANCH   3   4
ATOM      4  C   UNL     1       9.283 -32.511  13.196  1.00  0.00     0.000 C 
BRANCH   4   5
ATOM      5  C   UNL     1      10.476 -32.476  14.163  1.00  0.00     0.000 C 
BRANCH   5   6
ATOM      6  C   UNL     1      11.822 -32.324  13.432  1.00  0.00     0.000 C 
BRANCH   6   7
ATOM      7  C   UNL     1      12.966 -31.937  14.383  1.00  0.00     0.000 C 
BRANCH   7   8
ATOM      8  C   UNL     1      13.454 -30.496  14.158  1.00  0.00     0.000 C 
BRANCH   8   9
ATOM      9  C   UNL     1      14.893 -30.433  13.611  1.00  0.00     0.000 C 
BRANCH   9  10
ATOM     10  C   UNL     1      15.899 -31.357  14.327  1.00  0.00     0.006 C 
BRANCH  10  11
ATOM     11  C   UNL     1      16.891 -32.067  13.393  1.00  0.00     0.053 C 
BRANCH  11  12
ATOM     12  C   UNL     1      18.312 -31.750  13.742  1.00  0.00     0.041 C 
ATOM     13  O   UNL     1      19.082 -31.258  12.875  1.00  0.00    -0.550 OA
ATOM     14  O   UNL     1      18.772 -31.956  15.035  1.00  0.00    -0.550 OA
ENDBRANCH  11  12
ENDBRANCH  10  11
ENDBRANCH   9  10
ENDBRANCH   8   9
ENDBRANCH   7   8
ENDBRANCH   6   7
ENDBRANCH   5   6
ENDBRANCH   4   5
ENDBRANCH   3   4
ENDBRANCH   2   3
ENDBRANCH   1   2
BRANCH   1  15
ATOM     15  C   UNL     1       8.616 -37.337  13.203  1.00  0.00     0.000 C 
BRANCH  15  16
ATOM     16  C   UNL     1       7.170 -36.923  12.875  1.00  0.00     0.000 C 
BRANCH  16  17
ATOM     17  C   UNL     1       6.295 -36.787  14.130  1.00  0.00     0.000 C 
BRANCH  17  18
ATOM     18  C   UNL     1       6.259 -38.074  14.973  1.00  0.00    -0.000 C 
BRANCH  18  19
ATOM     19  C   UNL     1       6.250 -37.769  16.480  1.00  0.00    -0.000 C 
BRANCH  19  20
ATOM     20  C   UNL     1       6.150 -36.259  16.766  1.00  0.00    -0.000 C 
BRANCH  20  21
ATOM     21  C   UNL     1       7.352 -35.734  17.574  1.00  0.00    -0.000 C 
BRANCH  21  22
ATOM     22  C   UNL     1       8.292 -34.801  16.780  1.00  0.00    -0.000 C 
BRANCH  22  23
ATOM     23  C   UNL     1       7.821 -33.337  16.656  1.00  0.00    -0.000 C 
BRANCH  23  24
ATOM     24  C   UNL     1       8.804 -32.311  17.256  1.00  0.00    -0.000 C 
BRANCH  24  25
ATOM     25  C   UNL     1       8.421 -31.894  18.686  1.00  0.00    -0.003 C 
ATOM     26  C   UNL     1       9.642 -31.413  19.465  1.00  0.00     0.004 C 
ENDBRANCH  24  25
ENDBRANCH  23  24
ENDBRANCH  22  23
ENDBRANCH  21  22
ENDBRANCH  20  21
ENDBRANCH  19  20
ENDBRANCH  18  19
ENDBRANCH  17  18
ENDBRANCH  16  17
ENDBRANCH  15  16
ENDBRANCH   1  15
TORSDOF 22
ENDMDL
MODEL 3
REMARK VINA RESULT:    -1.398      2.485      4.465
REMARK INTER + INTRA:          -5.181
REMARK INTER:                  -2.875
REMARK INTRA:                  -2.306
REMARK UNBOUND:                -1.985
REMARK SMILES CCCCCCCCCCCCCCCCCCCCCCCC(=O)[O-]
REMARK SMILES IDX 13 1 14 2 15 3 16 4 17 5 18 6 19 7 20 8 21 9 22 10 23 11
REMARK SMILES IDX 24 12 25 13 26 14 12 15 11 16 10 17 9 18 8 19 7 20 6 21 5 22
REMARK SMILES IDX 4 23 3 24 2 25 1 26
REMARK H PARENT
REMARK Flexibility Score: inf
ROOT
ATOM      1  C   UNL     1       7.176 -36.265  17.534  1.00  0.00     0.000 C 
ENDROOT
BRANCH   1   2
ATOM      2  C   UNL     1       6.300 -37.100  16.585  1.00  0.00     0.000 C 
BRANCH   2   3
ATOM      3  C   UNL     1       6.965 -37.317  15.216  1.00  0.00     0.000 C 
BRANCH   3   4
ATOM      4  C   UNL     1       5.953 -37.722  14.128  1.00  0.00     0.000 C 
BRANCH   4   5
ATOM      5  C   UNL     1       5.875 -36.702  12.982  1.00  0.00     0.000 C 
BRANCH   5   6
ATOM      6  C   UNL     1       6.942 -35.599  13.102  1.00  0.00     0.000 C 
BRANCH   6   7
ATOM      7  C   UNL     1       6.328 -34.216  13.369  1.00  0.00     0.000 C 
BRANCH   7   8
ATOM      8  C   UNL     1       7.392 -33.152  13.688  1.00  0.00     0.000 C 
BRANCH   8   9
ATOM      9  C   UNL     1       8.704 -33.372  12.912  1.00  0.00     0.000 C 
BRANCH   9  10
ATOM     10  C   UNL     1       9.944 -33.632  13.793  1.00  0.00     0.006 C 
BRANCH  10  11
ATOM     11  C   UNL     1      11.161 -34.185  13.036  1.00  0.00     0.053 C 
BRANCH  11  12
ATOM     12  C   UNL     1      11.243 -35.677  13.126  1.00  0.00     0.041 C 
ATOM     13  O   UNL     1      12.339 -36.236  13.395  1.00  0.00    -0.550 OA
ATOM     14  O   UNL     1      10.101 -36.448  12.957  1.00  0.00    -0.550 OA
ENDBRANCH  11  12
ENDBRANCH  10  11
ENDBRANCH   9  10
ENDBRANCH   8   9
ENDBRANCH   7   8
ENDBRANCH   6   7
ENDBRANCH   5   6
ENDBRANCH   4   5
ENDBRANCH   3   4
ENDBRANCH   2   3
ENDBRANCH   1   2
BRANCH   1  15
ATOM     15  C   UNL     1       6.803 -34.774  17.525  1.00  0.00     0.000 C 
BRANCH  15  16
ATOM     16  C   UNL     1       8.024 -33.866  17.293  1.00  0.00     0.000 C 
BRANCH  16  17
ATOM     17  C   UNL     1       7.722 -32.385  17.569  1.00  0.00     0.000 C 
BRANCH  17  18
ATOM     18  C   UNL     1       8.585 -31.804  18.704  1.00  0.00    -0.000 C 
BRANCH  18  19
ATOM     19  C   UNL     1      10.028 -31.538  18.242  1.00  0.00    -0.000 C 
BRANCH  19  20
ATOM     20  C   UNL     1      10.083 -30.945  16.822  1.00  0.00    -0.000 C 
BRANCH  20  21
ATOM     21  C   UNL     1      11.516 -30.576  16.395  1.00  0.00    -0.000 C 
BRANCH  21  22
ATOM     22  C   UNL     1      11.990 -31.265  15.099  1.00  0.00    -0.000 C 
BRANCH  22  23
ATOM     23  C   UNL     1      13.282 -30.691  14.479  1.00  0.00    -0.000 C 
BRANCH  23  24
ATOM     24  C   UNL     1      14.417 -31.725  14.330  1.00  0.00    -0.000 C 
BRANCH  24  25
ATOM     25  C   UNL     1      15.770 -31.071  14.003  1.00  0.00    -0.003 C 
ATOM     26  C   UNL     1      16.925 -31.861  14.613  1.00  0.00     0.004 C 
ENDBRANCH  24  25
ENDBRANCH  23  24
ENDBRANCH  22  23
ENDBRANCH  21  22
ENDBRANCH  20  21
ENDBRANCH  19  20
ENDBRANCH  18  19
ENDBRANCH  17  18
ENDBRANCH  16  17
ENDBRANCH  15  16
ENDBRANCH   1  15
TORSDOF 22
ENDMDL
MODEL 4
REMARK VINA RESULT:    -1.285      1.050      2.461
REMARK INTER + INTRA:          -4.923
REMARK INTER:                  -3.115
REMARK INTRA:                  -1.808
REMARK UNBOUND:                -1.985
REMARK SMILES CCCCCCCCCCCCCCCCCCCCCCCC(=O)[O-]
REMARK SMILES IDX 13 1 14 2 15 3 16 4 17 5 18 6 19 7 20 8 21 9 22 10 23 11
REMARK SMILES IDX 24 12 25 13 26 14 12 15 11 16 10 17 9 18 8 19 7 20 6 21 5 22
REMARK SMILES IDX 4 23 3 24 2 25 1 26
REMARK H PARENT
REMARK Flexibility Score: inf
ROOT
ATOM      1  C   UNL     1       9.578 -33.673  14.311  1.00  0.00     0.000 C 
ENDROOT
BRANCH   1   2
ATOM      2  C   UNL     1       9.337 -34.503  13.038  1.00  0.00     0.000 C 
BRANCH   2   3
ATOM      3  C   UNL     1       8.023 -35.297  13.100  1.00  0.00     0.000 C 
BRANCH   3   4
ATOM      4  C   UNL     1       8.235 -36.752  13.556  1.00  0.00     0.000 C 
BRANCH   4   5
ATOM      5  C   UNL     1       7.115 -37.253  14.480  1.00  0.00     0.000 C 
BRANCH   5   6
ATOM      6  C   UNL     1       6.023 -36.193  14.710  1.00  0.00     0.000 C 
BRANCH   6   7
ATOM      7  C   UNL     1       5.921 -35.763  16.181  1.00  0.00     0.000 C 
BRANCH   7   8
ATOM      8  C   UNL     1       6.858 -34.590  16.516  1.00  0.00     0.000 C 
BRANCH   8   9
ATOM      9  C   UNL     1       7.022 -34.374  18.033  1.00  0.00     0.000 C 
BRANCH   9  10
ATOM     10  C   UNL     1       7.629 -33.013  18.432  1.00  0.00     0.006 C 
BRANCH  10  11
ATOM     11  C   UNL     1       8.760 -32.525  17.514  1.00  0.00     0.053 C 
BRANCH  11  12
ATOM     12  C   UNL     1       9.645 -31.531  18.201  1.00  0.00     0.041 C 
ATOM     13  O   UNL     1      10.379 -30.763  17.524  1.00  0.00    -0.550 OA
ATOM     14  O   UNL     1       9.627 -31.423  19.585  1.00  0.00    -0.550 OA
ENDBRANCH  11  12
ENDBRANCH  10  11
ENDBRANCH   9  10
ENDBRANCH   8   9
ENDBRANCH   7   8
ENDBRANCH   6   7
ENDBRANCH   5   6
ENDBRANCH   4   5
ENDBRANCH   3   4
ENDBRANCH   2   3
ENDBRANCH   1   2
BRANCH   1  15
ATOM     15  C   UNL     1      10.044 -32.240  14.004  1.00  0.00     0.000 C 
BRANCH  15  16
ATOM     16  C   UNL     1      11.470 -32.200  13.427  1.00  0.00     0.000 C 
BRANCH  16  17
ATOM     17  C   UNL     1      12.463 -31.480  14.352  1.00  0.00     0.000 C 
BRANCH  17  18
ATOM     18  C   UNL     1      13.112 -30.252  13.687  1.00  0.00    -0.000 C 
BRANCH  18  19
ATOM     19  C   UNL     1      14.646 -30.296  13.782  1.00  0.00    -0.000 C 
BRANCH  19  20
ATOM     20  C   UNL     1      15.152 -31.620  14.385  1.00  0.00    -0.000 C 
BRANCH  20  21
ATOM     21  C   UNL     1      16.474 -31.446  15.155  1.00  0.00    -0.000 C 
BRANCH  21  22
ATOM     22  C   UNL     1      17.574 -32.457  14.765  1.00  0.00    -0.000 C 
BRANCH  22  23
ATOM     23  C   UNL     1      18.276 -32.181  13.419  1.00  0.00    -0.000 C 
BRANCH  23  24
ATOM     24  C   UNL     1      18.689 -30.709  13.218  1.00  0.00    -0.000 C 
BRANCH  24  25
ATOM     25  C   UNL     1      20.136 -30.436  13.666  1.00  0.00    -0.003 C 
ATOM     26  C   UNL     1      20.575 -29.027  13.280  1.00  0.00     0.004 C 
ENDBRANCH  24  25
ENDBRANCH  23  24
ENDBRANCH  22  23
ENDBRANCH  21  22
ENDBRANCH  20  21
ENDBRANCH  19  20
ENDBRANCH  18  19
ENDBRANCH  17  18
ENDBRANCH  16  17
ENDBRANCH  15  16
ENDBRANCH   1  15
TORSDOF 22
ENDMDL
MODEL 5
REMARK VINA RESULT:    -1.107      2.517      8.212
REMARK INTER + INTRA:          -4.516
REMARK INTER:                  -2.420
REMARK INTRA:                  -2.096
REMARK UNBOUND:                -1.985
REMARK SMILES CCCCCCCCCCCCCCCCCCCCCCCC(=O)[O-]
REMARK SMILES IDX 13 1 14 2 15 3 16 4 17 5 18 6 19 7 20 8 21 9 22 10 23 11
REMARK SMILES IDX 24 12 25 13 26 14 12 15 11 16 10 17 9 18 8 19 7 20 6 21 5 22
REMARK SMILES IDX 4 23 3 24 2 25 1 26
REMARK H PARENT
REMARK Flexibility Score: inf
ROOT
ATOM      1  C   UNL     1       8.082 -32.118  18.732  1.00  0.00     0.000 C 
ENDROOT
BRANCH   1   2
ATOM      2  C   UNL     1       9.598 -32.193  18.477  1.00  0.00     0.000 C 
BRANCH   2   3
ATOM      3  C   UNL     1      10.095 -31.053  17.575  1.00  0.00     0.000 C 
BRANCH   3   4
ATOM      4  C   UNL     1       9.887 -31.352  16.079  1.00  0.00     0.000 C 
BRANCH   4   5
ATOM      5  C   UNL     1       9.887 -32.856  15.770  1.00  0.00     0.000 C 
BRANCH   5   6
ATOM      6  C   UNL     1       9.953 -33.148  14.260  1.00  0.00     0.000 C 
BRANCH   6   7
ATOM      7  C   UNL     1      10.797 -32.114  13.500  1.00  0.00     0.000 C 
BRANCH   7   8
ATOM      8  C   UNL     1      12.308 -32.324  13.703  1.00  0.00     0.000 C 
BRANCH   8   9
ATOM      9  C   UNL     1      13.013 -31.074  14.261  1.00  0.00     0.000 C 
BRANCH   9  10
ATOM     10  C   UNL     1      14.429 -30.824  13.701  1.00  0.00     0.006 C 
BRANCH  10  11
ATOM     11  C   UNL     1      15.536 -30.776  14.765  1.00  0.00     0.053 C 
BRANCH  11  12
ATOM     12  C   UNL     1      16.618 -31.774  14.489  1.00  0.00     0.041 C 
ATOM     13  O   UNL     1      16.918 -32.639  15.354  1.00  0.00    -0.550 OA
ATOM     14  O   UNL     1      17.264 -31.777  13.260  1.00  0.00    -0.550 OA
ENDBRANCH  11  12
ENDBRANCH  10  11
ENDBRANCH   9  10
ENDBRANCH   8   9
ENDBRANCH   7   8
ENDBRANCH   6   7
ENDBRANCH   5   6
ENDBRANCH   4   5
ENDBRANCH   3   4
ENDBRANCH   2   3
ENDBRANCH   1   2
BRANCH   1  15
ATOM     15  C   UNL     1       7.292 -33.147  17.908  1.00  0.00     0.000 C 
BRANCH  15  16
ATOM     16  C   UNL     1       6.559 -32.505  16.717  1.00  0.00     0.000 C 
BRANCH  16  17
ATOM     17  C   UNL     1       5.882 -33.543  15.809  1.00  0.00     0.000 C 
BRANCH  17  18
ATOM     18  C   UNL     1       6.766 -33.959  14.619  1.00  0.00    -0.000 C 
BRANCH  18  19
ATOM     19  C   UNL     1       5.927 -34.299  13.377  1.00  0.00    -0.000 C 
BRANCH  19  20
ATOM     20  C   UNL     1       5.940 -35.807  13.063  1.00  0.00    -0.000 C 
BRANCH  20  21
ATOM     21  C   UNL     1       7.146 -36.527  13.694  1.00  0.00    -0.000 C 
BRANCH  21  22
ATOM     22  C   UNL     1       6.769 -37.621  14.716  1.00  0.00    -0.000 C 
BRANCH  22  23
ATOM     23  C   UNL     1       5.875 -37.154  15.884  1.00  0.00    -0.000 C 
BRANCH  23  24
ATOM     24  C   UNL     1       6.392 -37.577  17.274  1.00  0.00    -0.000 C 
BRANCH  24  25
ATOM     25  C   UNL     1       7.525 -36.669  17.783  1.00  0.00    -0.003 C 
ATOM     26  C   UNL     1       7.817 -36.927  19.258  1.00  0.00     0.004 C 
ENDBRANCH  24  25
ENDBRANCH  23  24
ENDBRANCH  22  23
ENDBRANCH  21  22
ENDBRANCH  20  21
ENDBRANCH  19  20
ENDBRANCH  18  19
ENDBRANCH  17  18
ENDBRANCH  16  17
ENDBRANCH  15  16
ENDBRANCH   1  15
TORSDOF 22
ENDMDL
MODEL 6
REMARK VINA RESULT:    -0.883      2.006      3.886
REMARK INTER + INTRA:          -4.004
REMARK INTER:                  -1.984
REMARK INTRA:                  -2.019
REMARK UNBOUND:                -1.985
REMARK SMILES CCCCCCCCCCCCCCCCCCCCCCCC(=O)[O-]
REMARK SMILES IDX 13 1 14 2 15 3 16 4 17 5 18 6 19 7 20 8 21 9 22 10 23 11
REMARK SMILES IDX 24 12 25 13 26 14 12 15 11 16 10 17 9 18 8 19 7 20 6 21 5 22
REMARK SMILES IDX 4 23 3 24 2 25 1 26
REMARK H PARENT
REMARK Flexibility Score: inf
ROOT
ATOM      1  C   UNL     1       7.528 -33.577  17.876  1.00  0.00     0.000 C 
ENDROOT
BRANCH   1   2
ATOM      2  C   UNL     1       8.303 -34.720  17.200  1.00  0.00     0.000 C 
BRANCH   2   3
ATOM      3  C   UNL     1       7.509 -36.036  17.186  1.00  0.00     0.000 C 
BRANCH   3   4
ATOM      4  C   UNL     1       6.588 -36.155  15.957  1.00  0.00     0.000 C 
BRANCH   4   5
ATOM      5  C   UNL     1       5.973 -37.555  15.810  1.00  0.00     0.000 C 
BRANCH   5   6
ATOM      6  C   UNL     1       5.875 -38.004  14.341  1.00  0.00     0.000 C 
BRANCH   6   7
ATOM      7  C   UNL     1       6.837 -37.231  13.425  1.00  0.00     0.000 C 
BRANCH   7   8
ATOM      8  C   UNL     1       8.281 -37.751  13.517  1.00  0.00     0.000 C 
BRANCH   8   9
ATOM      9  C   UNL     1       9.318 -36.615  13.607  1.00  0.00     0.000 C 
BRANCH   9  10
ATOM     10  C   UNL     1       8.885 -35.288  12.952  1.00  0.00     0.006 C 
BRANCH  10  11
ATOM     11  C   UNL     1       8.566 -34.160  13.945  1.00  0.00     0.053 C 
BRANCH  11  12
ATOM     12  C   UNL     1       7.479 -33.263  13.441  1.00  0.00     0.041 C 
ATOM     13  O   UNL     1       7.766 -32.176  12.875  1.00  0.00    -0.550 OA
ATOM     14  O   UNL     1       6.150 -33.649  13.556  1.00  0.00    -0.550 OA
ENDBRANCH  11  12
ENDBRANCH  10  11
ENDBRANCH   9  10
ENDBRANCH   8   9
ENDBRANCH   7   8
ENDBRANCH   6   7
ENDBRANCH   5   6
ENDBRANCH   4   5
ENDBRANCH   3   4
ENDBRANCH   2   3
ENDBRANCH   1   2
BRANCH   1  15
ATOM     15  C   UNL     1       8.082 -32.190  17.513  1.00  0.00     0.000 C 
BRANCH  15  16
ATOM     16  C   UNL     1       9.435 -31.905  18.190  1.00  0.00     0.000 C 
BRANCH  16  17
ATOM     17  C   UNL     1      10.414 -31.163  17.268  1.00  0.00     0.000 C 
BRANCH  17  18
ATOM     18  C   UNL     1      10.000 -31.228  15.786  1.00  0.00    -0.000 C 
BRANCH  18  19
ATOM     19  C   UNL     1      10.909 -32.173  14.982  1.00  0.00    -0.000 C 
BRANCH  19  20
ATOM     20  C   UNL     1      11.619 -31.448  13.823  1.00  0.00    -0.000 C 
BRANCH  20  21
ATOM     21  C   UNL     1      12.948 -30.804  14.261  1.00  0.00    -0.000 C 
BRANCH  21  22
ATOM     22  C   UNL     1      14.160 -31.760  14.224  1.00  0.00    -0.000 C 
BRANCH  22  23
ATOM     23  C   UNL     1      15.522 -31.114  14.555  1.00  0.00    -0.000 C 
BRANCH  23  24
ATOM     24  C   UNL     1      16.702 -32.108  14.552  1.00  0.00    -0.000 C 
BRANCH  24  25
ATOM     25  C   UNL     1      17.836 -31.672  13.609  1.00  0.00    -0.003 C 
ATOM     26  C   UNL     1      19.169 -31.599  14.349  1.00  0.00     0.004 C 
ENDBRANCH  24  25
ENDBRANCH  23  24
ENDBRANCH  22  23
ENDBRANCH  21  22
ENDBRANCH  20  21
ENDBRANCH  19  20
ENDBRANCH  18  19
ENDBRANCH  17  18
ENDBRANCH  16  17
ENDBRANCH  15  16
ENDBRANCH   1  15
TORSDOF 22
ENDMDL
MODEL 7
REMARK VINA RESULT:    -0.869      2.494      7.847
REMARK INTER + INTRA:          -3.972
REMARK INTER:                  -1.799
REMARK INTRA:                  -2.174
REMARK UNBOUND:                -1.985
REMARK SMILES CCCCCCCCCCCCCCCCCCCCCCCC(=O)[O-]
REMARK SMILES IDX 13 1 14 2 15 3 16 4 17 5 18 6 19 7 20 8 21 9 22 10 23 11
REMARK SMILES IDX 24 12 25 13 26 14 12 15 11 16 10 17 9 18 8 19 7 20 6 21 5 22
REMARK SMILES IDX 4 23 3 24 2 25 1 26
REMARK H PARENT
REMARK Flexibility Score: inf
ROOT
ATOM      1  C   UNL     1       9.668 -31.786  17.180  1.00  0.00     0.000 C 
ENDROOT
BRANCH   1   2
ATOM      2  C   UNL     1       9.434 -31.740  15.660  1.00  0.00     0.000 C 
BRANCH   2   3
ATOM      3  C   UNL     1       8.651 -32.962  15.154  1.00  0.00     0.000 C 
BRANCH   3   4
ATOM      4  C   UNL     1       8.580 -33.019  13.617  1.00  0.00     0.000 C 
BRANCH   4   5
ATOM      5  C   UNL     1       9.872 -32.530  12.945  1.00  0.00     0.000 C 
BRANCH   5   6
ATOM      6  C   UNL     1      11.088 -33.403  13.302  1.00  0.00     0.000 C 
BRANCH   6   7
ATOM      7  C   UNL     1      12.401 -32.606  13.310  1.00  0.00     0.000 C 
BRANCH   7   8
ATOM      8  C   UNL     1      12.420 -31.516  14.396  1.00  0.00     0.000 C 
BRANCH   8   9
ATOM      9  C   UNL     1      13.519 -30.462  14.163  1.00  0.00     0.000 C 
BRANCH   9  10
ATOM     10  C   UNL     1      14.899 -31.037  13.784  1.00  0.00     0.006 C 
BRANCH  10  11
ATOM     11  C   UNL     1      15.917 -31.066  14.935  1.00  0.00     0.053 C 
BRANCH  11  12
ATOM     12  C   UNL     1      16.985 -32.090  14.710  1.00  0.00     0.041 C 
ATOM     13  O   UNL     1      17.853 -31.913  13.815  1.00  0.00    -0.550 OA
ATOM     14  O   UNL     1      17.050 -33.217  15.518  1.00  0.00    -0.550 OA
ENDBRANCH  11  12
ENDBRANCH  10  11
ENDBRANCH   9  10
ENDBRANCH   8   9
ENDBRANCH   7   8
ENDBRANCH   6   7
ENDBRANCH   5   6
ENDBRANCH   4   5
ENDBRANCH   3   4
ENDBRANCH   2   3
ENDBRANCH   1   2
BRANCH   1  15
ATOM     15  C   UNL     1       9.093 -33.054  17.830  1.00  0.00     0.000 C 
BRANCH  15  16
ATOM     16  C   UNL     1       7.675 -32.836  18.385  1.00  0.00     0.000 C 
BRANCH  16  17
ATOM     17  C   UNL     1       6.927 -34.155  18.634  1.00  0.00     0.000 C 
BRANCH  17  18
ATOM     18  C   UNL     1       7.749 -35.391  18.225  1.00  0.00    -0.000 C 
BRANCH  18  19
ATOM     19  C   UNL     1       7.021 -36.234  17.165  1.00  0.00    -0.000 C 
BRANCH  19  20
ATOM     20  C   UNL     1       6.025 -35.396  16.340  1.00  0.00    -0.000 C 
BRANCH  20  21
ATOM     21  C   UNL     1       6.105 -35.706  14.833  1.00  0.00    -0.000 C 
BRANCH  21  22
ATOM     22  C   UNL     1       5.875 -37.190  14.478  1.00  0.00    -0.000 C 
BRANCH  22  23
ATOM     23  C   UNL     1       6.592 -37.683  13.203  1.00  0.00    -0.000 C 
BRANCH  23  24
ATOM     24  C   UNL     1       8.123 -37.806  13.355  1.00  0.00    -0.000 C 
BRANCH  24  25
ATOM     25  C   UNL     1       8.863 -36.534  12.908  1.00  0.00    -0.003 C 
ATOM     26  C   UNL     1      10.371 -36.682  13.087  1.00  0.00     0.004 C 
ENDBRANCH  24  25
ENDBRANCH  23  24
ENDBRANCH  22  23
ENDBRANCH  21  22
ENDBRANCH  20  21
ENDBRANCH  19  20
ENDBRANCH  18  19
ENDBRANCH  17  18
ENDBRANCH  16  17
ENDBRANCH  15  16
ENDBRANCH   1  15
TORSDOF 22
ENDMDL
MODEL 8
REMARK VINA RESULT:    -0.616      2.058      4.376
REMARK INTER + INTRA:          -3.392
REMARK INTER:                  -1.357
REMARK INTRA:                  -2.035
REMARK UNBOUND:                -1.985
REMARK SMILES CCCCCCCCCCCCCCCCCCCCCCCC(=O)[O-]
REMARK SMILES IDX 13 1 14 2 15 3 16 4 17 5 18 6 19 7 20 8 21 9 22 10 23 11
REMARK SMILES IDX 24 12 25 13 26 14 12 15 11 16 10 17 9 18 8 19 7 20 6 21 5 22
REMARK SMILES IDX 4 23 3 24 2 25 1 26
REMARK H PARENT
REMARK Flexibility Score: inf
ROOT
ATOM      1  C   UNL     1       6.688 -31.763  18.701  1.00  0.00     0.000 C 
ENDROOT
BRANCH   1   2
ATOM      2  C   UNL     1       6.689 -32.972  17.750  1.00  0.00     0.000 C 
BRANCH   2   3
ATOM      3  C   UNL     1       6.142 -32.620  16.357  1.00  0.00     0.000 C 
BRANCH   3   4
ATOM      4  C   UNL     1       5.903 -33.867  15.487  1.00  0.00     0.000 C 
BRANCH   4   5
ATOM      5  C   UNL     1       6.503 -33.732  14.079  1.00  0.00     0.000 C 
BRANCH   5   6
ATOM      6  C   UNL     1       7.740 -34.626  13.878  1.00  0.00     0.000 C 
BRANCH   6   7
ATOM      7  C   UNL     1       7.699 -35.890  14.751  1.00  0.00     0.000 C 
BRANCH   7   8
ATOM      8  C   UNL     1       7.067 -37.087  14.021  1.00  0.00     0.000 C 
BRANCH   8   9
ATOM      9  C   UNL     1       6.211 -37.967  14.951  1.00  0.00     0.000 C 
BRANCH   9  10
ATOM     10  C   UNL     1       5.882 -37.336  16.319  1.00  0.00     0.006 C 
BRANCH  10  11
ATOM     11  C   UNL     1       6.412 -38.121  17.529  1.00  0.00     0.053 C 
BRANCH  11  12
ATOM     12  C   UNL     1       7.304 -37.282  18.391  1.00  0.00     0.041 C 
ATOM     13  O   UNL     1       7.633 -36.124  18.023  1.00  0.00    -0.550 OA
ATOM     14  O   UNL     1       7.734 -37.762  19.621  1.00  0.00    -0.550 OA
ENDBRANCH  11  12
ENDBRANCH  10  11
ENDBRANCH   9  10
ENDBRANCH   8   9
ENDBRANCH   7   8
ENDBRANCH   6   7
ENDBRANCH   5   6
ENDBRANCH   4   5
ENDBRANCH   3   4
ENDBRANCH   2   3
ENDBRANCH   1   2
BRANCH   1  15
ATOM     15  C   UNL     1       7.899 -30.840  18.487  1.00  0.00     0.000 C 
BRANCH  15  16
ATOM     16  C   UNL     1       9.235 -31.561  18.735  1.00  0.00     0.000 C 
BRANCH  16  17
ATOM     17  C   UNL     1      10.139 -31.578  17.493  1.00  0.00     0.000 C 
BRANCH  17  18
ATOM     18  C   UNL     1       9.624 -32.527  16.396  1.00  0.00    -0.000 C 
BRANCH  18  19
ATOM     19  C   UNL     1       9.745 -31.901  14.997  1.00  0.00    -0.000 C 
BRANCH  19  20
ATOM     20  C   UNL     1      11.076 -32.264  14.312  1.00  0.00    -0.000 C 
BRANCH  20  21
ATOM     21  C   UNL     1      12.207 -31.281  14.669  1.00  0.00    -0.000 C 
BRANCH  21  22
ATOM     22  C   UNL     1      13.504 -31.482  13.856  1.00  0.00    -0.000 C 
BRANCH  22  23
ATOM     23  C   UNL     1      14.709 -30.633  14.312  1.00  0.00    -0.000 C 
BRANCH  23  24
ATOM     24  C   UNL     1      15.920 -31.467  14.778  1.00  0.00    -0.000 C 
BRANCH  24  25
ATOM     25  C   UNL     1      16.922 -31.736  13.643  1.00  0.00    -0.003 C 
ATOM     26  C   UNL     1      18.316 -32.021  14.194  1.00  0.00     0.004 C 
ENDBRANCH  24  25
ENDBRANCH  23  24
ENDBRANCH  22  23
ENDBRANCH  21  22
ENDBRANCH  20  21
ENDBRANCH  19  20
ENDBRANCH  18  19
ENDBRANCH  17  18
ENDBRANCH  16  17
ENDBRANCH  15  16
ENDBRANCH   1  15
TORSDOF 22
ENDMDL
MODEL 9
REMARK VINA RESULT:    -0.506      2.436      4.760
REMARK INTER + INTRA:          -3.142
REMARK INTER:                  -1.803
REMARK INTRA:                  -1.339
REMARK UNBOUND:                -1.985
REMARK SMILES CCCCCCCCCCCCCCCCCCCCCCCC(=O)[O-]
REMARK SMILES IDX 13 1 14 2 15 3 16 4 17 5 18 6 19 7 20 8 21 9 22 10 23 11
REMARK SMILES IDX 24 12 25 13 26 14 12 15 11 16 10 17 9 18 8 19 7 20 6 21 5 22
REMARK SMILES IDX 4 23 3 24 2 25 1 26
REMARK H PARENT
REMARK Flexibility Score: inf
ROOT
ATOM      1  C   UNL     1       7.577 -33.653  17.526  1.00  0.00     0.000 C 
ENDROOT
BRANCH   1   2
ATOM      2  C   UNL     1       6.096 -33.698  17.111  1.00  0.00     0.000 C 
BRANCH   2   3
ATOM      3  C   UNL     1       5.878 -33.211  15.670  1.00  0.00     0.000 C 
BRANCH   3   4
ATOM      4  C   UNL     1       7.202 -32.899  14.948  1.00  0.00     0.000 C 
BRANCH   4   5
ATOM      5  C   UNL     1       7.196 -33.348  13.479  1.00  0.00     0.000 C 
BRANCH   5   6
ATOM      6  C   UNL     1       5.904 -34.091  13.095  1.00  0.00     0.000 C 
BRANCH   6   7
ATOM      7  C   UNL     1       6.135 -35.594  12.875  1.00  0.00     0.000 C 
BRANCH   7   8
ATOM      8  C   UNL     1       6.329 -36.359  14.196  1.00  0.00     0.000 C 
BRANCH   8   9
ATOM      9  C   UNL     1       7.514 -37.341  14.146  1.00  0.00     0.000 C 
BRANCH   9  10
ATOM     10  C   UNL     1       8.464 -37.151  12.946  1.00  0.00     0.006 C 
BRANCH  10  11
ATOM     11  C   UNL     1       9.950 -37.374  13.268  1.00  0.00     0.053 C 
BRANCH  11  12
ATOM     12  C   UNL     1      10.742 -36.108  13.155  1.00  0.00     0.041 C 
ATOM     13  O   UNL     1      10.152 -34.999  13.067  1.00  0.00    -0.550 OA
ATOM     14  O   UNL     1      12.129 -36.149  13.193  1.00  0.00    -0.550 OA
ENDBRANCH  11  12
ENDBRANCH  10  11
ENDBRANCH   9  10
ENDBRANCH   8   9
ENDBRANCH   7   8
ENDBRANCH   6   7
ENDBRANCH   5   6
ENDBRANCH   4   5
ENDBRANCH   3   4
ENDBRANCH   2   3
ENDBRANCH   1   2
BRANCH   1  15
ATOM     15  C   UNL     1       8.156 -32.230  17.500  1.00  0.00     0.000 C 
BRANCH  15  16
ATOM     16  C   UNL     1       8.798 -31.835  18.843  1.00  0.00     0.000 C 
BRANCH  16  17
ATOM     17  C   UNL     1      10.248 -31.354  18.686  1.00  0.00     0.000 C 
BRANCH  17  18
ATOM     18  C   UNL     1      10.382 -30.181  17.698  1.00  0.00    -0.000 C 
BRANCH  18  19
ATOM     19  C   UNL     1      11.289 -30.538  16.509  1.00  0.00    -0.000 C 
BRANCH  19  20
ATOM     20  C   UNL     1      10.604 -31.507  15.527  1.00  0.00    -0.000 C 
BRANCH  20  21
ATOM     21  C   UNL     1      11.537 -31.935  14.379  1.00  0.00    -0.000 C 
BRANCH  21  22
ATOM     22  C   UNL     1      12.710 -30.966  14.119  1.00  0.00    -0.000 C 
BRANCH  22  23
ATOM     23  C   UNL     1      14.104 -31.624  14.038  1.00  0.00    -0.000 C 
BRANCH  23  24
ATOM     24  C   UNL     1      15.226 -30.794  14.696  1.00  0.00    -0.000 C 
BRANCH  24  25
ATOM     25  C   UNL     1      16.502 -31.618  14.940  1.00  0.00    -0.003 C 
ATOM     26  C   UNL     1      17.136 -32.053  13.622  1.00  0.00     0.004 C 
ENDBRANCH  24  25
ENDBRANCH  23  24
ENDBRANCH  22  23
ENDBRANCH  21  22
ENDBRANCH  20  21
ENDBRANCH  19  20
ENDBRANCH  18  19
ENDBRANCH  17  18
ENDBRANCH  16  17
ENDBRANCH  15  16
ENDBRANCH   1  15
TORSDOF 22
ENDMDL
