MODEL 1
REMARK VINA RESULT:    -6.074      0.000      0.000
REMARK INTER + INTRA:          -8.996
REMARK INTER:                  -8.205
REMARK INTRA:                  -0.791
REMARK UNBOUND:                -0.791
REMARK SMILES CC(=O)CCC=C(C)CCC=C(C)C
REMARK SMILES IDX 7 1 6 2 8 3 9 4 10 5 11 6 13 7 12 8 14 9 5 10 4 11 2 12 3 13
REMARK SMILES IDX 1 14
REMARK H PARENT
REMARK Flexibility Score: inf
ROOT
ATOM      1  C   UNL     1      32.425  18.747  28.421  1.00  0.00    -0.077 C 
ATOM      2  C   UNL     1      33.479  19.421  27.908  1.00  0.00    -0.028 C 
ATOM      3  C   UNL     1      31.008  19.255  28.280  1.00  0.00     0.039 C 
ENDROOT
BRANCH   1   4
ATOM      4  C   UNL     1      32.674  17.463  29.180  1.00  0.00     0.034 C 
BRANCH   4   5
ATOM      5  C   UNL     1      32.709  16.263  28.225  1.00  0.00     0.032 C 
BRANCH   5   6
ATOM      6  C   UNL     1      31.399  15.519  28.253  1.00  0.00    -0.028 C 
ATOM      7  C   UNL     1      29.147  14.875  27.507  1.00  0.00     0.039 C 
ATOM      8  C   UNL     1      30.423  15.657  27.328  1.00  0.00    -0.080 C 
ATOM      9  C   UNL     1      30.584  16.552  26.122  1.00  0.00     0.039 C 
ENDBRANCH   5   6
ENDBRANCH   4   5
ENDBRANCH   1   4
BRANCH   2  10
ATOM     10  C   UNL     1      33.372  20.682  27.084  1.00  0.00     0.035 C 
BRANCH  10  11
ATOM     11  C   UNL     1      32.975  20.382  25.632  1.00  0.00     0.079 C 
BRANCH  11  12
ATOM     12  C   UNL     1      32.095  21.460  25.057  1.00  0.00     0.130 C 
ATOM     13  O   UNL     1      31.343  21.199  24.130  1.00  0.00    -0.300 OA
ATOM     14  C   UNL     1      32.154  22.856  25.598  1.00  0.00     0.087 C 
ENDBRANCH  11  12
ENDBRANCH  10  11
ENDBRANCH   2  10
TORSDOF 6
ENDMDL
MODEL 2
REMARK VINA RESULT:    -6.061      1.484      3.163
REMARK INTER + INTRA:          -8.979
REMARK INTER:                  -8.183
REMARK INTRA:                  -0.795
REMARK UNBOUND:                -0.791
REMARK SMILES CC(=O)CCC=C(C)CCC=C(C)C
REMARK SMILES IDX 7 1 6 2 8 3 9 4 10 5 11 6 13 7 12 8 14 9 5 10 4 11 2 12 3 13
REMARK SMILES IDX 1 14
REMARK H PARENT
REMARK Flexibility Score: inf
ROOT
ATOM      1  C   UNL     1      30.843  17.657  25.530  1.00  0.00    -0.077 C 
ATOM      2  C   UNL     1      31.157  18.748  26.265  1.00  0.00    -0.028 C 
ATOM      3  C   UNL     1      31.391  17.449  24.137  1.00  0.00     0.039 C 
ENDROOT
BRANCH   1   4
ATOM      4  C   UNL     1      29.896  16.630  26.110  1.00  0.00     0.034 C 
BRANCH   4   5
ATOM      5  C   UNL     1      30.192  16.393  27.596  1.00  0.00     0.032 C 
BRANCH   5   6
ATOM      6  C   UNL     1      31.557  15.780  27.779  1.00  0.00    -0.028 C 
ATOM      7  C   UNL     1      33.854  15.586  28.630  1.00  0.00     0.039 C 
ATOM      8  C   UNL     1      32.522  16.288  28.576  1.00  0.00    -0.080 C 
ATOM      9  C   UNL     1      32.295  17.519  29.422  1.00  0.00     0.039 C 
ENDBRANCH   5   6
ENDBRANCH   4   5
ENDBRANCH   1   4
BRANCH   2  10
ATOM     10  C   UNL     1      32.128  19.822  25.835  1.00  0.00     0.035 C 
BRANCH  10  11
ATOM     11  C   UNL     1      32.877  20.424  27.032  1.00  0.00     0.079 C 
BRANCH  11  12
ATOM     12  C   UNL     1      33.544  21.727  26.678  1.00  0.00     0.130 C 
ATOM     13  O   UNL     1      33.004  22.491  25.892  1.00  0.00    -0.300 OA
ATOM     14  C   UNL     1      34.876  22.081  27.265  1.00  0.00     0.087 C 
ENDBRANCH  11  12
ENDBRANCH  10  11
ENDBRANCH   2  10
TORSDOF 6
ENDMDL
MODEL 3
REMARK VINA RESULT:    -5.854      1.622      5.625
REMARK INTER + INTRA:          -8.698
REMARK INTER:                  -7.891
REMARK INTRA:                  -0.807
REMARK UNBOUND:                -0.791
REMARK SMILES CC(=O)CCC=C(C)CCC=C(C)C
REMARK SMILES IDX 7 1 6 2 8 3 9 4 10 5 11 6 13 7 12 8 14 9 5 10 4 11 2 12 3 13
REMARK SMILES IDX 1 14
REMARK H PARENT
REMARK Flexibility Score: inf
ROOT
ATOM      1  C   UNL     1      32.485  19.222  28.102  1.00  0.00    -0.077 C 
ATOM      2  C   UNL     1      32.913  18.003  28.502  1.00  0.00    -0.028 C 
ATOM      3  C   UNL     1      31.023  19.512  27.852  1.00  0.00     0.039 C 
ENDROOT
BRANCH   1   4
ATOM      4  C   UNL     1      33.502  20.318  27.873  1.00  0.00     0.034 C 
BRANCH   4   5
ATOM      5  C   UNL     1      33.648  20.623  26.377  1.00  0.00     0.032 C 
BRANCH   5   6
ATOM      6  C   UNL     1      33.156  22.013  26.064  1.00  0.00    -0.028 C 
ATOM      7  C   UNL     1      31.837  23.740  24.916  1.00  0.00     0.039 C 
ATOM      8  C   UNL     1      32.201  22.297  25.151  1.00  0.00    -0.080 C 
ATOM      9  C   UNL     1      31.483  21.213  24.380  1.00  0.00     0.039 C 
ENDBRANCH   5   6
ENDBRANCH   4   5
ENDBRANCH   1   4
BRANCH   2  10
ATOM     10  C   UNL     1      32.007  16.837  28.819  1.00  0.00     0.035 C 
BRANCH  10  11
ATOM     11  C   UNL     1      31.841  15.902  27.614  1.00  0.00     0.079 C 
BRANCH  11  12
ATOM     12  C   UNL     1      30.414  15.853  27.135  1.00  0.00     0.130 C 
ATOM     13  O   UNL     1      30.060  16.565  26.207  1.00  0.00    -0.300 OA
ATOM     14  C   UNL     1      29.419  14.955  27.805  1.00  0.00     0.087 C 
ENDBRANCH  11  12
ENDBRANCH  10  11
ENDBRANCH   2  10
TORSDOF 6
ENDMDL
MODEL 4
REMARK VINA RESULT:    -5.816      2.553      3.714
REMARK INTER + INTRA:          -8.647
REMARK INTER:                  -8.020
REMARK INTRA:                  -0.628
REMARK UNBOUND:                -0.791
REMARK SMILES CC(=O)CCC=C(C)CCC=C(C)C
REMARK SMILES IDX 7 1 6 2 8 3 9 4 10 5 11 6 13 7 12 8 14 9 5 10 4 11 2 12 3 13
REMARK SMILES IDX 1 14
REMARK H PARENT
REMARK Flexibility Score: inf
ROOT
ATOM      1  C   UNL     1      31.846  20.403  26.421  1.00  0.00    -0.077 C 
ATOM      2  C   UNL     1      31.793  19.331  25.598  1.00  0.00    -0.028 C 
ATOM      3  C   UNL     1      32.329  21.753  25.941  1.00  0.00     0.039 C 
ENDROOT
BRANCH   1   4
ATOM      4  C   UNL     1      31.435  20.240  27.867  1.00  0.00     0.034 C 
BRANCH   4   5
ATOM      5  C   UNL     1      31.010  18.794  28.153  1.00  0.00     0.032 C 
BRANCH   5   6
ATOM      6  C   UNL     1      32.189  17.968  28.600  1.00  0.00    -0.028 C 
ATOM      7  C   UNL     1      33.624  15.980  28.769  1.00  0.00     0.039 C 
ATOM      8  C   UNL     1      32.422  16.696  28.208  1.00  0.00    -0.080 C 
ATOM      9  C   UNL     1      31.528  15.987  27.218  1.00  0.00     0.039 C 
ENDBRANCH   5   6
ENDBRANCH   4   5
ENDBRANCH   1   4
BRANCH   2  10
ATOM     10  C   UNL     1      32.121  19.363  24.125  1.00  0.00     0.035 C 
BRANCH  10  11
ATOM     11  C   UNL     1      31.878  18.001  23.459  1.00  0.00     0.079 C 
BRANCH  11  12
ATOM     12  C   UNL     1      32.682  17.844  22.195  1.00  0.00     0.130 C 
ATOM     13  O   UNL     1      32.990  16.727  21.807  1.00  0.00    -0.300 OA
ATOM     14  C   UNL     1      33.127  19.049  21.424  1.00  0.00     0.087 C 
ENDBRANCH  11  12
ENDBRANCH  10  11
ENDBRANCH   2  10
TORSDOF 6
ENDMDL
MODEL 5
REMARK VINA RESULT:    -5.769      2.566      5.112
REMARK INTER + INTRA:          -8.583
REMARK INTER:                  -7.689
REMARK INTRA:                  -0.894
REMARK UNBOUND:                -0.791
REMARK SMILES CC(=O)CCC=C(C)CCC=C(C)C
REMARK SMILES IDX 7 1 6 2 8 3 9 4 10 5 11 6 13 7 12 8 14 9 5 10 4 11 2 12 3 13
REMARK SMILES IDX 1 14
REMARK H PARENT
REMARK Flexibility Score: inf
ROOT
ATOM      1  C   UNL     1      33.301  20.613  26.869  1.00  0.00    -0.077 C 
ATOM      2  C   UNL     1      32.663  19.611  27.516  1.00  0.00    -0.028 C 
ATOM      3  C   UNL     1      34.734  20.979  27.183  1.00  0.00     0.039 C 
ENDROOT
BRANCH   1   4
ATOM      4  C   UNL     1      32.551  21.405  25.821  1.00  0.00     0.034 C 
BRANCH   4   5
ATOM      5  C   UNL     1      31.441  20.558  25.189  1.00  0.00     0.032 C 
BRANCH   5   6
ATOM      6  C   UNL     1      31.959  19.803  23.991  1.00  0.00    -0.028 C 
ATOM      7  C   UNL     1      32.401  17.851  22.565  1.00  0.00     0.039 C 
ATOM      8  C   UNL     1      31.792  18.477  23.793  1.00  0.00    -0.080 C 
ATOM      9  C   UNL     1      31.001  17.618  24.752  1.00  0.00     0.039 C 
ENDBRANCH   5   6
ENDBRANCH   4   5
ENDBRANCH   1   4
BRANCH   2  10
ATOM     10  C   UNL     1      33.303  18.706  28.541  1.00  0.00     0.035 C 
BRANCH  10  11
ATOM     11  C   UNL     1      32.311  17.666  29.079  1.00  0.00     0.079 C 
BRANCH  11  12
ATOM     12  C   UNL     1      32.571  16.296  28.510  1.00  0.00     0.130 C 
ATOM     13  O   UNL     1      33.691  15.811  28.583  1.00  0.00    -0.300 OA
ATOM     14  C   UNL     1      31.473  15.534  27.834  1.00  0.00     0.087 C 
ENDBRANCH  11  12
ENDBRANCH  10  11
ENDBRANCH   2  10
TORSDOF 6
ENDMDL
MODEL 6
REMARK VINA RESULT:    -5.657      2.118      5.182
REMARK INTER + INTRA:          -8.433
REMARK INTER:                  -7.353
REMARK INTRA:                  -1.080
REMARK UNBOUND:                -0.791
REMARK SMILES CC(=O)CCC=C(C)CCC=C(C)C
REMARK SMILES IDX 7 1 6 2 8 3 9 4 10 5 11 6 13 7 12 8 14 9 5 10 4 11 2 12 3 13
REMARK SMILES IDX 1 14
REMARK H PARENT
REMARK Flexibility Score: inf
ROOT
ATOM      1  C   UNL     1      30.630  16.779  25.823  1.00  0.00    -0.077 C 
ATOM      2  C   UNL     1      31.748  16.339  26.444  1.00  0.00    -0.028 C 
ATOM      3  C   UNL     1      29.249  16.425  26.324  1.00  0.00     0.039 C 
ENDROOT
BRANCH   1   4
ATOM      4  C   UNL     1      30.767  17.629  24.579  1.00  0.00     0.034 C 
BRANCH   4   5
ATOM      5  C   UNL     1      31.787  18.753  24.796  1.00  0.00     0.032 C 
BRANCH   5   6
ATOM      6  C   UNL     1      31.333  19.683  25.892  1.00  0.00    -0.028 C 
ATOM      7  C   UNL     1      31.541  21.440  27.598  1.00  0.00     0.039 C 
ATOM      8  C   UNL     1      32.122  20.605  26.487  1.00  0.00    -0.080 C 
ATOM      9  C   UNL     1      33.553  20.830  26.058  1.00  0.00     0.039 C 
ENDBRANCH   5   6
ENDBRANCH   4   5
ENDBRANCH   1   4
BRANCH   2  10
ATOM     10  C   UNL     1      31.760  15.533  27.720  1.00  0.00     0.035 C 
BRANCH  10  11
ATOM     11  C   UNL     1      32.787  16.074  28.725  1.00  0.00     0.079 C 
BRANCH  11  12
ATOM     12  C   UNL     1      32.610  17.549  28.968  1.00  0.00     0.130 C 
ATOM     13  O   UNL     1      33.575  18.296  28.897  1.00  0.00    -0.300 OA
ATOM     14  C   UNL     1      31.263  18.104  29.320  1.00  0.00     0.087 C 
ENDBRANCH  11  12
ENDBRANCH  10  11
ENDBRANCH   2  10
TORSDOF 6
ENDMDL
MODEL 7
REMARK VINA RESULT:    -5.641      3.072      5.295
REMARK INTER + INTRA:          -8.410
REMARK INTER:                  -7.854
REMARK INTRA:                  -0.557
REMARK UNBOUND:                -0.791
REMARK SMILES CC(=O)CCC=C(C)CCC=C(C)C
REMARK SMILES IDX 7 1 6 2 8 3 9 4 10 5 11 6 13 7 12 8 14 9 5 10 4 11 2 12 3 13
REMARK SMILES IDX 1 14
REMARK H PARENT
REMARK Flexibility Score: inf
ROOT
ATOM      1  C   UNL     1      31.959  19.966  26.461  1.00  0.00    -0.077 C 
ATOM      2  C   UNL     1      31.656  18.795  27.067  1.00  0.00    -0.028 C 
ATOM      3  C   UNL     1      31.630  21.298  27.093  1.00  0.00     0.039 C 
ENDROOT
BRANCH   1   4
ATOM      4  C   UNL     1      32.622  19.938  25.102  1.00  0.00     0.034 C 
BRANCH   4   5
ATOM      5  C   UNL     1      31.594  19.655  23.999  1.00  0.00     0.032 C 
BRANCH   5   6
ATOM      6  C   UNL     1      31.769  18.262  23.450  1.00  0.00    -0.028 C 
ATOM      7  C   UNL     1      32.461  16.534  21.845  1.00  0.00     0.039 C 
ATOM      8  C   UNL     1      32.397  17.973  22.289  1.00  0.00    -0.080 C 
ATOM      9  C   UNL     1      33.046  19.042  21.441  1.00  0.00     0.039 C 
ENDBRANCH   5   6
ENDBRANCH   4   5
ENDBRANCH   1   4
BRANCH   2  10
ATOM     10  C   UNL     1      31.045  18.673  28.442  1.00  0.00     0.035 C 
BRANCH  10  11
ATOM     11  C   UNL     1      31.894  17.787  29.365  1.00  0.00     0.079 C 
BRANCH  11  12
ATOM     12  C   UNL     1      32.196  16.452  28.737  1.00  0.00     0.130 C 
ATOM     13  O   UNL     1      31.280  15.742  28.349  1.00  0.00    -0.300 OA
ATOM     14  C   UNL     1      33.612  15.977  28.607  1.00  0.00     0.087 C 
ENDBRANCH  11  12
ENDBRANCH  10  11
ENDBRANCH   2  10
TORSDOF 6
ENDMDL
MODEL 8
REMARK VINA RESULT:    -5.585      2.808      5.328
REMARK INTER + INTRA:          -8.335
REMARK INTER:                  -7.817
REMARK INTRA:                  -0.518
REMARK UNBOUND:                -0.791
REMARK SMILES CC(=O)CCC=C(C)CCC=C(C)C
REMARK SMILES IDX 7 1 6 2 8 3 9 4 10 5 11 6 13 7 12 8 14 9 5 10 4 11 2 12 3 13
REMARK SMILES IDX 1 14
REMARK H PARENT
REMARK Flexibility Score: inf
ROOT
ATOM      1  C   UNL     1      30.487  16.519  26.251  1.00  0.00    -0.077 C 
ATOM      2  C   UNL     1      31.746  16.368  26.721  1.00  0.00    -0.028 C 
ATOM      3  C   UNL     1      29.315  15.788  26.864  1.00  0.00     0.039 C 
ENDROOT
BRANCH   1   4
ATOM      4  C   UNL     1      30.250  17.425  25.063  1.00  0.00     0.034 C 
BRANCH   4   5
ATOM      5  C   UNL     1      31.524  18.202  24.707  1.00  0.00     0.032 C 
BRANCH   5   6
ATOM      6  C   UNL     1      32.001  17.842  23.324  1.00  0.00    -0.028 C 
ATOM      7  C   UNL     1      32.418  18.154  20.922  1.00  0.00     0.039 C 
ATOM      8  C   UNL     1      31.937  18.666  22.255  1.00  0.00    -0.080 C 
ATOM      9  C   UNL     1      31.417  20.081  22.366  1.00  0.00     0.039 C 
ENDBRANCH   5   6
ENDBRANCH   4   5
ENDBRANCH   1   4
BRANCH   2  10
ATOM     10  C   UNL     1      32.119  15.542  27.928  1.00  0.00     0.035 C 
BRANCH  10  11
ATOM     11  C   UNL     1      33.037  16.315  28.885  1.00  0.00     0.079 C 
BRANCH  11  12
ATOM     12  C   UNL     1      32.670  17.774  28.957  1.00  0.00     0.130 C 
ATOM     13  O   UNL     1      33.502  18.624  28.676  1.00  0.00    -0.300 OA
ATOM     14  C   UNL     1      31.299  18.191  29.397  1.00  0.00     0.087 C 
ENDBRANCH  11  12
ENDBRANCH  10  11
ENDBRANCH   2  10
TORSDOF 6
ENDMDL
MODEL 9
REMARK VINA RESULT:    -5.395     11.629     12.890
REMARK INTER + INTRA:          -8.079
REMARK INTER:                  -7.407
REMARK INTRA:                  -0.671
REMARK UNBOUND:                -0.791
REMARK SMILES CC(=O)CCC=C(C)CCC=C(C)C
REMARK SMILES IDX 7 1 6 2 8 3 9 4 10 5 11 6 13 7 12 8 14 9 5 10 4 11 2 12 3 13
REMARK SMILES IDX 1 14
REMARK H PARENT
REMARK Flexibility Score: inf
ROOT
ATOM      1  C   UNL     1      21.063  23.595  26.408  1.00  0.00    -0.077 C 
ATOM      2  C   UNL     1      21.961  23.464  25.406  1.00  0.00    -0.028 C 
ATOM      3  C   UNL     1      21.224  24.636  27.492  1.00  0.00     0.039 C 
ENDROOT
BRANCH   1   4
ATOM      4  C   UNL     1      19.877  22.657  26.459  1.00  0.00     0.034 C 
BRANCH   4   5
ATOM      5  C   UNL     1      18.567  23.421  26.239  1.00  0.00     0.032 C 
BRANCH   5   6
ATOM      6  C   UNL     1      17.680  23.325  27.454  1.00  0.00    -0.028 C 
ATOM      7  C   UNL     1      16.369  24.138  29.368  1.00  0.00     0.039 C 
ATOM      8  C   UNL     1      17.216  24.388  28.147  1.00  0.00    -0.080 C 
ATOM      9  C   UNL     1      17.506  25.809  27.722  1.00  0.00     0.039 C 
ENDBRANCH   5   6
ENDBRANCH   4   5
ENDBRANCH   1   4
BRANCH   2  10
ATOM     10  C   UNL     1      23.157  24.363  25.202  1.00  0.00     0.035 C 
BRANCH  10  11
ATOM     11  C   UNL     1      23.456  24.581  23.712  1.00  0.00     0.079 C 
BRANCH  11  12
ATOM     12  C   UNL     1      24.336  23.496  23.153  1.00  0.00     0.130 C 
ATOM     13  O   UNL     1      25.541  23.524  23.359  1.00  0.00    -0.300 OA
ATOM     14  C   UNL     1      23.749  22.395  22.323  1.00  0.00     0.087 C 
ENDBRANCH  11  12
ENDBRANCH  10  11
ENDBRANCH   2  10
TORSDOF 6
ENDMDL
