MODEL 1
REMARK VINA RESULT:    -5.612      0.000      0.000
REMARK INTER + INTRA:          -6.068
REMARK INTER:                  -5.940
REMARK INTRA:                  -0.128
REMARK UNBOUND:                -0.128
REMARK SMILES C=C(C)[C@@H]1CC=C(C)CC1
REMARK SMILES IDX 8 1 7 2 6 3 5 4 4 5 10 6 9 7 2 8 1 9 3 10
REMARK H PARENT
REMARK Flexibility Score: inf
ROOT
ATOM      1  C   UNL     1       5.501   0.668 -22.396  1.00  0.00     0.039 C 
ATOM      2  C   UNL     1       4.547  -0.474 -22.612  1.00  0.00    -0.077 C 
ATOM      3  C   UNL     1       3.287  -0.375 -22.140  1.00  0.00    -0.027 C 
ATOM      4  C   UNL     1       2.242  -1.442 -22.351  1.00  0.00     0.035 C 
ATOM      5  C   UNL     1       2.867  -2.818 -22.640  1.00  0.00     0.018 C 
ATOM      6  C   UNL     1       3.949  -2.683 -23.723  1.00  0.00     0.013 C 
ATOM      7  C   UNL     1       5.069  -1.755 -23.238  1.00  0.00     0.031 C 
ENDROOT
BRANCH   5   8
ATOM      8  C   UNL     1       1.806  -3.837 -23.034  1.00  0.00    -0.077 C 
ATOM      9  C   UNL     1       2.145  -5.124 -23.217  1.00  0.00     0.008 C 
ATOM     10  C   UNL     1       0.362  -3.441 -23.214  1.00  0.00     0.039 C 
ENDBRANCH   5   8
TORSDOF 1
ENDMDL
MODEL 2
REMARK VINA RESULT:    -5.390      1.815      3.316
REMARK INTER + INTRA:          -5.833
REMARK INTER:                  -5.701
REMARK INTRA:                  -0.132
REMARK UNBOUND:                -0.128
REMARK SMILES C=C(C)[C@@H]1CC=C(C)CC1
REMARK SMILES IDX 8 1 7 2 6 3 5 4 4 5 10 6 9 7 2 8 1 9 3 10
REMARK H PARENT
REMARK Flexibility Score: inf
ROOT
ATOM      1  C   UNL     1       4.403   3.633 -22.066  1.00  0.00     0.039 C 
ATOM      2  C   UNL     1       4.464   2.179 -22.445  1.00  0.00    -0.077 C 
ATOM      3  C   UNL     1       3.976   1.257 -21.588  1.00  0.00    -0.027 C 
ATOM      4  C   UNL     1       3.943  -0.219 -21.899  1.00  0.00     0.035 C 
ATOM      5  C   UNL     1       4.974  -0.610 -22.973  1.00  0.00     0.018 C 
ATOM      6  C   UNL     1       4.876   0.352 -24.166  1.00  0.00     0.013 C 
ATOM      7  C   UNL     1       5.190   1.785 -23.718  1.00  0.00     0.031 C 
ENDROOT
BRANCH   5   8
ATOM      8  C   UNL     1       4.800  -2.059 -23.407  1.00  0.00    -0.077 C 
ATOM      9  C   UNL     1       3.645  -2.700 -23.165  1.00  0.00     0.008 C 
ATOM     10  C   UNL     1       5.900  -2.805 -24.122  1.00  0.00     0.039 C 
ENDBRANCH   5   8
TORSDOF 1
ENDMDL
MODEL 3
REMARK VINA RESULT:    -5.256      3.664      6.253
REMARK INTER + INTRA:          -5.691
REMARK INTER:                  -5.561
REMARK INTRA:                  -0.130
REMARK UNBOUND:                -0.128
REMARK SMILES C=C(C)[C@@H]1CC=C(C)CC1
REMARK SMILES IDX 8 1 7 2 6 3 5 4 4 5 10 6 9 7 2 8 1 9 3 10
REMARK H PARENT
REMARK Flexibility Score: inf
ROOT
ATOM      1  C   UNL     1       5.676   7.090 -22.576  1.00  0.00     0.039 C 
ATOM      2  C   UNL     1       5.441   5.605 -22.618  1.00  0.00    -0.077 C 
ATOM      3  C   UNL     1       6.359   4.812 -23.208  1.00  0.00    -0.027 C 
ATOM      4  C   UNL     1       6.241   3.309 -23.254  1.00  0.00     0.035 C 
ATOM      5  C   UNL     1       4.786   2.835 -23.082  1.00  0.00     0.018 C 
ATOM      6  C   UNL     1       4.145   3.545 -21.880  1.00  0.00     0.013 C 
ATOM      7  C   UNL     1       4.117   5.060 -22.113  1.00  0.00     0.031 C 
ENDROOT
BRANCH   5   8
ATOM      8  C   UNL     1       4.710   1.321 -22.945  1.00  0.00    -0.077 C 
ATOM      9  C   UNL     1       5.556   0.676 -22.125  1.00  0.00     0.008 C 
ATOM     10  C   UNL     1       3.688   0.512 -23.705  1.00  0.00     0.039 C 
ENDBRANCH   5   8
TORSDOF 1
ENDMDL
MODEL 4
REMARK VINA RESULT:    -5.249      0.914      4.405
REMARK INTER + INTRA:          -5.684
REMARK INTER:                  -5.556
REMARK INTRA:                  -0.128
REMARK UNBOUND:                -0.128
REMARK SMILES C=C(C)[C@@H]1CC=C(C)CC1
REMARK SMILES IDX 8 1 7 2 6 3 5 4 4 5 10 6 9 7 2 8 1 9 3 10
REMARK H PARENT
REMARK Flexibility Score: inf
ROOT
ATOM      1  C   UNL     1       2.363  -4.459 -22.872  1.00  0.00     0.039 C 
ATOM      2  C   UNL     1       3.054  -3.123 -22.859  1.00  0.00    -0.077 C 
ATOM      3  C   UNL     1       2.471  -2.090 -22.216  1.00  0.00    -0.027 C 
ATOM      4  C   UNL     1       3.109  -0.727 -22.101  1.00  0.00     0.035 C 
ATOM      5  C   UNL     1       4.153  -0.480 -23.204  1.00  0.00     0.018 C 
ATOM      6  C   UNL     1       5.103  -1.683 -23.303  1.00  0.00     0.013 C 
ATOM      7  C   UNL     1       4.318  -2.946 -23.680  1.00  0.00     0.031 C 
ENDROOT
BRANCH   5   8
ATOM      8  C   UNL     1       4.916   0.817 -22.964  1.00  0.00    -0.077 C 
ATOM      9  C   UNL     1       5.880   0.867 -22.031  1.00  0.00     0.008 C 
ATOM     10  C   UNL     1       4.623   2.062 -23.764  1.00  0.00     0.039 C 
ENDBRANCH   5   8
TORSDOF 1
ENDMDL
MODEL 5
REMARK VINA RESULT:    -5.197      1.109      4.472
REMARK INTER + INTRA:          -5.629
REMARK INTER:                  -5.502
REMARK INTRA:                  -0.127
REMARK UNBOUND:                -0.128
REMARK SMILES C=C(C)[C@@H]1CC=C(C)CC1
REMARK SMILES IDX 8 1 7 2 6 3 5 4 4 5 10 6 9 7 2 8 1 9 3 10
REMARK H PARENT
REMARK Flexibility Score: inf
ROOT
ATOM      1  C   UNL     1      -0.614  -3.614 -23.254  1.00  0.00     0.039 C 
ATOM      2  C   UNL     1       0.806  -3.121 -23.314  1.00  0.00    -0.077 C 
ATOM      3  C   UNL     1       1.814  -4.004 -23.154  1.00  0.00    -0.027 C 
ATOM      4  C   UNL     1       3.269  -3.619 -23.250  1.00  0.00     0.035 C 
ATOM      5  C   UNL     1       3.490  -2.117 -22.994  1.00  0.00     0.018 C 
ATOM      6  C   UNL     1       2.498  -1.294 -23.829  1.00  0.00     0.013 C 
ATOM      7  C   UNL     1       1.058  -1.629 -23.421  1.00  0.00     0.031 C 
ENDROOT
BRANCH   5   8
ATOM      8  C   UNL     1       4.931  -1.713 -23.277  1.00  0.00    -0.077 C 
ATOM      9  C   UNL     1       5.386  -0.516 -22.872  1.00  0.00     0.008 C 
ATOM     10  C   UNL     1       5.880  -2.636 -24.001  1.00  0.00     0.039 C 
ENDBRANCH   5   8
TORSDOF 1
ENDMDL
MODEL 6
REMARK VINA RESULT:    -5.179      2.532      4.585
REMARK INTER + INTRA:          -5.609
REMARK INTER:                  -5.477
REMARK INTRA:                  -0.132
REMARK UNBOUND:                -0.128
REMARK SMILES C=C(C)[C@@H]1CC=C(C)CC1
REMARK SMILES IDX 8 1 7 2 6 3 5 4 4 5 10 6 9 7 2 8 1 9 3 10
REMARK H PARENT
REMARK Flexibility Score: inf
ROOT
ATOM      1  C   UNL     1       5.503   5.433 -22.630  1.00  0.00     0.039 C 
ATOM      2  C   UNL     1       5.216   3.957 -22.661  1.00  0.00    -0.077 C 
ATOM      3  C   UNL     1       4.363   3.435 -21.755  1.00  0.00    -0.027 C 
ATOM      4  C   UNL     1       3.971   1.979 -21.737  1.00  0.00     0.035 C 
ATOM      5  C   UNL     1       5.009   1.089 -22.443  1.00  0.00     0.018 C 
ATOM      6  C   UNL     1       5.372   1.693 -23.808  1.00  0.00     0.013 C 
ATOM      7  C   UNL     1       5.996   3.081 -23.623  1.00  0.00     0.031 C 
ENDROOT
BRANCH   5   8
ATOM      8  C   UNL     1       4.511  -0.343 -22.579  1.00  0.00    -0.077 C 
ATOM      9  C   UNL     1       3.297  -0.680 -22.115  1.00  0.00     0.008 C 
ATOM     10  C   UNL     1       5.348  -1.409 -23.241  1.00  0.00     0.039 C 
ENDBRANCH   5   8
TORSDOF 1
ENDMDL
MODEL 7
REMARK VINA RESULT:    -5.120      1.007      4.600
REMARK INTER + INTRA:          -5.547
REMARK INTER:                  -5.427
REMARK INTRA:                  -0.120
REMARK UNBOUND:                -0.128
REMARK SMILES C=C(C)[C@@H]1CC=C(C)CC1
REMARK SMILES IDX 8 1 7 2 6 3 5 4 4 5 10 6 9 7 2 8 1 9 3 10
REMARK H PARENT
REMARK Flexibility Score: inf
ROOT
ATOM      1  C   UNL     1       2.253  -4.813 -22.997  1.00  0.00     0.039 C 
ATOM      2  C   UNL     1       2.895  -3.453 -23.020  1.00  0.00    -0.077 C 
ATOM      3  C   UNL     1       4.074  -3.294 -23.657  1.00  0.00    -0.027 C 
ATOM      4  C   UNL     1       4.770  -1.962 -23.782  1.00  0.00     0.035 C 
ATOM      5  C   UNL     1       4.325  -0.970 -22.692  1.00  0.00     0.018 C 
ATOM      6  C   UNL     1       2.791  -0.946 -22.603  1.00  0.00     0.013 C 
ATOM      7  C   UNL     1       2.262  -2.333 -22.215  1.00  0.00     0.031 C 
ENDROOT
BRANCH   5   8
ATOM      8  C   UNL     1       4.892   0.420 -22.942  1.00  0.00    -0.077 C 
ATOM      9  C   UNL     1       5.862   0.904 -22.149  1.00  0.00     0.008 C 
ATOM     10  C   UNL     1       4.399   1.279 -24.080  1.00  0.00     0.039 C 
ENDBRANCH   5   8
TORSDOF 1
ENDMDL
MODEL 8
REMARK VINA RESULT:    -5.111      2.802      6.283
REMARK INTER + INTRA:          -5.538
REMARK INTER:                  -5.409
REMARK INTRA:                  -0.129
REMARK UNBOUND:                -0.128
REMARK SMILES C=C(C)[C@@H]1CC=C(C)CC1
REMARK SMILES IDX 8 1 7 2 6 3 5 4 4 5 10 6 9 7 2 8 1 9 3 10
REMARK H PARENT
REMARK Flexibility Score: inf
ROOT
ATOM      1  C   UNL     1       4.790  -1.476 -23.353  1.00  0.00     0.039 C 
ATOM      2  C   UNL     1       4.744   0.005 -23.090  1.00  0.00    -0.077 C 
ATOM      3  C   UNL     1       5.127   0.856 -24.065  1.00  0.00    -0.027 C 
ATOM      4  C   UNL     1       5.068   2.356 -23.918  1.00  0.00     0.035 C 
ATOM      5  C   UNL     1       5.072   2.796 -22.443  1.00  0.00     0.018 C 
ATOM      6  C   UNL     1       4.038   1.980 -21.652  1.00  0.00     0.013 C 
ATOM      7  C   UNL     1       4.396   0.490 -21.695  1.00  0.00     0.031 C 
ENDROOT
BRANCH   5   8
ATOM      8  C   UNL     1       4.824   4.292 -22.311  1.00  0.00    -0.077 C 
ATOM      9  C   UNL     1       3.629   4.742 -21.892  1.00  0.00     0.008 C 
ATOM     10  C   UNL     1       5.900   5.300 -22.629  1.00  0.00     0.039 C 
ENDBRANCH   5   8
TORSDOF 1
ENDMDL
MODEL 9
REMARK VINA RESULT:    -4.987      1.510      4.380
REMARK INTER + INTRA:          -5.406
REMARK INTER:                  -5.277
REMARK INTRA:                  -0.129
REMARK UNBOUND:                -0.128
REMARK SMILES C=C(C)[C@@H]1CC=C(C)CC1
REMARK SMILES IDX 8 1 7 2 6 3 5 4 4 5 10 6 9 7 2 8 1 9 3 10
REMARK H PARENT
REMARK Flexibility Score: inf
ROOT
ATOM      1  C   UNL     1      -0.878  -3.360 -23.585  1.00  0.00     0.039 C 
ATOM      2  C   UNL     1       0.607  -3.139 -23.671  1.00  0.00    -0.077 C 
ATOM      3  C   UNL     1       1.072  -2.043 -24.306  1.00  0.00    -0.027 C 
ATOM      4  C   UNL     1       2.540  -1.706 -24.399  1.00  0.00     0.035 C 
ATOM      5  C   UNL     1       3.433  -2.945 -24.211  1.00  0.00     0.018 C 
ATOM      6  C   UNL     1       2.980  -3.733 -22.973  1.00  0.00     0.013 C 
ATOM      7  C   UNL     1       1.538  -4.222 -23.156  1.00  0.00     0.031 C 
ENDROOT
BRANCH   5   8
ATOM      8  C   UNL     1       4.904  -2.559 -24.122  1.00  0.00    -0.077 C 
ATOM      9  C   UNL     1       5.299  -1.611 -23.256  1.00  0.00     0.008 C 
ATOM     10  C   UNL     1       5.947  -3.228 -24.981  1.00  0.00     0.039 C 
ENDBRANCH   5   8
TORSDOF 1
ENDMDL
