MODEL 1
REMARK VINA RESULT:     0.489      0.000      0.000
REMARK INTER + INTRA:           2.407
REMARK INTER:                   1.288
REMARK INTRA:                   1.119
REMARK UNBOUND:                 1.119
REMARK SMILES CCCCCCCCCCCCCCCCCCCCCCCCCCCCCC(=O)[O-]
REMARK SMILES IDX 16 1 17 2 18 3 19 4 20 5 21 6 22 7 23 8 24 9 25 10 26 11
REMARK SMILES IDX 27 12 28 13 29 14 30 15 31 16 32 17 15 18 14 19 13 20 12 21
REMARK SMILES IDX 11 22 10 23 9 24 8 25 7 26 6 27 5 28 4 29 3 30 2 31 1 32
REMARK H PARENT
REMARK Flexibility Score: inf
ROOT
ATOM      1  C   UNL     1       4.364 -33.491  22.303  1.00  0.00     0.000 C 
ENDROOT
BRANCH   1   2
ATOM      2  C   UNL     1       5.627 -32.854  22.903  1.00  0.00     0.000 C 
BRANCH   2   3
ATOM      3  C   UNL     1       6.125 -33.582  24.161  1.00  0.00     0.000 C 
BRANCH   3   4
ATOM      4  C   UNL     1       5.374 -34.902  24.411  1.00  0.00     0.000 C 
BRANCH   4   5
ATOM      5  C   UNL     1       6.124 -36.127  23.863  1.00  0.00     0.000 C 
BRANCH   5   6
ATOM      6  C   UNL     1       6.111 -36.194  22.327  1.00  0.00     0.000 C 
BRANCH   6   7
ATOM      7  C   UNL     1       4.838 -36.883  21.810  1.00  0.00     0.000 C 
BRANCH   7   8
ATOM      8  C   UNL     1       5.108 -38.322  21.324  1.00  0.00     0.000 C 
BRANCH   8   9
ATOM      9  C   UNL     1       4.195 -39.389  21.959  1.00  0.00     0.000 C 
BRANCH   9  10
ATOM     10  C   UNL     1       4.714 -39.950  23.298  1.00  0.00     0.000 C 
BRANCH  10  11
ATOM     11  C   UNL     1       4.114 -39.216  24.511  1.00  0.00     0.000 C 
BRANCH  11  12
ATOM     12  C   UNL     1       4.930 -37.979  24.914  1.00  0.00     0.000 C 
BRANCH  12  13
ATOM     13  C   UNL     1       4.192 -37.098  25.938  1.00  0.00     0.006 C 
BRANCH  13  14
ATOM     14  C   UNL     1       3.493 -37.928  27.023  1.00  0.00     0.053 C 
BRANCH  14  15
ATOM     15  C   UNL     1       2.101 -37.442  27.284  1.00  0.00     0.041 C 
ATOM     16  O   UNL     1       1.115 -38.187  27.047  1.00  0.00    -0.550 OA
ATOM     17  O   UNL     1       1.892 -36.151  27.753  1.00  0.00    -0.550 OA
ENDBRANCH  14  15
ENDBRANCH  13  14
ENDBRANCH  12  13
ENDBRANCH  11  12
ENDBRANCH  10  11
ENDBRANCH   9  10
ENDBRANCH   8   9
ENDBRANCH   7   8
ENDBRANCH   6   7
ENDBRANCH   5   6
ENDBRANCH   4   5
ENDBRANCH   3   4
ENDBRANCH   2   3
ENDBRANCH   1   2
BRANCH   1  18
ATOM     18  C   UNL     1       4.424 -33.456  20.769  1.00  0.00     0.000 C 
BRANCH  18  19
ATOM     19  C   UNL     1       5.766 -33.954  20.210  1.00  0.00     0.000 C 
BRANCH  19  20
ATOM     20  C   UNL     1       5.826 -33.894  18.674  1.00  0.00     0.000 C 
BRANCH  20  21
ATOM     21  C   UNL     1       4.627 -34.579  17.997  1.00  0.00     0.000 C 
BRANCH  21  22
ATOM     22  C   UNL     1       4.051 -35.769  18.794  1.00  0.00     0.000 C 
BRANCH  22  23
ATOM     23  C   UNL     1       3.880 -37.027  17.926  1.00  0.00     0.000 C 
BRANCH  23  24
ATOM     24  C   UNL     1       2.995 -38.096  18.595  1.00  0.00    -0.000 C 
BRANCH  24  25
ATOM     25  C   UNL     1       1.580 -37.619  18.988  1.00  0.00    -0.000 C 
BRANCH  25  26
ATOM     26  C   UNL     1       0.723 -37.090  17.824  1.00  0.00    -0.000 C 
BRANCH  26  27
ATOM     27  C   UNL     1       1.446 -37.172  16.467  1.00  0.00    -0.000 C 
BRANCH  27  28
ATOM     28  C   UNL     1       1.607 -35.797  15.799  1.00  0.00    -0.000 C 
BRANCH  28  29
ATOM     29  C   UNL     1       2.722 -35.785  14.737  1.00  0.00    -0.000 C 
BRANCH  29  30
ATOM     30  C   UNL     1       2.772 -37.096  13.926  1.00  0.00    -0.000 C 
BRANCH  30  31
ATOM     31  C   UNL     1       4.145 -37.788  13.955  1.00  0.00    -0.003 C 
ATOM     32  C   UNL     1       4.148 -39.074  14.776  1.00  0.00     0.004 C 
ENDBRANCH  30  31
ENDBRANCH  29  30
ENDBRANCH  28  29
ENDBRANCH  27  28
ENDBRANCH  26  27
ENDBRANCH  25  26
ENDBRANCH  24  25
ENDBRANCH  23  24
ENDBRANCH  22  23
ENDBRANCH  21  22
ENDBRANCH  20  21
ENDBRANCH  19  20
ENDBRANCH  18  19
ENDBRANCH   1  18
TORSDOF 28
ENDMDL
MODEL 2
REMARK VINA RESULT:     0.850      1.493      2.799
REMARK INTER + INTRA:           3.359
REMARK INTER:                   4.737
REMARK INTRA:                  -1.377
REMARK UNBOUND:                 1.119
REMARK SMILES CCCCCCCCCCCCCCCCCCCCCCCCCCCCCC(=O)[O-]
REMARK SMILES IDX 16 1 17 2 18 3 19 4 20 5 21 6 22 7 23 8 24 9 25 10 26 11
REMARK SMILES IDX 27 12 28 13 29 14 30 15 31 16 32 17 15 18 14 19 13 20 12 21
REMARK SMILES IDX 11 22 10 23 9 24 8 25 7 26 6 27 5 28 4 29 3 30 2 31 1 32
REMARK H PARENT
REMARK Flexibility Score: inf
ROOT
ATOM      1  C   UNL     1       5.382 -34.093  23.082  1.00  0.00     0.000 C 
ENDROOT
BRANCH   1   2
ATOM      2  C   UNL     1       4.977 -35.574  23.128  1.00  0.00     0.000 C 
BRANCH   2   3
ATOM      3  C   UNL     1       6.051 -36.506  22.544  1.00  0.00     0.000 C 
BRANCH   3   4
ATOM      4  C   UNL     1       5.531 -37.322  21.347  1.00  0.00     0.000 C 
BRANCH   4   5
ATOM      5  C   UNL     1       4.493 -38.382  21.754  1.00  0.00     0.000 C 
BRANCH   5   6
ATOM      6  C   UNL     1       5.137 -39.712  22.176  1.00  0.00     0.000 C 
BRANCH   6   7
ATOM      7  C   UNL     1       5.102 -39.889  23.702  1.00  0.00     0.000 C 
BRANCH   7   8
ATOM      8  C   UNL     1       4.240 -38.815  24.396  1.00  0.00     0.000 C 
BRANCH   8   9
ATOM      9  C   UNL     1       4.960 -38.058  25.530  1.00  0.00     0.000 C 
BRANCH   9  10
ATOM     10  C   UNL     1       4.078 -37.026  26.261  1.00  0.00     0.000 C 
BRANCH  10  11
ATOM     11  C   UNL     1       2.635 -37.525  26.455  1.00  0.00     0.000 C 
BRANCH  11  12
ATOM     12  C   UNL     1       2.101 -37.249  27.870  1.00  0.00     0.000 C 
BRANCH  12  13
ATOM     13  C   UNL     1       1.462 -35.854  27.993  1.00  0.00     0.006 C 
BRANCH  13  14
ATOM     14  C   UNL     1       2.342 -34.879  28.786  1.00  0.00     0.053 C 
BRANCH  14  15
ATOM     15  C   UNL     1       1.549 -34.115  29.801  1.00  0.00     0.041 C 
ATOM     16  O   UNL     1       0.316 -33.925  29.629  1.00  0.00    -0.550 OA
ATOM     17  O   UNL     1       2.180 -33.580  30.917  1.00  0.00    -0.550 OA
ENDBRANCH  14  15
ENDBRANCH  13  14
ENDBRANCH  12  13
ENDBRANCH  11  12
ENDBRANCH  10  11
ENDBRANCH   9  10
ENDBRANCH   8   9
ENDBRANCH   7   8
ENDBRANCH   6   7
ENDBRANCH   5   6
ENDBRANCH   4   5
ENDBRANCH   3   4
ENDBRANCH   2   3
ENDBRANCH   1   2
BRANCH   1  18
ATOM     18  C   UNL     1       4.298 -33.264  22.376  1.00  0.00     0.000 C 
BRANCH  18  19
ATOM     19  C   UNL     1       4.236 -33.525  20.863  1.00  0.00     0.000 C 
BRANCH  19  20
ATOM     20  C   UNL     1       5.568 -34.045  20.297  1.00  0.00     0.000 C 
BRANCH  20  21
ATOM     21  C   UNL     1       5.664 -33.919  18.767  1.00  0.00     0.000 C 
BRANCH  21  22
ATOM     22  C   UNL     1       4.744 -34.891  17.999  1.00  0.00     0.000 C 
BRANCH  22  23
ATOM     23  C   UNL     1       4.571 -36.234  18.728  1.00  0.00     0.000 C 
BRANCH  23  24
ATOM     24  C   UNL     1       3.132 -36.458  19.229  1.00  0.00    -0.000 C 
BRANCH  24  25
ATOM     25  C   UNL     1       2.380 -37.624  18.553  1.00  0.00    -0.000 C 
BRANCH  25  26
ATOM     26  C   UNL     1       1.058 -37.236  17.866  1.00  0.00    -0.000 C 
BRANCH  26  27
ATOM     27  C   UNL     1       1.234 -36.921  16.370  1.00  0.00    -0.000 C 
BRANCH  27  28
ATOM     28  C   UNL     1       2.394 -35.949  16.103  1.00  0.00    -0.000 C 
BRANCH  28  29
ATOM     29  C   UNL     1       2.823 -35.937  14.625  1.00  0.00    -0.000 C 
BRANCH  29  30
ATOM     30  C   UNL     1       2.950 -37.358  14.038  1.00  0.00    -0.000 C 
BRANCH  30  31
ATOM     31  C   UNL     1       4.402 -37.844  13.907  1.00  0.00    -0.003 C 
ATOM     32  C   UNL     1       4.551 -39.348  14.126  1.00  0.00     0.004 C 
ENDBRANCH  30  31
ENDBRANCH  29  30
ENDBRANCH  28  29
ENDBRANCH  27  28
ENDBRANCH  26  27
ENDBRANCH  25  26
ENDBRANCH  24  25
ENDBRANCH  23  24
ENDBRANCH  22  23
ENDBRANCH  21  22
ENDBRANCH  20  21
ENDBRANCH  19  20
ENDBRANCH  18  19
ENDBRANCH   1  18
TORSDOF 28
ENDMDL
MODEL 3
REMARK VINA RESULT:     0.885      3.550      8.950
REMARK INTER + INTRA:           3.452
REMARK INTER:                   2.587
REMARK INTRA:                   0.865
REMARK UNBOUND:                 1.119
REMARK SMILES CCCCCCCCCCCCCCCCCCCCCCCCCCCCCC(=O)[O-]
REMARK SMILES IDX 16 1 17 2 18 3 19 4 20 5 21 6 22 7 23 8 24 9 25 10 26 11
REMARK SMILES IDX 27 12 28 13 29 14 30 15 31 16 32 17 15 18 14 19 13 20 12 21
REMARK SMILES IDX 11 22 10 23 9 24 8 25 7 26 6 27 5 28 4 29 3 30 2 31 1 32
REMARK H PARENT
REMARK Flexibility Score: inf
ROOT
ATOM      1  C   UNL     1       4.962 -35.850  23.077  1.00  0.00     0.000 C 
ENDROOT
BRANCH   1   2
ATOM      2  C   UNL     1       5.628 -34.556  23.567  1.00  0.00     0.000 C 
BRANCH   2   3
ATOM      3  C   UNL     1       5.300 -33.342  22.684  1.00  0.00     0.000 C 
BRANCH   3   4
ATOM      4  C   UNL     1       3.874 -33.405  22.107  1.00  0.00     0.000 C 
BRANCH   4   5
ATOM      5  C   UNL     1       3.851 -33.370  20.569  1.00  0.00     0.000 C 
BRANCH   5   6
ATOM      6  C   UNL     1       5.018 -34.148  19.940  1.00  0.00     0.000 C 
BRANCH   6   7
ATOM      7  C   UNL     1       5.049 -33.970  18.414  1.00  0.00     0.000 C 
BRANCH   7   8
ATOM      8  C   UNL     1       4.391 -35.153  17.674  1.00  0.00     0.000 C 
BRANCH   8   9
ATOM      9  C   UNL     1       4.096 -36.375  18.567  1.00  0.00     0.000 C 
BRANCH   9  10
ATOM     10  C   UNL     1       3.135 -37.403  17.936  1.00  0.00     0.000 C 
BRANCH  10  11
ATOM     11  C   UNL     1       1.793 -36.771  17.525  1.00  0.00     0.000 C 
BRANCH  11  12
ATOM     12  C   UNL     1       1.908 -35.919  16.251  1.00  0.00     0.000 C 
BRANCH  12  13
ATOM     13  C   UNL     1       1.479 -36.690  14.990  1.00  0.00     0.006 C 
BRANCH  13  14
ATOM     14  C   UNL     1       2.531 -36.614  13.875  1.00  0.00     0.053 C 
BRANCH  14  15
ATOM     15  C   UNL     1       3.764 -37.390  14.221  1.00  0.00     0.041 C 
ATOM     16  O   UNL     1       3.669 -38.542  14.720  1.00  0.00    -0.550 OA
ATOM     17  O   UNL     1       5.018 -36.826  14.027  1.00  0.00    -0.550 OA
ENDBRANCH  14  15
ENDBRANCH  13  14
ENDBRANCH  12  13
ENDBRANCH  11  12
ENDBRANCH  10  11
ENDBRANCH   9  10
ENDBRANCH   8   9
ENDBRANCH   7   8
ENDBRANCH   6   7
ENDBRANCH   5   6
ENDBRANCH   4   5
ENDBRANCH   3   4
ENDBRANCH   2   3
ENDBRANCH   1   2
BRANCH   1  18
ATOM     18  C   UNL     1       5.686 -36.387  21.833  1.00  0.00     0.000 C 
BRANCH  18  19
ATOM     19  C   UNL     1       4.905 -37.502  21.120  1.00  0.00     0.000 C 
BRANCH  19  20
ATOM     20  C   UNL     1       5.795 -38.348  20.193  1.00  0.00     0.000 C 
BRANCH  20  21
ATOM     21  C   UNL     1       6.086 -39.751  20.753  1.00  0.00     0.000 C 
BRANCH  21  22
ATOM     22  C   UNL     1       5.796 -39.897  22.262  1.00  0.00     0.000 C 
BRANCH  22  23
ATOM     23  C   UNL     1       4.374 -39.442  22.631  1.00  0.00     0.000 C 
BRANCH  23  24
ATOM     24  C   UNL     1       4.211 -39.162  24.137  1.00  0.00    -0.000 C 
BRANCH  24  25
ATOM     25  C   UNL     1       5.253 -38.194  24.737  1.00  0.00    -0.000 C 
BRANCH  25  26
ATOM     26  C   UNL     1       4.922 -37.672  26.147  1.00  0.00    -0.000 C 
BRANCH  26  27
ATOM     27  C   UNL     1       3.600 -36.886  26.195  1.00  0.00    -0.000 C 
BRANCH  27  28
ATOM     28  C   UNL     1       2.428 -37.730  26.724  1.00  0.00    -0.000 C 
BRANCH  28  29
ATOM     29  C   UNL     1       1.792 -37.125  27.988  1.00  0.00    -0.000 C 
BRANCH  29  30
ATOM     30  C   UNL     1       1.941 -35.591  28.045  1.00  0.00    -0.000 C 
BRANCH  30  31
ATOM     31  C   UNL     1       1.690 -34.997  29.440  1.00  0.00    -0.003 C 
ATOM     32  C   UNL     1       1.658 -33.471  29.443  1.00  0.00     0.004 C 
ENDBRANCH  30  31
ENDBRANCH  29  30
ENDBRANCH  28  29
ENDBRANCH  27  28
ENDBRANCH  26  27
ENDBRANCH  25  26
ENDBRANCH  24  25
ENDBRANCH  23  24
ENDBRANCH  22  23
ENDBRANCH  21  22
ENDBRANCH  20  21
ENDBRANCH  19  20
ENDBRANCH  18  19
ENDBRANCH   1  18
TORSDOF 28
ENDMDL
MODEL 4
REMARK VINA RESULT:     1.593      2.434      8.376
REMARK INTER + INTRA:           5.318
REMARK INTER:                   5.307
REMARK INTRA:                   0.012
REMARK UNBOUND:                 1.119
REMARK SMILES CCCCCCCCCCCCCCCCCCCCCCCCCCCCCC(=O)[O-]
REMARK SMILES IDX 16 1 17 2 18 3 19 4 20 5 21 6 22 7 23 8 24 9 25 10 26 11
REMARK SMILES IDX 27 12 28 13 29 14 30 15 31 16 32 17 15 18 14 19 13 20 12 21
REMARK SMILES IDX 11 22 10 23 9 24 8 25 7 26 6 27 5 28 4 29 3 30 2 31 1 32
REMARK H PARENT
REMARK Flexibility Score: inf
ROOT
ATOM      1  C   UNL     1       5.027 -35.708  23.159  1.00  0.00     0.000 C 
ENDROOT
BRANCH   1   2
ATOM      2  C   UNL     1       5.815 -34.485  23.651  1.00  0.00     0.000 C 
BRANCH   2   3
ATOM      3  C   UNL     1       5.474 -33.201  22.877  1.00  0.00     0.000 C 
BRANCH   3   4
ATOM      4  C   UNL     1       4.109 -33.288  22.172  1.00  0.00     0.000 C 
BRANCH   4   5
ATOM      5  C   UNL     1       4.233 -33.567  20.664  1.00  0.00     0.000 C 
BRANCH   5   6
ATOM      6  C   UNL     1       5.687 -33.785  20.219  1.00  0.00     0.000 C 
BRANCH   6   7
ATOM      7  C   UNL     1       5.753 -34.479  18.849  1.00  0.00     0.000 C 
BRANCH   7   8
ATOM      8  C   UNL     1       4.533 -34.147  17.966  1.00  0.00     0.000 C 
BRANCH   8   9
ATOM      9  C   UNL     1       3.759 -35.382  17.462  1.00  0.00     0.000 C 
BRANCH   9  10
ATOM     10  C   UNL     1       3.482 -35.378  15.945  1.00  0.00     0.000 C 
BRANCH  10  11
ATOM     11  C   UNL     1       3.464 -36.799  15.352  1.00  0.00     0.000 C 
BRANCH  11  12
ATOM     12  C   UNL     1       2.149 -37.540  15.638  1.00  0.00     0.000 C 
BRANCH  12  13
ATOM     13  C   UNL     1       1.224 -36.750  16.581  1.00  0.00     0.006 C 
BRANCH  13  14
ATOM     14  C   UNL     1       0.404 -37.668  17.497  1.00  0.00     0.053 C 
BRANCH  14  15
ATOM     15  C   UNL     1       0.893 -37.623  18.911  1.00  0.00     0.041 C 
ATOM     16  O   UNL     1       0.119 -37.269  19.839  1.00  0.00    -0.550 OA
ATOM     17  O   UNL     1       2.215 -37.936  19.200  1.00  0.00    -0.550 OA
ENDBRANCH  14  15
ENDBRANCH  13  14
ENDBRANCH  12  13
ENDBRANCH  11  12
ENDBRANCH  10  11
ENDBRANCH   9  10
ENDBRANCH   8   9
ENDBRANCH   7   8
ENDBRANCH   6   7
ENDBRANCH   5   6
ENDBRANCH   4   5
ENDBRANCH   3   4
ENDBRANCH   2   3
ENDBRANCH   1   2
BRANCH   1  18
ATOM     18  C   UNL     1       5.763 -36.385  21.992  1.00  0.00     0.000 C 
BRANCH  18  19
ATOM     19  C   UNL     1       4.828 -37.208  21.092  1.00  0.00     0.000 C 
BRANCH  19  20
ATOM     20  C   UNL     1       5.595 -38.061  20.066  1.00  0.00     0.000 C 
BRANCH  20  21
ATOM     21  C   UNL     1       5.842 -39.502  20.544  1.00  0.00     0.000 C 
BRANCH  21  22
ATOM     22  C   UNL     1       5.738 -39.682  22.073  1.00  0.00     0.000 C 
BRANCH  22  23
ATOM     23  C   UNL     1       4.315 -39.422  22.597  1.00  0.00     0.000 C 
BRANCH  23  24
ATOM     24  C   UNL     1       4.255 -39.328  24.133  1.00  0.00    -0.000 C 
BRANCH  24  25
ATOM     25  C   UNL     1       5.048 -38.153  24.747  1.00  0.00    -0.000 C 
BRANCH  25  26
ATOM     26  C   UNL     1       4.259 -37.284  25.743  1.00  0.00    -0.000 C 
BRANCH  26  27
ATOM     27  C   UNL     1       3.355 -38.115  26.671  1.00  0.00    -0.000 C 
BRANCH  27  28
ATOM     28  C   UNL     1       2.159 -37.311  27.207  1.00  0.00    -0.000 C 
BRANCH  28  29
ATOM     29  C   UNL     1       2.572 -35.933  27.751  1.00  0.00    -0.000 C 
BRANCH  29  30
ATOM     30  C   UNL     1       1.472 -35.292  28.623  1.00  0.00    -0.000 C 
BRANCH  30  31
ATOM     31  C   UNL     1       1.991 -34.189  29.560  1.00  0.00    -0.003 C 
ATOM     32  C   UNL     1       0.942 -33.124  29.867  1.00  0.00     0.004 C 
ENDBRANCH  30  31
ENDBRANCH  29  30
ENDBRANCH  28  29
ENDBRANCH  27  28
ENDBRANCH  26  27
ENDBRANCH  25  26
ENDBRANCH  24  25
ENDBRANCH  23  24
ENDBRANCH  22  23
ENDBRANCH  21  22
ENDBRANCH  20  21
ENDBRANCH  19  20
ENDBRANCH  18  19
ENDBRANCH   1  18
TORSDOF 28
ENDMDL
MODEL 5
REMARK VINA RESULT:     1.913      1.587      3.963
REMARK INTER + INTRA:           6.164
REMARK INTER:                   6.842
REMARK INTRA:                  -0.678
REMARK UNBOUND:                 1.119
REMARK SMILES CCCCCCCCCCCCCCCCCCCCCCCCCCCCCC(=O)[O-]
REMARK SMILES IDX 16 1 17 2 18 3 19 4 20 5 21 6 22 7 23 8 24 9 25 10 26 11
REMARK SMILES IDX 27 12 28 13 29 14 30 15 31 16 32 17 15 18 14 19 13 20 12 21
REMARK SMILES IDX 11 22 10 23 9 24 8 25 7 26 6 27 5 28 4 29 3 30 2 31 1 32
REMARK H PARENT
REMARK Flexibility Score: inf
ROOT
ATOM      1  C   UNL     1       4.315 -36.253  22.068  1.00  0.00     0.000 C 
ENDROOT
BRANCH   1   2
ATOM      2  C   UNL     1       4.152 -37.308  20.964  1.00  0.00     0.000 C 
BRANCH   2   3
ATOM      3  C   UNL     1       5.449 -37.557  20.177  1.00  0.00     0.000 C 
BRANCH   3   4
ATOM      4  C   UNL     1       5.752 -39.056  20.007  1.00  0.00     0.000 C 
BRANCH   4   5
ATOM      5  C   UNL     1       6.124 -39.744  21.331  1.00  0.00     0.000 C 
BRANCH   5   6
ATOM      6  C   UNL     1       4.930 -39.871  22.290  1.00  0.00     0.000 C 
BRANCH   6   7
ATOM      7  C   UNL     1       5.352 -39.614  23.746  1.00  0.00     0.000 C 
BRANCH   7   8
ATOM      8  C   UNL     1       4.330 -38.745  24.506  1.00  0.00     0.000 C 
BRANCH   8   9
ATOM      9  C   UNL     1       4.954 -37.585  25.307  1.00  0.00     0.000 C 
BRANCH   9  10
ATOM     10  C   UNL     1       3.972 -36.874  26.259  1.00  0.00     0.000 C 
BRANCH  10  11
ATOM     11  C   UNL     1       3.011 -37.859  26.949  1.00  0.00     0.000 C 
BRANCH  11  12
ATOM     12  C   UNL     1       1.613 -37.262  27.171  1.00  0.00     0.000 C 
BRANCH  12  13
ATOM     13  C   UNL     1       1.509 -36.490  28.499  1.00  0.00     0.006 C 
BRANCH  13  14
ATOM     14  C   UNL     1       2.164 -35.105  28.420  1.00  0.00     0.053 C 
BRANCH  14  15
ATOM     15  C   UNL     1       1.724 -34.217  29.543  1.00  0.00     0.041 C 
ATOM     16  O   UNL     1       0.647 -33.571  29.454  1.00  0.00    -0.550 OA
ATOM     17  O   UNL     1       2.521 -34.075  30.671  1.00  0.00    -0.550 OA
ENDBRANCH  14  15
ENDBRANCH  13  14
ENDBRANCH  12  13
ENDBRANCH  11  12
ENDBRANCH  10  11
ENDBRANCH   9  10
ENDBRANCH   8   9
ENDBRANCH   7   8
ENDBRANCH   6   7
ENDBRANCH   5   6
ENDBRANCH   4   5
ENDBRANCH   3   4
ENDBRANCH   2   3
ENDBRANCH   1   2
BRANCH   1  18
ATOM     18  C   UNL     1       5.803 -36.008  22.359  1.00  0.00     0.000 C 
BRANCH  18  19
ATOM     19  C   UNL     1       6.053 -35.446  23.767  1.00  0.00     0.000 C 
BRANCH  19  20
ATOM     20  C   UNL     1       6.083 -33.908  23.793  1.00  0.00     0.000 C 
BRANCH  20  21
ATOM     21  C   UNL     1       5.922 -33.278  22.399  1.00  0.00     0.000 C 
BRANCH  21  22
ATOM     22  C   UNL     1       4.460 -33.201  21.910  1.00  0.00     0.000 C 
BRANCH  22  23
ATOM     23  C   UNL     1       4.320 -33.571  20.424  1.00  0.00     0.000 C 
BRANCH  23  24
ATOM     24  C   UNL     1       5.630 -34.107  19.817  1.00  0.00    -0.000 C 
BRANCH  24  25
ATOM     25  C   UNL     1       5.522 -34.590  18.355  1.00  0.00    -0.000 C 
BRANCH  25  26
ATOM     26  C   UNL     1       4.122 -34.466  17.728  1.00  0.00    -0.000 C 
BRANCH  26  27
ATOM     27  C   UNL     1       3.390 -35.817  17.633  1.00  0.00    -0.000 C 
BRANCH  27  28
ATOM     28  C   UNL     1       2.214 -35.784  16.644  1.00  0.00    -0.000 C 
BRANCH  28  29
ATOM     29  C   UNL     1       1.992 -37.139  15.948  1.00  0.00    -0.000 C 
BRANCH  29  30
ATOM     30  C   UNL     1       3.312 -37.902  15.715  1.00  0.00    -0.000 C 
BRANCH  30  31
ATOM     31  C   UNL     1       3.833 -37.808  14.272  1.00  0.00    -0.003 C 
ATOM     32  C   UNL     1       4.238 -36.391  13.875  1.00  0.00     0.004 C 
ENDBRANCH  30  31
ENDBRANCH  29  30
ENDBRANCH  28  29
ENDBRANCH  27  28
ENDBRANCH  26  27
ENDBRANCH  25  26
ENDBRANCH  24  25
ENDBRANCH  23  24
ENDBRANCH  22  23
ENDBRANCH  21  22
ENDBRANCH  20  21
ENDBRANCH  19  20
ENDBRANCH  18  19
ENDBRANCH   1  18
TORSDOF 28
ENDMDL
MODEL 6
REMARK VINA RESULT:     1.973      0.970      2.752
REMARK INTER + INTRA:           6.322
REMARK INTER:                   6.265
REMARK INTRA:                   0.057
REMARK UNBOUND:                 1.119
REMARK SMILES CCCCCCCCCCCCCCCCCCCCCCCCCCCCCC(=O)[O-]
REMARK SMILES IDX 16 1 17 2 18 3 19 4 20 5 21 6 22 7 23 8 24 9 25 10 26 11
REMARK SMILES IDX 27 12 28 13 29 14 30 15 31 16 32 17 15 18 14 19 13 20 12 21
REMARK SMILES IDX 11 22 10 23 9 24 8 25 7 26 6 27 5 28 4 29 3 30 2 31 1 32
REMARK H PARENT
REMARK Flexibility Score: inf
ROOT
ATOM      1  C   UNL     1       3.725 -33.690  21.886  1.00  0.00     0.000 C 
ENDROOT
BRANCH   1   2
ATOM      2  C   UNL     1       4.777 -32.806  22.574  1.00  0.00     0.000 C 
BRANCH   2   3
ATOM      3  C   UNL     1       6.098 -33.545  22.841  1.00  0.00     0.000 C 
BRANCH   3   4
ATOM      4  C   UNL     1       5.988 -34.534  24.014  1.00  0.00     0.000 C 
BRANCH   4   5
ATOM      5  C   UNL     1       5.430 -35.903  23.590  1.00  0.00     0.000 C 
BRANCH   5   6
ATOM      6  C   UNL     1       6.124 -36.465  22.339  1.00  0.00     0.000 C 
BRANCH   6   7
ATOM      7  C   UNL     1       5.099 -36.873  21.268  1.00  0.00     0.000 C 
BRANCH   7   8
ATOM      8  C   UNL     1       5.673 -37.898  20.270  1.00  0.00     0.000 C 
BRANCH   8   9
ATOM      9  C   UNL     1       5.310 -39.363  20.585  1.00  0.00     0.000 C 
BRANCH   9  10
ATOM     10  C   UNL     1       5.507 -39.759  22.063  1.00  0.00     0.000 C 
BRANCH  10  11
ATOM     11  C   UNL     1       4.298 -39.375  22.936  1.00  0.00     0.000 C 
BRANCH  11  12
ATOM     12  C   UNL     1       4.689 -39.104  24.396  1.00  0.00     0.000 C 
BRANCH  12  13
ATOM     13  C   UNL     1       3.875 -37.953  25.017  1.00  0.00     0.006 C 
BRANCH  13  14
ATOM     14  C   UNL     1       3.837 -38.029  26.549  1.00  0.00     0.053 C 
BRANCH  14  15
ATOM     15  C   UNL     1       2.593 -37.405  27.104  1.00  0.00     0.041 C 
ATOM     16  O   UNL     1       2.558 -36.170  27.348  1.00  0.00    -0.550 OA
ATOM     17  O   UNL     1       1.487 -38.195  27.387  1.00  0.00    -0.550 OA
ENDBRANCH  14  15
ENDBRANCH  13  14
ENDBRANCH  12  13
ENDBRANCH  11  12
ENDBRANCH  10  11
ENDBRANCH   9  10
ENDBRANCH   8   9
ENDBRANCH   7   8
ENDBRANCH   6   7
ENDBRANCH   5   6
ENDBRANCH   4   5
ENDBRANCH   3   4
ENDBRANCH   2   3
ENDBRANCH   1   2
BRANCH   1  18
ATOM     18  C   UNL     1       3.861 -33.595  20.359  1.00  0.00     0.000 C 
BRANCH  18  19
ATOM     19  C   UNL     1       5.074 -34.368  19.817  1.00  0.00     0.000 C 
BRANCH  19  20
ATOM     20  C   UNL     1       5.335 -34.089  18.327  1.00  0.00     0.000 C 
BRANCH  20  21
ATOM     21  C   UNL     1       4.043 -33.894  17.515  1.00  0.00     0.000 C 
BRANCH  21  22
ATOM     22  C   UNL     1       3.550 -35.171  16.803  1.00  0.00     0.000 C 
BRANCH  22  23
ATOM     23  C   UNL     1       2.165 -34.986  16.161  1.00  0.00     0.000 C 
BRANCH  23  24
ATOM     24  C   UNL     1       1.930 -35.932  14.968  1.00  0.00    -0.000 C 
BRANCH  24  25
ATOM     25  C   UNL     1       3.212 -36.527  14.345  1.00  0.00    -0.000 C 
BRANCH  25  26
ATOM     26  C   UNL     1       3.653 -37.881  14.929  1.00  0.00    -0.000 C 
BRANCH  26  27
ATOM     27  C   UNL     1       2.830 -38.294  16.163  1.00  0.00    -0.000 C 
BRANCH  27  28
ATOM     28  C   UNL     1       3.594 -38.087  17.480  1.00  0.00    -0.000 C 
BRANCH  28  29
ATOM     29  C   UNL     1       2.840 -37.171  18.461  1.00  0.00    -0.000 C 
BRANCH  29  30
ATOM     30  C   UNL     1       1.867 -37.954  19.366  1.00  0.00    -0.000 C 
BRANCH  30  31
ATOM     31  C   UNL     1       0.405 -37.499  19.241  1.00  0.00    -0.003 C 
ATOM     32  C   UNL     1      -0.106 -37.520  17.803  1.00  0.00     0.004 C 
ENDBRANCH  30  31
ENDBRANCH  29  30
ENDBRANCH  28  29
ENDBRANCH  27  28
ENDBRANCH  26  27
ENDBRANCH  25  26
ENDBRANCH  24  25
ENDBRANCH  23  24
ENDBRANCH  22  23
ENDBRANCH  21  22
ENDBRANCH  20  21
ENDBRANCH  19  20
ENDBRANCH  18  19
ENDBRANCH   1  18
TORSDOF 28
ENDMDL
MODEL 7
REMARK VINA RESULT:     2.092      1.464      3.652
REMARK INTER + INTRA:           6.634
REMARK INTER:                   7.758
REMARK INTRA:                  -1.124
REMARK UNBOUND:                 1.119
REMARK SMILES CCCCCCCCCCCCCCCCCCCCCCCCCCCCCC(=O)[O-]
REMARK SMILES IDX 16 1 17 2 18 3 19 4 20 5 21 6 22 7 23 8 24 9 25 10 26 11
REMARK SMILES IDX 27 12 28 13 29 14 30 15 31 16 32 17 15 18 14 19 13 20 12 21
REMARK SMILES IDX 11 22 10 23 9 24 8 25 7 26 6 27 5 28 4 29 3 30 2 31 1 32
REMARK H PARENT
REMARK Flexibility Score: inf
ROOT
ATOM      1  C   UNL     1       5.350 -35.624  23.390  1.00  0.00     0.000 C 
ENDROOT
BRANCH   1   2
ATOM      2  C   UNL     1       5.880 -36.253  22.093  1.00  0.00     0.000 C 
BRANCH   2   3
ATOM      3  C   UNL     1       4.792 -36.994  21.299  1.00  0.00     0.000 C 
BRANCH   3   4
ATOM      4  C   UNL     1       5.378 -37.863  20.172  1.00  0.00     0.000 C 
BRANCH   4   5
ATOM      5  C   UNL     1       5.922 -39.210  20.680  1.00  0.00     0.000 C 
BRANCH   5   6
ATOM      6  C   UNL     1       5.729 -39.396  22.193  1.00  0.00     0.000 C 
BRANCH   6   7
ATOM      7  C   UNL     1       4.311 -39.895  22.517  1.00  0.00     0.000 C 
BRANCH   7   8
ATOM      8  C   UNL     1       3.758 -39.279  23.818  1.00  0.00     0.000 C 
BRANCH   8   9
ATOM      9  C   UNL     1       4.817 -38.569  24.684  1.00  0.00     0.000 C 
BRANCH   9  10
ATOM     10  C   UNL     1       4.288 -37.336  25.445  1.00  0.00     0.000 C 
BRANCH  10  11
ATOM     11  C   UNL     1       3.527 -37.724  26.726  1.00  0.00     0.000 C 
BRANCH  11  12
ATOM     12  C   UNL     1       2.190 -36.980  26.865  1.00  0.00     0.000 C 
BRANCH  12  13
ATOM     13  C   UNL     1       1.954 -36.460  28.294  1.00  0.00     0.006 C 
BRANCH  13  14
ATOM     14  C   UNL     1       2.341 -34.983  28.447  1.00  0.00     0.053 C 
BRANCH  14  15
ATOM     15  C   UNL     1       1.588 -34.325  29.562  1.00  0.00     0.041 C 
ATOM     16  O   UNL     1       2.192 -33.957  30.604  1.00  0.00    -0.550 OA
ATOM     17  O   UNL     1       0.214 -34.151  29.465  1.00  0.00    -0.550 OA
ENDBRANCH  14  15
ENDBRANCH  13  14
ENDBRANCH  12  13
ENDBRANCH  11  12
ENDBRANCH  10  11
ENDBRANCH   9  10
ENDBRANCH   8   9
ENDBRANCH   7   8
ENDBRANCH   6   7
ENDBRANCH   5   6
ENDBRANCH   4   5
ENDBRANCH   3   4
ENDBRANCH   2   3
ENDBRANCH   1   2
BRANCH   1  18
ATOM     18  C   UNL     1       6.035 -34.274  23.648  1.00  0.00     0.000 C 
BRANCH  18  19
ATOM     19  C   UNL     1       5.428 -33.127  22.825  1.00  0.00     0.000 C 
BRANCH  19  20
ATOM     20  C   UNL     1       4.102 -33.521  22.150  1.00  0.00     0.000 C 
BRANCH  20  21
ATOM     21  C   UNL     1       4.227 -33.680  20.625  1.00  0.00     0.000 C 
BRANCH  21  22
ATOM     22  C   UNL     1       5.681 -33.813  20.124  1.00  0.00     0.000 C 
BRANCH  22  23
ATOM     23  C   UNL     1       5.767 -34.512  18.757  1.00  0.00     0.000 C 
BRANCH  23  24
ATOM     24  C   UNL     1       4.570 -34.185  17.845  1.00  0.00    -0.000 C 
BRANCH  24  25
ATOM     25  C   UNL     1       3.620 -35.369  17.564  1.00  0.00    -0.000 C 
BRANCH  25  26
ATOM     26  C   UNL     1       4.193 -36.460  16.642  1.00  0.00    -0.000 C 
BRANCH  26  27
ATOM     27  C   UNL     1       3.138 -37.048  15.688  1.00  0.00    -0.000 C 
BRANCH  27  28
ATOM     28  C   UNL     1       2.010 -36.054  15.368  1.00  0.00    -0.000 C 
BRANCH  28  29
ATOM     29  C   UNL     1       0.873 -36.101  16.404  1.00  0.00    -0.000 C 
BRANCH  29  30
ATOM     30  C   UNL     1       0.862 -37.419  17.205  1.00  0.00    -0.000 C 
BRANCH  30  31
ATOM     31  C   UNL     1       0.912 -37.217  18.728  1.00  0.00    -0.003 C 
ATOM     32  C   UNL     1       1.755 -38.269  19.443  1.00  0.00     0.004 C 
ENDBRANCH  30  31
ENDBRANCH  29  30
ENDBRANCH  28  29
ENDBRANCH  27  28
ENDBRANCH  26  27
ENDBRANCH  25  26
ENDBRANCH  24  25
ENDBRANCH  23  24
ENDBRANCH  22  23
ENDBRANCH  21  22
ENDBRANCH  20  21
ENDBRANCH  19  20
ENDBRANCH  18  19
ENDBRANCH   1  18
TORSDOF 28
ENDMDL
MODEL 8
REMARK VINA RESULT:     2.515      1.355      3.236
REMARK INTER + INTRA:           7.751
REMARK INTER:                   8.352
REMARK INTRA:                  -0.601
REMARK UNBOUND:                 1.119
REMARK SMILES CCCCCCCCCCCCCCCCCCCCCCCCCCCCCC(=O)[O-]
REMARK SMILES IDX 16 1 17 2 18 3 19 4 20 5 21 6 22 7 23 8 24 9 25 10 26 11
REMARK SMILES IDX 27 12 28 13 29 14 30 15 31 16 32 17 15 18 14 19 13 20 12 21
REMARK SMILES IDX 11 22 10 23 9 24 8 25 7 26 6 27 5 28 4 29 3 30 2 31 1 32
REMARK H PARENT
REMARK Flexibility Score: inf
ROOT
ATOM      1  C   UNL     1       5.425 -33.054  22.880  1.00  0.00     0.000 C 
ENDROOT
BRANCH   1   2
ATOM      2  C   UNL     1       6.083 -34.190  23.677  1.00  0.00     0.000 C 
BRANCH   2   3
ATOM      3  C   UNL     1       5.294 -35.508  23.604  1.00  0.00     0.000 C 
BRANCH   3   4
ATOM      4  C   UNL     1       5.971 -36.547  22.694  1.00  0.00     0.000 C 
BRANCH   4   5
ATOM      5  C   UNL     1       5.128 -36.895  21.456  1.00  0.00     0.000 C 
BRANCH   5   6
ATOM      6  C   UNL     1       4.536 -38.312  21.520  1.00  0.00     0.000 C 
BRANCH   6   7
ATOM      7  C   UNL     1       5.471 -39.274  22.269  1.00  0.00     0.000 C 
BRANCH   7   8
ATOM      8  C   UNL     1       4.780 -39.937  23.479  1.00  0.00     0.000 C 
BRANCH   8   9
ATOM      9  C   UNL     1       4.829 -39.102  24.774  1.00  0.00     0.000 C 
BRANCH   9  10
ATOM     10  C   UNL     1       3.632 -38.146  24.956  1.00  0.00     0.000 C 
BRANCH  10  11
ATOM     11  C   UNL     1       3.579 -37.540  26.370  1.00  0.00     0.000 C 
BRANCH  11  12
ATOM     12  C   UNL     1       2.156 -37.517  26.948  1.00  0.00     0.000 C 
BRANCH  12  13
ATOM     13  C   UNL     1       2.071 -36.724  28.264  1.00  0.00     0.006 C 
BRANCH  13  14
ATOM     14  C   UNL     1       1.900 -35.218  28.026  1.00  0.00     0.053 C 
BRANCH  14  15
ATOM     15  C   UNL     1       1.630 -34.481  29.302  1.00  0.00     0.041 C 
ATOM     16  O   UNL     1       2.586 -34.092  30.023  1.00  0.00    -0.550 OA
ATOM     17  O   UNL     1       0.322 -34.258  29.712  1.00  0.00    -0.550 OA
ENDBRANCH  14  15
ENDBRANCH  13  14
ENDBRANCH  12  13
ENDBRANCH  11  12
ENDBRANCH  10  11
ENDBRANCH   9  10
ENDBRANCH   8   9
ENDBRANCH   7   8
ENDBRANCH   6   7
ENDBRANCH   5   6
ENDBRANCH   4   5
ENDBRANCH   3   4
ENDBRANCH   2   3
ENDBRANCH   1   2
BRANCH   1  18
ATOM     18  C   UNL     1       4.116 -33.538  22.239  1.00  0.00     0.000 C 
BRANCH  18  19
ATOM     19  C   UNL     1       4.188 -33.602  20.705  1.00  0.00     0.000 C 
BRANCH  19  20
ATOM     20  C   UNL     1       5.598 -33.940  20.193  1.00  0.00     0.000 C 
BRANCH  20  21
ATOM     21  C   UNL     1       5.620 -34.343  18.708  1.00  0.00     0.000 C 
BRANCH  21  22
ATOM     22  C   UNL     1       4.265 -34.168  17.991  1.00  0.00     0.000 C 
BRANCH  22  23
ATOM     23  C   UNL     1       3.998 -35.282  16.964  1.00  0.00     0.000 C 
BRANCH  23  24
ATOM     24  C   UNL     1       2.596 -35.189  16.335  1.00  0.00    -0.000 C 
BRANCH  24  25
ATOM     25  C   UNL     1       2.499 -35.691  14.878  1.00  0.00    -0.000 C 
BRANCH  25  26
ATOM     26  C   UNL     1       3.746 -36.429  14.359  1.00  0.00    -0.000 C 
BRANCH  26  27
ATOM     27  C   UNL     1       3.596 -37.960  14.409  1.00  0.00    -0.000 C 
BRANCH  27  28
ATOM     28  C   UNL     1       3.672 -38.515  15.841  1.00  0.00    -0.000 C 
BRANCH  28  29
ATOM     29  C   UNL     1       2.556 -37.964  16.746  1.00  0.00    -0.000 C 
BRANCH  29  30
ATOM     30  C   UNL     1       2.974 -37.914  18.230  1.00  0.00    -0.000 C 
BRANCH  30  31
ATOM     31  C   UNL     1       1.901 -37.317  19.154  1.00  0.00    -0.003 C 
ATOM     32  C   UNL     1       0.480 -37.674  18.727  1.00  0.00     0.004 C 
ENDBRANCH  30  31
ENDBRANCH  29  30
ENDBRANCH  28  29
ENDBRANCH  27  28
ENDBRANCH  26  27
ENDBRANCH  25  26
ENDBRANCH  24  25
ENDBRANCH  23  24
ENDBRANCH  22  23
ENDBRANCH  21  22
ENDBRANCH  20  21
ENDBRANCH  19  20
ENDBRANCH  18  19
ENDBRANCH   1  18
TORSDOF 28
ENDMDL
MODEL 9
REMARK VINA RESULT:     2.766      2.136      8.066
REMARK INTER + INTRA:           8.413
REMARK INTER:                  10.560
REMARK INTRA:                  -2.147
REMARK UNBOUND:                 1.119
REMARK SMILES CCCCCCCCCCCCCCCCCCCCCCCCCCCCCC(=O)[O-]
REMARK SMILES IDX 16 1 17 2 18 3 19 4 20 5 21 6 22 7 23 8 24 9 25 10 26 11
REMARK SMILES IDX 27 12 28 13 29 14 30 15 31 16 32 17 15 18 14 19 13 20 12 21
REMARK SMILES IDX 11 22 10 23 9 24 8 25 7 26 6 27 5 28 4 29 3 30 2 31 1 32
REMARK H PARENT
REMARK Flexibility Score: inf
ROOT
ATOM      1  C   UNL     1       5.498 -33.919  19.797  1.00  0.00     0.000 C 
ENDROOT
BRANCH   1   2
ATOM      2  C   UNL     1       5.663 -34.217  18.300  1.00  0.00     0.000 C 
BRANCH   2   3
ATOM      3  C   UNL     1       4.808 -35.405  17.829  1.00  0.00     0.000 C 
BRANCH   3   4
ATOM      4  C   UNL     1       3.642 -34.966  16.925  1.00  0.00     0.000 C 
BRANCH   4   5
ATOM      5  C   UNL     1       3.091 -36.115  16.063  1.00  0.00     0.000 C 
BRANCH   5   6
ATOM      6  C   UNL     1       1.555 -36.176  16.068  1.00  0.00     0.000 C 
BRANCH   6   7
ATOM      7  C   UNL     1       1.015 -36.543  17.460  1.00  0.00     0.000 C 
BRANCH   7   8
ATOM      8  C   UNL     1       1.321 -38.007  17.838  1.00  0.00     0.000 C 
BRANCH   8   9
ATOM      9  C   UNL     1       2.520 -38.179  18.792  1.00  0.00     0.000 C 
BRANCH   9  10
ATOM     10  C   UNL     1       2.696 -37.025  19.800  1.00  0.00     0.000 C 
BRANCH  10  11
ATOM     11  C   UNL     1       4.113 -36.986  20.401  1.00  0.00     0.000 C 
BRANCH  11  12
ATOM     12  C   UNL     1       5.022 -38.089  19.837  1.00  0.00     0.000 C 
BRANCH  12  13
ATOM     13  C   UNL     1       5.950 -38.689  20.908  1.00  0.00     0.006 C 
BRANCH  13  14
ATOM     14  C   UNL     1       5.391 -39.990  21.499  1.00  0.00     0.053 C 
BRANCH  14  15
ATOM     15  C   UNL     1       4.858 -39.788  22.883  1.00  0.00     0.041 C 
ATOM     16  O   UNL     1       5.637 -39.816  23.873  1.00  0.00    -0.550 OA
ATOM     17  O   UNL     1       3.496 -39.607  23.084  1.00  0.00    -0.550 OA
ENDBRANCH  14  15
ENDBRANCH  13  14
ENDBRANCH  12  13
ENDBRANCH  11  12
ENDBRANCH  10  11
ENDBRANCH   9  10
ENDBRANCH   8   9
ENDBRANCH   7   8
ENDBRANCH   6   7
ENDBRANCH   5   6
ENDBRANCH   4   5
ENDBRANCH   3   4
ENDBRANCH   2   3
ENDBRANCH   1   2
BRANCH   1  18
ATOM     18  C   UNL     1       4.021 -33.666  20.134  1.00  0.00     0.000 C 
BRANCH  18  19
ATOM     19  C   UNL     1       3.701 -33.878  21.622  1.00  0.00     0.000 C 
BRANCH  19  20
ATOM     20  C   UNL     1       4.504 -32.940  22.539  1.00  0.00     0.000 C 
BRANCH  20  21
ATOM     21  C   UNL     1       5.663 -33.650  23.260  1.00  0.00     0.000 C 
BRANCH  21  22
ATOM     22  C   UNL     1       6.125 -34.953  22.574  1.00  0.00     0.000 C 
BRANCH  22  23
ATOM     23  C   UNL     1       6.110 -36.156  23.533  1.00  0.00     0.000 C 
BRANCH  23  24
ATOM     24  C   UNL     1       4.688 -36.677  23.812  1.00  0.00    -0.000 C 
BRANCH  24  25
ATOM     25  C   UNL     1       4.222 -36.549  25.278  1.00  0.00    -0.000 C 
BRANCH  25  26
ATOM     26  C   UNL     1       4.054 -37.883  26.027  1.00  0.00    -0.000 C 
BRANCH  26  27
ATOM     27  C   UNL     1       2.767 -37.935  26.870  1.00  0.00    -0.000 C 
BRANCH  27  28
ATOM     28  C   UNL     1       2.145 -36.546  27.087  1.00  0.00    -0.000 C 
BRANCH  28  29
ATOM     29  C   UNL     1       2.239 -36.081  28.551  1.00  0.00    -0.000 C 
BRANCH  29  30
ATOM     30  C   UNL     1       2.065 -34.554  28.695  1.00  0.00    -0.000 C 
BRANCH  30  31
ATOM     31  C   UNL     1       1.111 -34.146  29.829  1.00  0.00    -0.003 C 
ATOM     32  C   UNL     1       1.829 -33.485  31.003  1.00  0.00     0.004 C 
ENDBRANCH  30  31
ENDBRANCH  29  30
ENDBRANCH  28  29
ENDBRANCH  27  28
ENDBRANCH  26  27
ENDBRANCH  25  26
ENDBRANCH  24  25
ENDBRANCH  23  24
ENDBRANCH  22  23
ENDBRANCH  21  22
ENDBRANCH  20  21
ENDBRANCH  19  20
ENDBRANCH  18  19
ENDBRANCH   1  18
TORSDOF 28
ENDMDL
