MODEL 1
REMARK VINA RESULT:     7.615      0.000      0.000
REMARK INTER + INTRA:          12.711
REMARK INTER:                  13.848
REMARK INTRA:                  -1.137
REMARK UNBOUND:                -1.137
REMARK SMILES CCCCCCCCCCCCCCCC(=O)[O-]
REMARK SMILES IDX 9 1 10 2 11 3 12 4 13 5 14 6 15 7 16 8 17 9 18 10 8 11 7 12
REMARK SMILES IDX 6 13 5 14 4 15 3 16 2 17 1 18
REMARK H PARENT
REMARK Flexibility Score: inf
ROOT
ATOM      1  C   UNL     1      15.821  39.367  47.362  1.00  0.00     0.000 C 
ENDROOT
BRANCH   1   2
ATOM      2  C   UNL     1      14.506  40.125  47.126  1.00  0.00     0.000 C 
BRANCH   2   3
ATOM      3  C   UNL     1      13.524  39.347  46.236  1.00  0.00     0.000 C 
BRANCH   3   4
ATOM      4  C   UNL     1      12.633  38.385  47.035  1.00  0.00     0.000 C 
BRANCH   4   5
ATOM      5  C   UNL     1      13.240  36.974  47.066  1.00  0.00     0.000 C 
BRANCH   5   6
ATOM      6  C   UNL     1      13.729  36.569  48.466  1.00  0.00     0.006 C 
BRANCH   6   7
ATOM      7  C   UNL     1      15.186  36.087  48.468  1.00  0.00     0.053 C 
BRANCH   7   8
ATOM      8  C   UNL     1      15.547  35.527  49.807  1.00  0.00     0.041 C 
ATOM      9  O   UNL     1      15.229  34.346  50.107  1.00  0.00    -0.550 OA
ATOM     10  O   UNL     1      16.190  36.325  50.744  1.00  0.00    -0.550 OA
ENDBRANCH   7   8
ENDBRANCH   6   7
ENDBRANCH   5   6
ENDBRANCH   4   5
ENDBRANCH   3   4
ENDBRANCH   2   3
ENDBRANCH   1   2
BRANCH   1  11
ATOM     11  C   UNL     1      16.346  38.760  46.055  1.00  0.00     0.000 C 
BRANCH  11  12
ATOM     12  C   UNL     1      17.584  37.887  46.312  1.00  0.00    -0.000 C 
BRANCH  12  13
ATOM     13  C   UNL     1      18.710  38.656  47.019  1.00  0.00    -0.000 C 
BRANCH  13  14
ATOM     14  C   UNL     1      20.037  37.876  47.036  1.00  0.00    -0.000 C 
BRANCH  14  15
ATOM     15  C   UNL     1      19.882  36.427  46.542  1.00  0.00    -0.000 C 
BRANCH  15  16
ATOM     16  C   UNL     1      20.367  36.176  45.099  1.00  0.00    -0.000 C 
BRANCH  16  17
ATOM     17  C   UNL     1      20.807  34.732  44.803  1.00  0.00    -0.003 C 
ATOM     18  C   UNL     1      21.268  34.533  43.359  1.00  0.00     0.004 C 
ENDBRANCH  16  17
ENDBRANCH  15  16
ENDBRANCH  14  15
ENDBRANCH  13  14
ENDBRANCH  12  13
ENDBRANCH  11  12
ENDBRANCH   1  11
TORSDOF 14
ENDMDL
MODEL 2
REMARK VINA RESULT:     7.756      3.112      6.574
REMARK INTER + INTRA:          12.967
REMARK INTER:                  14.096
REMARK INTRA:                  -1.129
REMARK UNBOUND:                -1.137
REMARK SMILES CCCCCCCCCCCCCCCC(=O)[O-]
REMARK SMILES IDX 9 1 10 2 11 3 12 4 13 5 14 6 15 7 16 8 17 9 18 10 8 11 7 12
REMARK SMILES IDX 6 13 5 14 4 15 3 16 2 17 1 18
REMARK H PARENT
REMARK Flexibility Score: inf
ROOT
ATOM      1  C   UNL     1      16.324  38.627  46.275  1.00  0.00     0.000 C 
ENDROOT
BRANCH   1   2
ATOM      2  C   UNL     1      17.726  38.628  45.648  1.00  0.00     0.000 C 
BRANCH   2   3
ATOM      3  C   UNL     1      18.821  39.044  46.643  1.00  0.00     0.000 C 
BRANCH   3   4
ATOM      4  C   UNL     1      19.681  37.858  47.107  1.00  0.00     0.000 C 
BRANCH   4   5
ATOM      5  C   UNL     1      19.097  36.528  46.606  1.00  0.00     0.000 C 
BRANCH   5   6
ATOM      6  C   UNL     1      20.168  35.594  46.023  1.00  0.00     0.006 C 
BRANCH   6   7
ATOM      7  C   UNL     1      20.460  35.878  44.543  1.00  0.00     0.053 C 
BRANCH   7   8
ATOM      8  C   UNL     1      21.172  34.719  43.921  1.00  0.00     0.041 C 
ATOM      9  O   UNL     1      21.470  33.711  44.615  1.00  0.00    -0.550 OA
ATOM     10  O   UNL     1      21.553  34.773  42.587  1.00  0.00    -0.550 OA
ENDBRANCH   7   8
ENDBRANCH   6   7
ENDBRANCH   5   6
ENDBRANCH   4   5
ENDBRANCH   3   4
ENDBRANCH   2   3
ENDBRANCH   1   2
BRANCH   1  11
ATOM     11  C   UNL     1      16.300  39.458  47.565  1.00  0.00     0.000 C 
BRANCH  11  12
ATOM     12  C   UNL     1      14.875  39.935  47.885  1.00  0.00    -0.000 C 
BRANCH  12  13
ATOM     13  C   UNL     1      14.011  40.099  46.625  1.00  0.00    -0.000 C 
BRANCH  13  14
ATOM     14  C   UNL     1      13.168  38.848  46.321  1.00  0.00    -0.000 C 
BRANCH  14  15
ATOM     15  C   UNL     1      13.052  37.900  47.527  1.00  0.00    -0.000 C 
BRANCH  15  16
ATOM     16  C   UNL     1      13.360  36.420  47.222  1.00  0.00    -0.000 C 
BRANCH  16  17
ATOM     17  C   UNL     1      13.991  35.634  48.385  1.00  0.00    -0.003 C 
ATOM     18  C   UNL     1      15.301  36.248  48.878  1.00  0.00     0.004 C 
ENDBRANCH  16  17
ENDBRANCH  15  16
ENDBRANCH  14  15
ENDBRANCH  13  14
ENDBRANCH  12  13
ENDBRANCH  11  12
ENDBRANCH   1  11
TORSDOF 14
ENDMDL
MODEL 3
REMARK VINA RESULT:     8.106      3.914      6.885
REMARK INTER + INTRA:          13.604
REMARK INTER:                  14.342
REMARK INTRA:                  -0.738
REMARK UNBOUND:                -1.137
REMARK SMILES CCCCCCCCCCCCCCCC(=O)[O-]
REMARK SMILES IDX 9 1 10 2 11 3 12 4 13 5 14 6 15 7 16 8 17 9 18 10 8 11 7 12
REMARK SMILES IDX 6 13 5 14 4 15 3 16 2 17 1 18
REMARK H PARENT
REMARK Flexibility Score: inf
ROOT
ATOM      1  C   UNL     1      15.076  36.091  48.470  1.00  0.00     0.000 C 
ENDROOT
BRANCH   1   2
ATOM      2  C   UNL     1      13.595  36.429  48.243  1.00  0.00     0.000 C 
BRANCH   2   3
ATOM      3  C   UNL     1      13.395  37.567  47.230  1.00  0.00     0.000 C 
BRANCH   3   4
ATOM      4  C   UNL     1      14.213  38.820  47.577  1.00  0.00     0.000 C 
BRANCH   4   5
ATOM      5  C   UNL     1      15.223  39.140  46.465  1.00  0.00     0.000 C 
BRANCH   5   6
ATOM      6  C   UNL     1      16.680  39.054  46.947  1.00  0.00     0.006 C 
BRANCH   6   7
ATOM      7  C   UNL     1      17.560  38.202  46.022  1.00  0.00     0.053 C 
BRANCH   7   8
ATOM      8  C   UNL     1      18.925  38.035  46.611  1.00  0.00     0.041 C 
ATOM      9  O   UNL     1      19.448  36.891  46.685  1.00  0.00    -0.550 OA
ATOM     10  O   UNL     1      19.600  39.134  47.125  1.00  0.00    -0.550 OA
ENDBRANCH   7   8
ENDBRANCH   6   7
ENDBRANCH   5   6
ENDBRANCH   4   5
ENDBRANCH   3   4
ENDBRANCH   2   3
ENDBRANCH   1   2
BRANCH   1  11
ATOM     11  C   UNL     1      15.266  35.307  49.775  1.00  0.00     0.000 C 
BRANCH  11  12
ATOM     12  C   UNL     1      15.246  33.793  49.516  1.00  0.00    -0.000 C 
BRANCH  12  13
ATOM     13  C   UNL     1      15.417  32.973  50.803  1.00  0.00    -0.000 C 
BRANCH  13  14
ATOM     14  C   UNL     1      15.632  31.475  50.525  1.00  0.00    -0.000 C 
BRANCH  14  15
ATOM     15  C   UNL     1      14.493  30.598  51.073  1.00  0.00    -0.000 C 
BRANCH  15  16
ATOM     16  C   UNL     1      13.611  29.930  49.997  1.00  0.00    -0.000 C 
BRANCH  16  17
ATOM     17  C   UNL     1      13.408  28.415  50.172  1.00  0.00    -0.003 C 
ATOM     18  C   UNL     1      13.364  27.985  51.638  1.00  0.00     0.004 C 
ENDBRANCH  16  17
ENDBRANCH  15  16
ENDBRANCH  14  15
ENDBRANCH  13  14
ENDBRANCH  12  13
ENDBRANCH  11  12
ENDBRANCH   1  11
TORSDOF 14
ENDMDL
MODEL 4
REMARK VINA RESULT:     8.157      3.268      5.487
REMARK INTER + INTRA:          13.696
REMARK INTER:                  14.615
REMARK INTRA:                  -0.919
REMARK UNBOUND:                -1.137
REMARK SMILES CCCCCCCCCCCCCCCC(=O)[O-]
REMARK SMILES IDX 9 1 10 2 11 3 12 4 13 5 14 6 15 7 16 8 17 9 18 10 8 11 7 12
REMARK SMILES IDX 6 13 5 14 4 15 3 16 2 17 1 18
REMARK H PARENT
REMARK Flexibility Score: inf
ROOT
ATOM      1  C   UNL     1      13.745  35.429  48.283  1.00  0.00     0.000 C 
ENDROOT
BRANCH   1   2
ATOM      2  C   UNL     1      15.171  35.590  48.831  1.00  0.00     0.000 C 
BRANCH   2   3
ATOM      3  C   UNL     1      15.442  34.695  50.050  1.00  0.00     0.000 C 
BRANCH   3   4
ATOM      4  C   UNL     1      15.113  33.218  49.786  1.00  0.00     0.000 C 
BRANCH   4   5
ATOM      5  C   UNL     1      15.842  32.306  50.784  1.00  0.00     0.000 C 
BRANCH   5   6
ATOM      6  C   UNL     1      15.084  30.997  51.055  1.00  0.00     0.006 C 
BRANCH   6   7
ATOM      7  C   UNL     1      13.975  30.732  50.029  1.00  0.00     0.053 C 
BRANCH   7   8
ATOM      8  C   UNL     1      13.489  29.322  50.139  1.00  0.00     0.041 C 
ATOM      9  O   UNL     1      12.960  28.754  49.147  1.00  0.00    -0.550 OA
ATOM     10  O   UNL     1      13.572  28.651  51.352  1.00  0.00    -0.550 OA
ENDBRANCH   7   8
ENDBRANCH   6   7
ENDBRANCH   5   6
ENDBRANCH   4   5
ENDBRANCH   3   4
ENDBRANCH   2   3
ENDBRANCH   1   2
BRANCH   1  11
ATOM     11  C   UNL     1      13.266  36.723  47.613  1.00  0.00     0.000 C 
BRANCH  11  12
ATOM     12  C   UNL     1      14.216  37.889  47.925  1.00  0.00    -0.000 C 
BRANCH  12  13
ATOM     13  C   UNL     1      14.213  38.962  46.826  1.00  0.00    -0.000 C 
BRANCH  13  14
ATOM     14  C   UNL     1      15.563  39.061  46.093  1.00  0.00    -0.000 C 
BRANCH  14  15
ATOM     15  C   UNL     1      16.754  38.665  46.984  1.00  0.00    -0.000 C 
BRANCH  15  16
ATOM     16  C   UNL     1      17.894  37.927  46.253  1.00  0.00    -0.000 C 
BRANCH  16  17
ATOM     17  C   UNL     1      19.292  38.120  46.867  1.00  0.00    -0.003 C 
ATOM     18  C   UNL     1      19.752  39.577  46.857  1.00  0.00     0.004 C 
ENDBRANCH  16  17
ENDBRANCH  15  16
ENDBRANCH  14  15
ENDBRANCH  13  14
ENDBRANCH  12  13
ENDBRANCH  11  12
ENDBRANCH   1  11
TORSDOF 14
ENDMDL
