MODEL 1
REMARK VINA RESULT:    -4.756      0.000      0.000
REMARK INTER + INTRA:          -6.526
REMARK INTER:                  -6.007
REMARK INTRA:                  -0.518
REMARK UNBOUND:                -0.518
REMARK SMILES Oc1ccc(CCc2cc(O)cc(O)c2)cc1
REMARK SMILES IDX 6 1 5 2 4 3 3 4 2 5 16 6 17 7 1 8 7 10 8 11 15 12 9 13 13 14
REMARK SMILES IDX 10 15 12 16 14 17 11 19
REMARK H PARENT 1 9 14 18 11 20
REMARK Flexibility Score: inf
ROOT
ATOM      1  C   UNL     1     -95.281 -18.898 -65.222  1.00  0.00     0.040 C 
ENDROOT
BRANCH   1   2
ATOM      2  C   UNL     1     -96.151 -17.859 -64.566  1.00  0.00    -0.047 A 
ATOM      3  C   UNL     1     -95.728 -16.521 -64.496  1.00  0.00     0.007 A 
ATOM      4  C   UNL     1     -96.552 -15.552 -63.915  1.00  0.00     0.046 A 
ATOM      5  C   UNL     1     -97.807 -15.905 -63.409  1.00  0.00     0.115 A 
ATOM      6  C   UNL     1     -97.417 -18.208 -64.069  1.00  0.00     0.007 A 
ATOM      7  C   UNL     1     -98.239 -17.236 -63.489  1.00  0.00     0.046 A 
BRANCH   5   8
ATOM      8  O   UNL     1     -98.616 -14.928 -62.834  1.00  0.00    -0.508 OA
ATOM      9  H   UNL     1     -98.389 -13.943 -62.905  1.00  0.00     0.293 HD
ENDBRANCH   5   8
ENDBRANCH   1   2
BRANCH   1  10
ATOM     10  C   UNL     1     -95.008 -20.057 -64.258  1.00  0.00     0.040 C 
BRANCH  10  11
ATOM     11  C   UNL     1     -93.560 -20.072 -63.847  1.00  0.00    -0.040 A 
ATOM     12  C   UNL     1     -92.891 -18.868 -63.570  1.00  0.00     0.050 A 
ATOM     13  C   UNL     1     -92.884 -21.291 -63.682  1.00  0.00     0.050 A 
ATOM     14  C   UNL     1     -91.552 -18.883 -63.155  1.00  0.00     0.119 A 
ATOM     15  C   UNL     1     -91.547 -21.308 -63.267  1.00  0.00     0.119 A 
ATOM     16  C   UNL     1     -90.882 -20.102 -63.007  1.00  0.00     0.092 A 
BRANCH  14  17
ATOM     17  O   UNL     1     -90.880 -17.693 -62.884  1.00  0.00    -0.508 OA
ATOM     18  H   UNL     1     -90.941 -17.245 -61.978  1.00  0.00     0.293 HD
ENDBRANCH  14  17
BRANCH  15  19
ATOM     19  O   UNL     1     -90.891 -22.527 -63.116  1.00  0.00    -0.508 OA
ATOM     20  H   UNL     1     -91.212 -23.364 -63.589  1.00  0.00     0.293 HD
ENDBRANCH  15  19
ENDBRANCH  10  11
ENDBRANCH   1  10
TORSDOF 6
ENDMDL
MODEL 2
REMARK VINA RESULT:    -4.749      0.175      2.042
REMARK INTER + INTRA:          -6.516
REMARK INTER:                  -5.996
REMARK INTRA:                  -0.520
REMARK UNBOUND:                -0.518
REMARK SMILES Oc1ccc(CCc2cc(O)cc(O)c2)cc1
REMARK SMILES IDX 6 1 5 2 4 3 3 4 2 5 16 6 17 7 1 8 7 10 8 11 15 12 9 13 13 14
REMARK SMILES IDX 10 15 12 16 14 17 11 19
REMARK H PARENT 1 9 14 18 11 20
REMARK Flexibility Score: inf
ROOT
ATOM      1  C   UNL     1     -95.116 -18.712 -65.388  1.00  0.00     0.040 C 
ENDROOT
BRANCH   1   2
ATOM      2  C   UNL     1     -96.067 -17.763 -64.708  1.00  0.00    -0.047 A 
ATOM      3  C   UNL     1     -95.790 -16.387 -64.671  1.00  0.00     0.007 A 
ATOM      4  C   UNL     1     -96.690 -15.503 -64.068  1.00  0.00     0.046 A 
ATOM      5  C   UNL     1     -97.878 -15.982 -63.506  1.00  0.00     0.115 A 
ATOM      6  C   UNL     1     -97.267 -18.239 -64.155  1.00  0.00     0.007 A 
ATOM      7  C   UNL     1     -98.166 -17.353 -63.553  1.00  0.00     0.046 A 
BRANCH   5   8
ATOM      8  O   UNL     1     -98.765 -15.089 -62.909  1.00  0.00    -0.508 OA
ATOM      9  H   UNL     1     -98.754 -14.102 -63.135  1.00  0.00     0.293 HD
ENDBRANCH   5   8
ENDBRANCH   1   2
BRANCH   1  10
ATOM     10  C   UNL     1     -94.936 -19.983 -64.552  1.00  0.00     0.040 C 
BRANCH  10  11
ATOM     11  C   UNL     1     -93.548 -20.040 -63.970  1.00  0.00    -0.040 A 
ATOM     12  C   UNL     1     -92.920 -21.279 -63.761  1.00  0.00     0.050 A 
ATOM     13  C   UNL     1     -92.851 -18.857 -63.685  1.00  0.00     0.050 A 
ATOM     14  C   UNL     1     -91.616 -21.333 -63.250  1.00  0.00     0.119 A 
ATOM     15  C   UNL     1     -91.549 -18.907 -63.174  1.00  0.00     0.119 A 
ATOM     16  C   UNL     1     -90.934 -20.148 -62.955  1.00  0.00     0.092 A 
BRANCH  14  17
ATOM     17  O   UNL     1     -90.988 -22.558 -63.034  1.00  0.00    -0.508 OA
ATOM     18  H   UNL     1     -91.508 -23.373 -62.734  1.00  0.00     0.293 HD
ENDBRANCH  14  17
BRANCH  15  19
ATOM     19  O   UNL     1     -90.875 -17.722 -62.891  1.00  0.00    -0.508 OA
ATOM     20  H   UNL     1     -91.326 -16.819 -62.992  1.00  0.00     0.293 HD
ENDBRANCH  15  19
ENDBRANCH  10  11
ENDBRANCH   1  10
TORSDOF 6
ENDMDL
MODEL 3
REMARK VINA RESULT:    -4.587     11.955     14.435
REMARK INTER + INTRA:          -6.312
REMARK INTER:                  -5.579
REMARK INTRA:                  -0.733
REMARK UNBOUND:                -0.518
REMARK SMILES Oc1ccc(CCc2cc(O)cc(O)c2)cc1
REMARK SMILES IDX 6 1 5 2 4 3 3 4 2 5 16 6 17 7 1 8 7 10 8 11 15 12 9 13 13 14
REMARK SMILES IDX 10 15 12 16 14 17 11 19
REMARK H PARENT 1 9 14 18 11 20
REMARK Flexibility Score: inf
ROOT
ATOM      1  C   UNL     1     -99.725  -6.458 -69.545  1.00  0.00     0.040 C 
ENDROOT
BRANCH   1   2
ATOM      2  C   UNL     1    -100.458  -7.056 -70.716  1.00  0.00    -0.047 A 
ATOM      3  C   UNL     1    -100.196  -8.376 -71.117  1.00  0.00     0.007 A 
ATOM      4  C   UNL     1    -100.902  -8.940 -72.184  1.00  0.00     0.046 A 
ATOM      5  C   UNL     1    -101.880  -8.198 -72.854  1.00  0.00     0.115 A 
ATOM      6  C   UNL     1    -101.451  -6.318 -71.381  1.00  0.00     0.007 A 
ATOM      7  C   UNL     1    -102.154  -6.885 -72.448  1.00  0.00     0.046 A 
BRANCH   5   8
ATOM      8  O   UNL     1    -102.574  -8.775 -73.915  1.00  0.00    -0.508 OA
ATOM      9  H   UNL     1    -102.392  -8.505 -74.874  1.00  0.00     0.293 HD
ENDBRANCH   5   8
ENDBRANCH   1   2
BRANCH   1  10
ATOM     10  C   UNL     1    -100.711  -6.033 -68.452  1.00  0.00     0.040 C 
BRANCH  10  11
ATOM     11  C   UNL     1    -101.000  -7.184 -67.525  1.00  0.00    -0.040 A 
ATOM     12  C   UNL     1    -102.222  -7.871 -67.610  1.00  0.00     0.050 A 
ATOM     13  C   UNL     1    -100.029  -7.615 -66.608  1.00  0.00     0.050 A 
ATOM     14  C   UNL     1    -102.479  -8.963 -66.769  1.00  0.00     0.119 A 
ATOM     15  C   UNL     1    -100.283  -8.704 -65.768  1.00  0.00     0.119 A 
ATOM     16  C   UNL     1    -101.511  -9.375 -65.849  1.00  0.00     0.092 A 
BRANCH  14  17
ATOM     17  O   UNL     1    -103.692  -9.645 -66.844  1.00  0.00    -0.508 OA
ATOM     18  H   UNL     1    -103.935 -10.206 -67.651  1.00  0.00     0.293 HD
ENDBRANCH  14  17
BRANCH  15  19
ATOM     19  O   UNL     1     -99.310  -9.113 -64.859  1.00  0.00    -0.508 OA
ATOM     20  H   UNL     1     -98.519  -8.522 -64.629  1.00  0.00     0.293 HD
ENDBRANCH  15  19
ENDBRANCH  10  11
ENDBRANCH   1  10
TORSDOF 6
ENDMDL
MODEL 4
REMARK VINA RESULT:    -4.583     11.960     14.431
REMARK INTER + INTRA:          -6.307
REMARK INTER:                  -5.572
REMARK INTRA:                  -0.735
REMARK UNBOUND:                -0.518
REMARK SMILES Oc1ccc(CCc2cc(O)cc(O)c2)cc1
REMARK SMILES IDX 6 1 5 2 4 3 3 4 2 5 16 6 17 7 1 8 7 10 8 11 15 12 9 13 13 14
REMARK SMILES IDX 10 15 12 16 14 17 11 19
REMARK H PARENT 1 9 14 18 11 20
REMARK Flexibility Score: inf
ROOT
ATOM      1  C   UNL     1     -99.758  -6.428 -69.581  1.00  0.00     0.040 C 
ENDROOT
BRANCH   1   2
ATOM      2  C   UNL     1    -100.491  -7.044 -70.743  1.00  0.00    -0.047 A 
ATOM      3  C   UNL     1    -100.229  -8.370 -71.122  1.00  0.00     0.007 A 
ATOM      4  C   UNL     1    -100.934  -8.951 -72.181  1.00  0.00     0.046 A 
ATOM      5  C   UNL     1    -101.911  -8.219 -72.863  1.00  0.00     0.115 A 
ATOM      6  C   UNL     1    -101.482  -6.316 -71.420  1.00  0.00     0.007 A 
ATOM      7  C   UNL     1    -102.185  -6.899 -72.479  1.00  0.00     0.046 A 
BRANCH   5   8
ATOM      8  O   UNL     1    -102.605  -8.811 -73.916  1.00  0.00    -0.508 OA
ATOM      9  H   UNL     1    -102.135  -9.090 -74.769  1.00  0.00     0.293 HD
ENDBRANCH   5   8
ENDBRANCH   1   2
BRANCH   1  10
ATOM     10  C   UNL     1    -100.739  -6.042 -68.469  1.00  0.00     0.040 C 
BRANCH  10  11
ATOM     11  C   UNL     1    -101.002  -7.217 -67.565  1.00  0.00    -0.040 A 
ATOM     12  C   UNL     1    -100.028  -7.628 -66.639  1.00  0.00     0.050 A 
ATOM     13  C   UNL     1    -102.242  -7.874 -67.599  1.00  0.00     0.050 A 
ATOM     14  C   UNL     1    -100.284  -8.701 -65.774  1.00  0.00     0.119 A 
ATOM     15  C   UNL     1    -102.499  -8.945 -66.736  1.00  0.00     0.119 A 
ATOM     16  C   UNL     1    -101.517  -9.359 -65.826  1.00  0.00     0.092 A 
BRANCH  14  17
ATOM     17  O   UNL     1     -99.321  -9.119 -64.858  1.00  0.00    -0.508 OA
ATOM     18  H   UNL     1     -99.553  -9.292 -63.888  1.00  0.00     0.293 HD
ENDBRANCH  14  17
BRANCH  15  19
ATOM     19  O   UNL     1    -103.733  -9.589 -66.791  1.00  0.00    -0.508 OA
ATOM     20  H   UNL     1    -104.577  -9.147 -66.445  1.00  0.00     0.293 HD
ENDBRANCH  15  19
ENDBRANCH  10  11
ENDBRANCH   1  10
TORSDOF 6
ENDMDL
MODEL 5
REMARK VINA RESULT:    -4.486      3.582      5.236
REMARK INTER + INTRA:          -6.184
REMARK INTER:                  -5.523
REMARK INTRA:                  -0.661
REMARK UNBOUND:                -0.518
REMARK SMILES Oc1ccc(CCc2cc(O)cc(O)c2)cc1
REMARK SMILES IDX 6 1 5 2 4 3 3 4 2 5 16 6 17 7 1 8 7 10 8 11 15 12 9 13 13 14
REMARK SMILES IDX 10 15 12 16 14 17 11 19
REMARK H PARENT 1 9 14 18 11 20
REMARK Flexibility Score: inf
ROOT
ATOM      1  C   UNL     1     -98.566 -17.554 -60.901  1.00  0.00     0.040 C 
ENDROOT
BRANCH   1   2
ATOM      2  C   UNL     1     -99.410 -16.398 -61.368  1.00  0.00    -0.047 A 
ATOM      3  C   UNL     1    -100.467 -16.610 -62.267  1.00  0.00     0.007 A 
ATOM      4  C   UNL     1    -101.270 -15.539 -62.673  1.00  0.00     0.046 A 
ATOM      5  C   UNL     1    -101.032 -14.253 -62.180  1.00  0.00     0.115 A 
ATOM      6  C   UNL     1     -99.182 -15.108 -60.863  1.00  0.00     0.007 A 
ATOM      7  C   UNL     1     -99.987 -14.039 -61.272  1.00  0.00     0.046 A 
BRANCH   5   8
ATOM      8  O   UNL     1    -101.841 -13.197 -62.595  1.00  0.00    -0.508 OA
ATOM      9  H   UNL     1    -101.462 -12.412 -63.112  1.00  0.00     0.293 HD
ENDBRANCH   5   8
ENDBRANCH   1   2
BRANCH   1  10
ATOM     10  C   UNL     1     -97.962 -18.296 -62.098  1.00  0.00     0.040 C 
BRANCH  10  11
ATOM     11  C   UNL     1     -96.940 -17.436 -62.792  1.00  0.00    -0.040 A 
ATOM     12  C   UNL     1     -95.636 -17.334 -62.281  1.00  0.00     0.050 A 
ATOM     13  C   UNL     1     -97.266 -16.775 -63.987  1.00  0.00     0.050 A 
ATOM     14  C   UNL     1     -94.675 -16.560 -62.945  1.00  0.00     0.119 A 
ATOM     15  C   UNL     1     -96.308 -16.002 -64.652  1.00  0.00     0.119 A 
ATOM     16  C   UNL     1     -95.013 -15.893 -64.127  1.00  0.00     0.092 A 
BRANCH  14  17
ATOM     17  O   UNL     1     -93.381 -16.449 -62.440  1.00  0.00    -0.508 OA
ATOM     18  H   UNL     1     -92.573 -16.445 -63.051  1.00  0.00     0.293 HD
ENDBRANCH  14  17
BRANCH  15  19
ATOM     19  O   UNL     1     -96.653 -15.347 -65.832  1.00  0.00    -0.508 OA
ATOM     20  H   UNL     1     -95.984 -15.223 -66.583  1.00  0.00     0.293 HD
ENDBRANCH  15  19
ENDBRANCH  10  11
ENDBRANCH   1  10
TORSDOF 6
ENDMDL
MODEL 6
REMARK VINA RESULT:    -4.461      3.550      5.030
REMARK INTER + INTRA:          -6.152
REMARK INTER:                  -5.409
REMARK INTRA:                  -0.743
REMARK UNBOUND:                -0.518
REMARK SMILES Oc1ccc(CCc2cc(O)cc(O)c2)cc1
REMARK SMILES IDX 6 1 5 2 4 3 3 4 2 5 16 6 17 7 1 8 7 10 8 11 15 12 9 13 13 14
REMARK SMILES IDX 10 15 12 16 14 17 11 19
REMARK H PARENT 1 9 14 18 11 20
REMARK Flexibility Score: inf
ROOT
ATOM      1  C   UNL     1     -98.462 -17.570 -60.874  1.00  0.00     0.040 C 
ENDROOT
BRANCH   1   2
ATOM      2  C   UNL     1     -99.367 -16.439 -61.283  1.00  0.00    -0.047 A 
ATOM      3  C   UNL     1     -99.101 -15.128 -60.853  1.00  0.00     0.007 A 
ATOM      4  C   UNL     1     -99.924 -14.074 -61.260  1.00  0.00     0.046 A 
ATOM      5  C   UNL     1    -101.012 -14.314 -62.105  1.00  0.00     0.115 A 
ATOM      6  C   UNL     1    -100.452 -16.675 -62.142  1.00  0.00     0.007 A 
ATOM      7  C   UNL     1    -101.273 -15.618 -62.547  1.00  0.00     0.046 A 
BRANCH   5   8
ATOM      8  O   UNL     1    -101.823 -13.253 -62.502  1.00  0.00    -0.508 OA
ATOM      9  H   UNL     1    -102.750 -13.123 -62.115  1.00  0.00     0.293 HD
ENDBRANCH   5   8
ENDBRANCH   1   2
BRANCH   1  10
ATOM     10  C   UNL     1     -97.960 -18.329 -62.107  1.00  0.00     0.040 C 
BRANCH  10  11
ATOM     11  C   UNL     1     -96.919 -17.522 -62.836  1.00  0.00    -0.040 A 
ATOM     12  C   UNL     1     -97.250 -16.852 -64.026  1.00  0.00     0.050 A 
ATOM     13  C   UNL     1     -95.628 -17.386 -62.305  1.00  0.00     0.050 A 
ATOM     14  C   UNL     1     -96.291 -16.074 -64.689  1.00  0.00     0.119 A 
ATOM     15  C   UNL     1     -94.669 -16.610 -62.965  1.00  0.00     0.119 A 
ATOM     16  C   UNL     1     -95.002 -15.956 -64.159  1.00  0.00     0.092 A 
BRANCH  14  17
ATOM     17  O   UNL     1     -96.611 -15.411 -65.872  1.00  0.00    -0.508 OA
ATOM     18  H   UNL     1     -97.206 -15.836 -66.573  1.00  0.00     0.293 HD
ENDBRANCH  14  17
BRANCH  15  19
ATOM     19  O   UNL     1     -93.390 -16.493 -62.426  1.00  0.00    -0.508 OA
ATOM     20  H   UNL     1     -93.242 -16.404 -61.427  1.00  0.00     0.293 HD
ENDBRANCH  15  19
ENDBRANCH  10  11
ENDBRANCH   1  10
TORSDOF 6
ENDMDL
MODEL 7
REMARK VINA RESULT:    -4.454     12.209     14.921
REMARK INTER + INTRA:          -6.144
REMARK INTER:                  -5.353
REMARK INTRA:                  -0.791
REMARK UNBOUND:                -0.518
REMARK SMILES Oc1ccc(CCc2cc(O)cc(O)c2)cc1
REMARK SMILES IDX 6 1 5 2 4 3 3 4 2 5 16 6 17 7 1 8 7 10 8 11 15 12 9 13 13 14
REMARK SMILES IDX 10 15 12 16 14 17 11 19
REMARK H PARENT 1 9 14 18 11 20
REMARK Flexibility Score: inf
ROOT
ATOM      1  C   UNL     1    -101.889  -5.383 -68.440  1.00  0.00     0.040 C 
ENDROOT
BRANCH   1   2
ATOM      2  C   UNL     1    -101.223  -6.354 -67.503  1.00  0.00    -0.047 A 
ATOM      3  C   UNL     1    -101.985  -7.315 -66.818  1.00  0.00     0.007 A 
ATOM      4  C   UNL     1    -101.360  -8.237 -65.973  1.00  0.00     0.046 A 
ATOM      5  C   UNL     1     -99.972  -8.216 -65.810  1.00  0.00     0.115 A 
ATOM      6  C   UNL     1     -99.827  -6.344 -67.348  1.00  0.00     0.007 A 
ATOM      7  C   UNL     1     -99.205  -7.268 -66.502  1.00  0.00     0.046 A 
BRANCH   5   8
ATOM      8  O   UNL     1     -99.364  -9.141 -64.965  1.00  0.00    -0.508 OA
ATOM      9  H   UNL     1     -98.463  -9.549 -65.188  1.00  0.00     0.293 HD
ENDBRANCH   5   8
ENDBRANCH   1   2
BRANCH   1  10
ATOM     10  C   UNL     1    -101.165  -5.354 -69.790  1.00  0.00     0.040 C 
BRANCH  10  11
ATOM     11  C   UNL     1    -101.419  -6.627 -70.553  1.00  0.00    -0.040 A 
ATOM     12  C   UNL     1    -102.728  -6.984 -70.917  1.00  0.00     0.050 A 
ATOM     13  C   UNL     1    -100.346  -7.437 -70.956  1.00  0.00     0.050 A 
ATOM     14  C   UNL     1    -102.962  -8.152 -71.656  1.00  0.00     0.119 A 
ATOM     15  C   UNL     1    -100.577  -8.603 -71.693  1.00  0.00     0.119 A 
ATOM     16  C   UNL     1    -101.888  -8.960 -72.040  1.00  0.00     0.092 A 
BRANCH  14  17
ATOM     17  O   UNL     1    -104.258  -8.515 -72.015  1.00  0.00    -0.508 OA
ATOM     18  H   UNL     1    -104.737  -8.072 -72.790  1.00  0.00     0.293 HD
ENDBRANCH  14  17
BRANCH  15  19
ATOM     19  O   UNL     1     -99.500  -9.398 -72.078  1.00  0.00    -0.508 OA
ATOM     20  H   UNL     1     -99.536 -10.409 -72.007  1.00  0.00     0.293 HD
ENDBRANCH  15  19
ENDBRANCH  10  11
ENDBRANCH   1  10
TORSDOF 6
ENDMDL
MODEL 8
REMARK VINA RESULT:    -4.443     12.246     15.072
REMARK INTER + INTRA:          -6.130
REMARK INTER:                  -5.375
REMARK INTRA:                  -0.755
REMARK UNBOUND:                -0.518
REMARK SMILES Oc1ccc(CCc2cc(O)cc(O)c2)cc1
REMARK SMILES IDX 6 1 5 2 4 3 3 4 2 5 16 6 17 7 1 8 7 10 8 11 15 12 9 13 13 14
REMARK SMILES IDX 10 15 12 16 14 17 11 19
REMARK H PARENT 1 9 14 18 11 20
REMARK Flexibility Score: inf
ROOT
ATOM      1  C   UNL     1    -101.786  -5.357 -68.530  1.00  0.00     0.040 C 
ENDROOT
BRANCH   1   2
ATOM      2  C   UNL     1    -101.161  -6.325 -67.562  1.00  0.00    -0.047 A 
ATOM      3  C   UNL     1    -101.964  -7.221 -66.837  1.00  0.00     0.007 A 
ATOM      4  C   UNL     1    -101.379  -8.141 -65.962  1.00  0.00     0.046 A 
ATOM      5  C   UNL     1     -99.989  -8.184 -65.811  1.00  0.00     0.115 A 
ATOM      6  C   UNL     1     -99.765  -6.380 -67.418  1.00  0.00     0.007 A 
ATOM      7  C   UNL     1     -99.183  -7.302 -66.543  1.00  0.00     0.046 A 
BRANCH   5   8
ATOM      8  O   UNL     1     -99.420  -9.107 -64.936  1.00  0.00    -0.508 OA
ATOM      9  H   UNL     1     -98.514  -9.520 -65.119  1.00  0.00     0.293 HD
ENDBRANCH   5   8
ENDBRANCH   1   2
BRANCH   1  10
ATOM     10  C   UNL     1    -100.965  -5.280 -69.821  1.00  0.00     0.040 C 
BRANCH  10  11
ATOM     11  C   UNL     1    -101.260  -6.461 -70.707  1.00  0.00    -0.040 A 
ATOM     12  C   UNL     1    -100.256  -7.403 -70.987  1.00  0.00     0.050 A 
ATOM     13  C   UNL     1    -102.554  -6.661 -71.212  1.00  0.00     0.050 A 
ATOM     14  C   UNL     1    -100.539  -8.520 -71.785  1.00  0.00     0.119 A 
ATOM     15  C   UNL     1    -102.838  -7.776 -72.009  1.00  0.00     0.119 A 
ATOM     16  C   UNL     1    -101.828  -8.703 -72.296  1.00  0.00     0.092 A 
BRANCH  14  17
ATOM     17  O   UNL     1     -99.547  -9.455 -72.073  1.00  0.00    -0.508 OA
ATOM     18  H   UNL     1     -98.703  -9.196 -72.569  1.00  0.00     0.293 HD
ENDBRANCH  14  17
BRANCH  15  19
ATOM     19  O   UNL     1    -104.127  -7.953 -72.507  1.00  0.00    -0.508 OA
ATOM     20  H   UNL     1    -104.492  -8.875 -72.715  1.00  0.00     0.293 HD
ENDBRANCH  15  19
ENDBRANCH  10  11
ENDBRANCH   1  10
TORSDOF 6
ENDMDL
MODEL 9
REMARK VINA RESULT:    -4.412      1.704      1.995
REMARK INTER + INTRA:          -6.091
REMARK INTER:                  -5.295
REMARK INTRA:                  -0.796
REMARK UNBOUND:                -0.518
REMARK SMILES Oc1ccc(CCc2cc(O)cc(O)c2)cc1
REMARK SMILES IDX 6 1 5 2 4 3 3 4 2 5 16 6 17 7 1 8 7 10 8 11 15 12 9 13 13 14
REMARK SMILES IDX 10 15 12 16 14 17 11 19
REMARK H PARENT 1 9 14 18 11 20
REMARK Flexibility Score: inf
ROOT
ATOM      1  C   UNL     1     -96.343 -19.898 -61.944  1.00  0.00     0.040 C 
ENDROOT
BRANCH   1   2
ATOM      2  C   UNL     1     -96.548 -18.748 -62.894  1.00  0.00    -0.047 A 
ATOM      3  C   UNL     1     -96.787 -17.455 -62.400  1.00  0.00     0.007 A 
ATOM      4  C   UNL     1     -96.945 -16.383 -63.283  1.00  0.00     0.046 A 
ATOM      5  C   UNL     1     -96.856 -16.588 -64.664  1.00  0.00     0.115 A 
ATOM      6  C   UNL     1     -96.444 -18.948 -64.280  1.00  0.00     0.007 A 
ATOM      7  C   UNL     1     -96.603 -17.873 -65.161  1.00  0.00     0.046 A 
BRANCH   5   8
ATOM      8  O   UNL     1     -97.015 -15.509 -65.531  1.00  0.00    -0.508 OA
ATOM      9  H   UNL     1     -97.671 -14.764 -65.333  1.00  0.00     0.293 HD
ENDBRANCH   5   8
ENDBRANCH   1   2
BRANCH   1  10
ATOM     10  C   UNL     1     -95.066 -19.696 -61.123  1.00  0.00     0.040 C 
BRANCH  10  11
ATOM     11  C   UNL     1     -93.851 -19.758 -62.010  1.00  0.00    -0.040 A 
ATOM     12  C   UNL     1     -92.934 -18.694 -62.028  1.00  0.00     0.050 A 
ATOM     13  C   UNL     1     -93.596 -20.901 -62.783  1.00  0.00     0.050 A 
ATOM     14  C   UNL     1     -91.786 -18.764 -62.830  1.00  0.00     0.119 A 
ATOM     15  C   UNL     1     -92.451 -20.973 -63.584  1.00  0.00     0.119 A 
ATOM     16  C   UNL     1     -91.548 -19.901 -63.607  1.00  0.00     0.092 A 
BRANCH  14  17
ATOM     17  O   UNL     1     -90.875 -17.710 -62.857  1.00  0.00    -0.508 OA
ATOM     18  H   UNL     1     -90.591 -17.278 -63.728  1.00  0.00     0.293 HD
ENDBRANCH  14  17
BRANCH  15  19
ATOM     19  O   UNL     1     -92.218 -22.114 -64.349  1.00  0.00    -0.508 OA
ATOM     20  H   UNL     1     -91.889 -22.051 -65.306  1.00  0.00     0.293 HD
ENDBRANCH  15  19
ENDBRANCH  10  11
ENDBRANCH   1  10
TORSDOF 6
ENDMDL
