MODEL 1
REMARK VINA RESULT:    -5.544      0.000      0.000
REMARK INTER + INTRA:         -18.335
REMARK INTER:                 -14.619
REMARK INTRA:                  -3.716
REMARK UNBOUND:                -3.716
REMARK SMILES CCCCCCCCCCCCCCCCCCCCCCCCCCCCCC(=O)[O-]
REMARK SMILES IDX 16 1 17 2 18 3 19 4 20 5 21 6 22 7 23 8 24 9 25 10 26 11
REMARK SMILES IDX 27 12 28 13 29 14 30 15 31 16 32 17 15 18 14 19 13 20 12 21
REMARK SMILES IDX 11 22 10 23 9 24 8 25 7 26 6 27 5 28 4 29 3 30 2 31 1 32
REMARK H PARENT
REMARK Flexibility Score: inf
ROOT
ATOM      1  C   UNL     1       3.794  -4.759  33.618  1.00  0.00     0.000 C 
ENDROOT
BRANCH   1   2
ATOM      2  C   UNL     1       5.127  -4.886  32.864  1.00  0.00     0.000 C 
BRANCH   2   3
ATOM      3  C   UNL     1       5.238  -6.252  32.167  1.00  0.00     0.000 C 
BRANCH   3   4
ATOM      4  C   UNL     1       5.964  -7.299  33.029  1.00  0.00     0.000 C 
BRANCH   4   5
ATOM      5  C   UNL     1       7.298  -6.781  33.587  1.00  0.00     0.000 C 
BRANCH   5   6
ATOM      6  C   UNL     1       7.343  -6.911  35.114  1.00  0.00     0.000 C 
BRANCH   6   7
ATOM      7  C   UNL     1       6.382  -8.008  35.598  1.00  0.00     0.000 C 
BRANCH   7   8
ATOM      8  C   UNL     1       5.439  -7.544  36.725  1.00  0.00     0.000 C 
BRANCH   8   9
ATOM      9  C   UNL     1       3.949  -7.443  36.340  1.00  0.00     0.000 C 
BRANCH   9  10
ATOM     10  C   UNL     1       3.054  -6.966  37.495  1.00  0.00     0.000 C 
BRANCH  10  11
ATOM     11  C   UNL     1       3.727  -5.828  38.275  1.00  0.00     0.000 C 
BRANCH  11  12
ATOM     12  C   UNL     1       2.727  -4.777  38.795  1.00  0.00     0.000 C 
BRANCH  12  13
ATOM     13  C   UNL     1       3.361  -3.500  39.388  1.00  0.00     0.006 C 
BRANCH  13  14
ATOM     14  C   UNL     1       2.481  -2.823  40.449  1.00  0.00     0.053 C 
BRANCH  14  15
ATOM     15  C   UNL     1       2.647  -1.335  40.420  1.00  0.00     0.041 C 
ATOM     16  O   UNL     1       2.538  -0.664  41.482  1.00  0.00    -0.550 OA
ATOM     17  O   UNL     1       2.879  -0.685  39.213  1.00  0.00    -0.550 OA
ENDBRANCH  14  15
ENDBRANCH  13  14
ENDBRANCH  12  13
ENDBRANCH  11  12
ENDBRANCH  10  11
ENDBRANCH   9  10
ENDBRANCH   8   9
ENDBRANCH   7   8
ENDBRANCH   6   7
ENDBRANCH   5   6
ENDBRANCH   4   5
ENDBRANCH   3   4
ENDBRANCH   2   3
ENDBRANCH   1   2
BRANCH   1  18
ATOM     18  C   UNL     1       3.965  -4.142  35.016  1.00  0.00     0.000 C 
BRANCH  18  19
ATOM     19  C   UNL     1       5.437  -3.845  35.357  1.00  0.00     0.000 C 
BRANCH  19  20
ATOM     20  C   UNL     1       5.578  -2.977  36.624  1.00  0.00     0.000 C 
BRANCH  20  21
ATOM     21  C   UNL     1       5.742  -1.473  36.336  1.00  0.00     0.000 C 
BRANCH  21  22
ATOM     22  C   UNL     1       7.108  -1.126  35.717  1.00  0.00     0.000 C 
BRANCH  22  23
ATOM     23  C   UNL     1       7.493   0.358  35.900  1.00  0.00     0.000 C 
BRANCH  23  24
ATOM     24  C   UNL     1       8.486   0.888  34.852  1.00  0.00    -0.000 C 
BRANCH  24  25
ATOM     25  C   UNL     1       8.784  -0.125  33.730  1.00  0.00    -0.000 C 
BRANCH  25  26
ATOM     26  C   UNL     1      10.295  -0.361  33.513  1.00  0.00    -0.000 C 
BRANCH  26  27
ATOM     27  C   UNL     1      11.196   0.752  34.075  1.00  0.00    -0.000 C 
BRANCH  27  28
ATOM     28  C   UNL     1      12.580   0.250  34.517  1.00  0.00    -0.000 C 
BRANCH  28  29
ATOM     29  C   UNL     1      13.234   1.183  35.559  1.00  0.00    -0.000 C 
BRANCH  29  30
ATOM     30  C   UNL     1      12.436   2.473  35.820  1.00  0.00    -0.000 C 
BRANCH  30  31
ATOM     31  C   UNL     1      13.168   3.736  35.346  1.00  0.00    -0.003 C 
ATOM     32  C   UNL     1      13.261   3.781  33.823  1.00  0.00     0.004 C 
ENDBRANCH  30  31
ENDBRANCH  29  30
ENDBRANCH  28  29
ENDBRANCH  27  28
ENDBRANCH  26  27
ENDBRANCH  25  26
ENDBRANCH  24  25
ENDBRANCH  23  24
ENDBRANCH  22  23
ENDBRANCH  21  22
ENDBRANCH  20  21
ENDBRANCH  19  20
ENDBRANCH  18  19
ENDBRANCH   1  18
TORSDOF 28
ENDMDL
MODEL 2
REMARK VINA RESULT:    -5.523      3.183      9.423
REMARK INTER + INTRA:         -18.280
REMARK INTER:                 -14.009
REMARK INTRA:                  -4.272
REMARK UNBOUND:                -3.716
REMARK SMILES CCCCCCCCCCCCCCCCCCCCCCCCCCCCCC(=O)[O-]
REMARK SMILES IDX 16 1 17 2 18 3 19 4 20 5 21 6 22 7 23 8 24 9 25 10 26 11
REMARK SMILES IDX 27 12 28 13 29 14 30 15 31 16 32 17 15 18 14 19 13 20 12 21
REMARK SMILES IDX 11 22 10 23 9 24 8 25 7 26 6 27 5 28 4 29 3 30 2 31 1 32
REMARK H PARENT
REMARK Flexibility Score: inf
ROOT
ATOM      1  C   UNL     1       1.069  -1.975  41.164  1.00  0.00     0.000 C 
ENDROOT
BRANCH   1   2
ATOM      2  C   UNL     1       2.534  -2.012  40.704  1.00  0.00     0.000 C 
BRANCH   2   3
ATOM      3  C   UNL     1       2.898  -0.741  39.919  1.00  0.00     0.000 C 
BRANCH   3   4
ATOM      4  C   UNL     1       2.414  -0.789  38.460  1.00  0.00     0.000 C 
BRANCH   4   5
ATOM      5  C   UNL     1       3.191   0.173  37.548  1.00  0.00     0.000 C 
BRANCH   5   6
ATOM      6  C   UNL     1       4.554  -0.415  37.164  1.00  0.00     0.000 C 
BRANCH   6   7
ATOM      7  C   UNL     1       5.252   0.463  36.112  1.00  0.00     0.000 C 
BRANCH   7   8
ATOM      8  C   UNL     1       6.783   0.521  36.281  1.00  0.00     0.000 C 
BRANCH   8   9
ATOM      9  C   UNL     1       7.560  -0.667  35.680  1.00  0.00     0.000 C 
BRANCH   9  10
ATOM     10  C   UNL     1       7.849  -0.506  34.179  1.00  0.00     0.000 C 
BRANCH  10  11
ATOM     11  C   UNL     1       8.857   0.626  33.935  1.00  0.00     0.000 C 
BRANCH  11  12
ATOM     12  C   UNL     1      10.231   0.120  33.455  1.00  0.00     0.000 C 
BRANCH  12  13
ATOM     13  C   UNL     1      11.411   0.417  34.406  1.00  0.00     0.006 C 
BRANCH  13  14
ATOM     14  C   UNL     1      11.090   1.494  35.453  1.00  0.00     0.053 C 
BRANCH  14  15
ATOM     15  C   UNL     1      12.272   2.380  35.697  1.00  0.00     0.041 C 
ATOM     16  O   UNL     1      13.416   1.879  35.868  1.00  0.00    -0.550 OA
ATOM     17  O   UNL     1      12.103   3.758  35.779  1.00  0.00    -0.550 OA
ENDBRANCH  14  15
ENDBRANCH  13  14
ENDBRANCH  12  13
ENDBRANCH  11  12
ENDBRANCH  10  11
ENDBRANCH   9  10
ENDBRANCH   8   9
ENDBRANCH   7   8
ENDBRANCH   6   7
ENDBRANCH   5   6
ENDBRANCH   4   5
ENDBRANCH   3   4
ENDBRANCH   2   3
ENDBRANCH   1   2
BRANCH   1  18
ATOM     18  C   UNL     1       0.237  -3.126  40.574  1.00  0.00     0.000 C 
BRANCH  18  19
ATOM     19  C   UNL     1       0.833  -4.510  40.890  1.00  0.00     0.000 C 
BRANCH  19  20
ATOM     20  C   UNL     1       1.303  -5.247  39.619  1.00  0.00     0.000 C 
BRANCH  20  21
ATOM     21  C   UNL     1       1.011  -4.486  38.313  1.00  0.00     0.000 C 
BRANCH  21  22
ATOM     22  C   UNL     1       2.241  -4.373  37.395  1.00  0.00     0.000 C 
BRANCH  22  23
ATOM     23  C   UNL     1       3.575  -4.397  38.170  1.00  0.00     0.000 C 
BRANCH  23  24
ATOM     24  C   UNL     1       4.747  -3.726  37.432  1.00  0.00    -0.000 C 
BRANCH  24  25
ATOM     25  C   UNL     1       4.573  -3.711  35.902  1.00  0.00    -0.000 C 
BRANCH  25  26
ATOM     26  C   UNL     1       5.909  -3.844  35.139  1.00  0.00    -0.000 C 
BRANCH  26  27
ATOM     27  C   UNL     1       6.152  -5.234  34.527  1.00  0.00    -0.000 C 
BRANCH  27  28
ATOM     28  C   UNL     1       6.667  -6.266  35.544  1.00  0.00    -0.000 C 
BRANCH  28  29
ATOM     29  C   UNL     1       5.798  -7.542  35.572  1.00  0.00    -0.000 C 
BRANCH  29  30
ATOM     30  C   UNL     1       4.354  -7.296  36.043  1.00  0.00    -0.000 C 
BRANCH  30  31
ATOM     31  C   UNL     1       4.100  -7.783  37.476  1.00  0.00    -0.003 C 
ATOM     32  C   UNL     1       2.683  -8.330  37.631  1.00  0.00     0.004 C 
ENDBRANCH  30  31
ENDBRANCH  29  30
ENDBRANCH  28  29
ENDBRANCH  27  28
ENDBRANCH  26  27
ENDBRANCH  25  26
ENDBRANCH  24  25
ENDBRANCH  23  24
ENDBRANCH  22  23
ENDBRANCH  21  22
ENDBRANCH  20  21
ENDBRANCH  19  20
ENDBRANCH  18  19
ENDBRANCH   1  18
TORSDOF 28
ENDMDL
MODEL 3
REMARK VINA RESULT:    -5.514      3.280      9.892
REMARK INTER + INTRA:         -18.255
REMARK INTER:                 -14.682
REMARK INTRA:                  -3.574
REMARK UNBOUND:                -3.716
REMARK SMILES CCCCCCCCCCCCCCCCCCCCCCCCCCCCCC(=O)[O-]
REMARK SMILES IDX 16 1 17 2 18 3 19 4 20 5 21 6 22 7 23 8 24 9 25 10 26 11
REMARK SMILES IDX 27 12 28 13 29 14 30 15 31 16 32 17 15 18 14 19 13 20 12 21
REMARK SMILES IDX 11 22 10 23 9 24 8 25 7 26 6 27 5 28 4 29 3 30 2 31 1 32
REMARK H PARENT
REMARK Flexibility Score: inf
ROOT
ATOM      1  C   UNL     1       1.492  -1.485  38.850  1.00  0.00     0.000 C 
ENDROOT
BRANCH   1   2
ATOM      2  C   UNL     1       1.966  -0.384  37.889  1.00  0.00     0.000 C 
BRANCH   2   3
ATOM      3  C   UNL     1       3.441  -0.030  38.142  1.00  0.00     0.000 C 
BRANCH   3   4
ATOM      4  C   UNL     1       4.386  -0.659  37.105  1.00  0.00     0.000 C 
BRANCH   4   5
ATOM      5  C   UNL     1       5.253   0.386  36.386  1.00  0.00     0.000 C 
BRANCH   5   6
ATOM      6  C   UNL     1       6.611  -0.205  35.990  1.00  0.00     0.000 C 
BRANCH   6   7
ATOM      7  C   UNL     1       7.740   0.812  36.222  1.00  0.00     0.000 C 
BRANCH   7   8
ATOM      8  C   UNL     1       8.573   1.103  34.958  1.00  0.00     0.000 C 
BRANCH   8   9
ATOM      9  C   UNL     1       8.922  -0.129  34.100  1.00  0.00     0.000 C 
BRANCH   9  10
ATOM     10  C   UNL     1      10.411  -0.207  33.724  1.00  0.00     0.000 C 
BRANCH  10  11
ATOM     11  C   UNL     1      11.191   0.965  34.338  1.00  0.00     0.000 C 
BRANCH  11  12
ATOM     12  C   UNL     1      11.592   2.033  33.303  1.00  0.00     0.000 C 
BRANCH  12  13
ATOM     13  C   UNL     1      12.885   2.812  33.625  1.00  0.00     0.006 C 
BRANCH  13  14
ATOM     14  C   UNL     1      12.625   4.168  34.298  1.00  0.00     0.053 C 
BRANCH  14  15
ATOM     15  C   UNL     1      12.825   4.084  35.780  1.00  0.00     0.041 C 
ATOM     16  O   UNL     1      13.549   3.176  36.271  1.00  0.00    -0.550 OA
ATOM     17  O   UNL     1      12.178   4.981  36.621  1.00  0.00    -0.550 OA
ENDBRANCH  14  15
ENDBRANCH  13  14
ENDBRANCH  12  13
ENDBRANCH  11  12
ENDBRANCH  10  11
ENDBRANCH   9  10
ENDBRANCH   8   9
ENDBRANCH   7   8
ENDBRANCH   6   7
ENDBRANCH   5   6
ENDBRANCH   4   5
ENDBRANCH   3   4
ENDBRANCH   2   3
ENDBRANCH   1   2
BRANCH   1  18
ATOM     18  C   UNL     1       2.442  -1.676  40.043  1.00  0.00     0.000 C 
BRANCH  18  19
ATOM     19  C   UNL     1       1.696  -2.035  41.343  1.00  0.00     0.000 C 
BRANCH  19  20
ATOM     20  C   UNL     1       0.273  -2.564  41.070  1.00  0.00     0.000 C 
BRANCH  20  21
ATOM     21  C   UNL     1       0.136  -4.091  41.212  1.00  0.00     0.000 C 
BRANCH  21  22
ATOM     22  C   UNL     1      -0.390  -4.769  39.935  1.00  0.00     0.000 C 
BRANCH  22  23
ATOM     23  C   UNL     1       0.708  -4.986  38.872  1.00  0.00     0.000 C 
BRANCH  23  24
ATOM     24  C   UNL     1       2.049  -5.482  39.439  1.00  0.00    -0.000 C 
BRANCH  24  25
ATOM     25  C   UNL     1       3.124  -5.700  38.357  1.00  0.00    -0.000 C 
BRANCH  25  26
ATOM     26  C   UNL     1       3.777  -4.384  37.879  1.00  0.00    -0.000 C 
BRANCH  26  27
ATOM     27  C   UNL     1       3.207  -3.840  36.558  1.00  0.00    -0.000 C 
BRANCH  27  28
ATOM     28  C   UNL     1       4.107  -4.124  35.344  1.00  0.00    -0.000 C 
BRANCH  28  29
ATOM     29  C   UNL     1       5.606  -3.989  35.685  1.00  0.00    -0.000 C 
BRANCH  29  30
ATOM     30  C   UNL     1       6.422  -5.264  35.404  1.00  0.00    -0.000 C 
BRANCH  30  31
ATOM     31  C   UNL     1       5.554  -6.529  35.345  1.00  0.00    -0.003 C 
ATOM     32  C   UNL     1       5.962  -7.529  36.423  1.00  0.00     0.004 C 
ENDBRANCH  30  31
ENDBRANCH  29  30
ENDBRANCH  28  29
ENDBRANCH  27  28
ENDBRANCH  26  27
ENDBRANCH  25  26
ENDBRANCH  24  25
ENDBRANCH  23  24
ENDBRANCH  22  23
ENDBRANCH  21  22
ENDBRANCH  20  21
ENDBRANCH  19  20
ENDBRANCH  18  19
ENDBRANCH   1  18
TORSDOF 28
ENDMDL
MODEL 4
REMARK VINA RESULT:    -5.504      3.198      9.141
REMARK INTER + INTRA:         -18.229
REMARK INTER:                 -13.880
REMARK INTRA:                  -4.349
REMARK UNBOUND:                -3.716
REMARK SMILES CCCCCCCCCCCCCCCCCCCCCCCCCCCCCC(=O)[O-]
REMARK SMILES IDX 16 1 17 2 18 3 19 4 20 5 21 6 22 7 23 8 24 9 25 10 26 11
REMARK SMILES IDX 27 12 28 13 29 14 30 15 31 16 32 17 15 18 14 19 13 20 12 21
REMARK SMILES IDX 11 22 10 23 9 24 8 25 7 26 6 27 5 28 4 29 3 30 2 31 1 32
REMARK H PARENT
REMARK Flexibility Score: inf
ROOT
ATOM      1  C   UNL     1       2.997  -2.718  40.366  1.00  0.00     0.000 C 
ENDROOT
BRANCH   1   2
ATOM      2  C   UNL     1       2.614  -1.276  40.003  1.00  0.00     0.000 C 
BRANCH   2   3
ATOM      3  C   UNL     1       1.757  -1.237  38.727  1.00  0.00     0.000 C 
BRANCH   3   4
ATOM      4  C   UNL     1       2.385  -0.375  37.619  1.00  0.00     0.000 C 
BRANCH   4   5
ATOM      5  C   UNL     1       3.843   0.004  37.920  1.00  0.00     0.000 C 
BRANCH   5   6
ATOM      6  C   UNL     1       4.688  -0.006  36.641  1.00  0.00     0.000 C 
BRANCH   6   7
ATOM      7  C   UNL     1       5.344  -1.380  36.429  1.00  0.00     0.000 C 
BRANCH   7   8
ATOM      8  C   UNL     1       6.824  -1.294  36.005  1.00  0.00     0.000 C 
BRANCH   8   9
ATOM      9  C   UNL     1       7.353   0.129  35.738  1.00  0.00     0.000 C 
BRANCH   9  10
ATOM     10  C   UNL     1       8.622   0.153  34.872  1.00  0.00     0.000 C 
BRANCH  10  11
ATOM     11  C   UNL     1       8.874   1.560  34.311  1.00  0.00     0.000 C 
BRANCH  11  12
ATOM     12  C   UNL     1      10.152   2.214  34.871  1.00  0.00     0.000 C 
BRANCH  12  13
ATOM     13  C   UNL     1      10.755   1.526  36.115  1.00  0.00     0.006 C 
BRANCH  13  14
ATOM     14  C   UNL     1      12.274   1.318  36.016  1.00  0.00     0.053 C 
BRANCH  14  15
ATOM     15  C   UNL     1      12.662   0.798  34.666  1.00  0.00     0.041 C 
ATOM     16  O   UNL     1      13.413   1.477  33.916  1.00  0.00    -0.550 OA
ATOM     17  O   UNL     1      12.157  -0.419  34.219  1.00  0.00    -0.550 OA
ENDBRANCH  14  15
ENDBRANCH  13  14
ENDBRANCH  12  13
ENDBRANCH  11  12
ENDBRANCH  10  11
ENDBRANCH   9  10
ENDBRANCH   8   9
ENDBRANCH   7   8
ENDBRANCH   6   7
ENDBRANCH   5   6
ENDBRANCH   4   5
ENDBRANCH   3   4
ENDBRANCH   2   3
ENDBRANCH   1   2
BRANCH   1  18
ATOM     18  C   UNL     1       1.999  -3.750  39.816  1.00  0.00     0.000 C 
BRANCH  18  19
ATOM     19  C   UNL     1       2.684  -4.860  38.998  1.00  0.00     0.000 C 
BRANCH  19  20
ATOM     20  C   UNL     1       3.646  -4.292  37.934  1.00  0.00     0.000 C 
BRANCH  20  21
ATOM     21  C   UNL     1       3.001  -4.097  36.550  1.00  0.00     0.000 C 
BRANCH  21  22
ATOM     22  C   UNL     1       2.137  -5.294  36.116  1.00  0.00     0.000 C 
BRANCH  22  23
ATOM     23  C   UNL     1       1.212  -4.970  34.923  1.00  0.00     0.000 C 
BRANCH  23  24
ATOM     24  C   UNL     1       1.953  -4.506  33.657  1.00  0.00    -0.000 C 
BRANCH  24  25
ATOM     25  C   UNL     1       2.775  -5.624  32.989  1.00  0.00    -0.000 C 
BRANCH  25  26
ATOM     26  C   UNL     1       4.247  -5.228  32.742  1.00  0.00    -0.000 C 
BRANCH  26  27
ATOM     27  C   UNL     1       4.837  -4.287  33.807  1.00  0.00    -0.000 C 
BRANCH  27  28
ATOM     28  C   UNL     1       6.297  -4.611  34.163  1.00  0.00    -0.000 C 
BRANCH  28  29
ATOM     29  C   UNL     1       6.404  -5.587  35.354  1.00  0.00    -0.000 C 
BRANCH  29  30
ATOM     30  C   UNL     1       6.103  -7.050  34.984  1.00  0.00    -0.000 C 
BRANCH  30  31
ATOM     31  C   UNL     1       4.819  -7.581  35.635  1.00  0.00    -0.003 C 
ATOM     32  C   UNL     1       4.942  -7.608  37.157  1.00  0.00     0.004 C 
ENDBRANCH  30  31
ENDBRANCH  29  30
ENDBRANCH  28  29
ENDBRANCH  27  28
ENDBRANCH  26  27
ENDBRANCH  25  26
ENDBRANCH  24  25
ENDBRANCH  23  24
ENDBRANCH  22  23
ENDBRANCH  21  22
ENDBRANCH  20  21
ENDBRANCH  19  20
ENDBRANCH  18  19
ENDBRANCH   1  18
TORSDOF 28
ENDMDL
MODEL 5
REMARK VINA RESULT:    -5.488      3.268      9.342
REMARK INTER + INTRA:         -18.188
REMARK INTER:                 -14.374
REMARK INTRA:                  -3.814
REMARK UNBOUND:                -3.716
REMARK SMILES CCCCCCCCCCCCCCCCCCCCCCCCCCCCCC(=O)[O-]
REMARK SMILES IDX 16 1 17 2 18 3 19 4 20 5 21 6 22 7 23 8 24 9 25 10 26 11
REMARK SMILES IDX 27 12 28 13 29 14 30 15 31 16 32 17 15 18 14 19 13 20 12 21
REMARK SMILES IDX 11 22 10 23 9 24 8 25 7 26 6 27 5 28 4 29 3 30 2 31 1 32
REMARK H PARENT
REMARK Flexibility Score: inf
ROOT
ATOM      1  C   UNL     1       1.492  -1.803  41.216  1.00  0.00     0.000 C 
ENDROOT
BRANCH   1   2
ATOM      2  C   UNL     1       2.850  -2.301  40.700  1.00  0.00     0.000 C 
BRANCH   2   3
ATOM      3  C   UNL     1       2.944  -2.164  39.171  1.00  0.00     0.000 C 
BRANCH   3   4
ATOM      4  C   UNL     1       2.051  -1.038  38.623  1.00  0.00     0.000 C 
BRANCH   4   5
ATOM      5  C   UNL     1       2.852   0.044  37.883  1.00  0.00     0.000 C 
BRANCH   5   6
ATOM      6  C   UNL     1       4.257  -0.458  37.530  1.00  0.00     0.000 C 
BRANCH   6   7
ATOM      7  C   UNL     1       4.883   0.401  36.420  1.00  0.00     0.000 C 
BRANCH   7   8
ATOM      8  C   UNL     1       6.276  -0.088  35.977  1.00  0.00     0.000 C 
BRANCH   8   9
ATOM      9  C   UNL     1       7.440   0.880  36.269  1.00  0.00     0.000 C 
BRANCH   9  10
ATOM     10  C   UNL     1       8.823   0.266  36.002  1.00  0.00     0.000 C 
BRANCH  10  11
ATOM     11  C   UNL     1       9.043   0.048  34.498  1.00  0.00     0.000 C 
BRANCH  11  12
ATOM     12  C   UNL     1       9.635   1.281  33.788  1.00  0.00     0.000 C 
BRANCH  12  13
ATOM     13  C   UNL     1      11.143   1.515  34.020  1.00  0.00     0.006 C 
BRANCH  13  14
ATOM     14  C   UNL     1      11.515   3.001  34.138  1.00  0.00     0.053 C 
BRANCH  14  15
ATOM     15  C   UNL     1      12.297   3.265  35.387  1.00  0.00     0.041 C 
ATOM     16  O   UNL     1      12.284   4.411  35.913  1.00  0.00    -0.550 OA
ATOM     17  O   UNL     1      13.075   2.258  35.946  1.00  0.00    -0.550 OA
ENDBRANCH  14  15
ENDBRANCH  13  14
ENDBRANCH  12  13
ENDBRANCH  11  12
ENDBRANCH  10  11
ENDBRANCH   9  10
ENDBRANCH   8   9
ENDBRANCH   7   8
ENDBRANCH   6   7
ENDBRANCH   5   6
ENDBRANCH   4   5
ENDBRANCH   3   4
ENDBRANCH   2   3
ENDBRANCH   1   2
BRANCH   1  18
ATOM     18  C   UNL     1       0.554  -2.955  41.613  1.00  0.00     0.000 C 
BRANCH  18  19
ATOM     19  C   UNL     1      -0.777  -2.929  40.838  1.00  0.00     0.000 C 
BRANCH  19  20
ATOM     20  C   UNL     1      -0.764  -3.880  39.624  1.00  0.00     0.000 C 
BRANCH  20  21
ATOM     21  C   UNL     1       0.195  -5.076  39.778  1.00  0.00     0.000 C 
BRANCH  21  22
ATOM     22  C   UNL     1       1.109  -5.274  38.557  1.00  0.00     0.000 C 
BRANCH  22  23
ATOM     23  C   UNL     1       2.541  -5.702  38.939  1.00  0.00     0.000 C 
BRANCH  23  24
ATOM     24  C   UNL     1       3.521  -5.765  37.753  1.00  0.00    -0.000 C 
BRANCH  24  25
ATOM     25  C   UNL     1       2.920  -5.230  36.440  1.00  0.00    -0.000 C 
BRANCH  25  26
ATOM     26  C   UNL     1       3.756  -4.095  35.809  1.00  0.00    -0.000 C 
BRANCH  26  27
ATOM     27  C   UNL     1       4.947  -3.636  36.667  1.00  0.00    -0.000 C 
BRANCH  27  28
ATOM     28  C   UNL     1       6.302  -3.791  35.959  1.00  0.00    -0.000 C 
BRANCH  28  29
ATOM     29  C   UNL     1       6.145  -4.018  34.440  1.00  0.00    -0.000 C 
BRANCH  29  30
ATOM     30  C   UNL     1       6.528  -5.437  33.984  1.00  0.00    -0.000 C 
BRANCH  30  31
ATOM     31  C   UNL     1       6.864  -6.372  35.155  1.00  0.00    -0.003 C 
ATOM     32  C   UNL     1       7.554  -7.643  34.666  1.00  0.00     0.004 C 
ENDBRANCH  30  31
ENDBRANCH  29  30
ENDBRANCH  28  29
ENDBRANCH  27  28
ENDBRANCH  26  27
ENDBRANCH  25  26
ENDBRANCH  24  25
ENDBRANCH  23  24
ENDBRANCH  22  23
ENDBRANCH  21  22
ENDBRANCH  20  21
ENDBRANCH  19  20
ENDBRANCH  18  19
ENDBRANCH   1  18
TORSDOF 28
ENDMDL
MODEL 6
REMARK VINA RESULT:    -5.451      3.203      9.487
REMARK INTER + INTRA:         -18.090
REMARK INTER:                 -13.491
REMARK INTRA:                  -4.599
REMARK UNBOUND:                -3.716
REMARK SMILES CCCCCCCCCCCCCCCCCCCCCCCCCCCCCC(=O)[O-]
REMARK SMILES IDX 16 1 17 2 18 3 19 4 20 5 21 6 22 7 23 8 24 9 25 10 26 11
REMARK SMILES IDX 27 12 28 13 29 14 30 15 31 16 32 17 15 18 14 19 13 20 12 21
REMARK SMILES IDX 11 22 10 23 9 24 8 25 7 26 6 27 5 28 4 29 3 30 2 31 1 32
REMARK H PARENT
REMARK Flexibility Score: inf
ROOT
ATOM      1  C   UNL     1       4.491  -3.938  37.587  1.00  0.00     0.000 C 
ENDROOT
BRANCH   1   2
ATOM      2  C   UNL     1       3.113  -3.445  38.051  1.00  0.00     0.000 C 
BRANCH   2   3
ATOM      3  C   UNL     1       3.162  -2.964  39.511  1.00  0.00     0.000 C 
BRANCH   3   4
ATOM      4  C   UNL     1       2.528  -1.576  39.698  1.00  0.00     0.000 C 
BRANCH   4   5
ATOM      5  C   UNL     1       2.332  -0.832  38.368  1.00  0.00     0.000 C 
BRANCH   5   6
ATOM      6  C   UNL     1       3.327   0.326  38.234  1.00  0.00     0.000 C 
BRANCH   6   7
ATOM      7  C   UNL     1       3.929   0.370  36.820  1.00  0.00     0.000 C 
BRANCH   7   8
ATOM      8  C   UNL     1       5.245  -0.423  36.689  1.00  0.00     0.000 C 
BRANCH   8   9
ATOM      9  C   UNL     1       6.442   0.371  36.129  1.00  0.00     0.000 C 
BRANCH   9  10
ATOM     10  C   UNL     1       7.457  -0.506  35.380  1.00  0.00     0.000 C 
BRANCH  10  11
ATOM     11  C   UNL     1       8.789   0.234  35.198  1.00  0.00     0.000 C 
BRANCH  11  12
ATOM     12  C   UNL     1       9.117   1.187  36.364  1.00  0.00     0.000 C 
BRANCH  12  13
ATOM     13  C   UNL     1      10.402   2.025  36.190  1.00  0.00     0.006 C 
BRANCH  13  14
ATOM     14  C   UNL     1      11.589   1.211  35.653  1.00  0.00     0.053 C 
BRANCH  14  15
ATOM     15  C   UNL     1      12.143   1.823  34.405  1.00  0.00     0.041 C 
ATOM     16  O   UNL     1      13.387   1.832  34.200  1.00  0.00    -0.550 OA
ATOM     17  O   UNL     1      11.289   2.424  33.486  1.00  0.00    -0.550 OA
ENDBRANCH  14  15
ENDBRANCH  13  14
ENDBRANCH  12  13
ENDBRANCH  11  12
ENDBRANCH  10  11
ENDBRANCH   9  10
ENDBRANCH   8   9
ENDBRANCH   7   8
ENDBRANCH   6   7
ENDBRANCH   5   6
ENDBRANCH   4   5
ENDBRANCH   3   4
ENDBRANCH   2   3
ENDBRANCH   1   2
BRANCH   1  18
ATOM     18  C   UNL     1       4.676  -3.824  36.064  1.00  0.00     0.000 C 
BRANCH  18  19
ATOM     19  C   UNL     1       6.158  -3.838  35.644  1.00  0.00     0.000 C 
BRANCH  19  20
ATOM     20  C   UNL     1       6.335  -4.129  34.140  1.00  0.00     0.000 C 
BRANCH  20  21
ATOM     21  C   UNL     1       5.030  -4.522  33.422  1.00  0.00     0.000 C 
BRANCH  21  22
ATOM     22  C   UNL     1       5.164  -5.815  32.599  1.00  0.00     0.000 C 
BRANCH  22  23
ATOM     23  C   UNL     1       3.915  -6.718  32.688  1.00  0.00     0.000 C 
BRANCH  23  24
ATOM     24  C   UNL     1       3.124  -6.577  34.001  1.00  0.00    -0.000 C 
BRANCH  24  25
ATOM     25  C   UNL     1       2.518  -7.905  34.490  1.00  0.00    -0.000 C 
BRANCH  25  26
ATOM     26  C   UNL     1       2.946  -8.273  35.928  1.00  0.00    -0.000 C 
BRANCH  26  27
ATOM     27  C   UNL     1       3.993  -7.325  36.537  1.00  0.00    -0.000 C 
BRANCH  27  28
ATOM     28  C   UNL     1       5.381  -7.970  36.691  1.00  0.00    -0.000 C 
BRANCH  28  29
ATOM     29  C   UNL     1       6.335  -7.581  35.541  1.00  0.00    -0.000 C 
BRANCH  29  30
ATOM     30  C   UNL     1       6.877  -8.788  34.754  1.00  0.00    -0.000 C 
BRANCH  30  31
ATOM     31  C   UNL     1       5.770  -9.740  34.280  1.00  0.00    -0.003 C 
ATOM     32  C   UNL     1       5.732  -9.828  32.757  1.00  0.00     0.004 C 
ENDBRANCH  30  31
ENDBRANCH  29  30
ENDBRANCH  28  29
ENDBRANCH  27  28
ENDBRANCH  26  27
ENDBRANCH  25  26
ENDBRANCH  24  25
ENDBRANCH  23  24
ENDBRANCH  22  23
ENDBRANCH  21  22
ENDBRANCH  20  21
ENDBRANCH  19  20
ENDBRANCH  18  19
ENDBRANCH   1  18
TORSDOF 28
ENDMDL
MODEL 7
REMARK VINA RESULT:    -5.424      2.399      5.333
REMARK INTER + INTRA:         -18.019
REMARK INTER:                 -14.492
REMARK INTRA:                  -3.527
REMARK UNBOUND:                -3.716
REMARK SMILES CCCCCCCCCCCCCCCCCCCCCCCCCCCCCC(=O)[O-]
REMARK SMILES IDX 16 1 17 2 18 3 19 4 20 5 21 6 22 7 23 8 24 9 25 10 26 11
REMARK SMILES IDX 27 12 28 13 29 14 30 15 31 16 32 17 15 18 14 19 13 20 12 21
REMARK SMILES IDX 11 22 10 23 9 24 8 25 7 26 6 27 5 28 4 29 3 30 2 31 1 32
REMARK H PARENT
REMARK Flexibility Score: inf
ROOT
ATOM      1  C   UNL     1       3.341  -2.393  38.015  1.00  0.00     0.000 C 
ENDROOT
BRANCH   1   2
ATOM      2  C   UNL     1       2.486  -1.240  38.563  1.00  0.00     0.000 C 
BRANCH   2   3
ATOM      3  C   UNL     1       2.618  -1.134  40.091  1.00  0.00     0.000 C 
BRANCH   3   4
ATOM      4  C   UNL     1       2.613  -2.508  40.782  1.00  0.00     0.000 C 
BRANCH   4   5
ATOM      5  C   UNL     1       1.271  -2.821  41.462  1.00  0.00     0.000 C 
BRANCH   5   6
ATOM      6  C   UNL     1       0.768  -4.214  41.069  1.00  0.00     0.000 C 
BRANCH   6   7
ATOM      7  C   UNL     1       0.341  -4.246  39.593  1.00  0.00     0.000 C 
BRANCH   7   8
ATOM      8  C   UNL     1       1.177  -5.214  38.733  1.00  0.00     0.000 C 
BRANCH   8   9
ATOM      9  C   UNL     1       1.048  -5.023  37.209  1.00  0.00     0.000 C 
BRANCH   9  10
ATOM     10  C   UNL     1       2.242  -5.587  36.422  1.00  0.00     0.000 C 
BRANCH  10  11
ATOM     11  C   UNL     1       2.994  -6.639  37.250  1.00  0.00     0.000 C 
BRANCH  11  12
ATOM     12  C   UNL     1       4.505  -6.358  37.357  1.00  0.00     0.000 C 
BRANCH  12  13
ATOM     13  C   UNL     1       5.423  -7.448  36.764  1.00  0.00     0.006 C 
BRANCH  13  14
ATOM     14  C   UNL     1       6.486  -6.891  35.805  1.00  0.00     0.053 C 
BRANCH  14  15
ATOM     15  C   UNL     1       5.993  -5.661  35.108  1.00  0.00     0.041 C 
ATOM     16  O   UNL     1       6.382  -4.522  35.481  1.00  0.00    -0.550 OA
ATOM     17  O   UNL     1       5.071  -5.771  34.073  1.00  0.00    -0.550 OA
ENDBRANCH  14  15
ENDBRANCH  13  14
ENDBRANCH  12  13
ENDBRANCH  11  12
ENDBRANCH  10  11
ENDBRANCH   9  10
ENDBRANCH   8   9
ENDBRANCH   7   8
ENDBRANCH   6   7
ENDBRANCH   5   6
ENDBRANCH   4   5
ENDBRANCH   3   4
ENDBRANCH   2   3
ENDBRANCH   1   2
BRANCH   1  18
ATOM     18  C   UNL     1       4.471  -1.902  37.094  1.00  0.00     0.000 C 
BRANCH  18  19
ATOM     19  C   UNL     1       4.395  -0.389  36.818  1.00  0.00     0.000 C 
BRANCH  19  20
ATOM     20  C   UNL     1       5.755   0.192  36.379  1.00  0.00     0.000 C 
BRANCH  20  21
ATOM     21  C   UNL     1       6.751  -0.866  35.869  1.00  0.00     0.000 C 
BRANCH  21  22
ATOM     22  C   UNL     1       8.129  -0.276  35.522  1.00  0.00     0.000 C 
BRANCH  22  23
ATOM     23  C   UNL     1       8.347   1.134  36.110  1.00  0.00     0.000 C 
BRANCH  23  24
ATOM     24  C   UNL     1       9.652   1.813  35.659  1.00  0.00    -0.000 C 
BRANCH  24  25
ATOM     25  C   UNL     1       9.700   2.093  34.145  1.00  0.00    -0.000 C 
BRANCH  25  26
ATOM     26  C   UNL     1      10.779   1.267  33.410  1.00  0.00    -0.000 C 
BRANCH  26  27
ATOM     27  C   UNL     1      11.500   0.238  34.297  1.00  0.00    -0.000 C 
BRANCH  27  28
ATOM     28  C   UNL     1      13.001   0.526  34.467  1.00  0.00    -0.000 C 
BRANCH  28  29
ATOM     29  C   UNL     1      13.321   2.033  34.362  1.00  0.00    -0.000 C 
BRANCH  29  30
ATOM     30  C   UNL     1      13.289   2.767  35.715  1.00  0.00    -0.000 C 
BRANCH  30  31
ATOM     31  C   UNL     1      12.555   4.114  35.649  1.00  0.00    -0.003 C 
ATOM     32  C   UNL     1      12.335   4.551  34.203  1.00  0.00     0.004 C 
ENDBRANCH  30  31
ENDBRANCH  29  30
ENDBRANCH  28  29
ENDBRANCH  27  28
ENDBRANCH  26  27
ENDBRANCH  25  26
ENDBRANCH  24  25
ENDBRANCH  23  24
ENDBRANCH  22  23
ENDBRANCH  21  22
ENDBRANCH  20  21
ENDBRANCH  19  20
ENDBRANCH  18  19
ENDBRANCH   1  18
TORSDOF 28
ENDMDL
MODEL 8
REMARK VINA RESULT:    -5.418      2.817      6.080
REMARK INTER + INTRA:         -18.003
REMARK INTER:                 -14.379
REMARK INTRA:                  -3.624
REMARK UNBOUND:                -3.716
REMARK SMILES CCCCCCCCCCCCCCCCCCCCCCCCCCCCCC(=O)[O-]
REMARK SMILES IDX 16 1 17 2 18 3 19 4 20 5 21 6 22 7 23 8 24 9 25 10 26 11
REMARK SMILES IDX 27 12 28 13 29 14 30 15 31 16 32 17 15 18 14 19 13 20 12 21
REMARK SMILES IDX 11 22 10 23 9 24 8 25 7 26 6 27 5 28 4 29 3 30 2 31 1 32
REMARK H PARENT
REMARK Flexibility Score: inf
ROOT
ATOM      1  C   UNL     1       2.210  -2.335  41.165  1.00  0.00     0.000 C 
ENDROOT
BRANCH   1   2
ATOM      2  C   UNL     1       0.721  -2.256  41.534  1.00  0.00     0.000 C 
BRANCH   2   3
ATOM      3  C   UNL     1      -0.075  -3.386  40.859  1.00  0.00     0.000 C 
BRANCH   3   4
ATOM      4  C   UNL     1       0.435  -4.783  41.250  1.00  0.00     0.000 C 
BRANCH   4   5
ATOM      5  C   UNL     1       0.980  -5.570  40.049  1.00  0.00     0.000 C 
BRANCH   5   6
ATOM      6  C   UNL     1       0.572  -4.907  38.728  1.00  0.00     0.000 C 
BRANCH   6   7
ATOM      7  C   UNL     1       1.803  -4.640  37.846  1.00  0.00     0.000 C 
BRANCH   7   8
ATOM      8  C   UNL     1       3.133  -4.670  38.624  1.00  0.00     0.000 C 
BRANCH   8   9
ATOM      9  C   UNL     1       4.256  -3.785  38.047  1.00  0.00     0.000 C 
BRANCH   9  10
ATOM     10  C   UNL     1       4.180  -3.624  36.521  1.00  0.00     0.000 C 
BRANCH  10  11
ATOM     11  C   UNL     1       5.487  -4.079  35.858  1.00  0.00     0.000 C 
BRANCH  11  12
ATOM     12  C   UNL     1       5.308  -4.482  34.381  1.00  0.00     0.000 C 
BRANCH  12  13
ATOM     13  C   UNL     1       6.407  -5.405  33.812  1.00  0.00     0.006 C 
BRANCH  13  14
ATOM     14  C   UNL     1       6.948  -6.410  34.840  1.00  0.00     0.053 C 
BRANCH  14  15
ATOM     15  C   UNL     1       6.219  -7.715  34.756  1.00  0.00     0.041 C 
ATOM     16  O   UNL     1       6.178  -8.484  35.754  1.00  0.00    -0.550 OA
ATOM     17  O   UNL     1       5.622  -8.102  33.561  1.00  0.00    -0.550 OA
ENDBRANCH  14  15
ENDBRANCH  13  14
ENDBRANCH  12  13
ENDBRANCH  11  12
ENDBRANCH  10  11
ENDBRANCH   9  10
ENDBRANCH   8   9
ENDBRANCH   7   8
ENDBRANCH   6   7
ENDBRANCH   5   6
ENDBRANCH   4   5
ENDBRANCH   3   4
ENDBRANCH   2   3
ENDBRANCH   1   2
BRANCH   1  18
ATOM     18  C   UNL     1       2.632  -1.233  40.180  1.00  0.00     0.000 C 
BRANCH  18  19
ATOM     19  C   UNL     1       1.719  -1.164  38.941  1.00  0.00     0.000 C 
BRANCH  19  20
ATOM     20  C   UNL     1       2.320  -0.287  37.822  1.00  0.00     0.000 C 
BRANCH  20  21
ATOM     21  C   UNL     1       3.837  -0.061  37.953  1.00  0.00     0.000 C 
BRANCH  21  22
ATOM     22  C   UNL     1       4.495   0.376  36.633  1.00  0.00     0.000 C 
BRANCH  22  23
ATOM     23  C   UNL     1       5.807  -0.379  36.334  1.00  0.00     0.000 C 
BRANCH  23  24
ATOM     24  C   UNL     1       7.034   0.532  36.147  1.00  0.00    -0.000 C 
BRANCH  24  25
ATOM     25  C   UNL     1       8.204  -0.165  35.428  1.00  0.00    -0.000 C 
BRANCH  25  26
ATOM     26  C   UNL     1       8.241   0.123  33.911  1.00  0.00    -0.000 C 
BRANCH  26  27
ATOM     27  C   UNL     1       9.591   0.654  33.401  1.00  0.00    -0.000 C 
BRANCH  27  28
ATOM     28  C   UNL     1      10.801  -0.068  34.016  1.00  0.00    -0.000 C 
BRANCH  28  29
ATOM     29  C   UNL     1      11.943   0.907  34.373  1.00  0.00    -0.000 C 
BRANCH  29  30
ATOM     30  C   UNL     1      11.607   1.851  35.541  1.00  0.00    -0.000 C 
BRANCH  30  31
ATOM     31  C   UNL     1      12.433   3.145  35.522  1.00  0.00    -0.003 C 
ATOM     32  C   UNL     1      12.771   3.563  34.094  1.00  0.00     0.004 C 
ENDBRANCH  30  31
ENDBRANCH  29  30
ENDBRANCH  28  29
ENDBRANCH  27  28
ENDBRANCH  26  27
ENDBRANCH  25  26
ENDBRANCH  24  25
ENDBRANCH  23  24
ENDBRANCH  22  23
ENDBRANCH  21  22
ENDBRANCH  20  21
ENDBRANCH  19  20
ENDBRANCH  18  19
ENDBRANCH   1  18
TORSDOF 28
ENDMDL
MODEL 9
REMARK VINA RESULT:    -5.383      3.290      9.812
REMARK INTER + INTRA:         -17.910
REMARK INTER:                 -13.981
REMARK INTRA:                  -3.929
REMARK UNBOUND:                -3.716
REMARK SMILES CCCCCCCCCCCCCCCCCCCCCCCCCCCCCC(=O)[O-]
REMARK SMILES IDX 16 1 17 2 18 3 19 4 20 5 21 6 22 7 23 8 24 9 25 10 26 11
REMARK SMILES IDX 27 12 28 13 29 14 30 15 31 16 32 17 15 18 14 19 13 20 12 21
REMARK SMILES IDX 11 22 10 23 9 24 8 25 7 26 6 27 5 28 4 29 3 30 2 31 1 32
REMARK H PARENT
REMARK Flexibility Score: inf
ROOT
ATOM      1  C   UNL     1       3.849  -3.575  38.241  1.00  0.00     0.000 C 
ENDROOT
BRANCH   1   2
ATOM      2  C   UNL     1       3.045  -2.550  39.054  1.00  0.00     0.000 C 
BRANCH   2   3
ATOM      3  C   UNL     1       1.874  -1.989  38.231  1.00  0.00     0.000 C 
BRANCH   3   4
ATOM      4  C   UNL     1       2.022  -0.486  37.940  1.00  0.00     0.000 C 
BRANCH   4   5
ATOM      5  C   UNL     1       3.457   0.019  38.157  1.00  0.00     0.000 C 
BRANCH   5   6
ATOM      6  C   UNL     1       4.109   0.410  36.826  1.00  0.00     0.000 C 
BRANCH   6   7
ATOM      7  C   UNL     1       5.266  -0.542  36.482  1.00  0.00     0.000 C 
BRANCH   7   8
ATOM      8  C   UNL     1       6.547   0.187  36.032  1.00  0.00     0.000 C 
BRANCH   8   9
ATOM      9  C   UNL     1       7.676  -0.723  35.508  1.00  0.00     0.000 C 
BRANCH   9  10
ATOM     10  C   UNL     1       8.191  -0.314  34.119  1.00  0.00     0.000 C 
BRANCH  10  11
ATOM     11  C   UNL     1       9.352   0.683  34.239  1.00  0.00     0.000 C 
BRANCH  11  12
ATOM     12  C   UNL     1      10.721   0.060  33.905  1.00  0.00     0.000 C 
BRANCH  12  13
ATOM     13  C   UNL     1      11.918   0.637  34.692  1.00  0.00     0.006 C 
BRANCH  13  14
ATOM     14  C   UNL     1      11.582   1.936  35.440  1.00  0.00     0.053 C 
BRANCH  14  15
ATOM     15  C   UNL     1      12.645   2.970  35.234  1.00  0.00     0.041 C 
ATOM     16  O   UNL     1      13.552   3.128  36.095  1.00  0.00    -0.550 OA
ATOM     17  O   UNL     1      12.611   3.788  34.110  1.00  0.00    -0.550 OA
ENDBRANCH  14  15
ENDBRANCH  13  14
ENDBRANCH  12  13
ENDBRANCH  11  12
ENDBRANCH  10  11
ENDBRANCH   9  10
ENDBRANCH   8   9
ENDBRANCH   7   8
ENDBRANCH   6   7
ENDBRANCH   5   6
ENDBRANCH   4   5
ENDBRANCH   3   4
ENDBRANCH   2   3
ENDBRANCH   1   2
BRANCH   1  18
ATOM     18  C   UNL     1       3.273  -3.792  36.831  1.00  0.00     0.000 C 
BRANCH  18  19
ATOM     19  C   UNL     1       4.368  -4.031  35.775  1.00  0.00     0.000 C 
BRANCH  19  20
ATOM     20  C   UNL     1       3.798  -4.618  34.467  1.00  0.00     0.000 C 
BRANCH  20  21
ATOM     21  C   UNL     1       4.746  -4.493  33.260  1.00  0.00     0.000 C 
BRANCH  21  22
ATOM     22  C   UNL     1       6.231  -4.601  33.649  1.00  0.00     0.000 C 
BRANCH  22  23
ATOM     23  C   UNL     1       6.811  -6.014  33.427  1.00  0.00     0.000 C 
BRANCH  23  24
ATOM     24  C   UNL     1       7.108  -6.787  34.724  1.00  0.00    -0.000 C 
BRANCH  24  25
ATOM     25  C   UNL     1       5.910  -7.616  35.225  1.00  0.00    -0.000 C 
BRANCH  25  26
ATOM     26  C   UNL     1       5.678  -7.486  36.747  1.00  0.00    -0.000 C 
BRANCH  26  27
ATOM     27  C   UNL     1       4.436  -8.232  37.263  1.00  0.00    -0.000 C 
BRANCH  27  28
ATOM     28  C   UNL     1       3.171  -7.359  37.291  1.00  0.00    -0.000 C 
BRANCH  28  29
ATOM     29  C   UNL     1       2.695  -7.066  38.731  1.00  0.00    -0.000 C 
BRANCH  29  30
ATOM     30  C   UNL     1       1.165  -6.994  38.874  1.00  0.00    -0.000 C 
BRANCH  30  31
ATOM     31  C   UNL     1       0.626  -5.557  38.831  1.00  0.00    -0.003 C 
ATOM     32  C   UNL     1       0.483  -4.980  40.237  1.00  0.00     0.004 C 
ENDBRANCH  30  31
ENDBRANCH  29  30
ENDBRANCH  28  29
ENDBRANCH  27  28
ENDBRANCH  26  27
ENDBRANCH  25  26
ENDBRANCH  24  25
ENDBRANCH  23  24
ENDBRANCH  22  23
ENDBRANCH  21  22
ENDBRANCH  20  21
ENDBRANCH  19  20
ENDBRANCH  18  19
ENDBRANCH   1  18
TORSDOF 28
ENDMDL
