MODEL 1
REMARK VINA RESULT:    -4.759      0.000      0.000
REMARK INTER + INTRA:          -8.537
REMARK INTER:                  -7.263
REMARK INTRA:                  -1.275
REMARK UNBOUND:                -1.275
REMARK SMILES OC[C@@H]1O[C@@](CO)(O[C@@H]2O[C@H](CO)[C@@H](O)[C@@H](O)[C@@H]2O)[C@@H](O)[C@@H]1O
REMARK SMILES IDX 8 1 9 2 11 3 14 4 10 5 16 6 18 7 12 8 13 9 15 11 17 13 19 15
REMARK SMILES IDX 5 17 20 18 4 19 22 20 3 21 6 22 7 23 21 25 23 27 2 29 1 30
REMARK H PARENT 13 10 15 12 17 14 19 16 7 24 21 26 23 28 1 31
REMARK Flexibility Score: inf
ROOT
ATOM      1  O   UNL     1     177.107 163.193 185.510  1.00  0.00    -0.313 OA
ENDROOT
BRANCH   1   2
ATOM      2  C   UNL     1     176.160 163.612 186.480  1.00  0.00     0.285 C 
ATOM      3  C   UNL     1     176.647 165.898 187.165  1.00  0.00     0.178 C 
ATOM      4  C   UNL     1     176.724 165.471 188.643  1.00  0.00     0.177 C 
ATOM      5  O   UNL     1     175.880 165.011 186.349  1.00  0.00    -0.341 OA
ATOM      6  C   UNL     1     177.382 164.086 188.725  1.00  0.00     0.179 C 
ATOM      7  C   UNL     1     176.537 163.097 187.907  1.00  0.00     0.202 C 
BRANCH   3   8
ATOM      8  C   UNL     1     178.023 166.254 186.549  1.00  0.00     0.191 C 
BRANCH   8   9
ATOM      9  O   UNL     1     177.925 166.286 185.150  1.00  0.00    -0.394 OA
ATOM     10  H   UNL     1     177.371 165.503 184.900  1.00  0.00     0.210 HD
ENDBRANCH   8   9
ENDBRANCH   3   8
BRANCH   4  11
ATOM     11  O   UNL     1     175.428 165.486 189.196  1.00  0.00    -0.387 OA
ATOM     12  H   UNL     1     175.001 164.605 188.981  1.00  0.00     0.211 HD
ENDBRANCH   4  11
BRANCH   6  13
ATOM     13  O   UNL     1     177.442 163.664 190.054  1.00  0.00    -0.387 OA
ATOM     14  H   UNL     1     178.314 163.956 190.416  1.00  0.00     0.211 HD
ENDBRANCH   6  13
BRANCH   7  15
ATOM     15  O   UNL     1     177.211 161.866 187.836  1.00  0.00    -0.385 OA
ATOM     16  H   UNL     1     176.645 161.189 188.303  1.00  0.00     0.211 HD
ENDBRANCH   7  15
ENDBRANCH   1   2
BRANCH   1  17
ATOM     17  C   UNL     1     176.604 162.349 184.463  1.00  0.00     0.224 C 
ATOM     18  C   UNL     1     176.315 163.242 183.203  1.00  0.00     0.208 C 
ATOM     19  O   UNL     1     177.537 161.347 184.049  1.00  0.00    -0.337 OA
ATOM     20  C   UNL     1     177.093 162.573 182.090  1.00  0.00     0.180 C 
ATOM     21  C   UNL     1     178.153 161.799 182.872  1.00  0.00     0.179 C 
BRANCH  17  22
ATOM     22  C   UNL     1     175.346 161.602 185.023  1.00  0.00     0.225 C 
BRANCH  22  23
ATOM     23  O   UNL     1     175.611 160.380 185.657  1.00  0.00    -0.391 OA
ATOM     24  H   UNL     1     175.653 159.696 184.937  1.00  0.00     0.210 HD
ENDBRANCH  22  23
ENDBRANCH  17  22
BRANCH  18  25
ATOM     25  O   UNL     1     176.810 164.545 183.406  1.00  0.00    -0.385 OA
ATOM     26  H   UNL     1     176.836 164.702 184.388  1.00  0.00     0.211 HD
ENDBRANCH  18  25
BRANCH  20  27
ATOM     27  O   UNL     1     176.262 161.731 181.321  1.00  0.00    -0.387 OA
ATOM     28  H   UNL     1     175.681 162.293 180.734  1.00  0.00     0.211 HD
ENDBRANCH  20  27
BRANCH  21  29
ATOM     29  C   UNL     1     178.766 160.606 182.120  1.00  0.00     0.191 C 
BRANCH  29  30
ATOM     30  O   UNL     1     180.124 160.481 182.428  1.00  0.00    -0.394 OA
ATOM     31  H   UNL     1     180.612 160.410 181.572  1.00  0.00     0.210 HD
ENDBRANCH  29  30
ENDBRANCH  21  29
ENDBRANCH   1  17
TORSDOF 13
ENDMDL
MODEL 2
REMARK VINA RESULT:    -4.705      4.501      7.202
REMARK INTER + INTRA:          -8.455
REMARK INTER:                  -6.955
REMARK INTRA:                  -1.500
REMARK UNBOUND:                -1.275
REMARK SMILES OC[C@@H]1O[C@@](CO)(O[C@@H]2O[C@H](CO)[C@@H](O)[C@@H](O)[C@@H]2O)[C@@H](O)[C@@H]1O
REMARK SMILES IDX 8 1 9 2 11 3 14 4 10 5 16 6 18 7 12 8 13 9 15 11 17 13 19 15
REMARK SMILES IDX 5 17 20 18 4 19 22 20 3 21 6 22 7 23 21 25 23 27 2 29 1 30
REMARK H PARENT 13 10 15 12 17 14 19 16 7 24 21 26 23 28 1 31
REMARK Flexibility Score: inf
ROOT
ATOM      1  O   UNL     1     177.298 162.166 178.737  1.00  0.00    -0.313 OA
ENDROOT
BRANCH   1   2
ATOM      2  C   UNL     1     176.457 161.596 179.726  1.00  0.00     0.285 C 
ATOM      3  C   UNL     1     176.238 163.135 181.601  1.00  0.00     0.178 C 
ATOM      4  C   UNL     1     176.724 162.055 182.585  1.00  0.00     0.177 C 
ATOM      5  O   UNL     1     175.691 162.608 180.391  1.00  0.00    -0.341 OA
ATOM      6  C   UNL     1     177.823 161.226 181.907  1.00  0.00     0.179 C 
ATOM      7  C   UNL     1     177.240 160.592 180.634  1.00  0.00     0.202 C 
BRANCH   3   8
ATOM      8  C   UNL     1     177.270 164.265 181.360  1.00  0.00     0.191 C 
BRANCH   8   9
ATOM      9  O   UNL     1     177.206 164.693 180.026  1.00  0.00    -0.394 OA
ATOM     10  H   UNL     1     176.766 165.582 180.048  1.00  0.00     0.210 HD
ENDBRANCH   8   9
ENDBRANCH   3   8
BRANCH   4  11
ATOM     11  O   UNL     1     175.625 161.268 182.986  1.00  0.00    -0.387 OA
ATOM     12  H   UNL     1     174.822 161.601 182.490  1.00  0.00     0.211 HD
ENDBRANCH   4  11
BRANCH   6  13
ATOM     13  O   UNL     1     178.265 160.221 182.770  1.00  0.00    -0.387 OA
ATOM     14  H   UNL     1     179.253 160.248 182.770  1.00  0.00     0.211 HD
ENDBRANCH   6  13
BRANCH   7  15
ATOM     15  O   UNL     1     178.274 159.966 179.917  1.00  0.00    -0.385 OA
ATOM     16  H   UNL     1     177.894 159.140 179.506  1.00  0.00     0.211 HD
ENDBRANCH   7  15
ENDBRANCH   1   2
BRANCH   1  17
ATOM     17  C   UNL     1     177.037 161.767 177.382  1.00  0.00     0.224 C 
ATOM     18  C   UNL     1     177.227 163.020 176.453  1.00  0.00     0.208 C 
ATOM     19  O   UNL     1     177.938 160.764 176.906  1.00  0.00    -0.337 OA
ATOM     20  C   UNL     1     178.221 162.558 175.409  1.00  0.00     0.180 C 
ATOM     21  C   UNL     1     178.916 161.404 176.130  1.00  0.00     0.179 C 
BRANCH  17  22
ATOM     22  C   UNL     1     175.598 161.149 177.342  1.00  0.00     0.225 C 
BRANCH  22  23
ATOM     23  O   UNL     1     175.122 160.830 176.063  1.00  0.00    -0.391 OA
ATOM     24  H   UNL     1     175.920 160.785 175.472  1.00  0.00     0.210 HD
ENDBRANCH  22  23
ENDBRANCH  17  22
BRANCH  18  25
ATOM     25  O   UNL     1     177.776 164.090 177.185  1.00  0.00    -0.385 OA
ATOM     26  H   UNL     1     177.309 164.119 178.063  1.00  0.00     0.211 HD
ENDBRANCH  18  25
BRANCH  20  27
ATOM     27  O   UNL     1     177.567 162.145 174.229  1.00  0.00    -0.387 OA
ATOM     28  H   UNL     1     176.701 161.709 174.471  1.00  0.00     0.211 HD
ENDBRANCH  20  27
BRANCH  21  29
ATOM     29  C   UNL     1     179.592 160.378 175.204  1.00  0.00     0.191 C 
BRANCH  29  30
ATOM     30  O   UNL     1     180.124 161.014 174.078  1.00  0.00    -0.394 OA
ATOM     31  H   UNL     1     180.151 161.982 174.275  1.00  0.00     0.210 HD
ENDBRANCH  29  30
ENDBRANCH  21  29
ENDBRANCH   1  17
TORSDOF 13
ENDMDL
MODEL 3
REMARK VINA RESULT:    -4.698      1.865      6.255
REMARK INTER + INTRA:          -8.444
REMARK INTER:                  -7.179
REMARK INTRA:                  -1.265
REMARK UNBOUND:                -1.275
REMARK SMILES OC[C@@H]1O[C@@](CO)(O[C@@H]2O[C@H](CO)[C@@H](O)[C@@H](O)[C@@H]2O)[C@@H](O)[C@@H]1O
REMARK SMILES IDX 8 1 9 2 11 3 14 4 10 5 16 6 18 7 12 8 13 9 15 11 17 13 19 15
REMARK SMILES IDX 5 17 20 18 4 19 22 20 3 21 6 22 7 23 21 25 23 27 2 29 1 30
REMARK H PARENT 13 10 15 12 17 14 19 16 7 24 21 26 23 28 1 31
REMARK Flexibility Score: inf
ROOT
ATOM      1  O   UNL     1     176.817 161.688 185.030  1.00  0.00    -0.313 OA
ENDROOT
BRANCH   1   2
ATOM      2  C   UNL     1     176.902 162.350 183.778  1.00  0.00     0.285 C 
ATOM      3  C   UNL     1     175.263 161.408 182.241  1.00  0.00     0.178 C 
ATOM      4  C   UNL     1     176.363 161.099 181.209  1.00  0.00     0.177 C 
ATOM      5  O   UNL     1     175.611 162.444 183.162  1.00  0.00    -0.341 OA
ATOM      6  C   UNL     1     177.627 160.647 181.952  1.00  0.00     0.179 C 
ATOM      7  C   UNL     1     178.062 161.773 182.903  1.00  0.00     0.202 C 
BRANCH   3   8
ATOM      8  C   UNL     1     174.689 160.147 182.935  1.00  0.00     0.191 C 
BRANCH   8   9
ATOM      9  O   UNL     1     173.425 160.430 183.471  1.00  0.00    -0.394 OA
ATOM     10  H   UNL     1     173.438 160.074 184.396  1.00  0.00     0.210 HD
ENDBRANCH   8   9
ENDBRANCH   3   8
BRANCH   4  11
ATOM     11  O   UNL     1     176.584 162.242 180.414  1.00  0.00    -0.387 OA
ATOM     12  H   UNL     1     177.386 162.059 179.842  1.00  0.00     0.211 HD
ENDBRANCH   4  11
BRANCH   6  13
ATOM     13  O   UNL     1     178.650 160.384 181.039  1.00  0.00    -0.387 OA
ATOM     14  H   UNL     1     179.295 159.783 181.486  1.00  0.00     0.211 HD
ENDBRANCH   6  13
BRANCH   7  15
ATOM     15  O   UNL     1     179.119 161.313 183.707  1.00  0.00    -0.385 OA
ATOM     16  H   UNL     1     179.012 160.326 183.804  1.00  0.00     0.211 HD
ENDBRANCH   7  15
ENDBRANCH   1   2
BRANCH   1  17
ATOM     17  C   UNL     1     176.687 162.534 186.182  1.00  0.00     0.224 C 
ATOM     18  C   UNL     1     175.200 162.460 186.685  1.00  0.00     0.208 C 
ATOM     19  O   UNL     1     177.511 162.126 187.278  1.00  0.00    -0.337 OA
ATOM     20  C   UNL     1     175.323 162.074 188.144  1.00  0.00     0.180 C 
ATOM     21  C   UNL     1     176.701 161.416 188.177  1.00  0.00     0.179 C 
BRANCH  17  22
ATOM     22  C   UNL     1     177.153 163.971 185.766  1.00  0.00     0.225 C 
BRANCH  22  23
ATOM     23  O   UNL     1     178.377 164.382 186.313  1.00  0.00    -0.391 OA
ATOM     24  H   UNL     1     178.548 163.787 187.092  1.00  0.00     0.210 HD
ENDBRANCH  22  23
ENDBRANCH  17  22
BRANCH  18  25
ATOM     25  O   UNL     1     174.501 161.455 185.990  1.00  0.00    -0.385 OA
ATOM     26  H   UNL     1     173.838 161.065 186.621  1.00  0.00     0.211 HD
ENDBRANCH  18  25
BRANCH  20  27
ATOM     27  O   UNL     1     175.243 163.209 188.980  1.00  0.00    -0.387 OA
ATOM     28  H   UNL     1     174.352 163.644 188.856  1.00  0.00     0.211 HD
ENDBRANCH  20  27
BRANCH  21  29
ATOM     29  C   UNL     1     177.370 161.390 189.562  1.00  0.00     0.191 C 
BRANCH  29  30
ATOM     30  O   UNL     1     177.699 162.687 189.969  1.00  0.00    -0.394 OA
ATOM     31  H   UNL     1     178.582 162.639 190.410  1.00  0.00     0.210 HD
ENDBRANCH  29  30
ENDBRANCH  21  29
ENDBRANCH   1  17
TORSDOF 13
ENDMDL
MODEL 4
REMARK VINA RESULT:    -4.586      1.544      2.702
REMARK INTER + INTRA:          -8.273
REMARK INTER:                  -6.712
REMARK INTRA:                  -1.561
REMARK UNBOUND:                -1.275
REMARK SMILES OC[C@@H]1O[C@@](CO)(O[C@@H]2O[C@H](CO)[C@@H](O)[C@@H](O)[C@@H]2O)[C@@H](O)[C@@H]1O
REMARK SMILES IDX 8 1 9 2 11 3 14 4 10 5 16 6 18 7 12 8 13 9 15 11 17 13 19 15
REMARK SMILES IDX 5 17 20 18 4 19 22 20 3 21 6 22 7 23 21 25 23 27 2 29 1 30
REMARK H PARENT 13 10 15 12 17 14 19 16 7 24 21 26 23 28 1 31
REMARK Flexibility Score: inf
ROOT
ATOM      1  O   UNL     1     175.836 162.880 184.856  1.00  0.00    -0.313 OA
ENDROOT
BRANCH   1   2
ATOM      2  C   UNL     1     176.545 162.162 185.853  1.00  0.00     0.285 C 
ATOM      3  C   UNL     1     175.099 161.795 187.779  1.00  0.00     0.178 C 
ATOM      4  C   UNL     1     176.125 162.462 188.715  1.00  0.00     0.177 C 
ATOM      5  O   UNL     1     175.668 161.286 186.571  1.00  0.00    -0.341 OA
ATOM      6  C   UNL     1     176.774 163.642 187.979  1.00  0.00     0.179 C 
ATOM      7  C   UNL     1     177.451 163.109 186.706  1.00  0.00     0.202 C 
BRANCH   3   8
ATOM      8  C   UNL     1     173.830 162.650 187.541  1.00  0.00     0.191 C 
BRANCH   8   9
ATOM      9  O   UNL     1     173.154 162.193 186.400  1.00  0.00    -0.394 OA
ATOM     10  H   UNL     1     172.346 161.725 186.733  1.00  0.00     0.210 HD
ENDBRANCH   8   9
ENDBRANCH   3   8
BRANCH   4  11
ATOM     11  O   UNL     1     177.069 161.498 189.126  1.00  0.00    -0.387 OA
ATOM     12  H   UNL     1     177.252 161.654 190.099  1.00  0.00     0.211 HD
ENDBRANCH   4  11
BRANCH   6  13
ATOM     13  O   UNL     1     177.728 164.249 188.797  1.00  0.00    -0.387 OA
ATOM     14  H   UNL     1     178.412 163.568 189.007  1.00  0.00     0.211 HD
ENDBRANCH   6  13
BRANCH   7  15
ATOM     15  O   UNL     1     177.907 164.195 185.939  1.00  0.00    -0.385 OA
ATOM     16  H   UNL     1     177.791 163.951 184.978  1.00  0.00     0.211 HD
ENDBRANCH   7  15
ENDBRANCH   1   2
BRANCH   1  17
ATOM     17  C   UNL     1     175.859 162.314 183.537  1.00  0.00     0.224 C 
ATOM     18  C   UNL     1     176.326 163.426 182.530  1.00  0.00     0.208 C 
ATOM     19  O   UNL     1     176.781 161.228 183.403  1.00  0.00    -0.337 OA
ATOM     20  C   UNL     1     177.497 162.799 181.804  1.00  0.00     0.180 C 
ATOM     21  C   UNL     1     177.943 161.729 182.799  1.00  0.00     0.179 C 
BRANCH  17  22
ATOM     22  C   UNL     1     174.430 161.743 183.245  1.00  0.00     0.225 C 
BRANCH  22  23
ATOM     23  O   UNL     1     174.008 160.722 184.109  1.00  0.00    -0.391 OA
ATOM     24  H   UNL     1     174.372 160.948 185.006  1.00  0.00     0.210 HD
ENDBRANCH  22  23
ENDBRANCH  17  22
BRANCH  18  25
ATOM     25  O   UNL     1     176.763 164.566 183.232  1.00  0.00    -0.385 OA
ATOM     26  H   UNL     1     176.744 165.331 182.595  1.00  0.00     0.211 HD
ENDBRANCH  18  25
BRANCH  20  27
ATOM     27  O   UNL     1     177.097 162.255 180.565  1.00  0.00    -0.387 OA
ATOM     28  H   UNL     1     177.878 162.256 179.941  1.00  0.00     0.211 HD
ENDBRANCH  20  27
BRANCH  21  29
ATOM     29  C   UNL     1     178.744 160.569 182.183  1.00  0.00     0.191 C 
BRANCH  29  30
ATOM     30  O   UNL     1     180.084 160.639 182.576  1.00  0.00    -0.394 OA
ATOM     31  H   UNL     1     180.612 160.148 181.900  1.00  0.00     0.210 HD
ENDBRANCH  29  30
ENDBRANCH  21  29
ENDBRANCH   1  17
TORSDOF 13
ENDMDL
MODEL 5
REMARK VINA RESULT:    -4.568      9.232     11.354
REMARK INTER + INTRA:          -8.246
REMARK INTER:                  -6.645
REMARK INTRA:                  -1.601
REMARK UNBOUND:                -1.275
REMARK SMILES OC[C@@H]1O[C@@](CO)(O[C@@H]2O[C@H](CO)[C@@H](O)[C@@H](O)[C@@H]2O)[C@@H](O)[C@@H]1O
REMARK SMILES IDX 8 1 9 2 11 3 14 4 10 5 16 6 18 7 12 8 13 9 15 11 17 13 19 15
REMARK SMILES IDX 5 17 20 18 4 19 22 20 3 21 6 22 7 23 21 25 23 27 2 29 1 30
REMARK H PARENT 13 10 15 12 17 14 19 16 7 24 21 26 23 28 1 31
REMARK Flexibility Score: inf
ROOT
ATOM      1  O   UNL     1     177.678 174.944 185.208  1.00  0.00    -0.313 OA
ENDROOT
BRANCH   1   2
ATOM      2  C   UNL     1     177.078 174.137 186.209  1.00  0.00     0.285 C 
ATOM      3  C   UNL     1     175.557 175.490 187.547  1.00  0.00     0.178 C 
ATOM      4  C   UNL     1     176.289 175.088 188.842  1.00  0.00     0.177 C 
ATOM      5  O   UNL     1     175.736 174.564 186.474  1.00  0.00    -0.341 OA
ATOM      6  C   UNL     1     177.794 175.003 188.554  1.00  0.00     0.179 C 
ATOM      7  C   UNL     1     178.021 173.964 187.445  1.00  0.00     0.202 C 
BRANCH   3   8
ATOM      8  C   UNL     1     175.799 176.961 187.128  1.00  0.00     0.191 C 
BRANCH   8   9
ATOM      9  O   UNL     1     175.551 177.114 185.757  1.00  0.00    -0.394 OA
ATOM     10  H   UNL     1     175.023 176.319 185.487  1.00  0.00     0.210 HD
ENDBRANCH   8   9
ENDBRANCH   3   8
BRANCH   4  11
ATOM     11  O   UNL     1     175.761 173.868 189.311  1.00  0.00    -0.387 OA
ATOM     12  H   UNL     1     174.884 174.071 189.752  1.00  0.00     0.211 HD
ENDBRANCH   4  11
BRANCH   6  13
ATOM     13  O   UNL     1     178.480 174.616 189.706  1.00  0.00    -0.387 OA
ATOM     14  H   UNL     1     177.963 174.946 190.481  1.00  0.00     0.211 HD
ENDBRANCH   6  13
BRANCH   7  15
ATOM     15  O   UNL     1     179.371 173.993 187.057  1.00  0.00    -0.385 OA
ATOM     16  H   UNL     1     179.549 173.162 186.534  1.00  0.00     0.211 HD
ENDBRANCH   7  15
ENDBRANCH   1   2
BRANCH   1  17
ATOM     17  C   UNL     1     177.850 174.328 183.923  1.00  0.00     0.224 C 
ATOM     18  C   UNL     1     179.047 175.035 183.192  1.00  0.00     0.208 C 
ATOM     19  O   UNL     1     178.182 172.938 184.002  1.00  0.00    -0.337 OA
ATOM     20  C   UNL     1     179.975 173.899 182.819  1.00  0.00     0.180 C 
ATOM     21  C   UNL     1     179.568 172.822 183.823  1.00  0.00     0.179 C 
BRANCH  17  22
ATOM     22  C   UNL     1     176.483 174.431 183.165  1.00  0.00     0.225 C 
BRANCH  22  23
ATOM     23  O   UNL     1     175.712 175.559 183.476  1.00  0.00    -0.391 OA
ATOM     24  H   UNL     1     176.324 176.341 183.412  1.00  0.00     0.210 HD
ENDBRANCH  22  23
ENDBRANCH  17  22
BRANCH  18  25
ATOM     25  O   UNL     1     179.707 175.911 184.075  1.00  0.00    -0.385 OA
ATOM     26  H   UNL     1     180.646 175.593 184.161  1.00  0.00     0.211 HD
ENDBRANCH  18  25
BRANCH  20  27
ATOM     27  O   UNL     1     179.777 173.496 181.481  1.00  0.00    -0.387 OA
ATOM     28  H   UNL     1     178.854 173.126 181.385  1.00  0.00     0.211 HD
ENDBRANCH  20  27
BRANCH  21  29
ATOM     29  C   UNL     1     179.913 171.383 183.402  1.00  0.00     0.191 C 
BRANCH  29  30
ATOM     30  O   UNL     1     178.962 170.897 182.500  1.00  0.00    -0.394 OA
ATOM     31  H   UNL     1     178.159 171.466 182.588  1.00  0.00     0.210 HD
ENDBRANCH  29  30
ENDBRANCH  21  29
ENDBRANCH   1  17
TORSDOF 13
ENDMDL
MODEL 6
REMARK VINA RESULT:    -4.566      1.265      2.527
REMARK INTER + INTRA:          -8.244
REMARK INTER:                  -6.639
REMARK INTRA:                  -1.605
REMARK UNBOUND:                -1.275
REMARK SMILES OC[C@@H]1O[C@@](CO)(O[C@@H]2O[C@H](CO)[C@@H](O)[C@@H](O)[C@@H]2O)[C@@H](O)[C@@H]1O
REMARK SMILES IDX 8 1 9 2 11 3 14 4 10 5 16 6 18 7 12 8 13 9 15 11 17 13 19 15
REMARK SMILES IDX 5 17 20 18 4 19 22 20 3 21 6 22 7 23 21 25 23 27 2 29 1 30
REMARK H PARENT 13 10 15 12 17 14 19 16 7 24 21 26 23 28 1 31
REMARK Flexibility Score: inf
ROOT
ATOM      1  O   UNL     1     177.157 163.406 185.140  1.00  0.00    -0.313 OA
ENDROOT
BRANCH   1   2
ATOM      2  C   UNL     1     176.207 163.726 186.143  1.00  0.00     0.285 C 
ATOM      3  C   UNL     1     177.032 165.580 187.491  1.00  0.00     0.178 C 
ATOM      4  C   UNL     1     176.872 164.753 188.781  1.00  0.00     0.177 C 
ATOM      5  O   UNL     1     176.205 165.133 186.415  1.00  0.00    -0.341 OA
ATOM      6  C   UNL     1     177.250 163.295 188.485  1.00  0.00     0.179 C 
ATOM      7  C   UNL     1     176.328 162.769 187.374  1.00  0.00     0.202 C 
BRANCH   3   8
ATOM      8  C   UNL     1     178.508 165.799 187.074  1.00  0.00     0.191 C 
BRANCH   8   9
ATOM      9  O   UNL     1     178.574 166.128 185.712  1.00  0.00    -0.394 OA
ATOM     10  H   UNL     1     178.758 165.277 185.237  1.00  0.00     0.210 HD
ENDBRANCH   8   9
ENDBRANCH   3   8
BRANCH   4  11
ATOM     11  O   UNL     1     175.549 164.882 189.251  1.00  0.00    -0.387 OA
ATOM     12  H   UNL     1     175.584 165.406 190.104  1.00  0.00     0.211 HD
ENDBRANCH   4  11
BRANCH   6  13
ATOM     13  O   UNL     1     177.090 162.517 189.633  1.00  0.00    -0.387 OA
ATOM     14  H   UNL     1     176.910 163.135 190.384  1.00  0.00     0.211 HD
ENDBRANCH   6  13
BRANCH   7  15
ATOM     15  O   UNL     1     176.767 161.494 186.978  1.00  0.00    -0.385 OA
ATOM     16  H   UNL     1     177.744 161.560 186.787  1.00  0.00     0.211 HD
ENDBRANCH   7  15
ENDBRANCH   1   2
BRANCH   1  17
ATOM     17  C   UNL     1     176.623 163.069 183.851  1.00  0.00     0.224 C 
ATOM     18  C   UNL     1     177.663 162.154 183.109  1.00  0.00     0.208 C 
ATOM     19  O   UNL     1     175.402 162.328 183.921  1.00  0.00    -0.337 OA
ATOM     20  C   UNL     1     176.864 160.927 182.722  1.00  0.00     0.180 C 
ATOM     21  C   UNL     1     175.715 160.975 183.727  1.00  0.00     0.179 C 
BRANCH  17  22
ATOM     22  C   UNL     1     176.304 164.411 183.108  1.00  0.00     0.225 C 
BRANCH  22  23
ATOM     23  O   UNL     1     177.157 165.481 183.415  1.00  0.00    -0.391 OA
ATOM     24  H   UNL     1     177.335 165.422 184.392  1.00  0.00     0.210 HD
ENDBRANCH  22  23
ENDBRANCH  17  22
BRANCH  18  25
ATOM     25  O   UNL     1     178.699 161.783 183.988  1.00  0.00    -0.385 OA
ATOM     26  H   UNL     1     179.559 161.940 183.513  1.00  0.00     0.211 HD
ENDBRANCH  18  25
BRANCH  20  27
ATOM     27  O   UNL     1     176.420 161.009 181.384  1.00  0.00    -0.387 OA
ATOM     28  H   UNL     1     175.432 160.861 181.359  1.00  0.00     0.211 HD
ENDBRANCH  20  27
BRANCH  21  29
ATOM     29  C   UNL     1     174.450 160.211 183.297  1.00  0.00     0.191 C 
BRANCH  29  30
ATOM     30  O   UNL     1     173.684 160.988 182.423  1.00  0.00    -0.394 OA
ATOM     31  H   UNL     1     172.989 161.435 182.963  1.00  0.00     0.210 HD
ENDBRANCH  29  30
ENDBRANCH  21  29
ENDBRANCH   1  17
TORSDOF 13
ENDMDL
MODEL 7
REMARK VINA RESULT:    -4.509     13.928     16.833
REMARK INTER + INTRA:          -8.156
REMARK INTER:                  -6.661
REMARK INTRA:                  -1.496
REMARK UNBOUND:                -1.275
REMARK SMILES OC[C@@H]1O[C@@](CO)(O[C@@H]2O[C@H](CO)[C@@H](O)[C@@H](O)[C@@H]2O)[C@@H](O)[C@@H]1O
REMARK SMILES IDX 8 1 9 2 11 3 14 4 10 5 16 6 18 7 12 8 13 9 15 11 17 13 19 15
REMARK SMILES IDX 5 17 20 18 4 19 22 20 3 21 6 22 7 23 21 25 23 27 2 29 1 30
REMARK H PARENT 13 10 15 12 17 14 19 16 7 24 21 26 23 28 1 31
REMARK Flexibility Score: inf
ROOT
ATOM      1  O   UNL     1     171.862 178.808 186.859  1.00  0.00    -0.313 OA
ENDROOT
BRANCH   1   2
ATOM      2  C   UNL     1     170.937 179.031 185.808  1.00  0.00     0.285 C 
ATOM      3  C   UNL     1     168.817 179.795 186.733  1.00  0.00     0.178 C 
ATOM      4  C   UNL     1     168.062 178.651 186.030  1.00  0.00     0.177 C 
ATOM      5  O   UNL     1     170.064 180.125 186.118  1.00  0.00    -0.341 OA
ATOM      6  C   UNL     1     168.937 177.389 186.061  1.00  0.00     0.179 C 
ATOM      7  C   UNL     1     170.262 177.698 185.347  1.00  0.00     0.202 C 
BRANCH   3   8
ATOM      8  C   UNL     1     168.922 179.620 188.268  1.00  0.00     0.191 C 
BRANCH   8   9
ATOM      9  O   UNL     1     170.149 180.125 188.723  1.00  0.00    -0.394 OA
ATOM     10  H   UNL     1     169.923 180.828 189.384  1.00  0.00     0.210 HD
ENDBRANCH   8   9
ENDBRANCH   3   8
BRANCH   4  11
ATOM     11  O   UNL     1     167.737 179.049 184.718  1.00  0.00    -0.387 OA
ATOM     12  H   UNL     1     166.784 178.787 184.553  1.00  0.00     0.211 HD
ENDBRANCH   4  11
BRANCH   6  13
ATOM     13  O   UNL     1     168.286 176.341 185.408  1.00  0.00    -0.387 OA
ATOM     14  H   UNL     1     167.350 176.334 185.725  1.00  0.00     0.211 HD
ENDBRANCH   6  13
BRANCH   7  15
ATOM     15  O   UNL     1     171.136 176.609 185.509  1.00  0.00    -0.385 OA
ATOM     16  H   UNL     1     171.237 176.172 184.618  1.00  0.00     0.211 HD
ENDBRANCH   7  15
ENDBRANCH   1   2
BRANCH   1  17
ATOM     17  C   UNL     1     173.250 178.927 186.512  1.00  0.00     0.224 C 
ATOM     18  C   UNL     1     173.970 179.766 187.629  1.00  0.00     0.208 C 
ATOM     19  O   UNL     1     173.926 177.668 186.447  1.00  0.00    -0.337 OA
ATOM     20  C   UNL     1     175.120 178.886 188.069  1.00  0.00     0.180 C 
ATOM     21  C   UNL     1     174.630 177.501 187.648  1.00  0.00     0.179 C 
BRANCH  17  22
ATOM     22  C   UNL     1     173.325 179.563 185.082  1.00  0.00     0.225 C 
BRANCH  22  23
ATOM     23  O   UNL     1     174.621 179.780 184.593  1.00  0.00    -0.391 OA
ATOM     24  H   UNL     1     175.232 179.688 185.372  1.00  0.00     0.210 HD
ENDBRANCH  22  23
ENDBRANCH  17  22
BRANCH  18  25
ATOM     25  O   UNL     1     173.098 179.980 188.714  1.00  0.00    -0.385 OA
ATOM     26  H   UNL     1     172.878 180.950 188.730  1.00  0.00     0.211 HD
ENDBRANCH  18  25
BRANCH  20  27
ATOM     27  O   UNL     1     176.321 179.255 187.426  1.00  0.00    -0.387 OA
ATOM     28  H   UNL     1     176.625 178.502 186.844  1.00  0.00     0.211 HD
ENDBRANCH  20  27
BRANCH  21  29
ATOM     29  C   UNL     1     175.742 176.456 187.452  1.00  0.00     0.191 C 
BRANCH  29  30
ATOM     30  O   UNL     1     176.504 176.760 186.320  1.00  0.00    -0.394 OA
ATOM     31  H   UNL     1     176.955 175.928 186.040  1.00  0.00     0.210 HD
ENDBRANCH  29  30
ENDBRANCH  21  29
ENDBRANCH   1  17
TORSDOF 13
ENDMDL
MODEL 8
REMARK VINA RESULT:    -4.500      2.453      6.578
REMARK INTER + INTRA:          -8.143
REMARK INTER:                  -6.746
REMARK INTRA:                  -1.397
REMARK UNBOUND:                -1.275
REMARK SMILES OC[C@@H]1O[C@@](CO)(O[C@@H]2O[C@H](CO)[C@@H](O)[C@@H](O)[C@@H]2O)[C@@H](O)[C@@H]1O
REMARK SMILES IDX 8 1 9 2 11 3 14 4 10 5 16 6 18 7 12 8 13 9 15 11 17 13 19 15
REMARK SMILES IDX 5 17 20 18 4 19 22 20 3 21 6 22 7 23 21 25 23 27 2 29 1 30
REMARK H PARENT 13 10 15 12 17 14 19 16 7 24 21 26 23 28 1 31
REMARK Flexibility Score: inf
ROOT
ATOM      1  O   UNL     1     176.380 162.201 182.215  1.00  0.00    -0.313 OA
ENDROOT
BRANCH   1   2
ATOM      2  C   UNL     1     177.124 162.280 181.009  1.00  0.00     0.285 C 
ATOM      3  C   UNL     1     176.689 164.415 179.919  1.00  0.00     0.178 C 
ATOM      4  C   UNL     1     176.256 163.701 178.625  1.00  0.00     0.177 C 
ATOM      5  O   UNL     1     177.540 163.627 180.754  1.00  0.00    -0.341 OA
ATOM      6  C   UNL     1     175.485 162.427 178.997  1.00  0.00     0.179 C 
ATOM      7  C   UNL     1     176.403 161.530 179.842  1.00  0.00     0.202 C 
BRANCH   3   8
ATOM      8  C   UNL     1     175.515 165.067 180.691  1.00  0.00     0.191 C 
BRANCH   8   9
ATOM      9  O   UNL     1     176.013 165.900 181.704  1.00  0.00    -0.394 OA
ATOM     10  H   UNL     1     175.336 166.614 181.824  1.00  0.00     0.210 HD
ENDBRANCH   8   9
ENDBRANCH   3   8
BRANCH   4  11
ATOM     11  O   UNL     1     177.397 163.431 177.843  1.00  0.00    -0.387 OA
ATOM     12  H   UNL     1     177.455 164.144 177.141  1.00  0.00     0.211 HD
ENDBRANCH   4  11
BRANCH   6  13
ATOM     13  O   UNL     1     175.101 161.746 177.840  1.00  0.00    -0.387 OA
ATOM     14  H   UNL     1     174.957 160.801 178.089  1.00  0.00     0.211 HD
ENDBRANCH   6  13
BRANCH   7  15
ATOM     15  O   UNL     1     175.661 160.439 180.326  1.00  0.00    -0.385 OA
ATOM     16  H   UNL     1     176.256 159.638 180.298  1.00  0.00     0.211 HD
ENDBRANCH   7  15
ENDBRANCH   1   2
BRANCH   1  17
ATOM     17  C   UNL     1     177.102 161.751 183.371  1.00  0.00     0.224 C 
ATOM     18  C   UNL     1     177.382 162.992 184.293  1.00  0.00     0.208 C 
ATOM     19  O   UNL     1     176.370 160.810 184.163  1.00  0.00    -0.337 OA
ATOM     20  C   UNL     1     176.824 162.585 185.640  1.00  0.00     0.180 C 
ATOM     21  C   UNL     1     175.816 161.506 185.247  1.00  0.00     0.179 C 
BRANCH  17  22
ATOM     22  C   UNL     1     178.393 161.021 182.866  1.00  0.00     0.225 C 
BRANCH  22  23
ATOM     23  O   UNL     1     179.567 161.334 183.565  1.00  0.00    -0.391 OA
ATOM     24  H   UNL     1     180.241 161.585 182.879  1.00  0.00     0.210 HD
ENDBRANCH  22  23
ENDBRANCH  17  22
BRANCH  18  25
ATOM     25  O   UNL     1     176.685 164.119 183.817  1.00  0.00    -0.385 OA
ATOM     26  H   UNL     1     177.353 164.846 183.686  1.00  0.00     0.211 HD
ENDBRANCH  18  25
BRANCH  20  27
ATOM     27  O   UNL     1     177.842 162.094 186.487  1.00  0.00    -0.387 OA
ATOM     28  H   UNL     1     178.473 161.537 185.949  1.00  0.00     0.211 HD
ENDBRANCH  20  27
BRANCH  21  29
ATOM     29  C   UNL     1     175.461 160.515 186.368  1.00  0.00     0.191 C 
BRANCH  29  30
ATOM     30  O   UNL     1     175.377 161.178 187.597  1.00  0.00    -0.394 OA
ATOM     31  H   UNL     1     174.591 160.814 188.071  1.00  0.00     0.210 HD
ENDBRANCH  29  30
ENDBRANCH  21  29
ENDBRANCH   1  17
TORSDOF 13
ENDMDL
MODEL 9
REMARK VINA RESULT:    -4.404      4.148      7.028
REMARK INTER + INTRA:          -7.995
REMARK INTER:                  -6.419
REMARK INTRA:                  -1.576
REMARK UNBOUND:                -1.275
REMARK SMILES OC[C@@H]1O[C@@](CO)(O[C@@H]2O[C@H](CO)[C@@H](O)[C@@H](O)[C@@H]2O)[C@@H](O)[C@@H]1O
REMARK SMILES IDX 8 1 9 2 11 3 14 4 10 5 16 6 18 7 12 8 13 9 15 11 17 13 19 15
REMARK SMILES IDX 5 17 20 18 4 19 22 20 3 21 6 22 7 23 21 25 23 27 2 29 1 30
REMARK H PARENT 13 10 15 12 17 14 19 16 7 24 21 26 23 28 1 31
REMARK Flexibility Score: inf
ROOT
ATOM      1  O   UNL     1     175.547 162.773 179.023  1.00  0.00    -0.313 OA
ENDROOT
BRANCH   1   2
ATOM      2  C   UNL     1     176.710 162.606 179.819  1.00  0.00     0.285 C 
ATOM      3  C   UNL     1     176.096 161.647 181.972  1.00  0.00     0.178 C 
ATOM      4  C   UNL     1     176.769 162.815 182.719  1.00  0.00     0.177 C 
ATOM      5  O   UNL     1     176.598 161.444 180.650  1.00  0.00    -0.341 OA
ATOM      6  C   UNL     1     176.528 164.110 181.932  1.00  0.00     0.179 C 
ATOM      7  C   UNL     1     177.117 163.942 180.523  1.00  0.00     0.202 C 
BRANCH   3   8
ATOM      8  C   UNL     1     174.549 161.677 182.038  1.00  0.00     0.191 C 
BRANCH   8   9
ATOM      9  O   UNL     1     174.012 160.853 181.039  1.00  0.00    -0.394 OA
ATOM     10  H   UNL     1     174.552 161.029 180.225  1.00  0.00     0.210 HD
ENDBRANCH   8   9
ENDBRANCH   3   8
BRANCH   4  11
ATOM     11  O   UNL     1     178.140 162.530 182.880  1.00  0.00    -0.387 OA
ATOM     12  H   UNL     1     178.215 161.573 183.169  1.00  0.00     0.211 HD
ENDBRANCH   4  11
BRANCH   6  13
ATOM     13  O   UNL     1     177.149 165.182 182.575  1.00  0.00    -0.387 OA
ATOM     14  H   UNL     1     177.341 165.866 181.887  1.00  0.00     0.211 HD
ENDBRANCH   6  13
BRANCH   7  15
ATOM     15  O   UNL     1     176.762 165.053 179.740  1.00  0.00    -0.385 OA
ATOM     16  H   UNL     1     175.766 165.065 179.673  1.00  0.00     0.211 HD
ENDBRANCH   7  15
ENDBRANCH   1   2
BRANCH   1  17
ATOM     17  C   UNL     1     175.619 162.255 177.686  1.00  0.00     0.224 C 
ATOM     18  C   UNL     1     175.184 163.391 176.692  1.00  0.00     0.208 C 
ATOM     19  O   UNL     1     176.940 161.860 177.304  1.00  0.00    -0.337 OA
ATOM     20  C   UNL     1     176.337 163.488 175.715  1.00  0.00     0.180 C 
ATOM     21  C   UNL     1     177.485 162.894 176.529  1.00  0.00     0.179 C 
BRANCH  17  22
ATOM     22  C   UNL     1     174.722 160.972 177.629  1.00  0.00     0.225 C 
BRANCH  22  23
ATOM     23  O   UNL     1     175.108 159.935 178.489  1.00  0.00    -0.391 OA
ATOM     24  H   UNL     1     174.682 160.127 179.367  1.00  0.00     0.210 HD
ENDBRANCH  22  23
ENDBRANCH  17  22
BRANCH  18  25
ATOM     25  O   UNL     1     175.045 164.612 177.379  1.00  0.00    -0.385 OA
ATOM     26  H   UNL     1     174.550 164.423 178.221  1.00  0.00     0.211 HD
ENDBRANCH  18  25
BRANCH  20  27
ATOM     27  O   UNL     1     176.071 162.756 174.537  1.00  0.00    -0.387 OA
ATOM     28  H   UNL     1     175.363 163.228 174.013  1.00  0.00     0.211 HD
ENDBRANCH  20  27
BRANCH  21  29
ATOM     29  C   UNL     1     178.654 162.348 175.692  1.00  0.00     0.191 C 
BRANCH  29  30
ATOM     30  O   UNL     1     179.863 162.907 176.118  1.00  0.00    -0.394 OA
ATOM     31  H   UNL     1     180.046 162.552 177.022  1.00  0.00     0.210 HD
ENDBRANCH  29  30
ENDBRANCH  21  29
ENDBRANCH   1  17
TORSDOF 13
ENDMDL
