MODEL 1
REMARK VINA RESULT:    -3.814      0.000      0.000
REMARK INTER + INTRA:          -4.870
REMARK INTER:                  -4.706
REMARK INTRA:                  -0.164
REMARK UNBOUND:                -0.164
REMARK SMILES CCCCC=CC(C)=O
REMARK SMILES IDX 4 1 3 2 2 3 1 4 5 5 6 6 7 7 9 8 8 9
REMARK H PARENT
REMARK Flexibility Score: inf
ROOT
ATOM      1  C   UNL     1       6.103  20.685   4.675  1.00  0.00     0.027 C 
ENDROOT
BRANCH   1   2
ATOM      2  C   UNL     1       4.725  21.116   5.192  1.00  0.00     0.004 C 
BRANCH   2   3
ATOM      3  C   UNL     1       3.997  19.975   5.920  1.00  0.00    -0.003 C 
ATOM      4  C   UNL     1       3.540  20.412   7.309  1.00  0.00     0.004 C 
ENDBRANCH   2   3
ENDBRANCH   1   2
BRANCH   1   5
ATOM      5  C   UNL     1       6.053  20.304   3.222  1.00  0.00    -0.023 C 
ATOM      6  C   UNL     1       5.074  20.732   2.418  1.00  0.00     0.042 C 
BRANCH   6   7
ATOM      7  C   UNL     1       5.030  20.398   0.982  1.00  0.00     0.152 C 
ATOM      8  O   UNL     1       5.128  19.202   0.595  1.00  0.00    -0.295 OA
ATOM      9  C   UNL     1       4.866  21.488  -0.026  1.00  0.00     0.093 C 
ENDBRANCH   6   7
ENDBRANCH   1   5
TORSDOF 4
ENDMDL
MODEL 2
REMARK VINA RESULT:    -3.771     10.622     12.069
REMARK INTER + INTRA:          -4.816
REMARK INTER:                  -4.624
REMARK INTRA:                  -0.192
REMARK UNBOUND:                -0.164
REMARK SMILES CCCCC=CC(C)=O
REMARK SMILES IDX 4 1 3 2 2 3 1 4 5 5 6 6 7 7 9 8 8 9
REMARK H PARENT
REMARK Flexibility Score: inf
ROOT
ATOM      1  C   UNL     1       1.534  10.204  10.856  1.00  0.00     0.027 C 
ENDROOT
BRANCH   1   2
ATOM      2  C   UNL     1       2.378   9.291  11.754  1.00  0.00     0.004 C 
BRANCH   2   3
ATOM      3  C   UNL     1       3.267  10.089  12.721  1.00  0.00    -0.003 C 
ATOM      4  C   UNL     1       3.233  11.579  12.395  1.00  0.00     0.004 C 
ENDBRANCH   2   3
ENDBRANCH   1   2
BRANCH   1   5
ATOM      5  C   UNL     1       1.905  10.049   9.408  1.00  0.00    -0.023 C 
ATOM      6  C   UNL     1       1.965  11.100   8.583  1.00  0.00     0.042 C 
BRANCH   6   7
ATOM      7  C   UNL     1       2.362  10.971   7.169  1.00  0.00     0.152 C 
ATOM      8  O   UNL     1       3.529  10.609   6.857  1.00  0.00    -0.295 OA
ATOM      9  C   UNL     1       1.371  11.270   6.092  1.00  0.00     0.093 C 
ENDBRANCH   6   7
ENDBRANCH   1   5
TORSDOF 4
ENDMDL
MODEL 3
REMARK VINA RESULT:    -3.723     13.319     15.253
REMARK INTER + INTRA:          -4.757
REMARK INTER:                  -4.530
REMARK INTRA:                  -0.227
REMARK UNBOUND:                -0.164
REMARK SMILES CCCCC=CC(C)=O
REMARK SMILES IDX 4 1 3 2 2 3 1 4 5 5 6 6 7 7 9 8 8 9
REMARK H PARENT
REMARK Flexibility Score: inf
ROOT
ATOM      1  C   UNL     1       3.142  11.573  12.221  1.00  0.00     0.027 C 
ENDROOT
BRANCH   1   2
ATOM      2  C   UNL     1       2.316  11.200  10.984  1.00  0.00     0.004 C 
BRANCH   2   3
ATOM      3  C   UNL     1       1.753   9.773  11.071  1.00  0.00    -0.003 C 
ATOM      4  C   UNL     1       1.919   9.035   9.746  1.00  0.00     0.004 C 
ENDBRANCH   2   3
ENDBRANCH   1   2
BRANCH   1   5
ATOM      5  C   UNL     1       3.550  10.354  13.001  1.00  0.00    -0.023 C 
ATOM      6  C   UNL     1       3.274  10.231  14.303  1.00  0.00     0.042 C 
BRANCH   6   7
ATOM      7  C   UNL     1       3.634   9.026  15.074  1.00  0.00     0.152 C 
ATOM      8  O   UNL     1       3.392   8.954  16.309  1.00  0.00    -0.295 OA
ATOM      9  C   UNL     1       4.292   7.876  14.384  1.00  0.00     0.093 C 
ENDBRANCH   6   7
ENDBRANCH   1   5
TORSDOF 4
ENDMDL
MODEL 4
REMARK VINA RESULT:    -3.722     12.244     14.486
REMARK INTER + INTRA:          -4.756
REMARK INTER:                  -4.549
REMARK INTRA:                  -0.206
REMARK UNBOUND:                -0.164
REMARK SMILES CCCCC=CC(C)=O
REMARK SMILES IDX 4 1 3 2 2 3 1 4 5 5 6 6 7 7 9 8 8 9
REMARK H PARENT
REMARK Flexibility Score: inf
ROOT
ATOM      1  C   UNL     1       2.395  11.246  11.038  1.00  0.00     0.027 C 
ENDROOT
BRANCH   1   2
ATOM      2  C   UNL     1       1.701   9.930  10.665  1.00  0.00     0.004 C 
BRANCH   2   3
ATOM      3  C   UNL     1       1.728   9.670   9.151  1.00  0.00    -0.003 C 
ATOM      4  C   UNL     1       1.904  10.971   8.373  1.00  0.00     0.004 C 
ENDBRANCH   2   3
ENDBRANCH   1   2
BRANCH   1   5
ATOM      5  C   UNL     1       3.065  11.155  12.381  1.00  0.00    -0.023 C 
ATOM      6  C   UNL     1       2.977  10.055  13.135  1.00  0.00     0.042 C 
BRANCH   6   7
ATOM      7  C   UNL     1       3.659   9.935  14.437  1.00  0.00     0.152 C 
ATOM      8  O   UNL     1       3.131  10.393  15.487  1.00  0.00    -0.295 OA
ATOM      9  C   UNL     1       4.991   9.264  14.515  1.00  0.00     0.093 C 
ENDBRANCH   6   7
ENDBRANCH   1   5
TORSDOF 4
ENDMDL
MODEL 5
REMARK VINA RESULT:    -3.684      2.485      5.223
REMARK INTER + INTRA:          -4.710
REMARK INTER:                  -4.561
REMARK INTRA:                  -0.149
REMARK UNBOUND:                -0.164
REMARK SMILES CCCCC=CC(C)=O
REMARK SMILES IDX 4 1 3 2 2 3 1 4 5 5 6 6 7 7 9 8 8 9
REMARK H PARENT
REMARK Flexibility Score: inf
ROOT
ATOM      1  C   UNL     1       6.007  20.257   3.304  1.00  0.00     0.027 C 
ENDROOT
BRANCH   1   2
ATOM      2  C   UNL     1       4.844  20.638   2.380  1.00  0.00     0.004 C 
BRANCH   2   3
ATOM      3  C   UNL     1       4.983  20.014   0.983  1.00  0.00    -0.003 C 
ATOM      4  C   UNL     1       4.978  21.086  -0.102  1.00  0.00     0.004 C 
ENDBRANCH   2   3
ENDBRANCH   1   2
BRANCH   1   5
ATOM      5  C   UNL     1       5.745  20.675   4.724  1.00  0.00    -0.023 C 
ATOM      6  C   UNL     1       4.557  21.155   5.104  1.00  0.00     0.042 C 
BRANCH   6   7
ATOM      7  C   UNL     1       4.271  21.536   6.501  1.00  0.00     0.152 C 
ATOM      8  O   UNL     1       4.672  22.637   6.964  1.00  0.00    -0.295 OA
ATOM      9  C   UNL     1       3.497  20.605   7.377  1.00  0.00     0.093 C 
ENDBRANCH   6   7
ENDBRANCH   1   5
TORSDOF 4
ENDMDL
MODEL 6
REMARK VINA RESULT:    -3.576     11.085     12.768
REMARK INTER + INTRA:          -4.576
REMARK INTER:                  -4.491
REMARK INTRA:                  -0.085
REMARK UNBOUND:                -0.164
REMARK SMILES CCCCC=CC(C)=O
REMARK SMILES IDX 4 1 3 2 2 3 1 4 5 5 6 6 7 7 9 8 8 9
REMARK H PARENT
REMARK Flexibility Score: inf
ROOT
ATOM      1  C   UNL     1       2.503   9.971  11.875  1.00  0.00     0.027 C 
ENDROOT
BRANCH   1   2
ATOM      2  C   UNL     1       3.493  10.559  12.889  1.00  0.00     0.004 C 
BRANCH   2   3
ATOM      3  C   UNL     1       3.533   9.750  14.195  1.00  0.00    -0.003 C 
ATOM      4  C   UNL     1       4.938   9.228  14.475  1.00  0.00     0.004 C 
ENDBRANCH   2   3
ENDBRANCH   1   2
BRANCH   1   5
ATOM      5  C   UNL     1       2.309  10.888  10.698  1.00  0.00    -0.023 C 
ATOM      6  C   UNL     1       1.995  10.416   9.488  1.00  0.00     0.042 C 
BRANCH   6   7
ATOM      7  C   UNL     1       1.765  11.303   8.332  1.00  0.00     0.152 C 
ATOM      8  O   UNL     1       1.115  12.376   8.461  1.00  0.00    -0.295 OA
ATOM      9  C   UNL     1       2.310  10.928   6.992  1.00  0.00     0.093 C 
ENDBRANCH   6   7
ENDBRANCH   1   5
TORSDOF 4
ENDMDL
MODEL 7
REMARK VINA RESULT:    -3.565      1.709      2.784
REMARK INTER + INTRA:          -4.563
REMARK INTER:                  -4.301
REMARK INTRA:                  -0.262
REMARK UNBOUND:                -0.164
REMARK SMILES CCCCC=CC(C)=O
REMARK SMILES IDX 4 1 3 2 2 3 1 4 5 5 6 6 7 7 9 8 8 9
REMARK H PARENT
REMARK Flexibility Score: inf
ROOT
ATOM      1  C   UNL     1       3.476  21.319   6.507  1.00  0.00     0.027 C 
ENDROOT
BRANCH   1   2
ATOM      2  C   UNL     1       3.202  20.168   7.483  1.00  0.00     0.004 C 
BRANCH   2   3
ATOM      3  C   UNL     1       3.708  18.820   6.947  1.00  0.00    -0.003 C 
ATOM      4  C   UNL     1       2.547  17.931   6.513  1.00  0.00     0.004 C 
ENDBRANCH   2   3
ENDBRANCH   1   2
BRANCH   1   5
ATOM      5  C   UNL     1       4.522  20.945   5.493  1.00  0.00    -0.023 C 
ATOM      6  C   UNL     1       4.299  21.065   4.180  1.00  0.00     0.042 C 
BRANCH   6   7
ATOM      7  C   UNL     1       5.326  20.738   3.174  1.00  0.00     0.152 C 
ATOM      8  O   UNL     1       5.191  21.098   1.973  1.00  0.00    -0.295 OA
ATOM      9  C   UNL     1       6.542  19.971   3.581  1.00  0.00     0.093 C 
ENDBRANCH   6   7
ENDBRANCH   1   5
TORSDOF 4
ENDMDL
MODEL 8
REMARK VINA RESULT:    -3.447      2.103      3.355
REMARK INTER + INTRA:          -4.417
REMARK INTER:                  -4.140
REMARK INTRA:                  -0.276
REMARK UNBOUND:                -0.164
REMARK SMILES CCCCC=CC(C)=O
REMARK SMILES IDX 4 1 3 2 2 3 1 4 5 5 6 6 7 7 9 8 8 9
REMARK H PARENT
REMARK Flexibility Score: inf
ROOT
ATOM      1  C   UNL     1       3.312  19.334   7.078  1.00  0.00     0.027 C 
ENDROOT
BRANCH   1   2
ATOM      2  C   UNL     1       3.251  20.621   7.911  1.00  0.00     0.004 C 
BRANCH   2   3
ATOM      3  C   UNL     1       1.857  21.267   7.877  1.00  0.00    -0.003 C 
ATOM      4  C   UNL     1       1.920  22.678   7.300  1.00  0.00     0.004 C 
ENDBRANCH   2   3
ENDBRANCH   1   2
BRANCH   1   5
ATOM      5  C   UNL     1       4.259  19.472   5.918  1.00  0.00    -0.023 C 
ATOM      6  C   UNL     1       4.178  20.499   5.066  1.00  0.00     0.042 C 
BRANCH   6   7
ATOM      7  C   UNL     1       5.121  20.669   3.945  1.00  0.00     0.152 C 
ATOM      8  O   UNL     1       4.730  21.120   2.835  1.00  0.00    -0.295 OA
ATOM      9  C   UNL     1       6.559  20.304   4.127  1.00  0.00     0.093 C 
ENDBRANCH   6   7
ENDBRANCH   1   5
TORSDOF 4
ENDMDL
