MODEL 1
REMARK VINA RESULT:    -3.475      0.000      0.000
REMARK INTER + INTRA:          -8.174
REMARK INTER:                  -6.420
REMARK INTRA:                  -1.754
REMARK UNBOUND:                -1.754
REMARK SMILES CCCCCCCCCCCCCCCCO
REMARK SMILES IDX 9 1 8 2 7 3 6 4 5 5 4 6 3 7 2 8 1 9 10 10 11 11 12 12 13 13
REMARK SMILES IDX 14 14 15 15 16 16 17 17
REMARK H PARENT 17 18
REMARK Flexibility Score: inf
ROOT
ATOM      1  C   UNL     1     165.475 165.846 169.180  1.00  0.00     0.000 C 
ENDROOT
BRANCH   1   2
ATOM      2  C   UNL     1     166.637 165.217 168.394  1.00  0.00    -0.000 C 
BRANCH   2   3
ATOM      3  C   UNL     1     167.972 165.287 169.157  1.00  0.00    -0.000 C 
BRANCH   3   4
ATOM      4  C   UNL     1     169.093 165.947 168.336  1.00  0.00    -0.000 C 
BRANCH   4   5
ATOM      5  C   UNL     1     169.374 167.423 168.681  1.00  0.00    -0.000 C 
BRANCH   5   6
ATOM      6  C   UNL     1     169.245 167.747 170.184  1.00  0.00    -0.000 C 
BRANCH   6   7
ATOM      7  C   UNL     1     170.373 168.670 170.678  1.00  0.00    -0.000 C 
BRANCH   7   8
ATOM      8  C   UNL     1     171.435 168.931 169.599  1.00  0.00    -0.003 C 
ATOM      9  C   UNL     1     172.610 169.759 170.120  1.00  0.00     0.004 C 
ENDBRANCH   7   8
ENDBRANCH   6   7
ENDBRANCH   5   6
ENDBRANCH   4   5
ENDBRANCH   3   4
ENDBRANCH   2   3
ENDBRANCH   1   2
BRANCH   1  10
ATOM     10  C   UNL     1     165.083 167.235 168.653  1.00  0.00     0.000 C 
BRANCH  10  11
ATOM     11  C   UNL     1     165.814 168.341 169.429  1.00  0.00     0.000 C 
BRANCH  11  12
ATOM     12  C   UNL     1     166.259 169.505 168.529  1.00  0.00     0.000 C 
BRANCH  12  13
ATOM     13  C   UNL     1     166.873 170.669 169.327  1.00  0.00     0.000 C 
BRANCH  13  14
ATOM     14  C   UNL     1     166.713 170.491 170.846  1.00  0.00     0.002 C 
BRANCH  14  15
ATOM     15  C   UNL     1     166.220 171.770 171.542  1.00  0.00     0.028 C 
BRANCH  15  16
ATOM     16  C   UNL     1     165.627 172.771 170.546  1.00  0.00     0.156 C 
BRANCH  16  17
ATOM     17  O   UNL     1     164.297 173.074 170.877  1.00  0.00    -0.396 OA
ATOM     18  H   UNL     1     163.732 172.751 170.127  1.00  0.00     0.210 HD
ENDBRANCH  16  17
ENDBRANCH  15  16
ENDBRANCH  14  15
ENDBRANCH  13  14
ENDBRANCH  12  13
ENDBRANCH  11  12
ENDBRANCH  10  11
ENDBRANCH   1  10
TORSDOF 15
ENDMDL
MODEL 2
REMARK VINA RESULT:    -3.455      2.900      4.996
REMARK INTER + INTRA:          -8.138
REMARK INTER:                  -5.797
REMARK INTRA:                  -2.342
REMARK UNBOUND:                -1.754
REMARK SMILES CCCCCCCCCCCCCCCCO
REMARK SMILES IDX 9 1 8 2 7 3 6 4 5 5 4 6 3 7 2 8 1 9 10 10 11 11 12 12 13 13
REMARK SMILES IDX 14 14 15 15 16 16 17 17
REMARK H PARENT 17 18
REMARK Flexibility Score: inf
ROOT
ATOM      1  C   UNL     1     166.340 169.088 168.092  1.00  0.00     0.000 C 
ENDROOT
BRANCH   1   2
ATOM      2  C   UNL     1     165.623 168.392 169.261  1.00  0.00    -0.000 C 
BRANCH   2   3
ATOM      3  C   UNL     1     165.956 166.892 169.347  1.00  0.00    -0.000 C 
BRANCH   3   4
ATOM      4  C   UNL     1     166.516 166.485 170.721  1.00  0.00    -0.000 C 
BRANCH   4   5
ATOM      5  C   UNL     1     168.038 166.665 170.886  1.00  0.00    -0.000 C 
BRANCH   5   6
ATOM      6  C   UNL     1     168.437 167.494 172.125  1.00  0.00    -0.000 C 
BRANCH   6   7
ATOM      7  C   UNL     1     168.296 169.007 171.880  1.00  0.00    -0.000 C 
BRANCH   7   8
ATOM      8  C   UNL     1     167.179 169.639 172.724  1.00  0.00    -0.003 C 
ATOM      9  C   UNL     1     166.543 170.852 172.044  1.00  0.00     0.004 C 
ENDBRANCH   7   8
ENDBRANCH   6   7
ENDBRANCH   5   6
ENDBRANCH   4   5
ENDBRANCH   3   4
ENDBRANCH   2   3
ENDBRANCH   1   2
BRANCH   1  10
ATOM     10  C   UNL     1     167.208 170.272 168.546  1.00  0.00     0.000 C 
BRANCH  10  11
ATOM     11  C   UNL     1     168.694 169.997 168.276  1.00  0.00     0.000 C 
BRANCH  11  12
ATOM     12  C   UNL     1     168.966 168.539 167.875  1.00  0.00     0.000 C 
BRANCH  12  13
ATOM     13  C   UNL     1     170.409 168.100 168.181  1.00  0.00     0.000 C 
BRANCH  13  14
ATOM     14  C   UNL     1     170.930 168.671 169.511  1.00  0.00     0.002 C 
BRANCH  14  15
ATOM     15  C   UNL     1     172.367 169.205 169.403  1.00  0.00     0.028 C 
BRANCH  15  16
ATOM     16  C   UNL     1     172.793 169.960 170.666  1.00  0.00     0.156 C 
BRANCH  16  17
ATOM     17  O   UNL     1     174.188 170.103 170.714  1.00  0.00    -0.396 OA
ATOM     18  H   UNL     1     174.440 170.729 169.986  1.00  0.00     0.210 HD
ENDBRANCH  16  17
ENDBRANCH  15  16
ENDBRANCH  14  15
ENDBRANCH  13  14
ENDBRANCH  12  13
ENDBRANCH  11  12
ENDBRANCH  10  11
ENDBRANCH   1  10
TORSDOF 15
ENDMDL
MODEL 3
REMARK VINA RESULT:    -3.358      3.549      6.398
REMARK INTER + INTRA:          -7.959
REMARK INTER:                  -5.658
REMARK INTRA:                  -2.300
REMARK UNBOUND:                -1.754
REMARK SMILES CCCCCCCCCCCCCCCCO
REMARK SMILES IDX 9 1 8 2 7 3 6 4 5 5 4 6 3 7 2 8 1 9 10 10 11 11 12 12 13 13
REMARK SMILES IDX 14 14 15 15 16 16 17 17
REMARK H PARENT 17 18
REMARK Flexibility Score: inf
ROOT
ATOM      1  C   UNL     1     170.243 168.861 172.084  1.00  0.00     0.000 C 
ENDROOT
BRANCH   1   2
ATOM      2  C   UNL     1     171.463 168.740 171.155  1.00  0.00    -0.000 C 
BRANCH   2   3
ATOM      3  C   UNL     1     171.180 169.272 169.739  1.00  0.00    -0.000 C 
BRANCH   3   4
ATOM      4  C   UNL     1     170.692 168.175 168.777  1.00  0.00    -0.000 C 
BRANCH   4   5
ATOM      5  C   UNL     1     169.395 168.505 168.012  1.00  0.00    -0.000 C 
BRANCH   5   6
ATOM      6  C   UNL     1     168.646 169.738 168.559  1.00  0.00    -0.000 C 
BRANCH   6   7
ATOM      7  C   UNL     1     167.222 169.392 169.029  1.00  0.00    -0.000 C 
BRANCH   7   8
ATOM      8  C   UNL     1     166.318 168.932 167.875  1.00  0.00    -0.003 C 
ATOM      9  C   UNL     1     165.771 167.520 168.085  1.00  0.00     0.004 C 
ENDBRANCH   7   8
ENDBRANCH   6   7
ENDBRANCH   5   6
ENDBRANCH   4   5
ENDBRANCH   3   4
ENDBRANCH   2   3
ENDBRANCH   1   2
BRANCH   1  10
ATOM     10  C   UNL     1     169.530 167.518 172.306  1.00  0.00     0.000 C 
BRANCH  10  11
ATOM     11  C   UNL     1     168.025 167.645 172.027  1.00  0.00     0.000 C 
BRANCH  11  12
ATOM     12  C   UNL     1     167.462 166.451 171.240  1.00  0.00     0.000 C 
BRANCH  12  13
ATOM     13  C   UNL     1     168.565 165.510 170.725  1.00  0.00     0.000 C 
BRANCH  13  14
ATOM     14  C   UNL     1     168.430 165.209 169.223  1.00  0.00     0.002 C 
BRANCH  14  15
ATOM     15  C   UNL     1     168.647 163.722 168.896  1.00  0.00     0.028 C 
BRANCH  15  16
ATOM     16  C   UNL     1     169.741 163.099 169.767  1.00  0.00     0.156 C 
BRANCH  16  17
ATOM     17  O   UNL     1     169.409 161.782 170.117  1.00  0.00    -0.396 OA
ATOM     18  H   UNL     1     170.248 161.251 170.075  1.00  0.00     0.210 HD
ENDBRANCH  16  17
ENDBRANCH  15  16
ENDBRANCH  14  15
ENDBRANCH  13  14
ENDBRANCH  12  13
ENDBRANCH  11  12
ENDBRANCH  10  11
ENDBRANCH   1  10
TORSDOF 15
ENDMDL
MODEL 4
REMARK VINA RESULT:    -3.341      1.568      2.322
REMARK INTER + INTRA:          -7.927
REMARK INTER:                  -5.707
REMARK INTRA:                  -2.220
REMARK UNBOUND:                -1.754
REMARK SMILES CCCCCCCCCCCCCCCCO
REMARK SMILES IDX 9 1 8 2 7 3 6 4 5 5 4 6 3 7 2 8 1 9 10 10 11 11 12 12 13 13
REMARK SMILES IDX 14 14 15 15 16 16 17 17
REMARK H PARENT 17 18
REMARK Flexibility Score: inf
ROOT
ATOM      1  C   UNL     1     167.910 165.812 169.434  1.00  0.00     0.000 C 
ENDROOT
BRANCH   1   2
ATOM      2  C   UNL     1     168.700 165.089 170.538  1.00  0.00    -0.000 C 
BRANCH   2   3
ATOM      3  C   UNL     1     168.250 165.500 171.951  1.00  0.00    -0.000 C 
BRANCH   3   4
ATOM      4  C   UNL     1     169.279 166.391 172.667  1.00  0.00    -0.000 C 
BRANCH   4   5
ATOM      5  C   UNL     1     168.917 167.888 172.730  1.00  0.00    -0.000 C 
BRANCH   5   6
ATOM      6  C   UNL     1     169.170 168.646 171.410  1.00  0.00    -0.000 C 
BRANCH   6   7
ATOM      7  C   UNL     1     170.664 168.687 171.042  1.00  0.00    -0.000 C 
BRANCH   7   8
ATOM      8  C   UNL     1     170.899 169.108 169.583  1.00  0.00    -0.003 C 
ATOM      9  C   UNL     1     170.850 167.924 168.615  1.00  0.00     0.004 C 
ENDBRANCH   7   8
ENDBRANCH   6   7
ENDBRANCH   5   6
ENDBRANCH   4   5
ENDBRANCH   3   4
ENDBRANCH   2   3
ENDBRANCH   1   2
BRANCH   1  10
ATOM     10  C   UNL     1     166.552 166.339 169.923  1.00  0.00     0.000 C 
BRANCH  10  11
ATOM     11  C   UNL     1     166.131 167.586 169.130  1.00  0.00     0.000 C 
BRANCH  11  12
ATOM     12  C   UNL     1     167.250 168.119 168.221  1.00  0.00     0.000 C 
BRANCH  12  13
ATOM     13  C   UNL     1     167.430 169.642 168.335  1.00  0.00     0.000 C 
BRANCH  13  14
ATOM     14  C   UNL     1     166.295 170.313 169.126  1.00  0.00     0.002 C 
BRANCH  14  15
ATOM     15  C   UNL     1     166.501 171.828 169.288  1.00  0.00     0.028 C 
BRANCH  15  16
ATOM     16  C   UNL     1     165.795 172.371 170.534  1.00  0.00     0.156 C 
BRANCH  16  17
ATOM     17  O   UNL     1     165.558 173.748 170.412  1.00  0.00    -0.396 OA
ATOM     18  H   UNL     1     164.867 173.984 171.085  1.00  0.00     0.210 HD
ENDBRANCH  16  17
ENDBRANCH  15  16
ENDBRANCH  14  15
ENDBRANCH  13  14
ENDBRANCH  12  13
ENDBRANCH  11  12
ENDBRANCH  10  11
ENDBRANCH   1  10
TORSDOF 15
ENDMDL
MODEL 5
REMARK VINA RESULT:    -3.339      3.406      5.866
REMARK INTER + INTRA:          -7.924
REMARK INTER:                  -5.501
REMARK INTRA:                  -2.423
REMARK UNBOUND:                -1.754
REMARK SMILES CCCCCCCCCCCCCCCCO
REMARK SMILES IDX 9 1 8 2 7 3 6 4 5 5 4 6 3 7 2 8 1 9 10 10 11 11 12 12 13 13
REMARK SMILES IDX 14 14 15 15 16 16 17 17
REMARK H PARENT 17 18
REMARK Flexibility Score: inf
ROOT
ATOM      1  C   UNL     1     166.753 168.458 167.875  1.00  0.00     0.000 C 
ENDROOT
BRANCH   1   2
ATOM      2  C   UNL     1     165.383 168.690 168.535  1.00  0.00    -0.000 C 
BRANCH   2   3
ATOM      3  C   UNL     1     164.910 167.476 169.354  1.00  0.00    -0.000 C 
BRANCH   3   4
ATOM      4  C   UNL     1     166.066 166.747 170.059  1.00  0.00    -0.000 C 
BRANCH   4   5
ATOM      5  C   UNL     1     165.968 166.698 171.597  1.00  0.00    -0.000 C 
BRANCH   5   6
ATOM      6  C   UNL     1     167.200 167.284 172.318  1.00  0.00    -0.000 C 
BRANCH   6   7
ATOM      7  C   UNL     1     167.560 168.689 171.803  1.00  0.00    -0.000 C 
BRANCH   7   8
ATOM      8  C   UNL     1     166.594 169.769 172.314  1.00  0.00    -0.003 C 
ATOM      9  C   UNL     1     166.521 170.979 171.383  1.00  0.00     0.004 C 
ENDBRANCH   7   8
ENDBRANCH   6   7
ENDBRANCH   5   6
ENDBRANCH   4   5
ENDBRANCH   3   4
ENDBRANCH   2   3
ENDBRANCH   1   2
BRANCH   1  10
ATOM     10  C   UNL     1     167.769 169.562 168.210  1.00  0.00     0.000 C 
BRANCH  10  11
ATOM     11  C   UNL     1     169.133 168.958 168.572  1.00  0.00     0.000 C 
BRANCH  11  12
ATOM     12  C   UNL     1     169.375 167.593 167.909  1.00  0.00     0.000 C 
BRANCH  12  13
ATOM     13  C   UNL     1     169.640 166.476 168.933  1.00  0.00     0.000 C 
BRANCH  13  14
ATOM     14  C   UNL     1     168.919 165.165 168.577  1.00  0.00     0.002 C 
BRANCH  14  15
ATOM     15  C   UNL     1     168.727 164.245 169.794  1.00  0.00     0.028 C 
BRANCH  15  16
ATOM     16  C   UNL     1     169.738 163.095 169.805  1.00  0.00     0.156 C 
BRANCH  16  17
ATOM     17  O   UNL     1     169.543 162.272 170.925  1.00  0.00    -0.396 OA
ATOM     18  H   UNL     1     170.222 161.549 170.875  1.00  0.00     0.210 HD
ENDBRANCH  16  17
ENDBRANCH  15  16
ENDBRANCH  14  15
ENDBRANCH  13  14
ENDBRANCH  12  13
ENDBRANCH  11  12
ENDBRANCH  10  11
ENDBRANCH   1  10
TORSDOF 15
ENDMDL
MODEL 6
REMARK VINA RESULT:    -3.333      1.821      3.431
REMARK INTER + INTRA:          -7.911
REMARK INTER:                  -6.619
REMARK INTRA:                  -1.292
REMARK UNBOUND:                -1.754
REMARK SMILES CCCCCCCCCCCCCCCCO
REMARK SMILES IDX 9 1 8 2 7 3 6 4 5 5 4 6 3 7 2 8 1 9 10 10 11 11 12 12 13 13
REMARK SMILES IDX 14 14 15 15 16 16 17 17
REMARK H PARENT 17 18
REMARK Flexibility Score: inf
ROOT
ATOM      1  C   UNL     1     167.166 169.809 167.912  1.00  0.00     0.000 C 
ENDROOT
BRANCH   1   2
ATOM      2  C   UNL     1     166.084 168.831 168.399  1.00  0.00    -0.000 C 
BRANCH   2   3
ATOM      3  C   UNL     1     166.303 167.401 167.876  1.00  0.00    -0.000 C 
BRANCH   3   4
ATOM      4  C   UNL     1     166.261 166.345 168.994  1.00  0.00    -0.000 C 
BRANCH   4   5
ATOM      5  C   UNL     1     167.328 165.237 168.888  1.00  0.00    -0.000 C 
BRANCH   5   6
ATOM      6  C   UNL     1     168.674 165.603 169.548  1.00  0.00    -0.000 C 
BRANCH   6   7
ATOM      7  C   UNL     1     168.513 166.680 170.636  1.00  0.00    -0.000 C 
BRANCH   7   8
ATOM      8  C   UNL     1     169.457 167.874 170.427  1.00  0.00    -0.003 C 
ATOM      9  C   UNL     1     170.023 167.933 169.007  1.00  0.00     0.004 C 
ENDBRANCH   7   8
ENDBRANCH   6   7
ENDBRANCH   5   6
ENDBRANCH   4   5
ENDBRANCH   3   4
ENDBRANCH   2   3
ENDBRANCH   1   2
BRANCH   1  10
ATOM     10  C   UNL     1     167.036 171.203 168.546  1.00  0.00     0.000 C 
BRANCH  10  11
ATOM     11  C   UNL     1     166.283 171.129 169.883  1.00  0.00     0.000 C 
BRANCH  11  12
ATOM     12  C   UNL     1     165.703 172.484 170.315  1.00  0.00     0.000 C 
BRANCH  12  13
ATOM     13  C   UNL     1     165.330 172.519 171.808  1.00  0.00     0.000 C 
BRANCH  13  14
ATOM     14  C   UNL     1     164.337 173.644 172.142  1.00  0.00     0.002 C 
BRANCH  14  15
ATOM     15  C   UNL     1     163.014 173.114 172.718  1.00  0.00     0.028 C 
BRANCH  15  16
ATOM     16  C   UNL     1     161.800 173.702 171.993  1.00  0.00     0.156 C 
BRANCH  16  17
ATOM     17  O   UNL     1     161.177 172.729 171.196  1.00  0.00    -0.396 OA
ATOM     18  H   UNL     1     161.527 172.844 170.274  1.00  0.00     0.210 HD
ENDBRANCH  16  17
ENDBRANCH  15  16
ENDBRANCH  14  15
ENDBRANCH  13  14
ENDBRANCH  12  13
ENDBRANCH  11  12
ENDBRANCH  10  11
ENDBRANCH   1  10
TORSDOF 15
ENDMDL
MODEL 7
REMARK VINA RESULT:    -3.331      1.620      3.471
REMARK INTER + INTRA:          -7.908
REMARK INTER:                  -6.255
REMARK INTRA:                  -1.654
REMARK UNBOUND:                -1.754
REMARK SMILES CCCCCCCCCCCCCCCCO
REMARK SMILES IDX 9 1 8 2 7 3 6 4 5 5 4 6 3 7 2 8 1 9 10 10 11 11 12 12 13 13
REMARK SMILES IDX 14 14 15 15 16 16 17 17
REMARK H PARENT 17 18
REMARK Flexibility Score: inf
ROOT
ATOM      1  C   UNL     1     169.111 166.513 169.338  1.00  0.00     0.000 C 
ENDROOT
BRANCH   1   2
ATOM      2  C   UNL     1     168.985 165.027 168.963  1.00  0.00    -0.000 C 
BRANCH   2   3
ATOM      3  C   UNL     1     167.544 164.632 168.595  1.00  0.00    -0.000 C 
BRANCH   3   4
ATOM      4  C   UNL     1     166.671 165.843 168.225  1.00  0.00    -0.000 C 
BRANCH   4   5
ATOM      5  C   UNL     1     165.407 166.027 169.089  1.00  0.00    -0.000 C 
BRANCH   5   6
ATOM      6  C   UNL     1     165.460 167.260 170.015  1.00  0.00    -0.000 C 
BRANCH   6   7
ATOM      7  C   UNL     1     165.558 166.867 171.500  1.00  0.00    -0.000 C 
BRANCH   7   8
ATOM      8  C   UNL     1     166.219 167.959 172.355  1.00  0.00    -0.003 C 
ATOM      9  C   UNL     1     167.524 168.471 171.746  1.00  0.00     0.004 C 
ENDBRANCH   7   8
ENDBRANCH   6   7
ENDBRANCH   5   6
ENDBRANCH   4   5
ENDBRANCH   3   4
ENDBRANCH   2   3
ENDBRANCH   1   2
BRANCH   1  10
ATOM     10  C   UNL     1     169.827 167.340 168.259  1.00  0.00     0.000 C 
BRANCH  10  11
ATOM     11  C   UNL     1     169.411 168.817 168.336  1.00  0.00     0.000 C 
BRANCH  11  12
ATOM     12  C   UNL     1     167.955 169.049 167.902  1.00  0.00     0.000 C 
BRANCH  12  13
ATOM     13  C   UNL     1     167.550 170.532 167.959  1.00  0.00     0.000 C 
BRANCH  13  14
ATOM     14  C   UNL     1     166.678 170.859 169.183  1.00  0.00     0.002 C 
BRANCH  14  15
ATOM     15  C   UNL     1     166.395 172.363 169.324  1.00  0.00     0.028 C 
BRANCH  15  16
ATOM     16  C   UNL     1     165.570 172.675 170.576  1.00  0.00     0.156 C 
BRANCH  16  17
ATOM     17  O   UNL     1     165.248 174.039 170.633  1.00  0.00    -0.396 OA
ATOM     18  H   UNL     1     164.259 174.100 170.699  1.00  0.00     0.210 HD
ENDBRANCH  16  17
ENDBRANCH  15  16
ENDBRANCH  14  15
ENDBRANCH  13  14
ENDBRANCH  12  13
ENDBRANCH  11  12
ENDBRANCH  10  11
ENDBRANCH   1  10
TORSDOF 15
ENDMDL
MODEL 8
REMARK VINA RESULT:    -3.329      4.181      6.643
REMARK INTER + INTRA:          -7.904
REMARK INTER:                  -6.209
REMARK INTRA:                  -1.695
REMARK UNBOUND:                -1.754
REMARK SMILES CCCCCCCCCCCCCCCCO
REMARK SMILES IDX 9 1 8 2 7 3 6 4 5 5 4 6 3 7 2 8 1 9 10 10 11 11 12 12 13 13
REMARK SMILES IDX 14 14 15 15 16 16 17 17
REMARK H PARENT 17 18
REMARK Flexibility Score: inf
ROOT
ATOM      1  C   UNL     1     166.331 165.692 167.921  1.00  0.00     0.000 C 
ENDROOT
BRANCH   1   2
ATOM      2  C   UNL     1     165.560 166.556 168.934  1.00  0.00    -0.000 C 
BRANCH   2   3
ATOM      3  C   UNL     1     164.908 167.788 168.283  1.00  0.00    -0.000 C 
BRANCH   3   4
ATOM      4  C   UNL     1     165.935 168.861 167.880  1.00  0.00    -0.000 C 
BRANCH   4   5
ATOM      5  C   UNL     1     166.322 169.848 168.998  1.00  0.00    -0.000 C 
BRANCH   5   6
ATOM      6  C   UNL     1     167.706 169.572 169.621  1.00  0.00    -0.000 C 
BRANCH   6   7
ATOM      7  C   UNL     1     168.699 168.993 168.597  1.00  0.00    -0.000 C 
BRANCH   7   8
ATOM      8  C   UNL     1     170.038 168.595 169.236  1.00  0.00    -0.003 C 
ATOM      9  C   UNL     1     170.987 167.926 168.241  1.00  0.00     0.004 C 
ENDBRANCH   7   8
ENDBRANCH   6   7
ENDBRANCH   5   6
ENDBRANCH   4   5
ENDBRANCH   3   4
ENDBRANCH   2   3
ENDBRANCH   1   2
BRANCH   1  10
ATOM     10  C   UNL     1     167.809 165.509 168.300  1.00  0.00     0.000 C 
BRANCH  10  11
ATOM     11  C   UNL     1     167.992 165.550 169.824  1.00  0.00     0.000 C 
BRANCH  11  12
ATOM     12  C   UNL     1     169.024 164.529 170.327  1.00  0.00     0.000 C 
BRANCH  12  13
ATOM     13  C   UNL     1     169.070 163.258 169.461  1.00  0.00     0.000 C 
BRANCH  13  14
ATOM     14  C   UNL     1     169.814 162.101 170.148  1.00  0.00     0.002 C 
BRANCH  14  15
ATOM     15  C   UNL     1     170.390 162.498 171.517  1.00  0.00     0.028 C 
BRANCH  15  16
ATOM     16  C   UNL     1     170.521 161.294 172.453  1.00  0.00     0.156 C 
BRANCH  16  17
ATOM     17  O   UNL     1     170.481 160.093 171.728  1.00  0.00    -0.396 OA
ATOM     18  H   UNL     1     169.747 159.547 172.113  1.00  0.00     0.210 HD
ENDBRANCH  16  17
ENDBRANCH  15  16
ENDBRANCH  14  15
ENDBRANCH  13  14
ENDBRANCH  12  13
ENDBRANCH  11  12
ENDBRANCH  10  11
ENDBRANCH   1  10
TORSDOF 15
ENDMDL
MODEL 9
REMARK VINA RESULT:    -3.298      2.735      4.028
REMARK INTER + INTRA:          -7.847
REMARK INTER:                  -5.708
REMARK INTRA:                  -2.139
REMARK UNBOUND:                -1.754
REMARK SMILES CCCCCCCCCCCCCCCCO
REMARK SMILES IDX 9 1 8 2 7 3 6 4 5 5 4 6 3 7 2 8 1 9 10 10 11 11 12 12 13 13
REMARK SMILES IDX 14 14 15 15 16 16 17 17
REMARK H PARENT 17 18
REMARK Flexibility Score: inf
ROOT
ATOM      1  C   UNL     1     165.506 166.400 169.296  1.00  0.00     0.000 C 
ENDROOT
BRANCH   1   2
ATOM      2  C   UNL     1     166.007 165.241 168.419  1.00  0.00    -0.000 C 
BRANCH   2   3
ATOM      3  C   UNL     1     167.430 165.480 167.882  1.00  0.00    -0.000 C 
BRANCH   3   4
ATOM      4  C   UNL     1     168.462 164.508 168.480  1.00  0.00    -0.000 C 
BRANCH   4   5
ATOM      5  C   UNL     1     169.147 164.994 169.772  1.00  0.00    -0.000 C 
BRANCH   5   6
ATOM      6  C   UNL     1     168.815 164.139 171.012  1.00  0.00    -0.000 C 
BRANCH   6   7
ATOM      7  C   UNL     1     168.335 164.996 172.197  1.00  0.00    -0.000 C 
BRANCH   7   8
ATOM      8  C   UNL     1     168.079 166.458 171.800  1.00  0.00    -0.003 C 
ATOM      9  C   UNL     1     168.982 167.437 172.552  1.00  0.00     0.004 C 
ENDBRANCH   7   8
ENDBRANCH   6   7
ENDBRANCH   5   6
ENDBRANCH   4   5
ENDBRANCH   3   4
ENDBRANCH   2   3
ENDBRANCH   1   2
BRANCH   1  10
ATOM     10  C   UNL     1     164.623 167.393 168.523  1.00  0.00     0.000 C 
BRANCH  10  11
ATOM     11  C   UNL     1     165.361 168.721 168.299  1.00  0.00     0.000 C 
BRANCH  11  12
ATOM     12  C   UNL     1     166.608 168.866 169.185  1.00  0.00     0.000 C 
BRANCH  12  13
ATOM     13  C   UNL     1     167.904 168.995 168.365  1.00  0.00     0.000 C 
BRANCH  13  14
ATOM     14  C   UNL     1     169.165 168.766 169.215  1.00  0.00     0.002 C 
BRANCH  14  15
ATOM     15  C   UNL     1     170.379 168.344 168.371  1.00  0.00     0.028 C 
BRANCH  15  16
ATOM     16  C   UNL     1     171.701 168.624 169.091  1.00  0.00     0.156 C 
BRANCH  16  17
ATOM     17  O   UNL     1     171.824 169.989 169.392  1.00  0.00    -0.396 OA
ATOM     18  H   UNL     1     171.982 170.057 170.370  1.00  0.00     0.210 HD
ENDBRANCH  16  17
ENDBRANCH  15  16
ENDBRANCH  14  15
ENDBRANCH  13  14
ENDBRANCH  12  13
ENDBRANCH  11  12
ENDBRANCH  10  11
ENDBRANCH   1  10
TORSDOF 15
ENDMDL
