MODEL 1
REMARK VINA RESULT:    -5.436      0.000      0.000
REMARK INTER + INTRA:          -6.707
REMARK INTER:                  -6.389
REMARK INTRA:                  -0.318
REMARK UNBOUND:                -0.318
REMARK SMILES O=c1cc(-c2ccc(O)c(O)c2)oc2cc(O)cc(O)c12
REMARK SMILES IDX 4 1 3 2 2 3 1 4 21 5 19 6 18 7 16 8 15 9 14 10 13 11 5 12
REMARK SMILES IDX 6 13 7 14 8 15 12 16 10 17 9 18 11 20 20 22 17 24
REMARK H PARENT 9 19 11 21 20 23 17 25
REMARK Flexibility Score: inf
ROOT
ATOM      1  C   UNL     1      18.261  36.835  29.636  1.00  0.00     0.138 A 
ATOM      2  C   UNL     1      19.097  37.607  30.454  1.00  0.00     0.100 A 
ATOM      3  C   UNL     1      19.390  38.923  30.095  1.00  0.00     0.197 A 
ATOM      4  O   UNL     1      20.099  39.607  30.878  1.00  0.00    -0.289 OA
ATOM      5  C   UNL     1      18.871  39.457  28.891  1.00  0.00     0.107 A 
ATOM      6  C   UNL     1      19.129  40.775  28.406  1.00  0.00     0.134 A 
ATOM      7  C   UNL     1      18.479  41.225  27.250  1.00  0.00     0.093 A 
ATOM      8  C   UNL     1      17.626  40.388  26.530  1.00  0.00     0.123 A 
ATOM      9  C   UNL     1      17.405  39.082  26.967  1.00  0.00     0.094 A 
ATOM     10  C   UNL     1      18.012  38.615  28.136  1.00  0.00     0.146 A 
ATOM     11  O   UNL     1      17.761  37.369  28.527  1.00  0.00    -0.456 OA
ENDROOT
BRANCH   1  12
ATOM     12  C   UNL     1      17.919  35.429  29.967  1.00  0.00     0.021 A 
ATOM     13  C   UNL     1      18.502  34.824  31.094  1.00  0.00     0.016 A 
ATOM     14  C   UNL     1      18.203  33.500  31.425  1.00  0.00     0.051 A 
ATOM     15  C   UNL     1      17.325  32.754  30.631  1.00  0.00     0.157 A 
ATOM     16  C   UNL     1      17.046  34.668  29.166  1.00  0.00     0.062 A 
ATOM     17  C   UNL     1      16.746  33.341  29.495  1.00  0.00     0.158 A 
BRANCH  15  18
ATOM     18  O   UNL     1      17.027  31.434  30.965  1.00  0.00    -0.504 OA
ATOM     19  H   UNL     1      16.724  30.765  30.267  1.00  0.00     0.293 HD
ENDBRANCH  15  18
BRANCH  17  20
ATOM     20  O   UNL     1      15.875  32.621  28.676  1.00  0.00    -0.504 OA
ATOM     21  H   UNL     1      15.815  32.784  27.678  1.00  0.00     0.293 HD
ENDBRANCH  17  20
ENDBRANCH   1  12
BRANCH   6  22
ATOM     22  O   UNL     1      20.025  41.668  29.003  1.00  0.00    -0.507 OA
ATOM     23  H   UNL     1      19.764  42.473  29.550  1.00  0.00     0.293 HD
ENDBRANCH   6  22
BRANCH   8  24
ATOM     24  O   UNL     1      17.009  40.865  25.376  1.00  0.00    -0.508 OA
ATOM     25  H   UNL     1      16.710  40.240  24.637  1.00  0.00     0.293 HD
ENDBRANCH   8  24
TORSDOF 5
ENDMDL
MODEL 2
REMARK VINA RESULT:    -5.027      1.565      7.297
REMARK INTER + INTRA:          -6.227
REMARK INTER:                  -5.910
REMARK INTRA:                  -0.317
REMARK UNBOUND:                -0.318
REMARK SMILES O=c1cc(-c2ccc(O)c(O)c2)oc2cc(O)cc(O)c12
REMARK SMILES IDX 4 1 3 2 2 3 1 4 21 5 19 6 18 7 16 8 15 9 14 10 13 11 5 12
REMARK SMILES IDX 6 13 7 14 8 15 12 16 10 17 9 18 11 20 20 22 17 24
REMARK H PARENT 9 19 11 21 20 23 17 25
REMARK Flexibility Score: inf
ROOT
ATOM      1  C   UNL     1      17.778  37.032  28.935  1.00  0.00     0.138 A 
ATOM      2  C   UNL     1      16.771  36.088  28.691  1.00  0.00     0.100 A 
ATOM      3  C   UNL     1      16.823  34.844  29.321  1.00  0.00     0.197 A 
ATOM      4  O   UNL     1      15.875  34.039  29.124  1.00  0.00    -0.289 OA
ATOM      5  C   UNL     1      17.909  34.531  30.173  1.00  0.00     0.107 A 
ATOM      6  C   UNL     1      18.086  33.282  30.843  1.00  0.00     0.134 A 
ATOM      7  C   UNL     1      19.150  33.124  31.739  1.00  0.00     0.093 A 
ATOM      8  C   UNL     1      20.076  34.147  31.947  1.00  0.00     0.123 A 
ATOM      9  C   UNL     1      19.941  35.354  31.260  1.00  0.00     0.094 A 
ATOM     10  C   UNL     1      18.871  35.554  30.385  1.00  0.00     0.146 A 
ATOM     11  O   UNL     1      18.770  36.725  29.764  1.00  0.00    -0.456 OA
ENDROOT
BRANCH   1  12
ATOM     12  C   UNL     1      17.774  38.369  28.290  1.00  0.00     0.021 A 
ATOM     13  C   UNL     1      16.850  38.637  27.265  1.00  0.00     0.016 A 
ATOM     14  C   UNL     1      16.829  39.884  26.635  1.00  0.00     0.051 A 
ATOM     15  C   UNL     1      17.737  40.881  27.012  1.00  0.00     0.157 A 
ATOM     16  C   UNL     1      18.692  39.371  28.655  1.00  0.00     0.062 A 
ATOM     17  C   UNL     1      18.675  40.621  28.024  1.00  0.00     0.158 A 
BRANCH  15  18
ATOM     18  O   UNL     1      17.713  42.125  26.383  1.00  0.00    -0.504 OA
ATOM     19  H   UNL     1      16.918  42.426  25.831  1.00  0.00     0.293 HD
ENDBRANCH  15  18
BRANCH  17  20
ATOM     20  O   UNL     1      19.600  41.590  28.414  1.00  0.00    -0.504 OA
ATOM     21  H   UNL     1      20.329  41.396  29.091  1.00  0.00     0.293 HD
ENDBRANCH  17  20
ENDBRANCH   1  12
BRANCH   6  22
ATOM     22  O   UNL     1      17.266  32.166  30.649  1.00  0.00    -0.507 OA
ATOM     23  H   UNL     1      17.571  31.207  30.696  1.00  0.00     0.293 HD
ENDBRANCH   6  22
BRANCH   8  24
ATOM     24  O   UNL     1      21.131  33.949  32.835  1.00  0.00    -0.508 OA
ATOM     25  H   UNL     1      21.357  34.629  33.551  1.00  0.00     0.293 HD
ENDBRANCH   8  24
TORSDOF 5
ENDMDL
MODEL 3
REMARK VINA RESULT:    -4.899      0.910      1.613
REMARK INTER + INTRA:          -6.076
REMARK INTER:                  -5.785
REMARK INTRA:                  -0.291
REMARK UNBOUND:                -0.318
REMARK SMILES O=c1cc(-c2ccc(O)c(O)c2)oc2cc(O)cc(O)c12
REMARK SMILES IDX 4 1 3 2 2 3 1 4 21 5 19 6 18 7 16 8 15 9 14 10 13 11 5 12
REMARK SMILES IDX 6 13 7 14 8 15 12 16 10 17 9 18 11 20 20 22 17 24
REMARK H PARENT 9 19 11 21 20 23 17 25
REMARK Flexibility Score: inf
ROOT
ATOM      1  C   UNL     1      17.989  36.699  30.045  1.00  0.00     0.138 A 
ATOM      2  C   UNL     1      18.922  37.429  30.793  1.00  0.00     0.100 A 
ATOM      3  C   UNL     1      19.317  38.695  30.360  1.00  0.00     0.197 A 
ATOM      4  O   UNL     1      20.114  39.347  31.083  1.00  0.00    -0.289 OA
ATOM      5  C   UNL     1      18.799  39.219  29.151  1.00  0.00     0.107 A 
ATOM      6  C   UNL     1      19.155  40.484  28.593  1.00  0.00     0.134 A 
ATOM      7  C   UNL     1      18.502  40.938  27.440  1.00  0.00     0.093 A 
ATOM      8  C   UNL     1      17.550  40.150  26.793  1.00  0.00     0.123 A 
ATOM      9  C   UNL     1      17.231  38.891  27.302  1.00  0.00     0.094 A 
ATOM     10  C   UNL     1      17.840  38.424  28.469  1.00  0.00     0.146 A 
ATOM     11  O   UNL     1      17.495  37.226  28.930  1.00  0.00    -0.456 OA
ENDROOT
BRANCH   1  12
ATOM     12  C   UNL     1      17.537  35.347  30.457  1.00  0.00     0.021 A 
ATOM     13  C   UNL     1      17.006  34.473  29.493  1.00  0.00     0.016 A 
ATOM     14  C   UNL     1      16.566  33.197  29.855  1.00  0.00     0.051 A 
ATOM     15  C   UNL     1      16.640  32.776  31.188  1.00  0.00     0.157 A 
ATOM     16  C   UNL     1      17.596  34.921  31.798  1.00  0.00     0.062 A 
ATOM     17  C   UNL     1      17.154  33.644  32.164  1.00  0.00     0.158 A 
BRANCH  15  18
ATOM     18  O   UNL     1      16.202  31.502  31.546  1.00  0.00    -0.504 OA
ATOM     19  H   UNL     1      16.642  30.979  32.294  1.00  0.00     0.293 HD
ENDBRANCH  15  18
BRANCH  17  20
ATOM     20  O   UNL     1      17.231  33.259  33.503  1.00  0.00    -0.504 OA
ATOM     21  H   UNL     1      17.810  32.485  33.808  1.00  0.00     0.293 HD
ENDBRANCH  17  20
ENDBRANCH   1  12
BRANCH   6  22
ATOM     22  O   UNL     1      20.150  41.318  29.113  1.00  0.00    -0.507 OA
ATOM     23  H   UNL     1      20.439  41.344  30.078  1.00  0.00     0.293 HD
ENDBRANCH   6  22
BRANCH   8  24
ATOM     24  O   UNL     1      16.931  40.628  25.640  1.00  0.00    -0.508 OA
ATOM     25  H   UNL     1      16.387  40.020  25.040  1.00  0.00     0.293 HD
ENDBRANCH   8  24
TORSDOF 5
ENDMDL
MODEL 4
REMARK VINA RESULT:    -4.858      1.677      6.584
REMARK INTER + INTRA:          -6.028
REMARK INTER:                  -5.714
REMARK INTRA:                  -0.314
REMARK UNBOUND:                -0.318
REMARK SMILES O=c1cc(-c2ccc(O)c(O)c2)oc2cc(O)cc(O)c12
REMARK SMILES IDX 4 1 3 2 2 3 1 4 21 5 19 6 18 7 16 8 15 9 14 10 13 11 5 12
REMARK SMILES IDX 6 13 7 14 8 15 12 16 10 17 9 18 11 20 20 22 17 24
REMARK H PARENT 9 19 11 21 20 23 17 25
REMARK Flexibility Score: inf
ROOT
ATOM      1  C   UNL     1      18.535  38.460  29.478  1.00  0.00     0.138 A 
ATOM      2  C   UNL     1      19.248  38.890  30.605  1.00  0.00     0.100 A 
ATOM      3  C   UNL     1      19.600  37.969  31.593  1.00  0.00     0.197 A 
ATOM      4  O   UNL     1      20.287  38.376  32.566  1.00  0.00    -0.289 OA
ATOM      5  C   UNL     1      19.203  36.616  31.468  1.00  0.00     0.107 A 
ATOM      6  C   UNL     1      19.474  35.595  32.428  1.00  0.00     0.134 A 
ATOM      7  C   UNL     1      19.116  34.271  32.148  1.00  0.00     0.093 A 
ATOM      8  C   UNL     1      18.446  33.939  30.970  1.00  0.00     0.123 A 
ATOM      9  C   UNL     1      18.131  34.936  30.047  1.00  0.00     0.094 A 
ATOM     10  C   UNL     1      18.505  36.262  30.283  1.00  0.00     0.146 A 
ATOM     11  O   UNL     1      18.201  37.179  29.370  1.00  0.00    -0.456 OA
ENDROOT
BRANCH   1  12
ATOM     12  C   UNL     1      18.133  39.397  28.399  1.00  0.00     0.021 A 
ATOM     13  C   UNL     1      18.141  40.780  28.649  1.00  0.00     0.016 A 
ATOM     14  C   UNL     1      17.761  41.684  27.653  1.00  0.00     0.051 A 
ATOM     15  C   UNL     1      17.356  41.221  26.395  1.00  0.00     0.157 A 
ATOM     16  C   UNL     1      17.713  38.938  27.136  1.00  0.00     0.062 A 
ATOM     17  C   UNL     1      17.329  39.841  26.138  1.00  0.00     0.158 A 
BRANCH  15  18
ATOM     18  O   UNL     1      16.978  42.125  25.404  1.00  0.00    -0.504 OA
ATOM     19  H   UNL     1      17.262  42.005  24.439  1.00  0.00     0.293 HD
ENDBRANCH  15  18
BRANCH  17  20
ATOM     20  O   UNL     1      16.920  39.347  24.899  1.00  0.00    -0.504 OA
ATOM     21  H   UNL     1      16.263  38.581  24.815  1.00  0.00     0.293 HD
ENDBRANCH  17  20
ENDBRANCH   1  12
BRANCH   6  22
ATOM     22  O   UNL     1      20.068  35.828  33.673  1.00  0.00    -0.507 OA
ATOM     23  H   UNL     1      20.057  36.707  34.165  1.00  0.00     0.293 HD
ENDBRANCH   6  22
BRANCH   8  24
ATOM     24  O   UNL     1      18.092  32.613  30.731  1.00  0.00    -0.508 OA
ATOM     25  H   UNL     1      18.618  31.843  31.127  1.00  0.00     0.293 HD
ENDBRANCH   8  24
TORSDOF 5
ENDMDL
MODEL 5
REMARK VINA RESULT:    -4.608      1.877      3.492
REMARK INTER + INTRA:          -5.734
REMARK INTER:                  -5.427
REMARK INTRA:                  -0.307
REMARK UNBOUND:                -0.318
REMARK SMILES O=c1cc(-c2ccc(O)c(O)c2)oc2cc(O)cc(O)c12
REMARK SMILES IDX 4 1 3 2 2 3 1 4 21 5 19 6 18 7 16 8 15 9 14 10 13 11 5 12
REMARK SMILES IDX 6 13 7 14 8 15 12 16 10 17 9 18 11 20 20 22 17 24
REMARK H PARENT 9 19 11 21 20 23 17 25
REMARK Flexibility Score: inf
ROOT
ATOM      1  C   UNL     1      17.706  35.681  30.245  1.00  0.00     0.138 A 
ATOM      2  C   UNL     1      17.343  36.095  28.957  1.00  0.00     0.100 A 
ATOM      3  C   UNL     1      17.756  37.344  28.490  1.00  0.00     0.197 A 
ATOM      4  O   UNL     1      17.460  37.663  27.309  1.00  0.00    -0.289 OA
ATOM      5  C   UNL     1      18.509  38.196  29.333  1.00  0.00     0.107 A 
ATOM      6  C   UNL     1      18.957  39.505  28.979  1.00  0.00     0.134 A 
ATOM      7  C   UNL     1      19.779  40.216  29.861  1.00  0.00     0.093 A 
ATOM      8  C   UNL     1      20.121  39.693  31.108  1.00  0.00     0.123 A 
ATOM      9  C   UNL     1      19.648  38.436  31.486  1.00  0.00     0.094 A 
ATOM     10  C   UNL     1      18.854  37.687  30.613  1.00  0.00     0.146 A 
ATOM     11  O   UNL     1      18.439  36.487  31.005  1.00  0.00    -0.456 OA
ENDROOT
BRANCH   1  12
ATOM     12  C   UNL     1      17.291  34.365  30.793  1.00  0.00     0.021 A 
ATOM     13  C   UNL     1      17.046  33.298  29.912  1.00  0.00     0.016 A 
ATOM     14  C   UNL     1      16.647  32.050  30.400  1.00  0.00     0.051 A 
ATOM     15  C   UNL     1      16.476  31.851  31.775  1.00  0.00     0.157 A 
ATOM     16  C   UNL     1      17.104  34.161  32.173  1.00  0.00     0.062 A 
ATOM     17  C   UNL     1      16.703  32.913  32.665  1.00  0.00     0.158 A 
BRANCH  15  18
ATOM     18  O   UNL     1      16.079  30.606  32.259  1.00  0.00    -0.504 OA
ATOM     19  H   UNL     1      15.547  30.513  33.116  1.00  0.00     0.293 HD
ENDBRANCH  15  18
BRANCH  17  20
ATOM     20  O   UNL     1      16.530  32.750  34.039  1.00  0.00    -0.504 OA
ATOM     21  H   UNL     1      16.060  33.444  34.609  1.00  0.00     0.293 HD
ENDBRANCH  17  20
ENDBRANCH   1  12
BRANCH   6  22
ATOM     22  O   UNL     1      18.608  40.157  27.791  1.00  0.00    -0.507 OA
ATOM     23  H   UNL     1      18.611  41.156  27.656  1.00  0.00     0.293 HD
ENDBRANCH   6  22
BRANCH   8  24
ATOM     24  O   UNL     1      20.929  40.435  31.967  1.00  0.00    -0.508 OA
ATOM     25  H   UNL     1      21.365  40.016  32.779  1.00  0.00     0.293 HD
ENDBRANCH   8  24
TORSDOF 5
ENDMDL
MODEL 6
REMARK VINA RESULT:    -4.476      2.564      3.972
REMARK INTER + INTRA:          -5.579
REMARK INTER:                  -5.262
REMARK INTRA:                  -0.317
REMARK UNBOUND:                -0.318
REMARK SMILES O=c1cc(-c2ccc(O)c(O)c2)oc2cc(O)cc(O)c12
REMARK SMILES IDX 4 1 3 2 2 3 1 4 21 5 19 6 18 7 16 8 15 9 14 10 13 11 5 12
REMARK SMILES IDX 6 13 7 14 8 15 12 16 10 17 9 18 11 20 20 22 17 24
REMARK H PARENT 9 19 11 21 20 23 17 25
REMARK Flexibility Score: inf
ROOT
ATOM      1  C   UNL     1      19.030  36.569  30.294  1.00  0.00     0.138 A 
ATOM      2  C   UNL     1      18.789  35.882  29.097  1.00  0.00     0.100 A 
ATOM      3  C   UNL     1      18.315  36.578  27.984  1.00  0.00     0.197 A 
ATOM      4  O   UNL     1      18.162  35.942  26.909  1.00  0.00    -0.289 OA
ATOM      5  C   UNL     1      18.048  37.964  28.082  1.00  0.00     0.107 A 
ATOM      6  C   UNL     1      17.531  38.771  27.024  1.00  0.00     0.134 A 
ATOM      7  C   UNL     1      17.400  40.153  27.210  1.00  0.00     0.093 A 
ATOM      8  C   UNL     1      17.711  40.749  28.432  1.00  0.00     0.123 A 
ATOM      9  C   UNL     1      18.170  39.963  29.489  1.00  0.00     0.094 A 
ATOM     10  C   UNL     1      18.344  38.586  29.324  1.00  0.00     0.146 A 
ATOM     11  O   UNL     1      18.800  37.877  30.351  1.00  0.00    -0.456 OA
ENDROOT
BRANCH   1  12
ATOM     12  C   UNL     1      19.530  35.879  31.509  1.00  0.00     0.021 A 
ATOM     13  C   UNL     1      19.951  34.541  31.418  1.00  0.00     0.016 A 
ATOM     14  C   UNL     1      20.419  33.864  32.547  1.00  0.00     0.051 A 
ATOM     15  C   UNL     1      20.467  34.510  33.789  1.00  0.00     0.157 A 
ATOM     16  C   UNL     1      19.568  36.518  32.763  1.00  0.00     0.062 A 
ATOM     17  C   UNL     1      20.036  35.841  33.897  1.00  0.00     0.158 A 
BRANCH  15  18
ATOM     18  O   UNL     1      20.936  33.833  34.913  1.00  0.00    -0.504 OA
ATOM     19  H   UNL     1      20.413  33.817  35.780  1.00  0.00     0.293 HD
ENDBRANCH  15  18
BRANCH  17  20
ATOM     20  O   UNL     1      20.059  36.509  35.122  1.00  0.00    -0.504 OA
ATOM     21  H   UNL     1      20.696  37.275  35.305  1.00  0.00     0.293 HD
ENDBRANCH  17  20
ENDBRANCH   1  12
BRANCH   6  22
ATOM     22  O   UNL     1      17.113  38.268  25.787  1.00  0.00    -0.507 OA
ATOM     23  H   UNL     1      16.242  38.495  25.333  1.00  0.00     0.293 HD
ENDBRANCH   6  22
BRANCH   8  24
ATOM     24  O   UNL     1      17.553  42.125  28.586  1.00  0.00    -0.508 OA
ATOM     25  H   UNL     1      18.242  42.686  29.072  1.00  0.00     0.293 HD
ENDBRANCH   8  24
TORSDOF 5
ENDMDL
MODEL 7
REMARK VINA RESULT:    -4.463      1.754      7.333
REMARK INTER + INTRA:          -5.563
REMARK INTER:                  -5.276
REMARK INTRA:                  -0.287
REMARK UNBOUND:                -0.318
REMARK SMILES O=c1cc(-c2ccc(O)c(O)c2)oc2cc(O)cc(O)c12
REMARK SMILES IDX 4 1 3 2 2 3 1 4 21 5 19 6 18 7 16 8 15 9 14 10 13 11 5 12
REMARK SMILES IDX 6 13 7 14 8 15 12 16 10 17 9 18 11 20 20 22 17 24
REMARK H PARENT 9 19 11 21 20 23 17 25
REMARK Flexibility Score: inf
ROOT
ATOM      1  C   UNL     1      17.979  36.885  29.857  1.00  0.00     0.138 A 
ATOM      2  C   UNL     1      17.426  35.907  29.019  1.00  0.00     0.100 A 
ATOM      3  C   UNL     1      17.022  34.685  29.558  1.00  0.00     0.197 A 
ATOM      4  O   UNL     1      16.479  33.849  28.790  1.00  0.00    -0.289 OA
ATOM      5  C   UNL     1      17.205  34.429  30.938  1.00  0.00     0.107 A 
ATOM      6  C   UNL     1      16.862  33.207  31.593  1.00  0.00     0.134 A 
ATOM      7  C   UNL     1      16.999  33.106  32.983  1.00  0.00     0.093 A 
ATOM      8  C   UNL     1      17.520  34.160  33.734  1.00  0.00     0.123 A 
ATOM      9  C   UNL     1      17.905  35.340  33.099  1.00  0.00     0.094 A 
ATOM     10  C   UNL     1      17.748  35.484  31.718  1.00  0.00     0.146 A 
ATOM     11  O   UNL     1      18.112  36.632  31.155  1.00  0.00    -0.456 OA
ENDROOT
BRANCH   1  12
ATOM     12  C   UNL     1      18.429  38.201  29.337  1.00  0.00     0.021 A 
ATOM     13  C   UNL     1      19.491  38.867  29.972  1.00  0.00     0.016 A 
ATOM     14  C   UNL     1      19.930  40.110  29.507  1.00  0.00     0.051 A 
ATOM     15  C   UNL     1      19.308  40.713  28.407  1.00  0.00     0.157 A 
ATOM     16  C   UNL     1      17.800  38.819  28.239  1.00  0.00     0.062 A 
ATOM     17  C   UNL     1      18.236  40.065  27.773  1.00  0.00     0.158 A 
BRANCH  15  18
ATOM     18  O   UNL     1      19.749  41.952  27.945  1.00  0.00    -0.504 OA
ATOM     19  H   UNL     1      20.684  42.290  28.142  1.00  0.00     0.293 HD
ENDBRANCH  15  18
BRANCH  17  20
ATOM     20  O   UNL     1      17.588  40.644  26.681  1.00  0.00    -0.504 OA
ATOM     21  H   UNL     1      18.096  41.116  25.942  1.00  0.00     0.293 HD
ENDBRANCH  17  20
ENDBRANCH   1  12
BRANCH   6  22
ATOM     22  O   UNL     1      16.408  32.063  30.928  1.00  0.00    -0.507 OA
ATOM     23  H   UNL     1      15.449  31.882  30.674  1.00  0.00     0.293 HD
ENDBRANCH   6  22
BRANCH   8  24
ATOM     24  O   UNL     1      17.656  34.018  35.114  1.00  0.00    -0.508 OA
ATOM     25  H   UNL     1      18.552  33.816  35.540  1.00  0.00     0.293 HD
ENDBRANCH   8  24
TORSDOF 5
ENDMDL
MODEL 8
REMARK VINA RESULT:    -4.373      2.668      3.316
REMARK INTER + INTRA:          -5.458
REMARK INTER:                  -5.161
REMARK INTRA:                  -0.296
REMARK UNBOUND:                -0.318
REMARK SMILES O=c1cc(-c2ccc(O)c(O)c2)oc2cc(O)cc(O)c12
REMARK SMILES IDX 4 1 3 2 2 3 1 4 21 5 19 6 18 7 16 8 15 9 14 10 13 11 5 12
REMARK SMILES IDX 6 13 7 14 8 15 12 16 10 17 9 18 11 20 20 22 17 24
REMARK H PARENT 9 19 11 21 20 23 17 25
REMARK Flexibility Score: inf
ROOT
ATOM      1  C   UNL     1      18.369  37.703  30.443  1.00  0.00     0.138 A 
ATOM      2  C   UNL     1      17.767  38.790  31.093  1.00  0.00     0.100 A 
ATOM      3  C   UNL     1      17.125  39.775  30.341  1.00  0.00     0.197 A 
ATOM      4  O   UNL     1      16.547  40.708  30.958  1.00  0.00    -0.289 OA
ATOM      5  C   UNL     1      17.117  39.689  28.929  1.00  0.00     0.107 A 
ATOM      6  C   UNL     1      16.523  40.651  28.057  1.00  0.00     0.134 A 
ATOM      7  C   UNL     1      16.492  40.408  26.678  1.00  0.00     0.093 A 
ATOM      8  C   UNL     1      17.083  39.268  26.134  1.00  0.00     0.123 A 
ATOM      9  C   UNL     1      17.710  38.345  26.971  1.00  0.00     0.094 A 
ATOM     10  C   UNL     1      17.728  38.543  28.354  1.00  0.00     0.146 A 
ATOM     11  O   UNL     1      18.321  37.630  29.117  1.00  0.00    -0.456 OA
ENDROOT
BRANCH   1  12
ATOM     12  C   UNL     1      19.068  36.630  31.193  1.00  0.00     0.021 A 
ATOM     13  C   UNL     1      19.490  35.475  30.511  1.00  0.00     0.016 A 
ATOM     14  C   UNL     1      20.144  34.446  31.194  1.00  0.00     0.051 A 
ATOM     15  C   UNL     1      20.378  34.548  32.570  1.00  0.00     0.157 A 
ATOM     16  C   UNL     1      19.296  36.720  32.579  1.00  0.00     0.062 A 
ATOM     17  C   UNL     1      19.949  35.690  33.266  1.00  0.00     0.158 A 
BRANCH  15  18
ATOM     18  O   UNL     1      21.032  33.521  33.248  1.00  0.00    -0.504 OA
ATOM     19  H   UNL     1      21.712  33.712  33.975  1.00  0.00     0.293 HD
ENDBRANCH  15  18
BRANCH  17  20
ATOM     20  O   UNL     1      20.158  35.817  34.639  1.00  0.00    -0.504 OA
ATOM     21  H   UNL     1      20.044  35.037  35.276  1.00  0.00     0.293 HD
ENDBRANCH  17  20
ENDBRANCH   1  12
BRANCH   6  22
ATOM     22  O   UNL     1      15.973  41.864  28.487  1.00  0.00    -0.507 OA
ATOM     23  H   UNL     1      15.607  42.581  27.882  1.00  0.00     0.293 HD
ENDBRANCH   6  22
BRANCH   8  24
ATOM     24  O   UNL     1      17.047  39.067  24.755  1.00  0.00    -0.508 OA
ATOM     25  H   UNL     1      17.350  38.195  24.339  1.00  0.00     0.293 HD
ENDBRANCH   8  24
TORSDOF 5
ENDMDL
MODEL 9
REMARK VINA RESULT:    -4.303      2.116      6.794
REMARK INTER + INTRA:          -5.375
REMARK INTER:                  -5.079
REMARK INTRA:                  -0.297
REMARK UNBOUND:                -0.318
REMARK SMILES O=c1cc(-c2ccc(O)c(O)c2)oc2cc(O)cc(O)c12
REMARK SMILES IDX 4 1 3 2 2 3 1 4 21 5 19 6 18 7 16 8 15 9 14 10 13 11 5 12
REMARK SMILES IDX 6 13 7 14 8 15 12 16 10 17 9 18 11 20 20 22 17 24
REMARK H PARENT 9 19 11 21 20 23 17 25
REMARK Flexibility Score: inf
ROOT
ATOM      1  C   UNL     1      18.433  38.130  29.302  1.00  0.00     0.138 A 
ATOM      2  C   UNL     1      18.293  36.749  29.109  1.00  0.00     0.100 A 
ATOM      3  C   UNL     1      18.657  35.869  30.130  1.00  0.00     0.197 A 
ATOM      4  O   UNL     1      18.468  34.638  29.947  1.00  0.00    -0.289 OA
ATOM      5  C   UNL     1      19.198  36.375  31.336  1.00  0.00     0.107 A 
ATOM      6  C   UNL     1      19.636  35.572  32.433  1.00  0.00     0.134 A 
ATOM      7  C   UNL     1      20.062  36.191  33.615  1.00  0.00     0.093 A 
ATOM      8  C   UNL     1      20.121  37.581  33.720  1.00  0.00     0.123 A 
ATOM      9  C   UNL     1      19.743  38.375  32.637  1.00  0.00     0.094 A 
ATOM     10  C   UNL     1      19.280  37.788  31.457  1.00  0.00     0.146 A 
ATOM     11  O   UNL     1      18.913  38.581  30.455  1.00  0.00    -0.456 OA
ENDROOT
BRANCH   1  12
ATOM     12  C   UNL     1      18.064  39.110  28.250  1.00  0.00     0.021 A 
ATOM     13  C   UNL     1      18.097  40.484  28.545  1.00  0.00     0.016 A 
ATOM     14  C   UNL     1      17.748  41.428  27.575  1.00  0.00     0.051 A 
ATOM     15  C   UNL     1      17.350  41.015  26.298  1.00  0.00     0.157 A 
ATOM     16  C   UNL     1      17.650  38.701  26.967  1.00  0.00     0.062 A 
ATOM     17  C   UNL     1      17.298  39.645  25.995  1.00  0.00     0.158 A 
BRANCH  15  18
ATOM     18  O   UNL     1      17.004  41.959  25.332  1.00  0.00    -0.504 OA
ATOM     19  H   UNL     1      17.661  42.662  25.017  1.00  0.00     0.293 HD
ENDBRANCH  15  18
BRANCH  17  20
ATOM     20  O   UNL     1      16.895  39.201  24.735  1.00  0.00    -0.504 OA
ATOM     21  H   UNL     1      15.952  39.338  24.392  1.00  0.00     0.293 HD
ENDBRANCH  17  20
ENDBRANCH   1  12
BRANCH   6  22
ATOM     22  O   UNL     1      19.694  34.175  32.407  1.00  0.00    -0.507 OA
ATOM     23  H   UNL     1      20.378  33.614  32.890  1.00  0.00     0.293 HD
ENDBRANCH   6  22
BRANCH   8  24
ATOM     24  O   UNL     1      20.565  38.162  34.906  1.00  0.00    -0.508 OA
ATOM     25  H   UNL     1      19.926  38.382  35.660  1.00  0.00     0.293 HD
ENDBRANCH   8  24
TORSDOF 5
ENDMDL
