MODEL 1
REMARK VINA RESULT:    -5.055      0.000      0.000
REMARK INTER + INTRA:          -5.439
REMARK INTER:                  -5.350
REMARK INTRA:                  -0.089
REMARK UNBOUND:                -0.089
REMARK SMILES C=C(C)[C@@H]1CC=C(C)C(=O)C1
REMARK SMILES IDX 8 1 7 2 6 3 5 4 4 5 11 6 9 7 10 8 2 9 1 10 3 11
REMARK H PARENT
REMARK Flexibility Score: inf
ROOT
ATOM      1  C   UNL     1      -3.254 -17.451  -6.126  1.00  0.00     0.048 C 
ATOM      2  C   UNL     1      -3.673 -16.097  -6.627  1.00  0.00    -0.012 C 
ATOM      3  C   UNL     1      -4.130 -15.960  -7.885  1.00  0.00    -0.019 C 
ATOM      4  C   UNL     1      -4.580 -14.632  -8.430  1.00  0.00     0.036 C 
ATOM      5  C   UNL     1      -3.769 -13.475  -7.815  1.00  0.00     0.025 C 
ATOM      6  C   UNL     1      -3.845 -13.530  -6.277  1.00  0.00     0.089 C 
ATOM      7  C   UNL     1      -3.467 -14.897  -5.778  1.00  0.00     0.158 C 
ATOM      8  O   UNL     1      -3.005 -15.019  -4.611  1.00  0.00    -0.295 OA
ENDROOT
BRANCH   5   9
ATOM      9  C   UNL     1      -4.222 -12.124  -8.351  1.00  0.00    -0.077 C 
ATOM     10  C   UNL     1      -3.419 -11.373  -9.125  1.00  0.00     0.008 C 
ATOM     11  C   UNL     1      -5.595 -11.600  -8.020  1.00  0.00     0.039 C 
ENDBRANCH   5   9
TORSDOF 1
ENDMDL
MODEL 2
REMARK VINA RESULT:    -4.637      1.635      2.242
REMARK INTER + INTRA:          -4.996
REMARK INTER:                  -4.900
REMARK INTRA:                  -0.096
REMARK UNBOUND:                -0.089
REMARK SMILES C=C(C)[C@@H]1CC=C(C)C(=O)C1
REMARK SMILES IDX 8 1 7 2 6 3 5 4 4 5 11 6 9 7 10 8 2 9 1 10 3 11
REMARK H PARENT
REMARK Flexibility Score: inf
ROOT
ATOM      1  C   UNL     1      -3.485 -17.290  -6.009  1.00  0.00     0.048 C 
ATOM      2  C   UNL     1      -3.332 -15.913  -6.595  1.00  0.00    -0.012 C 
ATOM      3  C   UNL     1      -2.710 -14.951  -5.891  1.00  0.00    -0.019 C 
ATOM      4  C   UNL     1      -2.512 -13.563  -6.438  1.00  0.00     0.036 C 
ATOM      5  C   UNL     1      -3.678 -13.159  -7.361  1.00  0.00     0.025 C 
ATOM      6  C   UNL     1      -3.862 -14.205  -8.477  1.00  0.00     0.089 C 
ATOM      7  C   UNL     1      -3.972 -15.586  -7.894  1.00  0.00     0.158 C 
ATOM      8  O   UNL     1      -4.587 -16.479  -8.539  1.00  0.00    -0.295 OA
ENDROOT
BRANCH   5   9
ATOM      9  C   UNL     1      -3.486 -11.759  -7.929  1.00  0.00    -0.077 C 
ATOM     10  C   UNL     1      -2.609 -10.898  -7.387  1.00  0.00     0.008 C 
ATOM     11  C   UNL     1      -4.288 -11.312  -9.125  1.00  0.00     0.039 C 
ENDBRANCH   5   9
TORSDOF 1
ENDMDL
MODEL 3
REMARK VINA RESULT:    -4.599      1.784      4.437
REMARK INTER + INTRA:          -4.956
REMARK INTER:                  -4.862
REMARK INTRA:                  -0.094
REMARK UNBOUND:                -0.089
REMARK SMILES C=C(C)[C@@H]1CC=C(C)C(=O)C1
REMARK SMILES IDX 8 1 7 2 6 3 5 4 4 5 11 6 9 7 10 8 2 9 1 10 3 11
REMARK H PARENT
REMARK Flexibility Score: inf
ROOT
ATOM      1  C   UNL     1      -4.199 -11.420  -9.125  1.00  0.00     0.048 C 
ATOM      2  C   UNL     1      -3.807 -12.566  -8.232  1.00  0.00    -0.012 C 
ATOM      3  C   UNL     1      -2.645 -13.210  -8.441  1.00  0.00    -0.019 C 
ATOM      4  C   UNL     1      -2.195 -14.349  -7.567  1.00  0.00     0.036 C 
ATOM      5  C   UNL     1      -3.399 -15.158  -7.046  1.00  0.00     0.025 C 
ATOM      6  C   UNL     1      -4.395 -14.229  -6.328  1.00  0.00     0.089 C 
ATOM      7  C   UNL     1      -4.755 -13.061  -7.203  1.00  0.00     0.158 C 
ATOM      8  O   UNL     1      -5.861 -12.480  -7.030  1.00  0.00    -0.295 OA
ENDROOT
BRANCH   5   9
ATOM      9  C   UNL     1      -2.959 -16.309  -6.152  1.00  0.00    -0.077 C 
ATOM     10  C   UNL     1      -1.867 -16.213  -5.374  1.00  0.00     0.008 C 
ATOM     11  C   UNL     1      -3.751 -17.591  -6.124  1.00  0.00     0.039 C 
ENDBRANCH   5   9
TORSDOF 1
ENDMDL
MODEL 4
REMARK VINA RESULT:    -4.566      1.767      4.335
REMARK INTER + INTRA:          -4.922
REMARK INTER:                  -4.824
REMARK INTRA:                  -0.098
REMARK UNBOUND:                -0.089
REMARK SMILES C=C(C)[C@@H]1CC=C(C)C(=O)C1
REMARK SMILES IDX 8 1 7 2 6 3 5 4 4 5 11 6 9 7 10 8 2 9 1 10 3 11
REMARK H PARENT
REMARK Flexibility Score: inf
ROOT
ATOM      1  C   UNL     1      -5.641 -11.389  -8.103  1.00  0.00     0.048 C 
ATOM      2  C   UNL     1      -4.899 -12.644  -7.732  1.00  0.00    -0.012 C 
ATOM      3  C   UNL     1      -5.562 -13.811  -7.638  1.00  0.00    -0.019 C 
ATOM      4  C   UNL     1      -4.865 -15.098  -7.290  1.00  0.00     0.036 C 
ATOM      5  C   UNL     1      -3.681 -14.848  -6.336  1.00  0.00     0.025 C 
ATOM      6  C   UNL     1      -2.718 -13.810  -6.942  1.00  0.00     0.089 C 
ATOM      7  C   UNL     1      -3.466 -12.572  -7.353  1.00  0.00     0.158 C 
ATOM      8  O   UNL     1      -2.852 -11.472  -7.406  1.00  0.00    -0.295 OA
ENDROOT
BRANCH   5   9
ATOM      9  C   UNL     1      -2.961 -16.142  -5.982  1.00  0.00    -0.077 C 
ATOM     10  C   UNL     1      -1.652 -16.154  -5.673  1.00  0.00     0.008 C 
ATOM     11  C   UNL     1      -3.714 -17.448  -5.974  1.00  0.00     0.039 C 
ENDBRANCH   5   9
TORSDOF 1
ENDMDL
MODEL 5
REMARK VINA RESULT:    -4.254      1.203      1.642
REMARK INTER + INTRA:          -4.592
REMARK INTER:                  -4.495
REMARK INTRA:                  -0.096
REMARK UNBOUND:                -0.089
REMARK SMILES C=C(C)[C@@H]1CC=C(C)C(=O)C1
REMARK SMILES IDX 8 1 7 2 6 3 5 4 4 5 11 6 9 7 10 8 2 9 1 10 3 11
REMARK H PARENT
REMARK Flexibility Score: inf
ROOT
ATOM      1  C   UNL     1      -3.291 -17.087  -5.895  1.00  0.00     0.048 C 
ATOM      2  C   UNL     1      -3.662 -15.695  -6.327  1.00  0.00    -0.012 C 
ATOM      3  C   UNL     1      -4.956 -15.367  -6.489  1.00  0.00    -0.019 C 
ATOM      4  C   UNL     1      -5.384 -13.984  -6.901  1.00  0.00     0.036 C 
ATOM      5  C   UNL     1      -4.341 -13.335  -7.832  1.00  0.00     0.025 C 
ATOM      6  C   UNL     1      -2.953 -13.342  -7.164  1.00  0.00     0.089 C 
ATOM      7  C   UNL     1      -2.599 -14.725  -6.693  1.00  0.00     0.158 C 
ATOM      8  O   UNL     1      -1.385 -15.043  -6.576  1.00  0.00    -0.295 OA
ENDROOT
BRANCH   5   9
ATOM      9  C   UNL     1      -4.757 -11.931  -8.249  1.00  0.00    -0.077 C 
ATOM     10  C   UNL     1      -5.926 -11.400  -7.853  1.00  0.00     0.008 C 
ATOM     11  C   UNL     1      -3.851 -11.104  -9.125  1.00  0.00     0.039 C 
ENDBRANCH   5   9
TORSDOF 1
ENDMDL
MODEL 6
REMARK VINA RESULT:    -2.877      1.205      1.488
REMARK INTER + INTRA:          -3.134
REMARK INTER:                  -3.037
REMARK INTRA:                  -0.097
REMARK UNBOUND:                -0.089
REMARK SMILES C=C(C)[C@@H]1CC=C(C)C(=O)C1
REMARK SMILES IDX 8 1 7 2 6 3 5 4 4 5 11 6 9 7 10 8 2 9 1 10 3 11
REMARK H PARENT
REMARK Flexibility Score: inf
ROOT
ATOM      1  C   UNL     1      -3.964 -18.457  -5.636  1.00  0.00     0.048 C 
ATOM      2  C   UNL     1      -3.934 -17.044  -6.151  1.00  0.00    -0.012 C 
ATOM      3  C   UNL     1      -4.112 -16.806  -7.463  1.00  0.00    -0.019 C 
ATOM      4  C   UNL     1      -4.111 -15.411  -8.028  1.00  0.00     0.036 C 
ATOM      5  C   UNL     1      -3.158 -14.493  -7.238  1.00  0.00     0.025 C 
ATOM      6  C   UNL     1      -3.516 -14.515  -5.740  1.00  0.00     0.089 C 
ATOM      7  C   UNL     1      -3.588 -15.929  -5.234  1.00  0.00     0.158 C 
ATOM      8  O   UNL     1      -3.386 -16.155  -4.010  1.00  0.00    -0.295 OA
ENDROOT
BRANCH   5   9
ATOM      9  C   UNL     1      -3.154 -13.075  -7.794  1.00  0.00    -0.077 C 
ATOM     10  C   UNL     1      -2.557 -12.066  -7.135  1.00  0.00     0.008 C 
ATOM     11  C   UNL     1      -3.828 -12.777  -9.108  1.00  0.00     0.039 C 
ENDBRANCH   5   9
TORSDOF 1
ENDMDL
