MODEL 1
REMARK VINA RESULT:    -2.223      0.000      0.000
REMARK INTER + INTRA:          -4.787
REMARK INTER:                  -4.172
REMARK INTRA:                  -0.615
REMARK UNBOUND:                -0.615
REMARK SMILES O=C([O-])CCCCCCCCCCCCCCC(=O)[O-]
REMARK SMILES IDX 10 1 9 2 8 3 7 4 6 5 5 6 4 7 2 8 1 9 3 10 11 11 12 12 13 13
REMARK SMILES IDX 14 14 15 15 16 16 17 17 18 18 19 19 20 20
REMARK H PARENT
REMARK Flexibility Score: inf
ROOT
ATOM      1  C   UNL     1      -7.449 -21.093  15.240  1.00  0.00     0.000 C 
ENDROOT
BRANCH   1   2
ATOM      2  C   UNL     1      -8.974 -20.959  15.121  1.00  0.00     0.000 C 
BRANCH   2   3
ATOM      3  C   UNL     1      -9.667 -20.872  16.490  1.00  0.00     0.000 C 
BRANCH   3   4
ATOM      4  C   UNL     1     -10.795 -19.827  16.514  1.00  0.00     0.000 C 
BRANCH   4   5
ATOM      5  C   UNL     1     -11.120 -19.360  17.949  1.00  0.00     0.000 C 
BRANCH   5   6
ATOM      6  C   UNL     1     -10.578 -20.292  19.047  1.00  0.00     0.006 C 
BRANCH   6   7
ATOM      7  C   UNL     1     -11.081 -19.954  20.464  1.00  0.00     0.053 C 
BRANCH   7   8
ATOM      8  C   UNL     1     -10.211 -20.507  21.554  1.00  0.00     0.041 C 
ATOM      9  O   UNL     1      -9.202 -21.208  21.276  1.00  0.00    -0.550 OA
ATOM     10  O   UNL     1     -10.571 -20.325  22.882  1.00  0.00    -0.550 OA
ENDBRANCH   7   8
ENDBRANCH   6   7
ENDBRANCH   5   6
ENDBRANCH   4   5
ENDBRANCH   3   4
ENDBRANCH   2   3
ENDBRANCH   1   2
BRANCH   1  11
ATOM     11  C   UNL     1      -7.066 -22.373  15.990  1.00  0.00     0.000 C 
BRANCH  11  12
ATOM     12  C   UNL     1      -5.972 -22.093  17.032  1.00  0.00     0.000 C 
BRANCH  12  13
ATOM     13  C   UNL     1      -4.684 -22.888  16.764  1.00  0.00     0.000 C 
BRANCH  13  14
ATOM     14  C   UNL     1      -3.648 -22.079  15.964  1.00  0.00     0.000 C 
BRANCH  14  15
ATOM     15  C   UNL     1      -2.365 -22.879  15.671  1.00  0.00     0.000 C 
BRANCH  15  16
ATOM     16  C   UNL     1      -1.122 -22.420  16.457  1.00  0.00     0.006 C 
BRANCH  16  17
ATOM     17  C   UNL     1       0.194 -22.757  15.744  1.00  0.00     0.053 C 
BRANCH  17  18
ATOM     18  C   UNL     1       1.326 -21.988  16.347  1.00  0.00     0.041 C 
ATOM     19  O   UNL     1       1.095 -21.001  17.094  1.00  0.00    -0.550 OA
ATOM     20  O   UNL     1       2.638 -22.330  16.046  1.00  0.00    -0.550 OA
ENDBRANCH  17  18
ENDBRANCH  16  17
ENDBRANCH  15  16
ENDBRANCH  14  15
ENDBRANCH  13  14
ENDBRANCH  12  13
ENDBRANCH  11  12
ENDBRANCH   1  11
TORSDOF 15
ENDMDL
MODEL 2
REMARK VINA RESULT:    -2.198      1.126      9.967
REMARK INTER + INTRA:          -4.741
REMARK INTER:                  -4.052
REMARK INTRA:                  -0.688
REMARK UNBOUND:                -0.615
REMARK SMILES O=C([O-])CCCCCCCCCCCCCCC(=O)[O-]
REMARK SMILES IDX 10 1 9 2 8 3 7 4 6 5 5 6 4 7 2 8 1 9 3 10 11 11 12 12 13 13
REMARK SMILES IDX 14 14 15 15 16 16 17 17 18 18 19 19 20 20
REMARK H PARENT
REMARK Flexibility Score: inf
ROOT
ATOM      1  C   UNL     1      -6.529 -22.230  17.075  1.00  0.00     0.000 C 
ENDROOT
BRANCH   1   2
ATOM      2  C   UNL     1      -5.027 -22.037  17.333  1.00  0.00     0.000 C 
BRANCH   2   3
ATOM      3  C   UNL     1      -4.156 -22.942  16.448  1.00  0.00     0.000 C 
BRANCH   3   4
ATOM      4  C   UNL     1      -2.906 -22.220  15.919  1.00  0.00     0.000 C 
BRANCH   4   5
ATOM      5  C   UNL     1      -1.641 -23.099  16.026  1.00  0.00     0.000 C 
BRANCH   5   6
ATOM      6  C   UNL     1      -0.324 -22.303  16.021  1.00  0.00     0.006 C 
BRANCH   6   7
ATOM      7  C   UNL     1       0.907 -23.125  15.593  1.00  0.00     0.053 C 
BRANCH   7   8
ATOM      8  C   UNL     1       2.202 -22.385  15.750  1.00  0.00     0.041 C 
ATOM      9  O   UNL     1       3.199 -22.677  15.037  1.00  0.00    -0.550 OA
ATOM     10  O   UNL     1       2.335 -21.433  16.753  1.00  0.00    -0.550 OA
ENDBRANCH   7   8
ENDBRANCH   6   7
ENDBRANCH   5   6
ENDBRANCH   4   5
ENDBRANCH   3   4
ENDBRANCH   2   3
ENDBRANCH   1   2
BRANCH   1  11
ATOM     11  C   UNL     1      -6.920 -21.707  15.688  1.00  0.00     0.000 C 
BRANCH  11  12
ATOM     12  C   UNL     1      -8.445 -21.711  15.508  1.00  0.00     0.000 C 
BRANCH  12  13
ATOM     13  C   UNL     1      -8.947 -20.509  14.693  1.00  0.00     0.000 C 
BRANCH  13  14
ATOM     14  C   UNL     1     -10.421 -20.173  14.983  1.00  0.00     0.000 C 
BRANCH  14  15
ATOM     15  C   UNL     1     -10.965 -20.898  16.227  1.00  0.00     0.000 C 
BRANCH  15  16
ATOM     16  C   UNL     1     -10.838 -20.109  17.544  1.00  0.00     0.006 C 
BRANCH  16  17
ATOM     17  C   UNL     1     -10.465 -20.997  18.739  1.00  0.00     0.053 C 
BRANCH  17  18
ATOM     18  C   UNL     1     -10.135 -20.156  19.931  1.00  0.00     0.041 C 
ATOM     19  O   UNL     1      -9.983 -18.912  19.807  1.00  0.00    -0.550 OA
ATOM     20  O   UNL     1      -9.949 -20.751  21.172  1.00  0.00    -0.550 OA
ENDBRANCH  17  18
ENDBRANCH  16  17
ENDBRANCH  15  16
ENDBRANCH  14  15
ENDBRANCH  13  14
ENDBRANCH  12  13
ENDBRANCH  11  12
ENDBRANCH   1  11
TORSDOF 15
ENDMDL
MODEL 3
REMARK VINA RESULT:    -1.995      1.521      9.777
REMARK INTER + INTRA:          -4.360
REMARK INTER:                  -3.718
REMARK INTRA:                  -0.643
REMARK UNBOUND:                -0.615
REMARK SMILES O=C([O-])CCCCCCCCCCCCCCC(=O)[O-]
REMARK SMILES IDX 10 1 9 2 8 3 7 4 6 5 5 6 4 7 2 8 1 9 3 10 11 11 12 12 13 13
REMARK SMILES IDX 14 14 15 15 16 16 17 17 18 18 19 19 20 20
REMARK H PARENT
REMARK Flexibility Score: inf
ROOT
ATOM      1  C   UNL     1      -6.899 -23.105  17.201  1.00  0.00     0.000 C 
ENDROOT
BRANCH   1   2
ATOM      2  C   UNL     1      -5.637 -22.276  16.920  1.00  0.00     0.000 C 
BRANCH   2   3
ATOM      3  C   UNL     1      -4.356 -23.125  16.951  1.00  0.00     0.000 C 
BRANCH   3   4
ATOM      4  C   UNL     1      -3.260 -22.570  16.025  1.00  0.00     0.000 C 
BRANCH   4   5
ATOM      5  C   UNL     1      -1.864 -23.122  16.386  1.00  0.00     0.000 C 
BRANCH   5   6
ATOM      6  C   UNL     1      -0.718 -22.511  15.560  1.00  0.00     0.006 C 
BRANCH   6   7
ATOM      7  C   UNL     1       0.674 -23.076  15.903  1.00  0.00     0.053 C 
BRANCH   7   8
ATOM      8  C   UNL     1       1.659 -22.023  16.319  1.00  0.00     0.041 C 
ATOM      9  O   UNL     1       2.870 -22.110  15.985  1.00  0.00    -0.550 OA
ATOM     10  O   UNL     1       1.253 -20.992  17.155  1.00  0.00    -0.550 OA
ENDBRANCH   7   8
ENDBRANCH   6   7
ENDBRANCH   5   6
ENDBRANCH   4   5
ENDBRANCH   3   4
ENDBRANCH   2   3
ENDBRANCH   1   2
BRANCH   1  11
ATOM     11  C   UNL     1      -8.165 -22.258  17.022  1.00  0.00     0.000 C 
BRANCH  11  12
ATOM     12  C   UNL     1      -8.893 -22.068  18.360  1.00  0.00     0.000 C 
BRANCH  12  13
ATOM     13  C   UNL     1      -9.790 -20.821  18.372  1.00  0.00     0.000 C 
BRANCH  13  14
ATOM     14  C   UNL     1      -9.861 -20.157  19.759  1.00  0.00     0.000 C 
BRANCH  14  15
ATOM     15  C   UNL     1     -10.789 -20.907  20.732  1.00  0.00     0.000 C 
BRANCH  15  16
ATOM     16  C   UNL     1     -10.498 -20.660  22.224  1.00  0.00     0.006 C 
BRANCH  16  17
ATOM     17  C   UNL     1      -8.997 -20.657  22.548  1.00  0.00     0.053 C 
BRANCH  17  18
ATOM     18  C   UNL     1      -8.505 -22.055  22.754  1.00  0.00     0.041 C 
ATOM     19  O   UNL     1      -8.581 -22.592  23.891  1.00  0.00    -0.550 OA
ATOM     20  O   UNL     1      -7.919 -22.748  21.704  1.00  0.00    -0.550 OA
ENDBRANCH  17  18
ENDBRANCH  16  17
ENDBRANCH  15  16
ENDBRANCH  14  15
ENDBRANCH  13  14
ENDBRANCH  12  13
ENDBRANCH  11  12
ENDBRANCH   1  11
TORSDOF 15
ENDMDL
MODEL 4
REMARK VINA RESULT:    -1.974      3.018     12.175
REMARK INTER + INTRA:          -4.321
REMARK INTER:                  -3.956
REMARK INTRA:                  -0.365
REMARK UNBOUND:                -0.615
REMARK SMILES O=C([O-])CCCCCCCCCCCCCCC(=O)[O-]
REMARK SMILES IDX 10 1 9 2 8 3 7 4 6 5 5 6 4 7 2 8 1 9 3 10 11 11 12 12 13 13
REMARK SMILES IDX 14 14 15 15 16 16 17 17 18 18 19 19 20 20
REMARK H PARENT
REMARK Flexibility Score: inf
ROOT
ATOM      1  C   UNL     1      -1.767 -23.068  16.420  1.00  0.00     0.000 C 
ENDROOT
BRANCH   1   2
ATOM      2  C   UNL     1      -0.531 -22.253  16.013  1.00  0.00     0.000 C 
BRANCH   2   3
ATOM      3  C   UNL     1       0.726 -23.125  15.862  1.00  0.00     0.000 C 
BRANCH   3   4
ATOM      4  C   UNL     1       2.000 -22.289  15.650  1.00  0.00     0.000 C 
BRANCH   4   5
ATOM      5  C   UNL     1       2.980 -22.969  14.669  1.00  0.00     0.000 C 
BRANCH   5   6
ATOM      6  C   UNL     1       4.424 -23.064  15.194  1.00  0.00     0.006 C 
BRANCH   6   7
ATOM      7  C   UNL     1       5.495 -23.092  14.087  1.00  0.00     0.053 C 
BRANCH   7   8
ATOM      8  C   UNL     1       6.886 -22.859  14.598  1.00  0.00     0.041 C 
ATOM      9  O   UNL     1       7.079 -22.465  15.778  1.00  0.00    -0.550 OA
ATOM     10  O   UNL     1       7.968 -22.990  13.736  1.00  0.00    -0.550 OA
ENDBRANCH   7   8
ENDBRANCH   6   7
ENDBRANCH   5   6
ENDBRANCH   4   5
ENDBRANCH   3   4
ENDBRANCH   2   3
ENDBRANCH   1   2
BRANCH   1  11
ATOM     11  C   UNL     1      -3.045 -22.463  15.827  1.00  0.00     0.000 C 
BRANCH  11  12
ATOM     12  C   UNL     1      -4.282 -22.903  16.624  1.00  0.00     0.000 C 
BRANCH  12  13
ATOM     13  C   UNL     1      -5.488 -21.977  16.401  1.00  0.00     0.000 C 
BRANCH  13  14
ATOM     14  C   UNL     1      -6.828 -22.666  16.713  1.00  0.00     0.000 C 
BRANCH  14  15
ATOM     15  C   UNL     1      -7.110 -22.766  18.223  1.00  0.00     0.000 C 
BRANCH  15  16
ATOM     16  C   UNL     1      -8.368 -22.015  18.698  1.00  0.00     0.006 C 
BRANCH  16  17
ATOM     17  C   UNL     1      -9.482 -21.988  17.641  1.00  0.00     0.053 C 
BRANCH  17  18
ATOM     18  C   UNL     1     -10.455 -20.892  17.938  1.00  0.00     0.041 C 
ATOM     19  O   UNL     1     -11.092 -20.886  19.025  1.00  0.00    -0.550 OA
ATOM     20  O   UNL     1     -10.697 -19.901  16.995  1.00  0.00    -0.550 OA
ENDBRANCH  17  18
ENDBRANCH  16  17
ENDBRANCH  15  16
ENDBRANCH  14  15
ENDBRANCH  13  14
ENDBRANCH  12  13
ENDBRANCH  11  12
ENDBRANCH   1  11
TORSDOF 15
ENDMDL
MODEL 5
REMARK VINA RESULT:    -1.939      7.976     15.118
REMARK INTER + INTRA:          -4.254
REMARK INTER:                  -3.567
REMARK INTRA:                  -0.687
REMARK UNBOUND:                -0.615
REMARK SMILES O=C([O-])CCCCCCCCCCCCCCC(=O)[O-]
REMARK SMILES IDX 10 1 9 2 8 3 7 4 6 5 5 6 4 7 2 8 1 9 3 10 11 11 12 12 13 13
REMARK SMILES IDX 14 14 15 15 16 16 17 17 18 18 19 19 20 20
REMARK H PARENT
REMARK Flexibility Score: inf
ROOT
ATOM      1  C   UNL     1       8.260 -21.585  16.628  1.00  0.00     0.000 C 
ENDROOT
BRANCH   1   2
ATOM      2  C   UNL     1       8.991 -22.749  15.945  1.00  0.00     0.000 C 
BRANCH   2   3
ATOM      3  C   UNL     1       8.734 -22.800  14.431  1.00  0.00     0.000 C 
BRANCH   3   4
ATOM      4  C   UNL     1       7.824 -21.656  13.950  1.00  0.00     0.000 C 
BRANCH   4   5
ATOM      5  C   UNL     1       8.635 -20.468  13.391  1.00  0.00     0.000 C 
BRANCH   5   6
ATOM      6  C   UNL     1       9.033 -20.624  11.912  1.00  0.00     0.006 C 
BRANCH   6   7
ATOM      7  C   UNL     1       7.865 -21.010  10.984  1.00  0.00     0.053 C 
BRANCH   7   8
ATOM      8  C   UNL     1       7.723 -20.105   9.796  1.00  0.00     0.041 C 
ATOM      9  O   UNL     1       8.451 -20.259   8.780  1.00  0.00    -0.550 OA
ATOM     10  O   UNL     1       6.846 -19.030   9.850  1.00  0.00    -0.550 OA
ENDBRANCH   7   8
ENDBRANCH   6   7
ENDBRANCH   5   6
ENDBRANCH   4   5
ENDBRANCH   3   4
ENDBRANCH   2   3
ENDBRANCH   1   2
BRANCH   1  11
ATOM     11  C   UNL     1       7.490 -22.066  17.863  1.00  0.00     0.000 C 
BRANCH  11  12
ATOM     12  C   UNL     1       6.170 -22.740  17.460  1.00  0.00     0.000 C 
BRANCH  12  13
ATOM     13  C   UNL     1       5.434 -21.978  16.346  1.00  0.00     0.000 C 
BRANCH  13  14
ATOM     14  C   UNL     1       4.574 -22.902  15.467  1.00  0.00     0.000 C 
BRANCH  14  15
ATOM     15  C   UNL     1       3.148 -23.090  16.015  1.00  0.00     0.000 C 
BRANCH  15  16
ATOM     16  C   UNL     1       2.022 -22.788  15.009  1.00  0.00     0.006 C 
BRANCH  16  17
ATOM     17  C   UNL     1       0.627 -23.125  15.554  1.00  0.00     0.053 C 
BRANCH  17  18
ATOM     18  C   UNL     1       0.105 -21.994  16.383  1.00  0.00     0.041 C 
ATOM     19  O   UNL     1      -1.119 -21.698  16.353  1.00  0.00    -0.550 OA
ATOM     20  O   UNL     1       0.977 -21.235  17.153  1.00  0.00    -0.550 OA
ENDBRANCH  17  18
ENDBRANCH  16  17
ENDBRANCH  15  16
ENDBRANCH  14  15
ENDBRANCH  13  14
ENDBRANCH  12  13
ENDBRANCH  11  12
ENDBRANCH   1  11
TORSDOF 15
ENDMDL
MODEL 6
REMARK VINA RESULT:    -1.930      3.191      5.952
REMARK INTER + INTRA:          -4.237
REMARK INTER:                  -3.735
REMARK INTRA:                  -0.502
REMARK UNBOUND:                -0.615
REMARK SMILES O=C([O-])CCCCCCCCCCCCCCC(=O)[O-]
REMARK SMILES IDX 10 1 9 2 8 3 7 4 6 5 5 6 4 7 2 8 1 9 3 10 11 11 12 12 13 13
REMARK SMILES IDX 14 14 15 15 16 16 17 17 18 18 19 19 20 20
REMARK H PARENT
REMARK Flexibility Score: inf
ROOT
ATOM      1  C   UNL     1      -1.589 -22.258  15.718  1.00  0.00     0.000 C 
ENDROOT
BRANCH   1   2
ATOM      2  C   UNL     1      -2.699 -23.113  16.347  1.00  0.00     0.000 C 
BRANCH   2   3
ATOM      3  C   UNL     1      -4.106 -22.613  15.980  1.00  0.00     0.000 C 
BRANCH   3   4
ATOM      4  C   UNL     1      -5.176 -23.082  16.981  1.00  0.00     0.000 C 
BRANCH   4   5
ATOM      5  C   UNL     1      -6.582 -23.125  16.345  1.00  0.00     0.000 C 
BRANCH   5   6
ATOM      6  C   UNL     1      -7.714 -22.718  17.306  1.00  0.00     0.006 C 
BRANCH   6   7
ATOM      7  C   UNL     1      -7.245 -22.434  18.746  1.00  0.00     0.053 C 
BRANCH   7   8
ATOM      8  C   UNL     1      -8.292 -22.724  19.782  1.00  0.00     0.041 C 
ATOM      9  O   UNL     1      -9.515 -22.600  19.510  1.00  0.00    -0.550 OA
ATOM     10  O   UNL     1      -7.908 -23.042  21.078  1.00  0.00    -0.550 OA
ENDBRANCH   7   8
ENDBRANCH   6   7
ENDBRANCH   5   6
ENDBRANCH   4   5
ENDBRANCH   3   4
ENDBRANCH   2   3
ENDBRANCH   1   2
BRANCH   1  11
ATOM     11  C   UNL     1      -0.264 -22.440  16.468  1.00  0.00     0.000 C 
BRANCH  11  12
ATOM     12  C   UNL     1       0.835 -22.953  15.526  1.00  0.00     0.000 C 
BRANCH  12  13
ATOM     13  C   UNL     1       2.203 -22.314  15.811  1.00  0.00     0.000 C 
BRANCH  13  14
ATOM     14  C   UNL     1       3.347 -22.999  15.041  1.00  0.00     0.000 C 
BRANCH  14  15
ATOM     15  C   UNL     1       4.657 -23.058  15.847  1.00  0.00     0.000 C 
BRANCH  15  16
ATOM     16  C   UNL     1       4.869 -21.888  16.826  1.00  0.00     0.006 C 
BRANCH  16  17
ATOM     17  C   UNL     1       6.073 -22.096  17.755  1.00  0.00     0.053 C 
BRANCH  17  18
ATOM     18  C   UNL     1       7.347 -22.074  16.971  1.00  0.00     0.041 C 
ATOM     19  O   UNL     1       8.176 -23.015  17.082  1.00  0.00    -0.550 OA
ATOM     20  O   UNL     1       7.641 -20.991  16.153  1.00  0.00    -0.550 OA
ENDBRANCH  17  18
ENDBRANCH  16  17
ENDBRANCH  15  16
ENDBRANCH  14  15
ENDBRANCH  13  14
ENDBRANCH  12  13
ENDBRANCH  11  12
ENDBRANCH   1  11
TORSDOF 15
ENDMDL
MODEL 7
REMARK VINA RESULT:    -1.846      1.585      2.246
REMARK INTER + INTRA:          -4.081
REMARK INTER:                  -3.578
REMARK INTRA:                  -0.503
REMARK UNBOUND:                -0.615
REMARK SMILES O=C([O-])CCCCCCCCCCCCCCC(=O)[O-]
REMARK SMILES IDX 10 1 9 2 8 3 7 4 6 5 5 6 4 7 2 8 1 9 3 10 11 11 12 12 13 13
REMARK SMILES IDX 14 14 15 15 16 16 17 17 18 18 19 19 20 20
REMARK H PARENT
REMARK Flexibility Score: inf
ROOT
ATOM      1  C   UNL     1      -7.836 -22.336  16.660  1.00  0.00     0.000 C 
ENDROOT
BRANCH   1   2
ATOM      2  C   UNL     1      -8.087 -21.785  18.072  1.00  0.00     0.000 C 
BRANCH   2   3
ATOM      3  C   UNL     1      -9.452 -21.091  18.200  1.00  0.00     0.000 C 
BRANCH   3   4
ATOM      4  C   UNL     1      -9.574 -20.264  19.491  1.00  0.00     0.000 C 
BRANCH   4   5
ATOM      5  C   UNL     1     -10.560 -20.899  20.494  1.00  0.00     0.000 C 
BRANCH   5   6
ATOM      6  C   UNL     1     -10.105 -22.266  21.038  1.00  0.00     0.006 C 
BRANCH   6   7
ATOM      7  C   UNL     1     -10.337 -22.450  22.550  1.00  0.00     0.053 C 
BRANCH   7   8
ATOM      8  C   UNL     1      -9.138 -22.106  23.383  1.00  0.00     0.041 C 
ATOM      9  O   UNL     1      -8.738 -20.915  23.473  1.00  0.00    -0.550 OA
ATOM     10  O   UNL     1      -8.405 -23.120  23.987  1.00  0.00    -0.550 OA
ENDBRANCH   7   8
ENDBRANCH   6   7
ENDBRANCH   5   6
ENDBRANCH   4   5
ENDBRANCH   3   4
ENDBRANCH   2   3
ENDBRANCH   1   2
BRANCH   1  11
ATOM     11  C   UNL     1      -6.523 -23.125  16.602  1.00  0.00     0.000 C 
BRANCH  11  12
ATOM     12  C   UNL     1      -5.317 -22.202  16.829  1.00  0.00     0.000 C 
BRANCH  12  13
ATOM     13  C   UNL     1      -3.994 -22.976  16.936  1.00  0.00     0.000 C 
BRANCH  13  14
ATOM     14  C   UNL     1      -2.879 -22.363  16.070  1.00  0.00     0.000 C 
BRANCH  14  15
ATOM     15  C   UNL     1      -1.518 -23.055  16.271  1.00  0.00     0.000 C 
BRANCH  15  16
ATOM     16  C   UNL     1      -0.309 -22.278  15.719  1.00  0.00     0.006 C 
BRANCH  16  17
ATOM     17  C   UNL     1       0.970 -23.125  15.664  1.00  0.00     0.053 C 
BRANCH  17  18
ATOM     18  C   UNL     1       2.171 -22.276  15.939  1.00  0.00     0.041 C 
ATOM     19  O   UNL     1       3.270 -22.530  15.379  1.00  0.00    -0.550 OA
ATOM     20  O   UNL     1       2.089 -21.231  16.851  1.00  0.00    -0.550 OA
ENDBRANCH  17  18
ENDBRANCH  16  17
ENDBRANCH  15  16
ENDBRANCH  14  15
ENDBRANCH  13  14
ENDBRANCH  12  13
ENDBRANCH  11  12
ENDBRANCH   1  11
TORSDOF 15
ENDMDL
MODEL 8
REMARK VINA RESULT:    -1.819      3.642     12.830
REMARK INTER + INTRA:          -4.030
REMARK INTER:                  -3.650
REMARK INTRA:                  -0.380
REMARK UNBOUND:                -0.615
REMARK SMILES O=C([O-])CCCCCCCCCCCCCCC(=O)[O-]
REMARK SMILES IDX 10 1 9 2 8 3 7 4 6 5 5 6 4 7 2 8 1 9 3 10 11 11 12 12 13 13
REMARK SMILES IDX 14 14 15 15 16 16 17 17 18 18 19 19 20 20
REMARK H PARENT
REMARK Flexibility Score: inf
ROOT
ATOM      1  C   UNL     1       1.083 -23.123  15.972  1.00  0.00     0.000 C 
ENDROOT
BRANCH   1   2
ATOM      2  C   UNL     1       2.322 -22.318  15.555  1.00  0.00     0.000 C 
BRANCH   2   3
ATOM      3  C   UNL     1       3.602 -22.804  16.253  1.00  0.00     0.000 C 
BRANCH   3   4
ATOM      4  C   UNL     1       4.416 -21.648  16.861  1.00  0.00     0.000 C 
BRANCH   4   5
ATOM      5  C   UNL     1       5.532 -22.157  17.798  1.00  0.00     0.000 C 
BRANCH   5   6
ATOM      6  C   UNL     1       6.945 -21.701  17.392  1.00  0.00     0.006 C 
BRANCH   6   7
ATOM      7  C   UNL     1       7.715 -22.726  16.536  1.00  0.00     0.053 C 
BRANCH   7   8
ATOM      8  C   UNL     1       8.264 -22.148  15.265  1.00  0.00     0.041 C 
ATOM      9  O   UNL     1       8.743 -22.898  14.373  1.00  0.00    -0.550 OA
ATOM     10  O   UNL     1       8.331 -20.770  15.106  1.00  0.00    -0.550 OA
ENDBRANCH   7   8
ENDBRANCH   6   7
ENDBRANCH   5   6
ENDBRANCH   4   5
ENDBRANCH   3   4
ENDBRANCH   2   3
ENDBRANCH   1   2
BRANCH   1  11
ATOM     11  C   UNL     1      -0.157 -22.224  16.046  1.00  0.00     0.000 C 
BRANCH  11  12
ATOM     12  C   UNL     1      -1.444 -23.062  16.042  1.00  0.00     0.000 C 
BRANCH  12  13
ATOM     13  C   UNL     1      -2.674 -22.258  16.492  1.00  0.00     0.000 C 
BRANCH  13  14
ATOM     14  C   UNL     1      -3.965 -23.096  16.478  1.00  0.00     0.000 C 
BRANCH  14  15
ATOM     15  C   UNL     1      -5.234 -22.238  16.627  1.00  0.00     0.000 C 
BRANCH  15  16
ATOM     16  C   UNL     1      -6.320 -22.841  17.537  1.00  0.00     0.006 C 
BRANCH  16  17
ATOM     17  C   UNL     1      -7.740 -22.421  17.133  1.00  0.00     0.053 C 
BRANCH  17  18
ATOM     18  C   UNL     1      -8.531 -22.027  18.339  1.00  0.00     0.041 C 
ATOM     19  O   UNL     1      -9.471 -21.194  18.237  1.00  0.00    -0.550 OA
ATOM     20  O   UNL     1      -8.201 -22.541  19.586  1.00  0.00    -0.550 OA
ENDBRANCH  17  18
ENDBRANCH  16  17
ENDBRANCH  15  16
ENDBRANCH  14  15
ENDBRANCH  13  14
ENDBRANCH  12  13
ENDBRANCH  11  12
ENDBRANCH   1  11
TORSDOF 15
ENDMDL
