MODEL 1
REMARK VINA RESULT:    -3.589      0.000      0.000
REMARK INTER + INTRA:         -13.299
REMARK INTER:                  -9.043
REMARK INTRA:                  -4.255
REMARK UNBOUND:                -4.255
REMARK SMILES CCCCCCCCCCCCCCCCCCCCCCCCCCCC(=O)[O-]
REMARK SMILES IDX 15 1 16 2 17 3 18 4 19 5 20 6 21 7 22 8 23 9 24 10 25 11
REMARK SMILES IDX 26 12 27 13 28 14 29 15 30 16 14 17 13 18 12 19 11 20 10 21
REMARK SMILES IDX 9 22 8 23 7 24 6 25 5 26 4 27 3 28 2 29 1 30
REMARK H PARENT
REMARK Flexibility Score: inf
ROOT
ATOM      1  C   UNL     1      35.436   3.127  -7.810  1.00  0.00     0.000 C 
ENDROOT
BRANCH   1   2
ATOM      2  C   UNL     1      36.870   3.216  -8.361  1.00  0.00     0.000 C 
BRANCH   2   3
ATOM      3  C   UNL     1      37.243   4.637  -8.814  1.00  0.00     0.000 C 
BRANCH   3   4
ATOM      4  C   UNL     1      38.487   5.179  -8.089  1.00  0.00     0.000 C 
BRANCH   4   5
ATOM      5  C   UNL     1      38.869   4.345  -6.851  1.00  0.00     0.000 C 
BRANCH   5   6
ATOM      6  C   UNL     1      40.204   3.587  -6.957  1.00  0.00     0.000 C 
BRANCH   6   7
ATOM      7  C   UNL     1      40.186   2.240  -6.214  1.00  0.00     0.000 C 
BRANCH   7   8
ATOM      8  C   UNL     1      39.958   1.044  -7.158  1.00  0.00     0.000 C 
BRANCH   8   9
ATOM      9  C   UNL     1      38.613   0.318  -6.956  1.00  0.00     0.000 C 
BRANCH   9  10
ATOM     10  C   UNL     1      38.015  -0.196  -8.278  1.00  0.00     0.000 C 
BRANCH  10  11
ATOM     11  C   UNL     1      36.591  -0.748  -8.107  1.00  0.00     0.000 C 
BRANCH  11  12
ATOM     12  C   UNL     1      36.168  -0.860  -6.634  1.00  0.00     0.006 C 
BRANCH  12  13
ATOM     13  C   UNL     1      36.102  -2.328  -6.196  1.00  0.00     0.053 C 
BRANCH  13  14
ATOM     14  C   UNL     1      34.843  -2.601  -5.434  1.00  0.00     0.041 C 
ATOM     15  O   UNL     1      34.215  -1.656  -4.885  1.00  0.00    -0.550 OA
ATOM     16  O   UNL     1      34.345  -3.896  -5.354  1.00  0.00    -0.550 OA
ENDBRANCH  13  14
ENDBRANCH  12  13
ENDBRANCH  11  12
ENDBRANCH  10  11
ENDBRANCH   9  10
ENDBRANCH   8   9
ENDBRANCH   7   8
ENDBRANCH   6   7
ENDBRANCH   5   6
ENDBRANCH   4   5
ENDBRANCH   3   4
ENDBRANCH   2   3
ENDBRANCH   1   2
BRANCH   1  17
ATOM     17  C   UNL     1      34.853   4.504  -7.444  1.00  0.00     0.000 C 
BRANCH  17  18
ATOM     18  C   UNL     1      34.265   4.605  -6.021  1.00  0.00     0.000 C 
BRANCH  18  19
ATOM     19  C   UNL     1      34.779   5.789  -5.181  1.00  0.00     0.000 C 
BRANCH  19  20
ATOM     20  C   UNL     1      36.028   6.495  -5.743  1.00  0.00     0.000 C 
BRANCH  20  21
ATOM     21  C   UNL     1      36.028   8.029  -5.545  1.00  0.00     0.000 C 
BRANCH  21  22
ATOM     22  C   UNL     1      35.705   8.851  -6.811  1.00  0.00    -0.000 C 
BRANCH  22  23
ATOM     23  C   UNL     1      35.398   8.028  -8.078  1.00  0.00    -0.000 C 
BRANCH  23  24
ATOM     24  C   UNL     1      33.896   7.909  -8.370  1.00  0.00    -0.000 C 
BRANCH  24  25
ATOM     25  C   UNL     1      33.080   8.836  -7.458  1.00  0.00    -0.000 C 
BRANCH  25  26
ATOM     26  C   UNL     1      32.086   8.076  -6.563  1.00  0.00    -0.000 C 
BRANCH  26  27
ATOM     27  C   UNL     1      31.466   6.834  -7.239  1.00  0.00    -0.000 C 
BRANCH  27  28
ATOM     28  C   UNL     1      29.956   6.718  -6.972  1.00  0.00    -0.000 C 
BRANCH  28  29
ATOM     29  C   UNL     1      29.112   7.474  -8.010  1.00  0.00    -0.003 C 
ATOM     30  C   UNL     1      29.712   7.417  -9.414  1.00  0.00     0.004 C 
ENDBRANCH  28  29
ENDBRANCH  27  28
ENDBRANCH  26  27
ENDBRANCH  25  26
ENDBRANCH  24  25
ENDBRANCH  23  24
ENDBRANCH  22  23
ENDBRANCH  21  22
ENDBRANCH  20  21
ENDBRANCH  19  20
ENDBRANCH  18  19
ENDBRANCH  17  18
ENDBRANCH   1  17
TORSDOF 26
ENDMDL
MODEL 2
REMARK VINA RESULT:    -3.546      3.030      4.628
REMARK INTER + INTRA:         -13.192
REMARK INTER:                  -8.339
REMARK INTRA:                  -4.853
REMARK UNBOUND:                -4.255
REMARK SMILES CCCCCCCCCCCCCCCCCCCCCCCCCCCC(=O)[O-]
REMARK SMILES IDX 15 1 16 2 17 3 18 4 19 5 20 6 21 7 22 8 23 9 24 10 25 11
REMARK SMILES IDX 26 12 27 13 28 14 29 15 30 16 14 17 13 18 12 19 11 20 10 21
REMARK SMILES IDX 9 22 8 23 7 24 6 25 5 26 4 27 3 28 2 29 1 30
REMARK H PARENT
REMARK Flexibility Score: inf
ROOT
ATOM      1  C   UNL     1      35.070   4.569  -6.889  1.00  0.00     0.000 C 
ENDROOT
BRANCH   1   2
ATOM      2  C   UNL     1      36.252   5.439  -6.426  1.00  0.00     0.000 C 
BRANCH   2   3
ATOM      3  C   UNL     1      37.552   5.124  -7.184  1.00  0.00     0.000 C 
BRANCH   3   4
ATOM      4  C   UNL     1      37.733   6.002  -8.434  1.00  0.00     0.000 C 
BRANCH   4   5
ATOM      5  C   UNL     1      37.825   5.181  -9.733  1.00  0.00     0.000 C 
BRANCH   5   6
ATOM      6  C   UNL     1      36.819   5.574 -10.831  1.00  0.00     0.000 C 
BRANCH   6   7
ATOM      7  C   UNL     1      36.012   4.375 -11.358  1.00  0.00     0.000 C 
BRANCH   7   8
ATOM      8  C   UNL     1      35.326   3.581 -10.230  1.00  0.00     0.000 C 
BRANCH   8   9
ATOM      9  C   UNL     1      35.362   2.051 -10.413  1.00  0.00     0.000 C 
BRANCH   9  10
ATOM     10  C   UNL     1      36.757   1.456 -10.150  1.00  0.00     0.000 C 
BRANCH  10  11
ATOM     11  C   UNL     1      37.195   1.601  -8.683  1.00  0.00     0.000 C 
BRANCH  11  12
ATOM     12  C   UNL     1      38.715   1.756  -8.528  1.00  0.00     0.006 C 
BRANCH  12  13
ATOM     13  C   UNL     1      39.126   1.657  -7.054  1.00  0.00     0.053 C 
BRANCH  13  14
ATOM     14  C   UNL     1      40.525   2.151  -6.856  1.00  0.00     0.041 C 
ATOM     15  O   UNL     1      41.241   2.448  -7.851  1.00  0.00    -0.550 OA
ATOM     16  O   UNL     1      41.032   2.311  -5.572  1.00  0.00    -0.550 OA
ENDBRANCH  13  14
ENDBRANCH  12  13
ENDBRANCH  11  12
ENDBRANCH  10  11
ENDBRANCH   9  10
ENDBRANCH   8   9
ENDBRANCH   7   8
ENDBRANCH   6   7
ENDBRANCH   5   6
ENDBRANCH   4   5
ENDBRANCH   3   4
ENDBRANCH   2   3
ENDBRANCH   1   2
BRANCH   1  17
ATOM     17  C   UNL     1      33.766   4.888  -6.134  1.00  0.00     0.000 C 
BRANCH  17  18
ATOM     18  C   UNL     1      32.783   5.804  -6.891  1.00  0.00     0.000 C 
BRANCH  18  19
ATOM     19  C   UNL     1      33.080   7.312  -6.791  1.00  0.00     0.000 C 
BRANCH  19  20
ATOM     20  C   UNL     1      33.154   8.053  -8.141  1.00  0.00     0.000 C 
BRANCH  20  21
ATOM     21  C   UNL     1      33.956   7.301  -9.228  1.00  0.00     0.000 C 
BRANCH  21  22
ATOM     22  C   UNL     1      33.183   7.025 -10.536  1.00  0.00    -0.000 C 
BRANCH  22  23
ATOM     23  C   UNL     1      32.376   5.712 -10.568  1.00  0.00    -0.000 C 
BRANCH  23  24
ATOM     24  C   UNL     1      31.096   5.811 -11.409  1.00  0.00    -0.000 C 
BRANCH  24  25
ATOM     25  C   UNL     1      30.345   7.118 -11.120  1.00  0.00    -0.000 C 
BRANCH  25  26
ATOM     26  C   UNL     1      28.878   6.891 -10.713  1.00  0.00    -0.000 C 
BRANCH  26  27
ATOM     27  C   UNL     1      28.358   7.906  -9.673  1.00  0.00    -0.000 C 
BRANCH  27  28
ATOM     28  C   UNL     1      29.401   8.207  -8.582  1.00  0.00    -0.000 C 
BRANCH  28  29
ATOM     29  C   UNL     1      29.413   7.149  -7.467  1.00  0.00    -0.003 C 
ATOM     30  C   UNL     1      29.453   7.765  -6.069  1.00  0.00     0.004 C 
ENDBRANCH  28  29
ENDBRANCH  27  28
ENDBRANCH  26  27
ENDBRANCH  25  26
ENDBRANCH  24  25
ENDBRANCH  23  24
ENDBRANCH  22  23
ENDBRANCH  21  22
ENDBRANCH  20  21
ENDBRANCH  19  20
ENDBRANCH  18  19
ENDBRANCH  17  18
ENDBRANCH   1  17
TORSDOF 26
ENDMDL
MODEL 3
REMARK VINA RESULT:    -3.531     10.083     11.877
REMARK INTER + INTRA:         -13.154
REMARK INTER:                  -7.872
REMARK INTRA:                  -5.281
REMARK UNBOUND:                -4.255
REMARK SMILES CCCCCCCCCCCCCCCCCCCCCCCCCCCC(=O)[O-]
REMARK SMILES IDX 15 1 16 2 17 3 18 4 19 5 20 6 21 7 22 8 23 9 24 10 25 11
REMARK SMILES IDX 26 12 27 13 28 14 29 15 30 16 14 17 13 18 12 19 11 20 10 21
REMARK SMILES IDX 9 22 8 23 7 24 6 25 5 26 4 27 3 28 2 29 1 30
REMARK H PARENT
REMARK Flexibility Score: inf
ROOT
ATOM      1  C   UNL     1      38.036   3.166   4.360  1.00  0.00     0.000 C 
ENDROOT
BRANCH   1   2
ATOM      2  C   UNL     1      38.001   2.645   5.808  1.00  0.00     0.000 C 
BRANCH   2   3
ATOM      3  C   UNL     1      38.779   1.331   5.984  1.00  0.00     0.000 C 
BRANCH   3   4
ATOM      4  C   UNL     1      39.971   1.477   6.946  1.00  0.00     0.000 C 
BRANCH   4   5
ATOM      5  C   UNL     1      40.497   2.921   7.033  1.00  0.00     0.000 C 
BRANCH   5   6
ATOM      6  C   UNL     1      41.700   3.237   6.126  1.00  0.00     0.000 C 
BRANCH   6   7
ATOM      7  C   UNL     1      42.521   1.987   5.766  1.00  0.00     0.000 C 
BRANCH   7   8
ATOM      8  C   UNL     1      42.598   1.745   4.247  1.00  0.00     0.000 C 
BRANCH   8   9
ATOM      9  C   UNL     1      41.653   2.629   3.410  1.00  0.00     0.000 C 
BRANCH   9  10
ATOM     10  C   UNL     1      40.878   1.827   2.349  1.00  0.00     0.000 C 
BRANCH  10  11
ATOM     11  C   UNL     1      40.577   0.388   2.798  1.00  0.00     0.000 C 
BRANCH  11  12
ATOM     12  C   UNL     1      39.114  -0.016   2.559  1.00  0.00     0.006 C 
BRANCH  12  13
ATOM     13  C   UNL     1      38.569   0.636   1.283  1.00  0.00     0.053 C 
BRANCH  13  14
ATOM     14  C   UNL     1      38.436  -0.372   0.184  1.00  0.00     0.041 C 
ATOM     15  O   UNL     1      37.715  -1.394   0.343  1.00  0.00    -0.550 OA
ATOM     16  O   UNL     1      39.087  -0.171  -1.027  1.00  0.00    -0.550 OA
ENDBRANCH  13  14
ENDBRANCH  12  13
ENDBRANCH  11  12
ENDBRANCH  10  11
ENDBRANCH   9  10
ENDBRANCH   8   9
ENDBRANCH   7   8
ENDBRANCH   6   7
ENDBRANCH   5   6
ENDBRANCH   4   5
ENDBRANCH   3   4
ENDBRANCH   2   3
ENDBRANCH   1   2
BRANCH   1  17
ATOM     17  C   UNL     1      38.593   4.598   4.257  1.00  0.00     0.000 C 
BRANCH  17  18
ATOM     18  C   UNL     1      38.200   5.535   5.418  1.00  0.00     0.000 C 
BRANCH  18  19
ATOM     19  C   UNL     1      38.126   7.031   5.058  1.00  0.00     0.000 C 
BRANCH  19  20
ATOM     20  C   UNL     1      37.960   7.333   3.556  1.00  0.00     0.000 C 
BRANCH  20  21
ATOM     21  C   UNL     1      36.972   8.483   3.250  1.00  0.00     0.000 C 
BRANCH  21  22
ATOM     22  C   UNL     1      36.092   8.921   4.440  1.00  0.00    -0.000 C 
BRANCH  22  23
ATOM     23  C   UNL     1      34.570   8.826   4.213  1.00  0.00    -0.000 C 
BRANCH  23  24
ATOM     24  C   UNL     1      34.128   7.466   3.657  1.00  0.00    -0.000 C 
BRANCH  24  25
ATOM     25  C   UNL     1      34.291   6.359   4.708  1.00  0.00    -0.000 C 
BRANCH  25  26
ATOM     26  C   UNL     1      34.799   5.034   4.110  1.00  0.00    -0.000 C 
BRANCH  26  27
ATOM     27  C   UNL     1      33.782   3.878   4.209  1.00  0.00    -0.000 C 
BRANCH  27  28
ATOM     28  C   UNL     1      34.461   2.528   4.500  1.00  0.00    -0.000 C 
BRANCH  28  29
ATOM     29  C   UNL     1      34.814   1.755   3.220  1.00  0.00    -0.003 C 
ATOM     30  C   UNL     1      35.582   0.464   3.501  1.00  0.00     0.004 C 
ENDBRANCH  28  29
ENDBRANCH  27  28
ENDBRANCH  26  27
ENDBRANCH  25  26
ENDBRANCH  24  25
ENDBRANCH  23  24
ENDBRANCH  22  23
ENDBRANCH  21  22
ENDBRANCH  20  21
ENDBRANCH  19  20
ENDBRANCH  18  19
ENDBRANCH  17  18
ENDBRANCH   1  17
TORSDOF 26
ENDMDL
MODEL 4
REMARK VINA RESULT:    -3.526      2.809      8.721
REMARK INTER + INTRA:         -13.141
REMARK INTER:                  -8.617
REMARK INTRA:                  -4.523
REMARK UNBOUND:                -4.255
REMARK SMILES CCCCCCCCCCCCCCCCCCCCCCCCCCCC(=O)[O-]
REMARK SMILES IDX 15 1 16 2 17 3 18 4 19 5 20 6 21 7 22 8 23 9 24 10 25 11
REMARK SMILES IDX 26 12 27 13 28 14 29 15 30 16 14 17 13 18 12 19 11 20 10 21
REMARK SMILES IDX 9 22 8 23 7 24 6 25 5 26 4 27 3 28 2 29 1 30
REMARK H PARENT
REMARK Flexibility Score: inf
ROOT
ATOM      1  C   UNL     1      34.065   5.602 -10.491  1.00  0.00     0.000 C 
ENDROOT
BRANCH   1   2
ATOM      2  C   UNL     1      32.569   5.362 -10.764  1.00  0.00     0.000 C 
BRANCH   2   3
ATOM      3  C   UNL     1      31.882   6.578 -11.405  1.00  0.00     0.000 C 
BRANCH   3   4
ATOM      4  C   UNL     1      30.422   6.739 -10.946  1.00  0.00     0.000 C 
BRANCH   4   5
ATOM      5  C   UNL     1      29.904   8.182 -11.095  1.00  0.00     0.000 C 
BRANCH   5   6
ATOM      6  C   UNL     1      28.927   8.645  -9.998  1.00  0.00     0.000 C 
BRANCH   6   7
ATOM      7  C   UNL     1      28.623   7.545  -8.967  1.00  0.00     0.000 C 
BRANCH   7   8
ATOM      8  C   UNL     1      29.160   7.883  -7.563  1.00  0.00     0.000 C 
BRANCH   8   9
ATOM      9  C   UNL     1      29.985   6.759  -6.906  1.00  0.00     0.000 C 
BRANCH   9  10
ATOM     10  C   UNL     1      31.463   6.781  -7.337  1.00  0.00     0.000 C 
BRANCH  10  11
ATOM     11  C   UNL     1      32.150   5.417  -7.162  1.00  0.00     0.000 C 
BRANCH  11  12
ATOM     12  C   UNL     1      33.627   5.542  -6.758  1.00  0.00     0.006 C 
BRANCH  12  13
ATOM     13  C   UNL     1      33.842   6.753  -5.843  1.00  0.00     0.053 C 
BRANCH  13  14
ATOM     14  C   UNL     1      35.020   6.541  -4.945  1.00  0.00     0.041 C 
ATOM     15  O   UNL     1      35.310   7.395  -4.064  1.00  0.00    -0.550 OA
ATOM     16  O   UNL     1      35.784   5.385  -5.060  1.00  0.00    -0.550 OA
ENDBRANCH  13  14
ENDBRANCH  12  13
ENDBRANCH  11  12
ENDBRANCH  10  11
ENDBRANCH   9  10
ENDBRANCH   8   9
ENDBRANCH   7   8
ENDBRANCH   6   7
ENDBRANCH   5   6
ENDBRANCH   4   5
ENDBRANCH   3   4
ENDBRANCH   2   3
ENDBRANCH   1   2
BRANCH   1  17
ATOM     17  C   UNL     1      34.387   7.080 -10.206  1.00  0.00     0.000 C 
BRANCH  17  18
ATOM     18  C   UNL     1      35.883   7.389  -9.985  1.00  0.00     0.000 C 
BRANCH  18  19
ATOM     19  C   UNL     1      36.357   7.325  -8.521  1.00  0.00     0.000 C 
BRANCH  19  20
ATOM     20  C   UNL     1      37.289   6.144  -8.189  1.00  0.00     0.000 C 
BRANCH  20  21
ATOM     21  C   UNL     1      37.623   5.245  -9.402  1.00  0.00     0.000 C 
BRANCH  21  22
ATOM     22  C   UNL     1      37.012   3.828  -9.352  1.00  0.00    -0.000 C 
BRANCH  22  23
ATOM     23  C   UNL     1      36.323   3.446  -8.026  1.00  0.00    -0.000 C 
BRANCH  23  24
ATOM     24  C   UNL     1      35.858   1.984  -7.987  1.00  0.00    -0.000 C 
BRANCH  24  25
ATOM     25  C   UNL     1      36.932   1.047  -8.558  1.00  0.00    -0.000 C 
BRANCH  25  26
ATOM     26  C   UNL     1      38.099   0.808  -7.584  1.00  0.00    -0.000 C 
BRANCH  26  27
ATOM     27  C   UNL     1      39.462   1.301  -8.116  1.00  0.00    -0.000 C 
BRANCH  27  28
ATOM     28  C   UNL     1      40.502   1.458  -6.993  1.00  0.00    -0.000 C 
BRANCH  28  29
ATOM     29  C   UNL     1      40.152   2.593  -6.017  1.00  0.00    -0.003 C 
ATOM     30  C   UNL     1      39.855   3.913  -6.729  1.00  0.00     0.004 C 
ENDBRANCH  28  29
ENDBRANCH  27  28
ENDBRANCH  26  27
ENDBRANCH  25  26
ENDBRANCH  24  25
ENDBRANCH  23  24
ENDBRANCH  22  23
ENDBRANCH  21  22
ENDBRANCH  20  21
ENDBRANCH  19  20
ENDBRANCH  18  19
ENDBRANCH  17  18
ENDBRANCH   1  17
TORSDOF 26
ENDMDL
MODEL 5
REMARK VINA RESULT:    -3.510      2.653      8.971
REMARK INTER + INTRA:         -13.102
REMARK INTER:                  -9.717
REMARK INTRA:                  -3.385
REMARK UNBOUND:                -4.255
REMARK SMILES CCCCCCCCCCCCCCCCCCCCCCCCCCCC(=O)[O-]
REMARK SMILES IDX 15 1 16 2 17 3 18 4 19 5 20 6 21 7 22 8 23 9 24 10 25 11
REMARK SMILES IDX 26 12 27 13 28 14 29 15 30 16 14 17 13 18 12 19 11 20 10 21
REMARK SMILES IDX 9 22 8 23 7 24 6 25 5 26 4 27 3 28 2 29 1 30
REMARK H PARENT
REMARK Flexibility Score: inf
ROOT
ATOM      1  C   UNL     1      34.158   4.999 -10.283  1.00  0.00     0.000 C 
ENDROOT
BRANCH   1   2
ATOM      2  C   UNL     1      32.748   5.460 -10.692  1.00  0.00     0.000 C 
BRANCH   2   3
ATOM      3  C   UNL     1      32.572   6.984 -10.594  1.00  0.00     0.000 C 
BRANCH   3   4
ATOM      4  C   UNL     1      31.502   7.517 -11.562  1.00  0.00     0.000 C 
BRANCH   4   5
ATOM      5  C   UNL     1      30.475   8.434 -10.874  1.00  0.00     0.000 C 
BRANCH   5   6
ATOM      6  C   UNL     1      29.002   8.027 -11.059  1.00  0.00     0.000 C 
BRANCH   6   7
ATOM      7  C   UNL     1      28.429   7.289  -9.837  1.00  0.00     0.000 C 
BRANCH   7   8
ATOM      8  C   UNL     1      28.752   8.000  -8.509  1.00  0.00     0.000 C 
BRANCH   8   9
ATOM      9  C   UNL     1      29.398   7.096  -7.441  1.00  0.00     0.000 C 
BRANCH   9  10
ATOM     10  C   UNL     1      30.923   7.285  -7.350  1.00  0.00     0.000 C 
BRANCH  10  11
ATOM     11  C   UNL     1      31.673   5.958  -7.152  1.00  0.00     0.000 C 
BRANCH  11  12
ATOM     12  C   UNL     1      33.148   6.158  -6.771  1.00  0.00     0.006 C 
BRANCH  12  13
ATOM     13  C   UNL     1      33.807   4.819  -6.420  1.00  0.00     0.053 C 
BRANCH  13  14
ATOM     14  C   UNL     1      34.505   4.898  -5.098  1.00  0.00     0.041 C 
ATOM     15  O   UNL     1      35.429   5.736  -4.917  1.00  0.00    -0.550 OA
ATOM     16  O   UNL     1      34.116   4.066  -4.054  1.00  0.00    -0.550 OA
ENDBRANCH  13  14
ENDBRANCH  12  13
ENDBRANCH  11  12
ENDBRANCH  10  11
ENDBRANCH   9  10
ENDBRANCH   8   9
ENDBRANCH   7   8
ENDBRANCH   6   7
ENDBRANCH   5   6
ENDBRANCH   4   5
ENDBRANCH   3   4
ENDBRANCH   2   3
ENDBRANCH   1   2
BRANCH   1  17
ATOM     17  C   UNL     1      35.114   6.176 -10.012  1.00  0.00     0.000 C 
BRANCH  17  18
ATOM     18  C   UNL     1      36.578   5.776  -9.738  1.00  0.00     0.000 C 
BRANCH  18  19
ATOM     19  C   UNL     1      37.017   5.859  -8.264  1.00  0.00     0.000 C 
BRANCH  19  20
ATOM     20  C   UNL     1      37.387   4.509  -7.617  1.00  0.00     0.000 C 
BRANCH  20  21
ATOM     21  C   UNL     1      37.114   3.283  -8.519  1.00  0.00     0.000 C 
BRANCH  21  22
ATOM     22  C   UNL     1      36.039   2.310  -7.989  1.00  0.00    -0.000 C 
BRANCH  22  23
ATOM     23  C   UNL     1      36.217   0.834  -8.400  1.00  0.00    -0.000 C 
BRANCH  23  24
ATOM     24  C   UNL     1      36.904  -0.014  -7.322  1.00  0.00    -0.000 C 
BRANCH  24  25
ATOM     25  C   UNL     1      36.272  -1.409  -7.230  1.00  0.00    -0.000 C 
BRANCH  25  26
ATOM     26  C   UNL     1      35.351  -1.572  -6.007  1.00  0.00    -0.000 C 
BRANCH  26  27
ATOM     27  C   UNL     1      35.955  -2.446  -4.887  1.00  0.00    -0.000 C 
BRANCH  27  28
ATOM     28  C   UNL     1      35.088  -2.443  -3.616  1.00  0.00    -0.000 C 
BRANCH  28  29
ATOM     29  C   UNL     1      34.491  -3.825  -3.305  1.00  0.00    -0.003 C 
ATOM     30  C   UNL     1      33.122  -4.036  -3.952  1.00  0.00     0.004 C 
ENDBRANCH  28  29
ENDBRANCH  27  28
ENDBRANCH  26  27
ENDBRANCH  25  26
ENDBRANCH  24  25
ENDBRANCH  23  24
ENDBRANCH  22  23
ENDBRANCH  21  22
ENDBRANCH  20  21
ENDBRANCH  19  20
ENDBRANCH  18  19
ENDBRANCH  17  18
ENDBRANCH   1  17
TORSDOF 26
ENDMDL
MODEL 6
REMARK VINA RESULT:    -3.424     10.274     13.512
REMARK INTER + INTRA:         -12.884
REMARK INTER:                  -8.392
REMARK INTRA:                  -4.492
REMARK UNBOUND:                -4.255
REMARK SMILES CCCCCCCCCCCCCCCCCCCCCCCCCCCC(=O)[O-]
REMARK SMILES IDX 15 1 16 2 17 3 18 4 19 5 20 6 21 7 22 8 23 9 24 10 25 11
REMARK SMILES IDX 26 12 27 13 28 14 29 15 30 16 14 17 13 18 12 19 11 20 10 21
REMARK SMILES IDX 9 22 8 23 7 24 6 25 5 26 4 27 3 28 2 29 1 30
REMARK H PARENT
REMARK Flexibility Score: inf
ROOT
ATOM      1  C   UNL     1      37.841   5.510   4.381  1.00  0.00     0.000 C 
ENDROOT
BRANCH   1   2
ATOM      2  C   UNL     1      38.525   6.703   5.071  1.00  0.00     0.000 C 
BRANCH   2   3
ATOM      3  C   UNL     1      38.508   6.589   6.604  1.00  0.00     0.000 C 
BRANCH   3   4
ATOM      4  C   UNL     1      37.137   6.151   7.147  1.00  0.00     0.000 C 
BRANCH   4   5
ATOM      5  C   UNL     1      36.229   7.341   7.509  1.00  0.00     0.000 C 
BRANCH   5   6
ATOM      6  C   UNL     1      34.840   7.333   6.845  1.00  0.00     0.000 C 
BRANCH   6   7
ATOM      7  C   UNL     1      34.866   7.860   5.400  1.00  0.00     0.000 C 
BRANCH   7   8
ATOM      8  C   UNL     1      34.326   6.836   4.384  1.00  0.00     0.000 C 
BRANCH   8   9
ATOM      9  C   UNL     1      34.242   5.392   4.915  1.00  0.00     0.000 C 
BRANCH   9  10
ATOM     10  C   UNL     1      34.351   4.342   3.795  1.00  0.00     0.000 C 
BRANCH  10  11
ATOM     11  C   UNL     1      33.530   3.076   4.089  1.00  0.00     0.000 C 
BRANCH  11  12
ATOM     12  C   UNL     1      33.630   2.029   2.969  1.00  0.00     0.006 C 
BRANCH  12  13
ATOM     13  C   UNL     1      33.440   2.680   1.594  1.00  0.00     0.053 C 
BRANCH  13  14
ATOM     14  C   UNL     1      31.986   2.824   1.268  1.00  0.00     0.041 C 
ATOM     15  O   UNL     1      31.169   1.923   1.600  1.00  0.00    -0.550 OA
ATOM     16  O   UNL     1      31.527   3.966   0.623  1.00  0.00    -0.550 OA
ENDBRANCH  13  14
ENDBRANCH  12  13
ENDBRANCH  11  12
ENDBRANCH  10  11
ENDBRANCH   9  10
ENDBRANCH   8   9
ENDBRANCH   7   8
ENDBRANCH   6   7
ENDBRANCH   5   6
ENDBRANCH   4   5
ENDBRANCH   3   4
ENDBRANCH   2   3
ENDBRANCH   1   2
BRANCH   1  17
ATOM     17  C   UNL     1      38.775   4.294   4.234  1.00  0.00     0.000 C 
BRANCH  17  18
ATOM     18  C   UNL     1      38.297   3.015   4.953  1.00  0.00     0.000 C 
BRANCH  18  19
ATOM     19  C   UNL     1      39.317   2.384   5.918  1.00  0.00     0.000 C 
BRANCH  19  20
ATOM     20  C   UNL     1      40.252   3.384   6.625  1.00  0.00     0.000 C 
BRANCH  20  21
ATOM     21  C   UNL     1      41.718   3.329   6.136  1.00  0.00     0.000 C 
BRANCH  21  22
ATOM     22  C   UNL     1      42.215   1.928   5.722  1.00  0.00    -0.000 C 
BRANCH  22  23
ATOM     23  C   UNL     1      42.680   1.792   4.258  1.00  0.00    -0.000 C 
BRANCH  23  24
ATOM     24  C   UNL     1      41.776   2.538   3.267  1.00  0.00    -0.000 C 
BRANCH  24  25
ATOM     25  C   UNL     1      41.131   1.567   2.269  1.00  0.00    -0.000 C 
BRANCH  25  26
ATOM     26  C   UNL     1      40.557   0.308   2.942  1.00  0.00    -0.000 C 
BRANCH  26  27
ATOM     27  C   UNL     1      39.378  -0.325   2.172  1.00  0.00    -0.000 C 
BRANCH  27  28
ATOM     28  C   UNL     1      38.491   0.733   1.493  1.00  0.00    -0.000 C 
BRANCH  28  29
ATOM     29  C   UNL     1      37.172   0.969   2.246  1.00  0.00    -0.003 C 
ATOM     30  C   UNL     1      36.289  -0.278   2.297  1.00  0.00     0.004 C 
ENDBRANCH  28  29
ENDBRANCH  27  28
ENDBRANCH  26  27
ENDBRANCH  25  26
ENDBRANCH  24  25
ENDBRANCH  23  24
ENDBRANCH  22  23
ENDBRANCH  21  22
ENDBRANCH  20  21
ENDBRANCH  19  20
ENDBRANCH  18  19
ENDBRANCH  17  18
ENDBRANCH   1  17
TORSDOF 26
ENDMDL
MODEL 7
REMARK VINA RESULT:    -3.422      9.548     11.255
REMARK INTER + INTRA:         -12.879
REMARK INTER:                  -8.272
REMARK INTRA:                  -4.607
REMARK UNBOUND:                -4.255
REMARK SMILES CCCCCCCCCCCCCCCCCCCCCCCCCCCC(=O)[O-]
REMARK SMILES IDX 15 1 16 2 17 3 18 4 19 5 20 6 21 7 22 8 23 9 24 10 25 11
REMARK SMILES IDX 26 12 27 13 28 14 29 15 30 16 14 17 13 18 12 19 11 20 10 21
REMARK SMILES IDX 9 22 8 23 7 24 6 25 5 26 4 27 3 28 2 29 1 30
REMARK H PARENT
REMARK Flexibility Score: inf
ROOT
ATOM      1  C   UNL     1      37.771   2.879   4.358  1.00  0.00     0.000 C 
ENDROOT
BRANCH   1   2
ATOM      2  C   UNL     1      38.073   2.221   5.717  1.00  0.00     0.000 C 
BRANCH   2   3
ATOM      3  C   UNL     1      38.667   0.811   5.573  1.00  0.00     0.000 C 
BRANCH   3   4
ATOM      4  C   UNL     1      40.091   0.710   6.148  1.00  0.00     0.000 C 
BRANCH   4   5
ATOM      5  C   UNL     1      40.949   1.952   5.842  1.00  0.00     0.000 C 
BRANCH   5   6
ATOM      6  C   UNL     1      42.403   1.659   5.430  1.00  0.00     0.000 C 
BRANCH   6   7
ATOM      7  C   UNL     1      42.691   2.016   3.961  1.00  0.00     0.000 C 
BRANCH   7   8
ATOM      8  C   UNL     1      41.447   2.551   3.226  1.00  0.00     0.000 C 
BRANCH   8   9
ATOM      9  C   UNL     1      40.947   1.652   2.079  1.00  0.00     0.000 C 
BRANCH   9  10
ATOM     10  C   UNL     1      40.967   0.158   2.446  1.00  0.00     0.000 C 
BRANCH  10  11
ATOM     11  C   UNL     1      39.558  -0.453   2.516  1.00  0.00     0.000 C 
BRANCH  11  12
ATOM     12  C   UNL     1      38.502   0.401   1.797  1.00  0.00     0.006 C 
BRANCH  12  13
ATOM     13  C   UNL     1      37.521  -0.485   1.020  1.00  0.00     0.053 C 
BRANCH  13  14
ATOM     14  C   UNL     1      38.020  -0.742  -0.368  1.00  0.00     0.041 C 
ATOM     15  O   UNL     1      37.462  -1.609  -1.094  1.00  0.00    -0.550 OA
ATOM     16  O   UNL     1      39.085  -0.004  -0.872  1.00  0.00    -0.550 OA
ENDBRANCH  13  14
ENDBRANCH  12  13
ENDBRANCH  11  12
ENDBRANCH  10  11
ENDBRANCH   9  10
ENDBRANCH   8   9
ENDBRANCH   7   8
ENDBRANCH   6   7
ENDBRANCH   5   6
ENDBRANCH   4   5
ENDBRANCH   3   4
ENDBRANCH   2   3
ENDBRANCH   1   2
BRANCH   1  17
ATOM     17  C   UNL     1      38.454   4.248   4.195  1.00  0.00     0.000 C 
BRANCH  17  18
ATOM     18  C   UNL     1      38.437   5.139   5.455  1.00  0.00     0.000 C 
BRANCH  18  19
ATOM     19  C   UNL     1      38.350   6.653   5.188  1.00  0.00     0.000 C 
BRANCH  19  20
ATOM     20  C   UNL     1      37.547   7.049   3.933  1.00  0.00     0.000 C 
BRANCH  20  21
ATOM     21  C   UNL     1      36.300   7.913   4.231  1.00  0.00     0.000 C 
BRANCH  21  22
ATOM     22  C   UNL     1      34.952   7.275   3.830  1.00  0.00    -0.000 C 
BRANCH  22  23
ATOM     23  C   UNL     1      34.522   6.051   4.662  1.00  0.00    -0.000 C 
BRANCH  23  24
ATOM     24  C   UNL     1      34.582   4.735   3.875  1.00  0.00    -0.000 C 
BRANCH  24  25
ATOM     25  C   UNL     1      34.038   3.567   4.709  1.00  0.00    -0.000 C 
BRANCH  25  26
ATOM     26  C   UNL     1      33.569   2.381   3.847  1.00  0.00    -0.000 C 
BRANCH  26  27
ATOM     27  C   UNL     1      34.535   2.029   2.696  1.00  0.00    -0.000 C 
BRANCH  27  28
ATOM     28  C   UNL     1      33.870   2.169   1.315  1.00  0.00    -0.000 C 
BRANCH  28  29
ATOM     29  C   UNL     1      32.439   2.722   1.401  1.00  0.00    -0.003 C 
ATOM     30  C   UNL     1      32.243   3.988   0.567  1.00  0.00     0.004 C 
ENDBRANCH  28  29
ENDBRANCH  27  28
ENDBRANCH  26  27
ENDBRANCH  25  26
ENDBRANCH  24  25
ENDBRANCH  23  24
ENDBRANCH  22  23
ENDBRANCH  21  22
ENDBRANCH  20  21
ENDBRANCH  19  20
ENDBRANCH  18  19
ENDBRANCH  17  18
ENDBRANCH   1  17
TORSDOF 26
ENDMDL
MODEL 8
REMARK VINA RESULT:    -3.422     10.356     13.302
REMARK INTER + INTRA:         -12.879
REMARK INTER:                  -7.549
REMARK INTRA:                  -5.330
REMARK UNBOUND:                -4.255
REMARK SMILES CCCCCCCCCCCCCCCCCCCCCCCCCCCC(=O)[O-]
REMARK SMILES IDX 15 1 16 2 17 3 18 4 19 5 20 6 21 7 22 8 23 9 24 10 25 11
REMARK SMILES IDX 26 12 27 13 28 14 29 15 30 16 14 17 13 18 12 19 11 20 10 21
REMARK SMILES IDX 9 22 8 23 7 24 6 25 5 26 4 27 3 28 2 29 1 30
REMARK H PARENT
REMARK Flexibility Score: inf
ROOT
ATOM      1  C   UNL     1      36.893   7.133   4.995  1.00  0.00     0.000 C 
ENDROOT
BRANCH   1   2
ATOM      2  C   UNL     1      35.868   7.585   3.939  1.00  0.00     0.000 C 
BRANCH   2   3
ATOM      3  C   UNL     1      34.553   6.794   4.013  1.00  0.00     0.000 C 
BRANCH   3   4
ATOM      4  C   UNL     1      33.856   6.937   5.378  1.00  0.00     0.000 C 
BRANCH   4   5
ATOM      5  C   UNL     1      33.316   5.599   5.917  1.00  0.00     0.000 C 
BRANCH   5   6
ATOM      6  C   UNL     1      34.183   4.929   6.998  1.00  0.00     0.000 C 
BRANCH   6   7
ATOM      7  C   UNL     1      34.099   3.393   6.962  1.00  0.00     0.000 C 
BRANCH   7   8
ATOM      8  C   UNL     1      33.476   2.863   5.657  1.00  0.00     0.000 C 
BRANCH   8   9
ATOM      9  C   UNL     1      34.489   2.265   4.661  1.00  0.00     0.000 C 
BRANCH   9  10
ATOM     10  C   UNL     1      34.446   2.957   3.287  1.00  0.00     0.000 C 
BRANCH  10  11
ATOM     11  C   UNL     1      33.978   2.016   2.165  1.00  0.00     0.000 C 
BRANCH  11  12
ATOM     12  C   UNL     1      33.845   0.557   2.628  1.00  0.00     0.006 C 
BRANCH  12  13
ATOM     13  C   UNL     1      32.569  -0.079   2.064  1.00  0.00     0.053 C 
BRANCH  13  14
ATOM     14  C   UNL     1      31.434   0.896   2.081  1.00  0.00     0.041 C 
ATOM     15  O   UNL     1      30.974   1.356   1.001  1.00  0.00    -0.550 OA
ATOM     16  O   UNL     1      30.863   1.278   3.290  1.00  0.00    -0.550 OA
ENDBRANCH  13  14
ENDBRANCH  12  13
ENDBRANCH  11  12
ENDBRANCH  10  11
ENDBRANCH   9  10
ENDBRANCH   8   9
ENDBRANCH   7   8
ENDBRANCH   6   7
ENDBRANCH   5   6
ENDBRANCH   4   5
ENDBRANCH   3   4
ENDBRANCH   2   3
ENDBRANCH   1   2
BRANCH   1  17
ATOM     17  C   UNL     1      37.836   6.032   4.475  1.00  0.00     0.000 C 
BRANCH  17  18
ATOM     18  C   UNL     1      37.418   4.592   4.837  1.00  0.00     0.000 C 
BRANCH  18  19
ATOM     19  C   UNL     1      37.693   4.174   6.293  1.00  0.00     0.000 C 
BRANCH  19  20
ATOM     20  C   UNL     1      37.833   2.657   6.521  1.00  0.00     0.000 C 
BRANCH  20  21
ATOM     21  C   UNL     1      39.284   2.193   6.792  1.00  0.00     0.000 C 
BRANCH  21  22
ATOM     22  C   UNL     1      40.335   3.323   6.828  1.00  0.00    -0.000 C 
BRANCH  22  23
ATOM     23  C   UNL     1      41.073   3.588   5.501  1.00  0.00    -0.000 C 
BRANCH  23  24
ATOM     24  C   UNL     1      41.361   2.307   4.705  1.00  0.00    -0.000 C 
BRANCH  24  25
ATOM     25  C   UNL     1      41.346   2.581   3.194  1.00  0.00    -0.000 C 
BRANCH  25  26
ATOM     26  C   UNL     1      39.972   3.047   2.682  1.00  0.00    -0.000 C 
BRANCH  26  27
ATOM     27  C   UNL     1      39.118   1.914   2.074  1.00  0.00    -0.000 C 
BRANCH  27  28
ATOM     28  C   UNL     1      37.947   1.514   2.987  1.00  0.00    -0.000 C 
BRANCH  28  29
ATOM     29  C   UNL     1      38.218   0.213   3.760  1.00  0.00    -0.003 C 
ATOM     30  C   UNL     1      39.334  -0.624   3.134  1.00  0.00     0.004 C 
ENDBRANCH  28  29
ENDBRANCH  27  28
ENDBRANCH  26  27
ENDBRANCH  25  26
ENDBRANCH  24  25
ENDBRANCH  23  24
ENDBRANCH  22  23
ENDBRANCH  21  22
ENDBRANCH  20  21
ENDBRANCH  19  20
ENDBRANCH  18  19
ENDBRANCH  17  18
ENDBRANCH   1  17
TORSDOF 26
ENDMDL
MODEL 9
REMARK VINA RESULT:    -3.411      1.922      4.587
REMARK INTER + INTRA:         -12.851
REMARK INTER:                  -8.666
REMARK INTRA:                  -4.185
REMARK UNBOUND:                -4.255
REMARK SMILES CCCCCCCCCCCCCCCCCCCCCCCCCCCC(=O)[O-]
REMARK SMILES IDX 15 1 16 2 17 3 18 4 19 5 20 6 21 7 22 8 23 9 24 10 25 11
REMARK SMILES IDX 26 12 27 13 28 14 29 15 30 16 14 17 13 18 12 19 11 20 10 21
REMARK SMILES IDX 9 22 8 23 7 24 6 25 5 26 4 27 3 28 2 29 1 30
REMARK H PARENT
REMARK Flexibility Score: inf
ROOT
ATOM      1  C   UNL     1      33.312   5.751  -6.627  1.00  0.00     0.000 C 
ENDROOT
BRANCH   1   2
ATOM      2  C   UNL     1      33.825   7.177  -6.359  1.00  0.00     0.000 C 
BRANCH   2   3
ATOM      3  C   UNL     1      35.358   7.249  -6.279  1.00  0.00     0.000 C 
BRANCH   3   4
ATOM      4  C   UNL     1      36.010   5.857  -6.204  1.00  0.00     0.000 C 
BRANCH   4   5
ATOM      5  C   UNL     1      37.134   5.666  -7.240  1.00  0.00     0.000 C 
BRANCH   5   6
ATOM      6  C   UNL     1      37.890   4.329  -7.149  1.00  0.00     0.000 C 
BRANCH   6   7
ATOM      7  C   UNL     1      37.515   3.353  -8.277  1.00  0.00     0.000 C 
BRANCH   7   8
ATOM      8  C   UNL     1      36.196   2.606  -8.002  1.00  0.00     0.000 C 
BRANCH   8   9
ATOM      9  C   UNL     1      35.996   1.331  -8.843  1.00  0.00     0.000 C 
BRANCH   9  10
ATOM     10  C   UNL     1      37.092   0.279  -8.594  1.00  0.00     0.000 C 
BRANCH  10  11
ATOM     11  C   UNL     1      36.549  -0.994  -7.926  1.00  0.00     0.000 C 
BRANCH  11  12
ATOM     12  C   UNL     1      36.000  -0.739  -6.514  1.00  0.00     0.006 C 
BRANCH  12  13
ATOM     13  C   UNL     1      35.549  -2.050  -5.859  1.00  0.00     0.053 C 
BRANCH  13  14
ATOM     14  C   UNL     1      36.729  -2.896  -5.494  1.00  0.00     0.041 C 
ATOM     15  O   UNL     1      37.550  -2.500  -4.622  1.00  0.00    -0.550 OA
ATOM     16  O   UNL     1      36.908  -4.137  -6.094  1.00  0.00    -0.550 OA
ENDBRANCH  13  14
ENDBRANCH  12  13
ENDBRANCH  11  12
ENDBRANCH  10  11
ENDBRANCH   9  10
ENDBRANCH   8   9
ENDBRANCH   7   8
ENDBRANCH   6   7
ENDBRANCH   5   6
ENDBRANCH   4   5
ENDBRANCH   3   4
ENDBRANCH   2   3
ENDBRANCH   1   2
BRANCH   1  17
ATOM     17  C   UNL     1      31.903   5.733  -7.249  1.00  0.00     0.000 C 
BRANCH  17  18
ATOM     18  C   UNL     1      31.176   7.093  -7.255  1.00  0.00     0.000 C 
BRANCH  18  19
ATOM     19  C   UNL     1      29.640   7.018  -7.175  1.00  0.00     0.000 C 
BRANCH  19  20
ATOM     20  C   UNL     1      28.890   7.984  -8.112  1.00  0.00     0.000 C 
BRANCH  20  21
ATOM     21  C   UNL     1      28.500   7.364  -9.474  1.00  0.00     0.000 C 
BRANCH  21  22
ATOM     22  C   UNL     1      29.421   7.747 -10.653  1.00  0.00    -0.000 C 
BRANCH  22  23
ATOM     23  C   UNL     1      30.044   6.565 -11.422  1.00  0.00    -0.000 C 
BRANCH  23  24
ATOM     24  C   UNL     1      31.401   6.126 -10.856  1.00  0.00    -0.000 C 
BRANCH  24  25
ATOM     25  C   UNL     1      32.517   7.087 -11.288  1.00  0.00    -0.000 C 
BRANCH  25  26
ATOM     26  C   UNL     1      33.453   7.480 -10.131  1.00  0.00    -0.000 C 
BRANCH  26  27
ATOM     27  C   UNL     1      34.839   6.805 -10.197  1.00  0.00    -0.000 C 
BRANCH  27  28
ATOM     28  C   UNL     1      34.766   5.295  -9.911  1.00  0.00    -0.000 C 
BRANCH  28  29
ATOM     29  C   UNL     1      35.244   4.445 -11.098  1.00  0.00    -0.003 C 
ATOM     30  C   UNL     1      34.105   3.681 -11.774  1.00  0.00     0.004 C 
ENDBRANCH  28  29
ENDBRANCH  27  28
ENDBRANCH  26  27
ENDBRANCH  25  26
ENDBRANCH  24  25
ENDBRANCH  23  24
ENDBRANCH  22  23
ENDBRANCH  21  22
ENDBRANCH  20  21
ENDBRANCH  19  20
ENDBRANCH  18  19
ENDBRANCH  17  18
ENDBRANCH   1  17
TORSDOF 26
ENDMDL
