MODEL 1
REMARK VINA RESULT:    -5.750      0.000      0.000
REMARK INTER + INTRA:          -6.254
REMARK INTER:                  -6.254
REMARK INTRA:                   0.000
REMARK UNBOUND:                 0.000
REMARK SMILES Cc1cc(O)c2c(c1)C(=O)c1cc(O)cc(O)c1C2=O
REMARK SMILES IDX 1 1 2 2 8 3 7 4 6 5 4 6 3 7 19 8 20 9 18 10 11 11 9 12 10 13
REMARK SMILES IDX 12 14 13 15 15 16 16 17 5 18 17 20 14 22
REMARK H PARENT 5 19 17 21 14 23
REMARK Flexibility Score: inf
ROOT
ATOM      1  C   UNL     1      -4.359  31.124  59.864  1.00  0.00     0.044 C 
ATOM      2  C   UNL     1      -5.641  30.999  59.094  1.00  0.00    -0.047 A 
ATOM      3  C   UNL     1      -5.847  29.906  58.245  1.00  0.00     0.016 A 
ATOM      4  C   UNL     1      -7.055  29.763  57.542  1.00  0.00     0.038 A 
ATOM      5  C   UNL     1      -8.074  30.731  57.691  1.00  0.00     0.076 A 
ATOM      6  C   UNL     1      -7.891  31.790  58.618  1.00  0.00     0.127 A 
ATOM      7  C   UNL     1      -6.673  31.921  59.291  1.00  0.00     0.050 A 
ATOM      8  C   UNL     1      -9.274  30.628  56.821  1.00  0.00     0.201 C 
ATOM      9  O   UNL     1      -9.896  31.671  56.486  1.00  0.00    -0.288 OA
ATOM     10  C   UNL     1      -9.625  29.324  56.200  1.00  0.00     0.076 A 
ATOM     11  C   UNL     1      -8.604  28.358  56.055  1.00  0.00     0.041 A 
ATOM     12  C   UNL     1      -7.268  28.600  56.649  1.00  0.00     0.194 C 
ATOM     13  O   UNL     1      -6.319  27.801  56.415  1.00  0.00    -0.289 OA
ATOM     14  C   UNL     1      -8.862  27.169  55.350  1.00  0.00     0.059 A 
ATOM     15  C   UNL     1     -10.125  26.928  54.804  1.00  0.00     0.120 A 
ATOM     16  C   UNL     1     -11.146  27.862  54.981  1.00  0.00     0.093 A 
ATOM     17  C   UNL     1     -10.922  29.042  55.696  1.00  0.00     0.131 A 
ENDROOT
BRANCH   6  18
ATOM     18  O   UNL     1      -8.901  32.705  58.926  1.00  0.00    -0.507 OA
ATOM     19  H   UNL     1      -8.971  33.183  59.813  1.00  0.00     0.293 HD
ENDBRANCH   6  18
BRANCH  17  20
ATOM     20  O   UNL     1     -12.016  29.885  55.909  1.00  0.00    -0.507 OA
ATOM     21  H   UNL     1     -11.941  30.804  56.323  1.00  0.00     0.293 HD
ENDBRANCH  17  20
BRANCH  15  22
ATOM     22  O   UNL     1     -10.381  25.757  54.094  1.00  0.00    -0.508 OA
ATOM     23  H   UNL     1     -11.195  25.186  54.289  1.00  0.00     0.293 HD
ENDBRANCH  15  22
TORSDOF 3
ENDMDL
MODEL 2
REMARK VINA RESULT:    -5.456     14.835     15.585
REMARK INTER + INTRA:          -5.934
REMARK INTER:                  -5.934
REMARK INTRA:                   0.000
REMARK UNBOUND:                 0.000
REMARK SMILES Cc1cc(O)c2c(c1)C(=O)c1cc(O)cc(O)c1C2=O
REMARK SMILES IDX 1 1 2 2 8 3 7 4 6 5 4 6 3 7 19 8 20 9 18 10 11 11 9 12 10 13
REMARK SMILES IDX 12 14 13 15 15 16 16 17 5 18 17 20 14 22
REMARK H PARENT 5 19 17 21 14 23
REMARK Flexibility Score: inf
ROOT
ATOM      1  C   UNL     1      -8.059  40.125  46.244  1.00  0.00     0.044 C 
ATOM      2  C   UNL     1      -7.663  38.800  45.662  1.00  0.00    -0.047 A 
ATOM      3  C   UNL     1      -6.747  38.741  44.606  1.00  0.00     0.016 A 
ATOM      4  C   UNL     1      -6.347  37.504  44.072  1.00  0.00     0.038 A 
ATOM      5  C   UNL     1      -6.874  36.306  44.604  1.00  0.00     0.076 A 
ATOM      6  C   UNL     1      -7.736  36.369  45.729  1.00  0.00     0.127 A 
ATOM      7  C   UNL     1      -8.135  37.612  46.230  1.00  0.00     0.050 A 
ATOM      8  C   UNL     1      -6.545  35.029  43.920  1.00  0.00     0.201 C 
ATOM      9  O   UNL     1      -7.365  34.073  43.949  1.00  0.00    -0.288 OA
ATOM     10  C   UNL     1      -5.342  34.946  43.050  1.00  0.00     0.076 A 
ATOM     11  C   UNL     1      -4.816  36.147  42.523  1.00  0.00     0.041 A 
ATOM     12  C   UNL     1      -5.371  37.451  42.958  1.00  0.00     0.194 C 
ATOM     13  O   UNL     1      -4.993  38.516  42.398  1.00  0.00    -0.289 OA
ATOM     14  C   UNL     1      -3.767  36.100  41.589  1.00  0.00     0.059 A 
ATOM     15  C   UNL     1      -3.227  34.874  41.190  1.00  0.00     0.120 A 
ATOM     16  C   UNL     1      -3.717  33.690  41.740  1.00  0.00     0.093 A 
ATOM     17  C   UNL     1      -4.746  33.710  42.686  1.00  0.00     0.131 A 
ENDROOT
BRANCH   6  18
ATOM     18  O   UNL     1      -8.188  35.229  46.398  1.00  0.00    -0.507 OA
ATOM     19  H   UNL     1      -7.712  34.819  47.190  1.00  0.00     0.293 HD
ENDBRANCH   6  18
BRANCH  17  20
ATOM     20  O   UNL     1      -5.120  32.492  43.259  1.00  0.00    -0.507 OA
ATOM     21  H   UNL     1      -4.914  31.593  42.845  1.00  0.00     0.293 HD
ENDBRANCH  17  20
BRANCH  15  22
ATOM     22  O   UNL     1      -2.195  34.822  40.255  1.00  0.00    -0.508 OA
ATOM     23  H   UNL     1      -1.590  34.014  40.179  1.00  0.00     0.293 HD
ENDBRANCH  15  22
TORSDOF 3
ENDMDL
MODEL 3
REMARK VINA RESULT:    -5.318      1.675      3.767
REMARK INTER + INTRA:          -5.784
REMARK INTER:                  -5.784
REMARK INTRA:                   0.000
REMARK UNBOUND:                 0.000
REMARK SMILES Cc1cc(O)c2c(c1)C(=O)c1cc(O)cc(O)c1C2=O
REMARK SMILES IDX 1 1 2 2 8 3 7 4 6 5 4 6 3 7 19 8 20 9 18 10 11 11 9 12 10 13
REMARK SMILES IDX 12 14 13 15 15 16 16 17 5 18 17 20 14 22
REMARK H PARENT 5 19 17 21 14 23
REMARK Flexibility Score: inf
ROOT
ATOM      1  C   UNL     1      -4.372  31.472  60.118  1.00  0.00     0.044 C 
ATOM      2  C   UNL     1      -5.456  30.950  59.221  1.00  0.00    -0.047 A 
ATOM      3  C   UNL     1      -6.667  31.642  59.106  1.00  0.00     0.016 A 
ATOM      4  C   UNL     1      -7.678  31.180  58.248  1.00  0.00     0.038 A 
ATOM      5  C   UNL     1      -7.475  30.003  57.492  1.00  0.00     0.076 A 
ATOM      6  C   UNL     1      -6.214  29.354  57.550  1.00  0.00     0.127 A 
ATOM      7  C   UNL     1      -5.231  29.823  58.426  1.00  0.00     0.050 A 
ATOM      8  C   UNL     1      -8.617  29.463  56.712  1.00  0.00     0.201 C 
ATOM      9  O   UNL     1      -8.708  28.222  56.510  1.00  0.00    -0.288 OA
ATOM     10  C   UNL     1      -9.742  30.358  56.334  1.00  0.00     0.076 A 
ATOM     11  C   UNL     1      -9.941  31.535  57.090  1.00  0.00     0.041 A 
ATOM     12  C   UNL     1      -8.955  31.922  58.127  1.00  0.00     0.194 C 
ATOM     13  O   UNL     1      -9.191  32.900  58.888  1.00  0.00    -0.289 OA
ATOM     14  C   UNL     1     -11.072  32.335  56.853  1.00  0.00     0.059 A 
ATOM     15  C   UNL     1     -11.994  31.984  55.864  1.00  0.00     0.120 A 
ATOM     16  C   UNL     1     -11.779  30.845  55.088  1.00  0.00     0.093 A 
ATOM     17  C   UNL     1     -10.651  30.044  55.290  1.00  0.00     0.131 A 
ENDROOT
BRANCH   6  18
ATOM     18  O   UNL     1      -5.886  28.270  56.732  1.00  0.00    -0.507 OA
ATOM     19  H   UNL     1      -5.600  28.363  55.767  1.00  0.00     0.293 HD
ENDBRANCH   6  18
BRANCH  17  20
ATOM     20  O   UNL     1     -10.457  28.972  54.414  1.00  0.00    -0.507 OA
ATOM     21  H   UNL     1     -10.191  28.045  54.717  1.00  0.00     0.293 HD
ENDBRANCH  17  20
BRANCH  15  22
ATOM     22  O   UNL     1     -13.123  32.768  55.634  1.00  0.00    -0.508 OA
ATOM     23  H   UNL     1     -13.976  32.372  55.258  1.00  0.00     0.293 HD
ENDBRANCH  15  22
TORSDOF 3
ENDMDL
MODEL 4
REMARK VINA RESULT:    -5.212     15.175     16.086
REMARK INTER + INTRA:          -5.669
REMARK INTER:                  -5.669
REMARK INTRA:                   0.000
REMARK UNBOUND:                 0.000
REMARK SMILES Cc1cc(O)c2c(c1)C(=O)c1cc(O)cc(O)c1C2=O
REMARK SMILES IDX 1 1 2 2 8 3 7 4 6 5 4 6 3 7 19 8 20 9 18 10 11 11 9 12 10 13
REMARK SMILES IDX 12 14 13 15 15 16 16 17 5 18 17 20 14 22
REMARK H PARENT 5 19 17 21 14 23
REMARK Flexibility Score: inf
ROOT
ATOM      1  C   UNL     1      -2.493  31.599  42.496  1.00  0.00     0.044 C 
ATOM      2  C   UNL     1      -3.051  32.992  42.508  1.00  0.00    -0.047 A 
ATOM      3  C   UNL     1      -4.278  33.254  43.127  1.00  0.00     0.016 A 
ATOM      4  C   UNL     1      -4.795  34.560  43.170  1.00  0.00     0.038 A 
ATOM      5  C   UNL     1      -4.072  35.622  42.581  1.00  0.00     0.076 A 
ATOM      6  C   UNL     1      -2.790  35.363  42.029  1.00  0.00     0.127 A 
ATOM      7  C   UNL     1      -2.306  34.052  41.982  1.00  0.00     0.050 A 
ATOM      8  C   UNL     1      -4.717  36.958  42.513  1.00  0.00     0.201 C 
ATOM      9  O   UNL     1      -4.435  37.743  41.568  1.00  0.00    -0.288 OA
ATOM     10  C   UNL     1      -5.825  37.291  43.446  1.00  0.00     0.076 A 
ATOM     11  C   UNL     1      -6.543  36.227  44.035  1.00  0.00     0.041 A 
ATOM     12  C   UNL     1      -6.092  34.830  43.834  1.00  0.00     0.194 C 
ATOM     13  O   UNL     1      -6.799  33.872  44.250  1.00  0.00    -0.289 OA
ATOM     14  C   UNL     1      -7.682  36.499  44.813  1.00  0.00     0.059 A 
ATOM     15  C   UNL     1      -8.101  37.815  45.021  1.00  0.00     0.120 A 
ATOM     16  C   UNL     1      -7.370  38.870  44.475  1.00  0.00     0.093 A 
ATOM     17  C   UNL     1      -6.222  38.627  43.715  1.00  0.00     0.131 A 
ENDROOT
BRANCH   6  18
ATOM     18  O   UNL     1      -1.955  36.377  41.554  1.00  0.00    -0.507 OA
ATOM     19  H   UNL     1      -1.195  36.772  42.090  1.00  0.00     0.293 HD
ENDBRANCH   6  18
BRANCH  17  20
ATOM     20  O   UNL     1      -5.491  39.736  43.278  1.00  0.00    -0.507 OA
ATOM     21  H   UNL     1      -5.565  40.122  42.347  1.00  0.00     0.293 HD
ENDBRANCH  17  20
BRANCH  15  22
ATOM     22  O   UNL     1      -9.236  38.088  45.781  1.00  0.00    -0.508 OA
ATOM     23  H   UNL     1      -9.939  37.380  45.958  1.00  0.00     0.293 HD
ENDBRANCH  15  22
TORSDOF 3
ENDMDL
MODEL 5
REMARK VINA RESULT:    -5.173     15.484     16.112
REMARK INTER + INTRA:          -5.627
REMARK INTER:                  -5.627
REMARK INTRA:                   0.000
REMARK UNBOUND:                 0.000
REMARK SMILES Cc1cc(O)c2c(c1)C(=O)c1cc(O)cc(O)c1C2=O
REMARK SMILES IDX 1 1 2 2 8 3 7 4 6 5 4 6 3 7 19 8 20 9 18 10 11 11 9 12 10 13
REMARK SMILES IDX 12 14 13 15 15 16 16 17 5 18 17 20 14 22
REMARK H PARENT 5 19 17 21 14 23
REMARK Flexibility Score: inf
ROOT
ATOM      1  C   UNL     1      -7.816  34.387  47.069  1.00  0.00     0.044 C 
ATOM      2  C   UNL     1      -7.100  35.006  45.905  1.00  0.00    -0.047 A 
ATOM      3  C   UNL     1      -5.982  34.374  45.349  1.00  0.00     0.016 A 
ATOM      4  C   UNL     1      -5.321  34.931  44.242  1.00  0.00     0.038 A 
ATOM      5  C   UNL     1      -5.786  36.141  43.680  1.00  0.00     0.076 A 
ATOM      6  C   UNL     1      -6.969  36.731  44.195  1.00  0.00     0.127 A 
ATOM      7  C   UNL     1      -7.598  36.169  45.310  1.00  0.00     0.050 A 
ATOM      8  C   UNL     1      -4.977  36.775  42.608  1.00  0.00     0.201 C 
ATOM      9  O   UNL     1      -4.983  38.029  42.477  1.00  0.00    -0.288 OA
ATOM     10  C   UNL     1      -4.022  35.953  41.820  1.00  0.00     0.076 A 
ATOM     11  C   UNL     1      -3.561  34.742  42.383  1.00  0.00     0.041 A 
ATOM     12  C   UNL     1      -4.141  34.251  43.656  1.00  0.00     0.194 C 
ATOM     13  O   UNL     1      -3.647  33.240  44.226  1.00  0.00    -0.289 OA
ATOM     14  C   UNL     1      -2.556  34.006  41.731  1.00  0.00     0.059 A 
ATOM     15  C   UNL     1      -2.020  34.455  40.522  1.00  0.00     0.120 A 
ATOM     16  C   UNL     1      -2.502  35.628  39.943  1.00  0.00     0.093 A 
ATOM     17  C   UNL     1      -3.515  36.368  40.560  1.00  0.00     0.131 A 
ENDROOT
BRANCH   6  18
ATOM     18  O   UNL     1      -7.571  37.848  43.609  1.00  0.00    -0.507 OA
ATOM     19  H   UNL     1      -8.453  37.815  43.118  1.00  0.00     0.293 HD
ENDBRANCH   6  18
BRANCH  17  20
ATOM     20  O   UNL     1      -4.010  37.481  39.875  1.00  0.00    -0.507 OA
ATOM     21  H   UNL     1      -3.784  38.435  40.123  1.00  0.00     0.293 HD
ENDBRANCH  17  20
BRANCH  15  22
ATOM     22  O   UNL     1      -1.015  33.735  39.879  1.00  0.00    -0.508 OA
ATOM     23  H   UNL     1      -0.091  34.124  39.739  1.00  0.00     0.293 HD
ENDBRANCH  15  22
TORSDOF 3
ENDMDL
MODEL 6
REMARK VINA RESULT:    -5.138     14.949     15.970
REMARK INTER + INTRA:          -5.588
REMARK INTER:                  -5.588
REMARK INTRA:                   0.000
REMARK UNBOUND:                 0.000
REMARK SMILES Cc1cc(O)c2c(c1)C(=O)c1cc(O)cc(O)c1C2=O
REMARK SMILES IDX 1 1 2 2 8 3 7 4 6 5 4 6 3 7 19 8 20 9 18 10 11 11 9 12 10 13
REMARK SMILES IDX 12 14 13 15 15 16 16 17 5 18 17 20 14 22
REMARK H PARENT 5 19 17 21 14 23
REMARK Flexibility Score: inf
ROOT
ATOM      1  C   UNL     1      -2.169  35.174  39.875  1.00  0.00     0.044 C 
ATOM      2  C   UNL     1      -3.133  35.173  41.025  1.00  0.00    -0.047 A 
ATOM      3  C   UNL     1      -3.617  36.382  41.539  1.00  0.00     0.016 A 
ATOM      4  C   UNL     1      -4.542  36.392  42.596  1.00  0.00     0.038 A 
ATOM      5  C   UNL     1      -4.990  35.172  43.150  1.00  0.00     0.076 A 
ATOM      6  C   UNL     1      -4.560  33.950  42.570  1.00  0.00     0.127 A 
ATOM      7  C   UNL     1      -3.624  33.966  41.531  1.00  0.00     0.050 A 
ATOM      8  C   UNL     1      -5.849  35.223  44.360  1.00  0.00     0.201 C 
ATOM      9  O   UNL     1      -5.808  34.283  45.199  1.00  0.00    -0.288 OA
ATOM     10  C   UNL     1      -6.610  36.461  44.673  1.00  0.00     0.076 A 
ATOM     11  C   UNL     1      -6.161  37.679  44.115  1.00  0.00     0.041 A 
ATOM     12  C   UNL     1      -5.054  37.677  43.129  1.00  0.00     0.194 C 
ATOM     13  O   UNL     1      -4.567  38.767  42.724  1.00  0.00    -0.289 OA
ATOM     14  C   UNL     1      -6.769  38.888  44.495  1.00  0.00     0.059 A 
ATOM     15  C   UNL     1      -7.825  38.894  45.410  1.00  0.00     0.120 A 
ATOM     16  C   UNL     1      -8.297  37.690  45.931  1.00  0.00     0.093 A 
ATOM     17  C   UNL     1      -7.723  36.472  45.554  1.00  0.00     0.131 A 
ENDROOT
BRANCH   6  18
ATOM     18  O   UNL     1      -5.062  32.709  42.968  1.00  0.00    -0.507 OA
ATOM     19  H   UNL     1      -5.651  32.577  43.778  1.00  0.00     0.293 HD
ENDBRANCH   6  18
BRANCH  17  20
ATOM     20  O   UNL     1      -8.309  35.303  46.047  1.00  0.00    -0.507 OA
ATOM     21  H   UNL     1      -7.785  34.471  46.281  1.00  0.00     0.293 HD
ENDBRANCH  17  20
BRANCH  15  22
ATOM     22  O   UNL     1      -8.421  40.092  45.799  1.00  0.00    -0.508 OA
ATOM     23  H   UNL     1      -9.314  40.386  45.422  1.00  0.00     0.293 HD
ENDBRANCH  15  22
TORSDOF 3
ENDMDL
MODEL 7
REMARK VINA RESULT:    -5.130     15.802     16.657
REMARK INTER + INTRA:          -5.579
REMARK INTER:                  -5.579
REMARK INTRA:                   0.000
REMARK UNBOUND:                 0.000
REMARK SMILES Cc1cc(O)c2c(c1)C(=O)c1cc(O)cc(O)c1C2=O
REMARK SMILES IDX 1 1 2 2 8 3 7 4 6 5 4 6 3 7 19 8 20 9 18 10 11 11 9 12 10 13
REMARK SMILES IDX 12 14 13 15 15 16 16 17 5 18 17 20 14 22
REMARK H PARENT 5 19 17 21 14 23
REMARK Flexibility Score: inf
ROOT
ATOM      1  C   UNL     1      -8.500  37.883  45.874  1.00  0.00     0.044 C 
ATOM      2  C   UNL     1      -7.624  37.006  45.027  1.00  0.00    -0.047 A 
ATOM      3  C   UNL     1      -6.653  37.574  44.195  1.00  0.00     0.016 A 
ATOM      4  C   UNL     1      -5.808  36.761  43.421  1.00  0.00     0.038 A 
ATOM      5  C   UNL     1      -5.938  35.356  43.479  1.00  0.00     0.076 A 
ATOM      6  C   UNL     1      -6.866  34.784  44.387  1.00  0.00     0.127 A 
ATOM      7  C   UNL     1      -7.709  35.614  45.133  1.00  0.00     0.050 A 
ATOM      8  C   UNL     1      -5.133  34.536  42.538  1.00  0.00     0.201 C 
ATOM      9  O   UNL     1      -5.575  33.427  42.136  1.00  0.00    -0.288 OA
ATOM     10  C   UNL     1      -3.902  35.106  41.929  1.00  0.00     0.076 A 
ATOM     11  C   UNL     1      -3.774  36.512  41.875  1.00  0.00     0.041 A 
ATOM     12  C   UNL     1      -4.778  37.371  42.547  1.00  0.00     0.194 C 
ATOM     13  O   UNL     1      -4.740  38.623  42.395  1.00  0.00    -0.289 OA
ATOM     14  C   UNL     1      -2.694  37.090  41.187  1.00  0.00     0.059 A 
ATOM     15  C   UNL     1      -1.734  36.284  40.569  1.00  0.00     0.120 A 
ATOM     16  C   UNL     1      -1.836  34.896  40.656  1.00  0.00     0.093 A 
ATOM     17  C   UNL     1      -2.889  34.296  41.351  1.00  0.00     0.131 A 
ENDROOT
BRANCH   6  18
ATOM     18  O   UNL     1      -6.958  33.407  44.606  1.00  0.00    -0.507 OA
ATOM     19  H   UNL     1      -7.775  32.858  44.377  1.00  0.00     0.293 HD
ENDBRANCH   6  18
BRANCH  17  20
ATOM     20  O   UNL     1      -2.873  32.904  41.473  1.00  0.00    -0.507 OA
ATOM     21  H   UNL     1      -3.593  32.302  41.096  1.00  0.00     0.293 HD
ENDBRANCH  17  20
BRANCH  15  22
ATOM     22  O   UNL     1      -0.668  36.853  39.875  1.00  0.00    -0.508 OA
ATOM     23  H   UNL     1      -0.703  36.992  38.872  1.00  0.00     0.293 HD
ENDBRANCH  15  22
TORSDOF 3
ENDMDL
MODEL 8
REMARK VINA RESULT:    -5.086      1.496      5.489
REMARK INTER + INTRA:          -5.533
REMARK INTER:                  -5.533
REMARK INTRA:                   0.000
REMARK UNBOUND:                 0.000
REMARK SMILES Cc1cc(O)c2c(c1)C(=O)c1cc(O)cc(O)c1C2=O
REMARK SMILES IDX 1 1 2 2 8 3 7 4 6 5 4 6 3 7 19 8 20 9 18 10 11 11 9 12 10 13
REMARK SMILES IDX 12 14 13 15 15 16 16 17 5 18 17 20 14 22
REMARK H PARENT 5 19 17 21 14 23
REMARK Flexibility Score: inf
ROOT
ATOM      1  C   UNL     1     -10.002  26.767  52.693  1.00  0.00     0.044 C 
ATOM      2  C   UNL     1      -9.792  27.825  53.737  1.00  0.00    -0.047 A 
ATOM      3  C   UNL     1      -8.754  27.700  54.667  1.00  0.00     0.016 A 
ATOM      4  C   UNL     1      -8.530  28.698  55.630  1.00  0.00     0.038 A 
ATOM      5  C   UNL     1      -9.359  29.842  55.663  1.00  0.00     0.076 A 
ATOM      6  C   UNL     1     -10.354  30.003  54.664  1.00  0.00     0.127 A 
ATOM      7  C   UNL     1     -10.571  28.986  53.729  1.00  0.00     0.050 A 
ATOM      8  C   UNL     1      -9.189  30.801  56.784  1.00  0.00     0.201 C 
ATOM      9  O   UNL     1     -10.177  31.466  57.195  1.00  0.00    -0.288 OA
ATOM     10  C   UNL     1      -7.907  30.837  57.536  1.00  0.00     0.076 A 
ATOM     11  C   UNL     1      -7.079  29.693  57.499  1.00  0.00     0.041 A 
ATOM     12  C   UNL     1      -7.425  28.560  56.608  1.00  0.00     0.194 C 
ATOM     13  O   UNL     1      -6.762  27.488  56.664  1.00  0.00    -0.289 OA
ATOM     14  C   UNL     1      -5.929  29.636  58.305  1.00  0.00     0.059 A 
ATOM     15  C   UNL     1      -5.589  30.709  59.132  1.00  0.00     0.120 A 
ATOM     16  C   UNL     1      -6.382  31.856  59.140  1.00  0.00     0.093 A 
ATOM     17  C   UNL     1      -7.519  31.947  58.332  1.00  0.00     0.131 A 
ENDROOT
BRANCH   6  18
ATOM     18  O   UNL     1     -11.121  31.165  54.544  1.00  0.00    -0.507 OA
ATOM     19  H   UNL     1     -11.627  31.583  55.311  1.00  0.00     0.293 HD
ENDBRANCH   6  18
BRANCH  17  20
ATOM     20  O   UNL     1      -8.211  33.161  58.326  1.00  0.00    -0.507 OA
ATOM     21  H   UNL     1      -8.257  33.774  57.523  1.00  0.00     0.293 HD
ENDBRANCH  17  20
BRANCH  15  22
ATOM     22  O   UNL     1      -4.456  30.652  59.941  1.00  0.00    -0.508 OA
ATOM     23  H   UNL     1      -4.525  30.483  60.938  1.00  0.00     0.293 HD
ENDBRANCH  15  22
TORSDOF 3
ENDMDL
MODEL 9
REMARK VINA RESULT:    -5.028     16.191     16.844
REMARK INTER + INTRA:          -5.469
REMARK INTER:                  -5.469
REMARK INTRA:                   0.000
REMARK UNBOUND:                 0.000
REMARK SMILES Cc1cc(O)c2c(c1)C(=O)c1cc(O)cc(O)c1C2=O
REMARK SMILES IDX 1 1 2 2 8 3 7 4 6 5 4 6 3 7 19 8 20 9 18 10 11 11 9 12 10 13
REMARK SMILES IDX 12 14 13 15 15 16 16 17 5 18 17 20 14 22
REMARK H PARENT 5 19 17 21 14 23
REMARK Flexibility Score: inf
ROOT
ATOM      1  C   UNL     1      -8.454  37.167  46.248  1.00  0.00     0.044 C 
ATOM      2  C   UNL     1      -7.366  37.384  45.238  1.00  0.00    -0.047 A 
ATOM      3  C   UNL     1      -6.547  36.319  44.846  1.00  0.00     0.016 A 
ATOM      4  C   UNL     1      -5.545  36.505  43.879  1.00  0.00     0.038 A 
ATOM      5  C   UNL     1      -5.358  37.778  43.295  1.00  0.00     0.076 A 
ATOM      6  C   UNL     1      -6.246  38.831  43.634  1.00  0.00     0.127 A 
ATOM      7  C   UNL     1      -7.224  38.627  44.613  1.00  0.00     0.050 A 
ATOM      8  C   UNL     1      -4.196  37.972  42.391  1.00  0.00     0.201 C 
ATOM      9  O   UNL     1      -3.650  39.105  42.306  1.00  0.00    -0.288 OA
ATOM     10  C   UNL     1      -3.566  36.796  41.735  1.00  0.00     0.076 A 
ATOM     11  C   UNL     1      -3.757  35.525  42.320  1.00  0.00     0.041 A 
ATOM     12  C   UNL     1      -4.686  35.370  43.465  1.00  0.00     0.194 C 
ATOM     13  O   UNL     1      -4.764  34.266  44.070  1.00  0.00    -0.289 OA
ATOM     14  C   UNL     1      -3.067  34.410  41.812  1.00  0.00     0.059 A 
ATOM     15  C   UNL     1      -2.205  34.547  40.721  1.00  0.00     0.120 A 
ATOM     16  C   UNL     1      -2.046  35.793  40.116  1.00  0.00     0.093 A 
ATOM     17  C   UNL     1      -2.736  36.913  40.589  1.00  0.00     0.131 A 
ENDROOT
BRANCH   6  18
ATOM     18  O   UNL     1      -6.217  40.076  43.001  1.00  0.00    -0.507 OA
ATOM     19  H   UNL     1      -5.414  40.429  42.499  1.00  0.00     0.293 HD
ENDBRANCH   6  18
BRANCH  17  20
ATOM     20  O   UNL     1      -2.597  38.106  39.875  1.00  0.00    -0.507 OA
ATOM     21  H   UNL     1      -2.265  38.968  40.287  1.00  0.00     0.293 HD
ENDBRANCH  17  20
BRANCH  15  22
ATOM     22  O   UNL     1      -1.510  33.447  40.222  1.00  0.00    -0.508 OA
ATOM     23  H   UNL     1      -0.534  33.512  39.960  1.00  0.00     0.293 HD
ENDBRANCH  15  22
TORSDOF 3
ENDMDL
