MODEL 1
REMARK VINA RESULT:    -5.338      0.000      0.000
REMARK INTER + INTRA:         -10.120
REMARK INTER:                  -7.210
REMARK INTRA:                  -2.910
REMARK UNBOUND:                -2.910
REMARK SMILES CC[C@@H](CC[C@H](C)[C@@H]1CC[C@H]2[C@@H]3CC(=O)C4=CC(=O)CC[C@]4(C)[C@H]3CC[C@@]21C)C(C)C
REMARK SMILES IDX 4 1 3 2 2 3 1 4 29 5 30 6 31 7 5 8 6 9 7 10 8 11 9 12 27 13
REMARK SMILES IDX 10 14 11 15 26 16 28 17 12 18 25 19 24 20 13 21 22 22 14 23
REMARK SMILES IDX 16 24 21 25 23 26 15 27 17 28 20 29 18 30 19 31
REMARK H PARENT
REMARK Flexibility Score: inf
ROOT
ATOM      1  C   UNL     1     139.080 135.217 127.945  1.00  0.00     0.004 C 
ENDROOT
BRANCH   1   2
ATOM      2  C   UNL     1     138.891 133.675 128.093  1.00  0.00    -0.009 C 
BRANCH   2   3
ATOM      3  C   UNL     1     137.831 133.047 127.143  1.00  0.00     0.000 C 
ATOM      4  C   UNL     1     137.345 133.924 125.989  1.00  0.00     0.004 C 
ENDBRANCH   2   3
BRANCH   2   5
ATOM      5  C   UNL     1     138.896 133.072 129.538  1.00  0.00    -0.014 C 
ATOM      6  C   UNL     1     140.282 132.908 130.183  1.00  0.00     0.007 C 
ATOM      7  C   UNL     1     138.078 131.774 129.639  1.00  0.00     0.007 C 
ENDBRANCH   2   5
ENDBRANCH   1   2
BRANCH   1   8
ATOM      8  C   UNL     1     138.414 136.122 129.007  1.00  0.00     0.004 C 
BRANCH   8   9
ATOM      9  C   UNL     1     137.102 136.782 128.473  1.00  0.00    -0.011 C 
ATOM     10  C   UNL     1     137.290 138.322 128.503  1.00  0.00     0.008 C 
BRANCH   9  11
ATOM     11  C   UNL     1     135.846 136.325 129.304  1.00  0.00    -0.002 C 
ATOM     12  C   UNL     1     136.207 135.265 130.391  1.00  0.00     0.005 C 
ATOM     13  C   UNL     1     134.629 135.677 128.532  1.00  0.00    -0.026 C 
ATOM     14  C   UNL     1     135.230 134.101 130.259  1.00  0.00     0.005 C 
ATOM     15  C   UNL     1     134.818 134.176 128.806  1.00  0.00    -0.001 C 
ATOM     16  C   UNL     1     134.549 135.830 126.992  1.00  0.00     0.007 C 
ATOM     17  C   UNL     1     133.326 136.262 129.167  1.00  0.00     0.012 C 
ATOM     18  C   UNL     1     133.628 133.302 128.344  1.00  0.00     0.004 C 
ATOM     19  C   UNL     1     133.408 134.986 126.378  1.00  0.00     0.005 C 
ATOM     20  C   UNL     1     133.437 133.482 126.800  1.00  0.00     0.003 C 
ATOM     21  C   UNL     1     133.892 131.823 128.680  1.00  0.00     0.085 C 
ATOM     22  C   UNL     1     132.219 132.644 126.239  1.00  0.00    -0.000 C 
ATOM     23  C   UNL     1     132.868 130.918 128.074  1.00  0.00     0.159 C 
ATOM     24  C   UNL     1     132.333 131.193 126.721  1.00  0.00     0.005 C 
ATOM     25  C   UNL     1     132.249 132.678 124.676  1.00  0.00     0.020 C 
ATOM     26  C   UNL     1     130.858 133.199 126.737  1.00  0.00     0.017 C 
ATOM     27  O   UNL     1     132.526 129.876 128.698  1.00  0.00    -0.295 OA
ATOM     28  C   UNL     1     131.863 130.168 125.984  1.00  0.00     0.055 C 
ATOM     29  C   UNL     1     131.232 131.730 124.029  1.00  0.00     0.081 C 
ATOM     30  C   UNL     1     131.311 130.365 124.635  1.00  0.00     0.156 C 
ATOM     31  O   UNL     1     130.867 129.374 123.996  1.00  0.00    -0.295 OA
ENDBRANCH   9  11
ENDBRANCH   8   9
ENDBRANCH   1   8
TORSDOF 6
ENDMDL
MODEL 2
REMARK VINA RESULT:    -5.313      8.734     13.547
REMARK INTER + INTRA:         -10.087
REMARK INTER:                  -7.124
REMARK INTRA:                  -2.963
REMARK UNBOUND:                -2.910
REMARK SMILES CC[C@@H](CC[C@H](C)[C@@H]1CC[C@H]2[C@@H]3CC(=O)C4=CC(=O)CC[C@]4(C)[C@H]3CC[C@@]21C)C(C)C
REMARK SMILES IDX 4 1 3 2 2 3 1 4 29 5 30 6 31 7 5 8 6 9 7 10 8 11 9 12 27 13
REMARK SMILES IDX 10 14 11 15 26 16 28 17 12 18 25 19 24 20 13 21 22 22 14 23
REMARK SMILES IDX 16 24 21 25 23 26 15 27 17 28 20 29 18 30 19 31
REMARK H PARENT
REMARK Flexibility Score: inf
ROOT
ATOM      1  C   UNL     1     137.445 141.203 128.050  1.00  0.00     0.004 C 
ENDROOT
BRANCH   1   2
ATOM      2  C   UNL     1     137.610 142.753 128.130  1.00  0.00    -0.009 C 
BRANCH   2   3
ATOM      3  C   UNL     1     138.702 143.348 127.194  1.00  0.00     0.000 C 
ATOM      4  C   UNL     1     139.100 142.500 125.986  1.00  0.00     0.004 C 
ENDBRANCH   2   3
BRANCH   2   5
ATOM      5  C   UNL     1     137.538 143.426 129.541  1.00  0.00    -0.014 C 
ATOM      6  C   UNL     1     136.124 143.743 130.054  1.00  0.00     0.007 C 
ATOM      7  C   UNL     1     138.461 144.650 129.660  1.00  0.00     0.007 C 
ENDBRANCH   2   5
ENDBRANCH   1   2
BRANCH   1   8
ATOM      8  C   UNL     1     138.079 140.360 129.180  1.00  0.00     0.004 C 
BRANCH   8   9
ATOM      9  C   UNL     1     139.365 139.612 128.700  1.00  0.00    -0.011 C 
ATOM     10  C   UNL     1     139.126 138.087 128.864  1.00  0.00     0.008 C 
BRANCH   9  11
ATOM     11  C   UNL     1     140.641 140.096 129.483  1.00  0.00    -0.002 C 
ATOM     12  C   UNL     1     140.302 141.166 130.567  1.00  0.00     0.005 C 
ATOM     13  C   UNL     1     141.824 140.749 128.663  1.00  0.00    -0.026 C 
ATOM     14  C   UNL     1     141.258 142.340 130.388  1.00  0.00     0.005 C 
ATOM     15  C   UNL     1     141.624 142.251 128.923  1.00  0.00    -0.001 C 
ATOM     16  C   UNL     1     141.855 140.576 127.123  1.00  0.00     0.007 C 
ATOM     17  C   UNL     1     143.154 140.189 129.263  1.00  0.00     0.012 C 
ATOM     18  C   UNL     1     142.786 143.134 128.411  1.00  0.00     0.004 C 
ATOM     19  C   UNL     1     142.964 141.427 126.461  1.00  0.00     0.005 C 
ATOM     20  C   UNL     1     142.930 142.935 126.865  1.00  0.00     0.003 C 
ATOM     21  C   UNL     1     142.514 144.614 128.736  1.00  0.00     0.085 C 
ATOM     22  C   UNL     1     144.117 143.781 126.253  1.00  0.00    -0.000 C 
ATOM     23  C   UNL     1     143.505 145.524 128.086  1.00  0.00     0.159 C 
ATOM     24  C   UNL     1     144.000 145.237 126.719  1.00  0.00     0.005 C 
ATOM     25  C   UNL     1     144.037 143.725 124.692  1.00  0.00     0.020 C 
ATOM     26  C   UNL     1     145.501 143.250 126.713  1.00  0.00     0.017 C 
ATOM     27  O   UNL     1     143.855 146.578 128.684  1.00  0.00    -0.295 OA
ATOM     28  C   UNL     1     144.432 146.258 125.953  1.00  0.00     0.055 C 
ATOM     29  C   UNL     1     145.020 144.678 124.000  1.00  0.00     0.081 C 
ATOM     30  C   UNL     1     144.942 146.050 124.590  1.00  0.00     0.156 C 
ATOM     31  O   UNL     1     145.352 147.037 123.924  1.00  0.00    -0.295 OA
ENDBRANCH   9  11
ENDBRANCH   8   9
ENDBRANCH   1   8
TORSDOF 6
ENDMDL
MODEL 3
REMARK VINA RESULT:    -5.244      8.828     13.674
REMARK INTER + INTRA:          -9.993
REMARK INTER:                  -7.147
REMARK INTRA:                  -2.847
REMARK UNBOUND:                -2.910
REMARK SMILES CC[C@@H](CC[C@H](C)[C@@H]1CC[C@H]2[C@@H]3CC(=O)C4=CC(=O)CC[C@]4(C)[C@H]3CC[C@@]21C)C(C)C
REMARK SMILES IDX 4 1 3 2 2 3 1 4 29 5 30 6 31 7 5 8 6 9 7 10 8 11 9 12 27 13
REMARK SMILES IDX 10 14 11 15 26 16 28 17 12 18 25 19 24 20 13 21 22 22 14 23
REMARK SMILES IDX 16 24 21 25 23 26 15 27 17 28 20 29 18 30 19 31
REMARK H PARENT
REMARK Flexibility Score: inf
ROOT
ATOM      1  C   UNL     1     137.470 141.482 128.381  1.00  0.00     0.004 C 
ENDROOT
BRANCH   1   2
ATOM      2  C   UNL     1     138.282 142.791 128.128  1.00  0.00    -0.009 C 
BRANCH   2   3
ATOM      3  C   UNL     1     138.037 143.928 129.161  1.00  0.00     0.000 C 
ATOM      4  C   UNL     1     138.992 145.120 129.104  1.00  0.00     0.004 C 
ENDBRANCH   2   3
BRANCH   2   5
ATOM      5  C   UNL     1     138.430 143.287 126.650  1.00  0.00    -0.014 C 
ATOM      6  C   UNL     1     137.128 143.735 125.967  1.00  0.00     0.007 C 
ATOM      7  C   UNL     1     139.208 142.295 125.770  1.00  0.00     0.007 C 
ENDBRANCH   2   5
ENDBRANCH   1   2
BRANCH   1   8
ATOM      8  C   UNL     1     138.063 140.456 129.374  1.00  0.00     0.004 C 
BRANCH   8   9
ATOM      9  C   UNL     1     139.347 139.769 128.806  1.00  0.00    -0.011 C 
ATOM     10  C   UNL     1     139.138 138.232 128.869  1.00  0.00     0.008 C 
BRANCH   9  11
ATOM     11  C   UNL     1     140.637 140.221 129.585  1.00  0.00    -0.002 C 
ATOM     12  C   UNL     1     140.330 141.309 130.661  1.00  0.00     0.005 C 
ATOM     13  C   UNL     1     141.838 140.832 128.759  1.00  0.00    -0.026 C 
ATOM     14  C   UNL     1     141.321 142.452 130.472  1.00  0.00     0.005 C 
ATOM     15  C   UNL     1     141.683 142.341 129.008  1.00  0.00    -0.001 C 
ATOM     16  C   UNL     1     141.863 140.646 127.221  1.00  0.00     0.007 C 
ATOM     17  C   UNL     1     143.151 140.237 129.364  1.00  0.00     0.012 C 
ATOM     18  C   UNL     1     142.871 143.185 128.489  1.00  0.00     0.004 C 
ATOM     19  C   UNL     1     142.997 141.458 126.552  1.00  0.00     0.005 C 
ATOM     20  C   UNL     1     143.008 142.970 126.944  1.00  0.00     0.003 C 
ATOM     21  C   UNL     1     142.643 144.675 128.803  1.00  0.00     0.085 C 
ATOM     22  C   UNL     1     144.219 143.775 126.325  1.00  0.00    -0.000 C 
ATOM     23  C   UNL     1     143.661 145.550 128.144  1.00  0.00     0.159 C 
ATOM     24  C   UNL     1     144.146 145.238 126.780  1.00  0.00     0.005 C 
ATOM     25  C   UNL     1     144.137 143.710 124.765  1.00  0.00     0.020 C 
ATOM     26  C   UNL     1     145.588 143.207 126.789  1.00  0.00     0.017 C 
ATOM     27  O   UNL     1     144.041 146.598 128.735  1.00  0.00    -0.295 OA
ATOM     28  C   UNL     1     144.608 146.239 126.006  1.00  0.00     0.055 C 
ATOM     29  C   UNL     1     145.147 144.628 124.065  1.00  0.00     0.081 C 
ATOM     30  C   UNL     1     145.111 146.005 124.644  1.00  0.00     0.156 C 
ATOM     31  O   UNL     1     145.549 146.975 123.971  1.00  0.00    -0.295 OA
ENDBRANCH   9  11
ENDBRANCH   8   9
ENDBRANCH   1   8
TORSDOF 6
ENDMDL
MODEL 4
REMARK VINA RESULT:    -5.210      1.451      2.082
REMARK INTER + INTRA:          -9.947
REMARK INTER:                  -7.831
REMARK INTRA:                  -2.116
REMARK UNBOUND:                -2.910
REMARK SMILES CC[C@@H](CC[C@H](C)[C@@H]1CC[C@H]2[C@@H]3CC(=O)C4=CC(=O)CC[C@]4(C)[C@H]3CC[C@@]21C)C(C)C
REMARK SMILES IDX 4 1 3 2 2 3 1 4 29 5 30 6 31 7 5 8 6 9 7 10 8 11 9 12 27 13
REMARK SMILES IDX 10 14 11 15 26 16 28 17 12 18 25 19 24 20 13 21 22 22 14 23
REMARK SMILES IDX 16 24 21 25 23 26 15 27 17 28 20 29 18 30 19 31
REMARK H PARENT
REMARK Flexibility Score: inf
ROOT
ATOM      1  C   UNL     1     137.901 133.739 126.227  1.00  0.00     0.004 C 
ENDROOT
BRANCH   1   2
ATOM      2  C   UNL     1     138.472 132.487 126.964  1.00  0.00    -0.009 C 
BRANCH   2   3
ATOM      3  C   UNL     1     138.336 132.517 128.514  1.00  0.00     0.000 C 
ATOM      4  C   UNL     1     137.158 131.746 129.110  1.00  0.00     0.004 C 
ENDBRANCH   2   3
BRANCH   2   5
ATOM      5  C   UNL     1     139.824 131.888 126.449  1.00  0.00    -0.014 C 
ATOM      6  C   UNL     1     141.074 132.284 127.251  1.00  0.00     0.007 C 
ATOM      7  C   UNL     1     140.034 132.112 124.943  1.00  0.00     0.007 C 
ENDBRANCH   2   5
ENDBRANCH   1   2
BRANCH   1   8
ATOM      8  C   UNL     1     137.989 135.099 126.959  1.00  0.00     0.004 C 
BRANCH   8   9
ATOM      9  C   UNL     1     136.941 136.123 126.415  1.00  0.00    -0.011 C 
ATOM     10  C   UNL     1     137.613 137.522 126.369  1.00  0.00     0.008 C 
BRANCH   9  11
ATOM     11  C   UNL     1     135.631 136.127 127.285  1.00  0.00    -0.002 C 
ATOM     12  C   UNL     1     135.877 135.593 128.731  1.00  0.00     0.005 C 
ATOM     13  C   UNL     1     134.389 135.290 126.779  1.00  0.00    -0.026 C 
ATOM     14  C   UNL     1     134.817 134.539 129.033  1.00  0.00     0.005 C 
ATOM     15  C   UNL     1     134.453 134.030 127.657  1.00  0.00    -0.001 C 
ATOM     16  C   UNL     1     134.365 134.796 125.311  1.00  0.00     0.007 C 
ATOM     17  C   UNL     1     133.119 136.163 127.042  1.00  0.00     0.012 C 
ATOM     18  C   UNL     1     133.212 133.115 127.527  1.00  0.00     0.004 C 
ATOM     19  C   UNL     1     133.179 133.843 125.033  1.00  0.00     0.005 C 
ATOM     20  C   UNL     1     133.079 132.651 126.038  1.00  0.00     0.003 C 
ATOM     21  C   UNL     1     133.351 131.896 128.456  1.00  0.00     0.085 C 
ATOM     22  C   UNL     1     131.816 131.729 125.801  1.00  0.00    -0.000 C 
ATOM     23  C   UNL     1     132.277 130.883 128.218  1.00  0.00     0.159 C 
ATOM     24  C   UNL     1     131.802 130.604 126.843  1.00  0.00     0.005 C 
ATOM     25  C   UNL     1     131.892 131.111 124.367  1.00  0.00     0.020 C 
ATOM     26  C   UNL     1     130.488 132.521 125.947  1.00  0.00     0.017 C 
ATOM     27  O   UNL     1     131.837 130.216 129.194  1.00  0.00    -0.295 OA
ATOM     28  C   UNL     1     131.275 129.396 126.567  1.00  0.00     0.055 C 
ATOM     29  C   UNL     1     130.822 130.042 124.110  1.00  0.00     0.081 C 
ATOM     30  C   UNL     1     130.778 129.049 125.227  1.00  0.00     0.156 C 
ATOM     31  O   UNL     1     130.277 127.911 125.027  1.00  0.00    -0.295 OA
ENDBRANCH   9  11
ENDBRANCH   8   9
ENDBRANCH   1   8
TORSDOF 6
ENDMDL
MODEL 5
REMARK VINA RESULT:    -5.206      2.881      7.094
REMARK INTER + INTRA:          -9.943
REMARK INTER:                  -7.125
REMARK INTRA:                  -2.817
REMARK UNBOUND:                -2.910
REMARK SMILES CC[C@@H](CC[C@H](C)[C@@H]1CC[C@H]2[C@@H]3CC(=O)C4=CC(=O)CC[C@]4(C)[C@H]3CC[C@@]21C)C(C)C
REMARK SMILES IDX 4 1 3 2 2 3 1 4 29 5 30 6 31 7 5 8 6 9 7 10 8 11 9 12 27 13
REMARK SMILES IDX 10 14 11 15 26 16 28 17 12 18 25 19 24 20 13 21 22 22 14 23
REMARK SMILES IDX 16 24 21 25 23 26 15 27 17 28 20 29 18 30 19 31
REMARK H PARENT
REMARK Flexibility Score: inf
ROOT
ATOM      1  C   UNL     1     130.604 132.154 125.321  1.00  0.00     0.004 C 
ENDROOT
BRANCH   1   2
ATOM      2  C   UNL     1     132.050 131.570 125.391  1.00  0.00    -0.009 C 
BRANCH   2   3
ATOM      3  C   UNL     1     133.161 132.491 124.809  1.00  0.00     0.000 C 
ATOM      4  C   UNL     1     132.693 133.777 124.127  1.00  0.00     0.004 C 
ENDBRANCH   2   3
BRANCH   2   5
ATOM      5  C   UNL     1     132.243 130.049 125.070  1.00  0.00    -0.014 C 
ATOM      6  C   UNL     1     131.209 129.438 124.111  1.00  0.00     0.007 C 
ATOM      7  C   UNL     1     132.401 129.193 126.338  1.00  0.00     0.007 C 
ENDBRANCH   2   5
ENDBRANCH   1   2
BRANCH   1   8
ATOM      8  C   UNL     1     129.883 132.434 126.659  1.00  0.00     0.004 C 
BRANCH   8   9
ATOM      9  C   UNL     1     130.768 132.054 127.890  1.00  0.00    -0.011 C 
ATOM     10  C   UNL     1     129.901 131.213 128.866  1.00  0.00     0.008 C 
BRANCH   9  11
ATOM     11  C   UNL     1     131.368 133.331 128.587  1.00  0.00    -0.002 C 
ATOM     12  C   UNL     1     131.151 134.625 127.742  1.00  0.00     0.005 C 
ATOM     13  C   UNL     1     132.913 133.351 128.920  1.00  0.00    -0.026 C 
ATOM     14  C   UNL     1     132.489 135.347 127.632  1.00  0.00     0.005 C 
ATOM     15  C   UNL     1     133.488 134.224 127.793  1.00  0.00    -0.001 C 
ATOM     16  C   UNL     1     133.705 132.019 128.885  1.00  0.00     0.007 C 
ATOM     17  C   UNL     1     133.062 133.992 130.337  1.00  0.00     0.012 C 
ATOM     18  C   UNL     1     134.976 134.599 127.992  1.00  0.00     0.004 C 
ATOM     19  C   UNL     1     135.227 132.239 129.049  1.00  0.00     0.005 C 
ATOM     20  C   UNL     1     135.825 133.285 128.055  1.00  0.00     0.003 C 
ATOM     21  C   UNL     1     135.458 135.492 126.834  1.00  0.00     0.085 C 
ATOM     22  C   UNL     1     137.363 133.569 128.285  1.00  0.00    -0.000 C 
ATOM     23  C   UNL     1     136.936 135.712 126.873  1.00  0.00     0.159 C 
ATOM     24  C   UNL     1     137.847 134.615 127.273  1.00  0.00     0.005 C 
ATOM     25  C   UNL     1     138.166 132.242 128.087  1.00  0.00     0.020 C 
ATOM     26  C   UNL     1     137.641 134.128 129.707  1.00  0.00     0.017 C 
ATOM     27  O   UNL     1     137.401 136.820 126.487  1.00  0.00    -0.295 OA
ATOM     28  C   UNL     1     139.114 134.618 126.816  1.00  0.00     0.055 C 
ATOM     29  C   UNL     1     139.686 132.447 128.087  1.00  0.00     0.081 C 
ATOM     30  C   UNL     1     140.076 133.565 127.175  1.00  0.00     0.156 C 
ATOM     31  O   UNL     1     141.255 133.627 126.735  1.00  0.00    -0.295 OA
ENDBRANCH   9  11
ENDBRANCH   8   9
ENDBRANCH   1   8
TORSDOF 6
ENDMDL
MODEL 6
REMARK VINA RESULT:    -5.012      3.103      5.248
REMARK INTER + INTRA:          -9.680
REMARK INTER:                  -7.697
REMARK INTRA:                  -1.983
REMARK UNBOUND:                -2.910
REMARK SMILES CC[C@@H](CC[C@H](C)[C@@H]1CC[C@H]2[C@@H]3CC(=O)C4=CC(=O)CC[C@]4(C)[C@H]3CC[C@@]21C)C(C)C
REMARK SMILES IDX 4 1 3 2 2 3 1 4 29 5 30 6 31 7 5 8 6 9 7 10 8 11 9 12 27 13
REMARK SMILES IDX 10 14 11 15 26 16 28 17 12 18 25 19 24 20 13 21 22 22 14 23
REMARK SMILES IDX 16 24 21 25 23 26 15 27 17 28 20 29 18 30 19 31
REMARK H PARENT
REMARK Flexibility Score: inf
ROOT
ATOM      1  C   UNL     1     139.785 130.311 127.046  1.00  0.00     0.004 C 
ENDROOT
BRANCH   1   2
ATOM      2  C   UNL     1     140.738 129.620 126.022  1.00  0.00    -0.009 C 
BRANCH   2   3
ATOM      3  C   UNL     1     142.011 128.973 126.640  1.00  0.00     0.000 C 
ATOM      4  C   UNL     1     143.310 129.770 126.517  1.00  0.00     0.004 C 
ENDBRANCH   2   3
BRANCH   2   5
ATOM      5  C   UNL     1     140.982 130.334 124.650  1.00  0.00    -0.014 C 
ATOM      6  C   UNL     1     140.248 131.671 124.459  1.00  0.00     0.007 C 
ATOM      7  C   UNL     1     140.759 129.399 123.449  1.00  0.00     0.007 C 
ENDBRANCH   2   5
ENDBRANCH   1   2
BRANCH   1   8
ATOM      8  C   UNL     1     140.278 130.438 128.506  1.00  0.00     0.004 C 
BRANCH   8   9
ATOM      9  C   UNL     1     140.936 131.828 128.781  1.00  0.00    -0.011 C 
ATOM     10  C   UNL     1     142.209 131.597 129.640  1.00  0.00     0.008 C 
BRANCH   9  11
ATOM     11  C   UNL     1     139.929 132.817 129.475  1.00  0.00    -0.002 C 
ATOM     12  C   UNL     1     138.870 132.071 130.347  1.00  0.00     0.005 C 
ATOM     13  C   UNL     1     139.062 133.772 128.561  1.00  0.00    -0.026 C 
ATOM     14  C   UNL     1     137.490 132.598 129.967  1.00  0.00     0.005 C 
ATOM     15  C   UNL     1     137.694 133.071 128.545  1.00  0.00    -0.001 C 
ATOM     16  C   UNL     1     139.469 133.963 127.078  1.00  0.00     0.007 C 
ATOM     17  C   UNL     1     139.035 135.168 129.264  1.00  0.00     0.012 C 
ATOM     18  C   UNL     1     136.571 133.911 127.893  1.00  0.00     0.004 C 
ATOM     19  C   UNL     1     138.418 134.773 126.283  1.00  0.00     0.005 C 
ATOM     20  C   UNL     1     136.964 134.217 126.408  1.00  0.00     0.003 C 
ATOM     21  C   UNL     1     135.236 133.145 127.944  1.00  0.00     0.085 C 
ATOM     22  C   UNL     1     135.883 135.098 125.664  1.00  0.00    -0.000 C 
ATOM     23  C   UNL     1     134.168 133.824 127.149  1.00  0.00     0.159 C 
ATOM     24  C   UNL     1     134.495 134.478 125.860  1.00  0.00     0.005 C 
ATOM     25  C   UNL     1     136.222 135.148 124.139  1.00  0.00     0.020 C 
ATOM     26  C   UNL     1     135.834 136.546 126.224  1.00  0.00     0.017 C 
ATOM     27  O   UNL     1     132.974 133.765 127.550  1.00  0.00    -0.295 OA
ATOM     28  C   UNL     1     133.531 134.601 124.927  1.00  0.00     0.055 C 
ATOM     29  C   UNL     1     135.124 135.807 123.295  1.00  0.00     0.081 C 
ATOM     30  C   UNL     1     133.780 135.243 123.627  1.00  0.00     0.156 C 
ATOM     31  O   UNL     1     132.838 135.349 122.798  1.00  0.00    -0.295 OA
ENDBRANCH   9  11
ENDBRANCH   8   9
ENDBRANCH   1   8
TORSDOF 6
ENDMDL
MODEL 7
REMARK VINA RESULT:    -4.988      9.428     12.399
REMARK INTER + INTRA:          -9.647
REMARK INTER:                  -7.661
REMARK INTRA:                  -1.986
REMARK UNBOUND:                -2.910
REMARK SMILES CC[C@@H](CC[C@H](C)[C@@H]1CC[C@H]2[C@@H]3CC(=O)C4=CC(=O)CC[C@]4(C)[C@H]3CC[C@@]21C)C(C)C
REMARK SMILES IDX 4 1 3 2 2 3 1 4 29 5 30 6 31 7 5 8 6 9 7 10 8 11 9 12 27 13
REMARK SMILES IDX 10 14 11 15 26 16 28 17 12 18 25 19 24 20 13 21 22 22 14 23
REMARK SMILES IDX 16 24 21 25 23 26 15 27 17 28 20 29 18 30 19 31
REMARK H PARENT
REMARK Flexibility Score: inf
ROOT
ATOM      1  C   UNL     1     136.638 146.200 127.086  1.00  0.00     0.004 C 
ENDROOT
BRANCH   1   2
ATOM      2  C   UNL     1     135.709 146.949 126.080  1.00  0.00    -0.009 C 
BRANCH   2   3
ATOM      3  C   UNL     1     134.503 147.691 126.724  1.00  0.00     0.000 C 
ATOM      4  C   UNL     1     133.138 147.015 126.597  1.00  0.00     0.004 C 
ENDBRANCH   2   3
BRANCH   2   5
ATOM      5  C   UNL     1     135.377 146.240 124.724  1.00  0.00    -0.014 C 
ATOM      6  C   UNL     1     136.125 144.923 124.462  1.00  0.00     0.007 C 
ATOM      7  C   UNL     1     135.483 147.190 123.519  1.00  0.00     0.007 C 
ENDBRANCH   2   5
ENDBRANCH   1   2
BRANCH   1   8
ATOM      8  C   UNL     1     136.138 146.050 128.541  1.00  0.00     0.004 C 
BRANCH   8   9
ATOM      9  C   UNL     1     135.463 144.661 128.786  1.00  0.00    -0.011 C 
ATOM     10  C   UNL     1     134.180 144.891 129.629  1.00  0.00     0.008 C 
BRANCH   9  11
ATOM     11  C   UNL     1     136.451 143.653 129.479  1.00  0.00    -0.002 C 
ATOM     12  C   UNL     1     137.502 144.375 130.379  1.00  0.00     0.005 C 
ATOM     13  C   UNL     1     137.324 142.705 128.564  1.00  0.00    -0.026 C 
ATOM     14  C   UNL     1     138.883 143.842 130.013  1.00  0.00     0.005 C 
ATOM     15  C   UNL     1     138.698 143.393 128.581  1.00  0.00    -0.001 C 
ATOM     16  C   UNL     1     136.939 142.541 127.072  1.00  0.00     0.007 C 
ATOM     17  C   UNL     1     137.328 141.298 129.244  1.00  0.00     0.012 C 
ATOM     18  C   UNL     1     139.825 142.554 127.932  1.00  0.00     0.004 C 
ATOM     19  C   UNL     1     137.995 141.734 126.280  1.00  0.00     0.005 C 
ATOM     20  C   UNL     1     139.452 142.276 126.437  1.00  0.00     0.003 C 
ATOM     21  C   UNL     1     141.164 143.308 128.017  1.00  0.00     0.085 C 
ATOM     22  C   UNL     1     140.537 141.397 125.696  1.00  0.00    -0.000 C 
ATOM     23  C   UNL     1     142.239 142.632 127.227  1.00  0.00     0.159 C 
ATOM     24  C   UNL     1     141.927 142.002 125.924  1.00  0.00     0.005 C 
ATOM     25  C   UNL     1     140.222 141.374 124.165  1.00  0.00     0.020 C 
ATOM     26  C   UNL     1     140.565 139.940 126.233  1.00  0.00     0.017 C 
ATOM     27  O   UNL     1     143.428 142.674 127.649  1.00  0.00    -0.295 OA
ATOM     28  C   UNL     1     142.904 141.885 125.004  1.00  0.00     0.055 C 
ATOM     29  C   UNL     1     141.328 140.719 123.328  1.00  0.00     0.081 C 
ATOM     30  C   UNL     1     142.671 141.266 123.691  1.00  0.00     0.156 C 
ATOM     31  O   UNL     1     143.625 141.165 122.875  1.00  0.00    -0.295 OA
ENDBRANCH   9  11
ENDBRANCH   8   9
ENDBRANCH   1   8
TORSDOF 6
ENDMDL
MODEL 8
REMARK VINA RESULT:    -4.789      3.064      6.894
REMARK INTER + INTRA:          -9.379
REMARK INTER:                  -7.451
REMARK INTRA:                  -1.927
REMARK UNBOUND:                -2.910
REMARK SMILES CC[C@@H](CC[C@H](C)[C@@H]1CC[C@H]2[C@@H]3CC(=O)C4=CC(=O)CC[C@]4(C)[C@H]3CC[C@@]21C)C(C)C
REMARK SMILES IDX 4 1 3 2 2 3 1 4 29 5 30 6 31 7 5 8 6 9 7 10 8 11 9 12 27 13
REMARK SMILES IDX 10 14 11 15 26 16 28 17 12 18 25 19 24 20 13 21 22 22 14 23
REMARK SMILES IDX 16 24 21 25 23 26 15 27 17 28 20 29 18 30 19 31
REMARK H PARENT
REMARK Flexibility Score: inf
ROOT
ATOM      1  C   UNL     1     133.390 133.549 126.964  1.00  0.00     0.004 C 
ENDROOT
BRANCH   1   2
ATOM      2  C   UNL     1     133.136 133.156 125.475  1.00  0.00    -0.009 C 
BRANCH   2   3
ATOM      3  C   UNL     1     133.934 133.988 124.429  1.00  0.00     0.000 C 
ATOM      4  C   UNL     1     133.169 135.105 123.719  1.00  0.00     0.004 C 
ENDBRANCH   2   3
BRANCH   2   5
ATOM      5  C   UNL     1     131.668 132.822 125.045  1.00  0.00    -0.014 C 
ATOM      6  C   UNL     1     130.668 132.626 126.196  1.00  0.00     0.007 C 
ATOM      7  C   UNL     1     131.596 131.659 124.041  1.00  0.00     0.007 C 
ENDBRANCH   2   5
ENDBRANCH   1   2
BRANCH   1   8
ATOM      8  C   UNL     1     133.189 135.031 127.354  1.00  0.00     0.004 C 
BRANCH   8   9
ATOM      9  C   UNL     1     134.013 135.417 128.625  1.00  0.00    -0.011 C 
ATOM     10  C   UNL     1     133.197 136.466 129.428  1.00  0.00     0.008 C 
BRANCH   9  11
ATOM     11  C   UNL     1     135.444 135.949 128.246  1.00  0.00    -0.002 C 
ATOM     12  C   UNL     1     135.544 136.367 126.745  1.00  0.00     0.005 C 
ATOM     13  C   UNL     1     136.683 134.990 128.456  1.00  0.00    -0.026 C 
ATOM     14  C   UNL     1     136.784 135.706 126.153  1.00  0.00     0.005 C 
ATOM     15  C   UNL     1     136.964 134.488 127.030  1.00  0.00    -0.001 C 
ATOM     16  C   UNL     1     136.512 133.726 129.335  1.00  0.00     0.007 C 
ATOM     17  C   UNL     1     137.838 135.865 129.042  1.00  0.00     0.012 C 
ATOM     18  C   UNL     1     138.281 133.688 126.899  1.00  0.00     0.004 C 
ATOM     19  C   UNL     1     137.755 132.807 129.285  1.00  0.00     0.005 C 
ATOM     20  C   UNL     1     138.209 132.437 127.837  1.00  0.00     0.003 C 
ATOM     21  C   UNL     1     138.493 133.249 125.438  1.00  0.00     0.085 C 
ATOM     22  C   UNL     1     139.529 131.568 127.791  1.00  0.00    -0.000 C 
ATOM     23  C   UNL     1     139.643 132.303 125.298  1.00  0.00     0.159 C 
ATOM     24  C   UNL     1     139.896 131.273 126.331  1.00  0.00     0.005 C 
ATOM     25  C   UNL     1     139.287 130.223 128.550  1.00  0.00     0.020 C 
ATOM     26  C   UNL     1     140.731 132.309 128.437  1.00  0.00     0.017 C 
ATOM     27  O   UNL     1     140.345 132.344 124.251  1.00  0.00    -0.295 OA
ATOM     28  C   UNL     1     140.536 130.140 125.982  1.00  0.00     0.055 C 
ATOM     29  C   UNL     1     140.437 129.220 128.390  1.00  0.00     0.081 C 
ATOM     30  C   UNL     1     140.827 129.076 126.954  1.00  0.00     0.156 C 
ATOM     31  O   UNL     1     141.446 128.045 126.578  1.00  0.00    -0.295 OA
ENDBRANCH   9  11
ENDBRANCH   8   9
ENDBRANCH   1   8
TORSDOF 6
ENDMDL
MODEL 9
REMARK VINA RESULT:    -4.703     10.111     12.639
REMARK INTER + INTRA:          -9.262
REMARK INTER:                  -7.573
REMARK INTRA:                  -1.689
REMARK UNBOUND:                -2.910
REMARK SMILES CC[C@@H](CC[C@H](C)[C@@H]1CC[C@H]2[C@@H]3CC(=O)C4=CC(=O)CC[C@]4(C)[C@H]3CC[C@@]21C)C(C)C
REMARK SMILES IDX 4 1 3 2 2 3 1 4 29 5 30 6 31 7 5 8 6 9 7 10 8 11 9 12 27 13
REMARK SMILES IDX 10 14 11 15 26 16 28 17 12 18 25 19 24 20 13 21 22 22 14 23
REMARK SMILES IDX 16 24 21 25 23 26 15 27 17 28 20 29 18 30 19 31
REMARK H PARENT
REMARK Flexibility Score: inf
ROOT
ATOM      1  C   UNL     1     143.387 143.572 126.390  1.00  0.00     0.004 C 
ENDROOT
BRANCH   1   2
ATOM      2  C   UNL     1     143.622 143.774 124.860  1.00  0.00    -0.009 C 
BRANCH   2   3
ATOM      3  C   UNL     1     143.582 142.472 124.010  1.00  0.00     0.000 C 
ATOM      4  C   UNL     1     142.253 141.717 123.980  1.00  0.00     0.004 C 
ENDBRANCH   2   3
BRANCH   2   5
ATOM      5  C   UNL     1     144.721 144.797 124.417  1.00  0.00    -0.014 C 
ATOM      6  C   UNL     1     146.047 144.724 125.192  1.00  0.00     0.007 C 
ATOM      7  C   UNL     1     144.193 146.240 124.351  1.00  0.00     0.007 C 
ENDBRANCH   2   5
ENDBRANCH   1   2
BRANCH   1   8
ATOM      8  C   UNL     1     143.966 142.293 127.037  1.00  0.00     0.004 C 
BRANCH   8   9
ATOM      9  C   UNL     1     143.581 142.177 128.547  1.00  0.00    -0.011 C 
ATOM     10  C   UNL     1     144.723 141.422 129.280  1.00  0.00     0.008 C 
BRANCH   9  11
ATOM     11  C   UNL     1     142.190 141.468 128.736  1.00  0.00    -0.002 C 
ATOM     12  C   UNL     1     141.784 140.617 127.492  1.00  0.00     0.005 C 
ATOM     13  C   UNL     1     140.919 142.367 129.011  1.00  0.00    -0.026 C 
ATOM     14  C   UNL     1     140.357 140.993 127.108  1.00  0.00     0.005 C 
ATOM     15  C   UNL     1     140.229 142.403 127.637  1.00  0.00    -0.001 C 
ATOM     16  C   UNL     1     141.121 143.843 129.434  1.00  0.00     0.007 C 
ATOM     17  C   UNL     1     140.077 141.636 130.107  1.00  0.00     0.012 C 
ATOM     18  C   UNL     1     138.821 143.044 127.663  1.00  0.00     0.004 C 
ATOM     19  C   UNL     1     139.788 144.626 129.482  1.00  0.00     0.005 C 
ATOM     20  C   UNL     1     138.946 144.519 128.171  1.00  0.00     0.003 C 
ATOM     21  C   UNL     1     138.198 143.014 126.255  1.00  0.00     0.085 C 
ATOM     22  C   UNL     1     137.546 145.251 128.257  1.00  0.00    -0.000 C 
ATOM     23  C   UNL     1     136.929 143.801 126.186  1.00  0.00     0.159 C 
ATOM     24  C   UNL     1     136.795 145.074 126.931  1.00  0.00     0.005 C 
ATOM     25  C   UNL     1     137.777 146.773 128.526  1.00  0.00     0.020 C 
ATOM     26  C   UNL     1     136.655 144.661 129.384  1.00  0.00     0.017 C 
ATOM     27  O   UNL     1     136.004 143.406 125.425  1.00  0.00    -0.295 OA
ATOM     28  C   UNL     1     135.938 146.009 126.479  1.00  0.00     0.055 C 
ATOM     29  C   UNL     1     136.495 147.608 128.425  1.00  0.00     0.081 C 
ATOM     30  C   UNL     1     135.748 147.294 127.169  1.00  0.00     0.156 C 
ATOM     31  O   UNL     1     134.918 148.125 126.714  1.00  0.00    -0.295 OA
ENDBRANCH   9  11
ENDBRANCH   8   9
ENDBRANCH   1   8
TORSDOF 6
ENDMDL
