MODEL 1
REMARK VINA RESULT:    -3.050      0.000      0.000
REMARK INTER + INTRA:          -5.617
REMARK INTER:                  -5.190
REMARK INTRA:                  -0.427
REMARK UNBOUND:                -0.427
REMARK SMILES CCCCCCCCCCCCCC(=O)[O-]
REMARK SMILES IDX 8 1 9 2 10 3 11 4 12 5 13 6 14 7 15 8 16 9 7 10 6 11 5 12
REMARK SMILES IDX 4 13 3 14 2 15 1 16
REMARK H PARENT
REMARK Flexibility Score: inf
ROOT
ATOM      1  C   UNL     1      12.787   8.972  14.996  1.00  0.00     0.000 C 
ENDROOT
BRANCH   1   2
ATOM      2  C   UNL     1      13.155  10.418  15.361  1.00  0.00     0.000 C 
BRANCH   2   3
ATOM      3  C   UNL     1      12.375  11.418  14.500  1.00  0.00     0.000 C 
BRANCH   3   4
ATOM      4  C   UNL     1      12.151  12.737  15.255  1.00  0.00     0.000 C 
BRANCH   4   5
ATOM      5  C   UNL     1      13.340  13.707  15.127  1.00  0.00     0.006 C 
BRANCH   5   6
ATOM      6  C   UNL     1      12.965  15.103  14.606  1.00  0.00     0.053 C 
BRANCH   6   7
ATOM      7  C   UNL     1      13.296  15.267  13.154  1.00  0.00     0.041 C 
ATOM      8  O   UNL     1      13.908  16.292  12.756  1.00  0.00    -0.550 OA
ATOM      9  O   UNL     1      12.900  14.301  12.237  1.00  0.00    -0.550 OA
ENDBRANCH   6   7
ENDBRANCH   5   6
ENDBRANCH   4   5
ENDBRANCH   3   4
ENDBRANCH   2   3
ENDBRANCH   1   2
BRANCH   1  10
ATOM     10  C   UNL     1      13.935   7.985  15.258  1.00  0.00     0.000 C 
BRANCH  10  11
ATOM     11  C   UNL     1      13.432   6.578  15.630  1.00  0.00    -0.000 C 
BRANCH  11  12
ATOM     12  C   UNL     1      12.527   6.581  16.872  1.00  0.00    -0.000 C 
BRANCH  12  13
ATOM     13  C   UNL     1      13.205   5.950  18.100  1.00  0.00    -0.000 C 
BRANCH  13  14
ATOM     14  C   UNL     1      12.195   5.488  19.161  1.00  0.00    -0.000 C 
BRANCH  14  15
ATOM     15  C   UNL     1      12.160   3.961  19.322  1.00  0.00    -0.003 C 
ATOM     16  C   UNL     1      11.465   3.562  20.621  1.00  0.00     0.004 C 
ENDBRANCH  14  15
ENDBRANCH  13  14
ENDBRANCH  12  13
ENDBRANCH  11  12
ENDBRANCH  10  11
ENDBRANCH   1  10
TORSDOF 12
ENDMDL
MODEL 2
REMARK VINA RESULT:    -2.877      1.294      1.934
REMARK INTER + INTRA:          -5.323
REMARK INTER:                  -4.728
REMARK INTRA:                  -0.595
REMARK UNBOUND:                -0.427
REMARK SMILES CCCCCCCCCCCCCC(=O)[O-]
REMARK SMILES IDX 8 1 9 2 10 3 11 4 12 5 13 6 14 7 15 8 16 9 7 10 6 11 5 12
REMARK SMILES IDX 4 13 3 14 2 15 1 16
REMARK H PARENT
REMARK Flexibility Score: inf
ROOT
ATOM      1  C   UNL     1      13.140  10.624  15.025  1.00  0.00     0.000 C 
ENDROOT
BRANCH   1   2
ATOM      2  C   UNL     1      12.108  11.413  14.206  1.00  0.00     0.000 C 
BRANCH   2   3
ATOM      3  C   UNL     1      11.565  12.604  15.005  1.00  0.00     0.000 C 
BRANCH   3   4
ATOM      4  C   UNL     1      12.695  13.322  15.759  1.00  0.00     0.000 C 
BRANCH   4   5
ATOM      5  C   UNL     1      13.705  14.000  14.815  1.00  0.00     0.006 C 
BRANCH   5   6
ATOM      6  C   UNL     1      13.214  15.325  14.210  1.00  0.00     0.053 C 
BRANCH   6   7
ATOM      7  C   UNL     1      13.198  15.285  12.712  1.00  0.00     0.041 C 
ATOM      8  O   UNL     1      12.856  14.234  12.110  1.00  0.00    -0.550 OA
ATOM      9  O   UNL     1      13.592  16.400  11.983  1.00  0.00    -0.550 OA
ENDBRANCH   6   7
ENDBRANCH   5   6
ENDBRANCH   4   5
ENDBRANCH   3   4
ENDBRANCH   2   3
ENDBRANCH   1   2
BRANCH   1  10
ATOM     10  C   UNL     1      12.713   9.169  15.272  1.00  0.00     0.000 C 
BRANCH  10  11
ATOM     11  C   UNL     1      13.879   8.176  15.111  1.00  0.00    -0.000 C 
BRANCH  11  12
ATOM     12  C   UNL     1      13.493   6.741  15.507  1.00  0.00    -0.000 C 
BRANCH  12  13
ATOM     13  C   UNL     1      12.649   6.689  16.791  1.00  0.00    -0.000 C 
BRANCH  13  14
ATOM     14  C   UNL     1      12.681   5.308  17.463  1.00  0.00    -0.000 C 
BRANCH  14  15
ATOM     15  C   UNL     1      13.492   4.277  16.663  1.00  0.00    -0.003 C 
ATOM     16  C   UNL     1      13.261   2.865  17.194  1.00  0.00     0.004 C 
ENDBRANCH  14  15
ENDBRANCH  13  14
ENDBRANCH  12  13
ENDBRANCH  11  12
ENDBRANCH  10  11
ENDBRANCH   1  10
TORSDOF 12
ENDMDL
MODEL 3
REMARK VINA RESULT:    -2.704      1.103      1.390
REMARK INTER + INTRA:          -5.028
REMARK INTER:                  -4.798
REMARK INTRA:                  -0.230
REMARK UNBOUND:                -0.427
REMARK SMILES CCCCCCCCCCCCCC(=O)[O-]
REMARK SMILES IDX 8 1 9 2 10 3 11 4 12 5 13 6 14 7 15 8 16 9 7 10 6 11 5 12
REMARK SMILES IDX 4 13 3 14 2 15 1 16
REMARK H PARENT
REMARK Flexibility Score: inf
ROOT
ATOM      1  C   UNL     1      13.670   9.115  15.352  1.00  0.00     0.000 C 
ENDROOT
BRANCH   1   2
ATOM      2  C   UNL     1      12.495   9.984  14.883  1.00  0.00     0.000 C 
BRANCH   2   3
ATOM      3  C   UNL     1      12.679  11.442  15.321  1.00  0.00     0.000 C 
BRANCH   3   4
ATOM      4  C   UNL     1      12.040  12.406  14.310  1.00  0.00     0.000 C 
BRANCH   4   5
ATOM      5  C   UNL     1      12.972  12.737  13.130  1.00  0.00     0.006 C 
BRANCH   5   6
ATOM      6  C   UNL     1      12.591  14.011  12.360  1.00  0.00     0.053 C 
BRANCH   6   7
ATOM      7  C   UNL     1      13.238  15.232  12.942  1.00  0.00     0.041 C 
ATOM      8  O   UNL     1      13.392  15.334  14.186  1.00  0.00    -0.550 OA
ATOM      9  O   UNL     1      13.642  16.268  12.109  1.00  0.00    -0.550 OA
ENDBRANCH   6   7
ENDBRANCH   5   6
ENDBRANCH   4   5
ENDBRANCH   3   4
ENDBRANCH   2   3
ENDBRANCH   1   2
BRANCH   1  10
ATOM     10  C   UNL     1      13.331   7.616  15.361  1.00  0.00     0.000 C 
BRANCH  10  11
ATOM     11  C   UNL     1      12.527   7.199  16.606  1.00  0.00    -0.000 C 
BRANCH  11  12
ATOM     12  C   UNL     1      12.926   5.811  17.132  1.00  0.00    -0.000 C 
BRANCH  12  13
ATOM     13  C   UNL     1      12.608   5.632  18.627  1.00  0.00    -0.000 C 
BRANCH  13  14
ATOM     14  C   UNL     1      12.252   4.181  18.984  1.00  0.00    -0.000 C 
BRANCH  14  15
ATOM     15  C   UNL     1      11.295   4.083  20.182  1.00  0.00    -0.003 C 
ATOM     16  C   UNL     1      11.838   3.128  21.241  1.00  0.00     0.004 C 
ENDBRANCH  14  15
ENDBRANCH  13  14
ENDBRANCH  12  13
ENDBRANCH  11  12
ENDBRANCH  10  11
ENDBRANCH   1  10
TORSDOF 12
ENDMDL
MODEL 4
REMARK VINA RESULT:    -2.621      1.360      1.794
REMARK INTER + INTRA:          -4.886
REMARK INTER:                  -4.348
REMARK INTRA:                  -0.538
REMARK UNBOUND:                -0.427
REMARK SMILES CCCCCCCCCCCCCC(=O)[O-]
REMARK SMILES IDX 8 1 9 2 10 3 11 4 12 5 13 6 14 7 15 8 16 9 7 10 6 11 5 12
REMARK SMILES IDX 4 13 3 14 2 15 1 16
REMARK H PARENT
REMARK Flexibility Score: inf
ROOT
ATOM      1  C   UNL     1      12.634   9.653  14.995  1.00  0.00     0.000 C 
ENDROOT
BRANCH   1   2
ATOM      2  C   UNL     1      12.950  11.133  15.261  1.00  0.00     0.000 C 
BRANCH   2   3
ATOM      3  C   UNL     1      11.793  12.032  14.808  1.00  0.00     0.000 C 
BRANCH   3   4
ATOM      4  C   UNL     1      11.796  12.206  13.281  1.00  0.00     0.000 C 
BRANCH   4   5
ATOM      5  C   UNL     1      12.919  13.138  12.791  1.00  0.00     0.006 C 
BRANCH   5   6
ATOM      6  C   UNL     1      13.185  14.345  13.705  1.00  0.00     0.053 C 
BRANCH   6   7
ATOM      7  C   UNL     1      13.329  15.617  12.926  1.00  0.00     0.041 C 
ATOM      8  O   UNL     1      12.861  15.703  11.762  1.00  0.00    -0.550 OA
ATOM      9  O   UNL     1      14.008  16.696  13.478  1.00  0.00    -0.550 OA
ENDBRANCH   6   7
ENDBRANCH   5   6
ENDBRANCH   4   5
ENDBRANCH   3   4
ENDBRANCH   2   3
ENDBRANCH   1   2
BRANCH   1  10
ATOM     10  C   UNL     1      13.810   8.726  15.342  1.00  0.00     0.000 C 
BRANCH  10  11
ATOM     11  C   UNL     1      13.397   7.244  15.397  1.00  0.00    -0.000 C 
BRANCH  11  12
ATOM     12  C   UNL     1      12.464   6.932  16.579  1.00  0.00    -0.000 C 
BRANCH  12  13
ATOM     13  C   UNL     1      12.887   5.670  17.349  1.00  0.00    -0.000 C 
BRANCH  13  14
ATOM     14  C   UNL     1      13.561   4.626  16.445  1.00  0.00    -0.000 C 
BRANCH  14  15
ATOM     15  C   UNL     1      13.273   3.183  16.888  1.00  0.00    -0.003 C 
ATOM     16  C   UNL     1      12.675   3.149  18.291  1.00  0.00     0.004 C 
ENDBRANCH  14  15
ENDBRANCH  13  14
ENDBRANCH  12  13
ENDBRANCH  11  12
ENDBRANCH  10  11
ENDBRANCH   1  10
TORSDOF 12
ENDMDL
MODEL 5
REMARK VINA RESULT:    -2.455      4.997      9.592
REMARK INTER + INTRA:          -4.605
REMARK INTER:                  -4.150
REMARK INTRA:                  -0.455
REMARK UNBOUND:                -0.427
REMARK SMILES CCCCCCCCCCCCCC(=O)[O-]
REMARK SMILES IDX 8 1 9 2 10 3 11 4 12 5 13 6 14 7 15 8 16 9 7 10 6 11 5 12
REMARK SMILES IDX 4 13 3 14 2 15 1 16
REMARK H PARENT
REMARK Flexibility Score: inf
ROOT
ATOM      1  C   UNL     1      12.831   9.169  15.358  1.00  0.00     0.000 C 
ENDROOT
BRANCH   1   2
ATOM      2  C   UNL     1      13.989   8.163  15.297  1.00  0.00     0.000 C 
BRANCH   2   3
ATOM      3  C   UNL     1      13.492   6.735  15.557  1.00  0.00     0.000 C 
BRANCH   3   4
ATOM      4  C   UNL     1      12.693   6.660  16.867  1.00  0.00     0.000 C 
BRANCH   4   5
ATOM      5  C   UNL     1      12.825   5.295  17.568  1.00  0.00     0.006 C 
BRANCH   5   6
ATOM      6  C   UNL     1      12.050   5.186  18.891  1.00  0.00     0.053 C 
BRANCH   6   7
ATOM      7  C   UNL     1      12.076   3.792  19.442  1.00  0.00     0.041 C 
ATOM      8  O   UNL     1      11.769   3.581  20.643  1.00  0.00    -0.550 OA
ATOM      9  O   UNL     1      12.472   2.733  18.635  1.00  0.00    -0.550 OA
ENDBRANCH   6   7
ENDBRANCH   5   6
ENDBRANCH   4   5
ENDBRANCH   3   4
ENDBRANCH   2   3
ENDBRANCH   1   2
BRANCH   1  10
ATOM     10  C   UNL     1      13.266  10.595  14.984  1.00  0.00     0.000 C 
BRANCH  10  11
ATOM     11  C   UNL     1      12.098  11.450  14.456  1.00  0.00    -0.000 C 
BRANCH  11  12
ATOM     12  C   UNL     1      11.889  12.735  15.273  1.00  0.00    -0.000 C 
BRANCH  12  13
ATOM     13  C   UNL     1      13.171  13.576  15.391  1.00  0.00    -0.000 C 
BRANCH  13  14
ATOM     14  C   UNL     1      13.098  14.881  14.584  1.00  0.00    -0.000 C 
BRANCH  14  15
ATOM     15  C   UNL     1      13.241  14.652  13.072  1.00  0.00    -0.003 C 
ATOM     16  C   UNL     1      13.294  15.978  12.319  1.00  0.00     0.004 C 
ENDBRANCH  14  15
ENDBRANCH  13  14
ENDBRANCH  12  13
ENDBRANCH  11  12
ENDBRANCH  10  11
ENDBRANCH   1  10
TORSDOF 12
ENDMDL
MODEL 6
REMARK VINA RESULT:    -2.189      4.324      8.844
REMARK INTER + INTRA:          -4.152
REMARK INTER:                  -3.465
REMARK INTRA:                  -0.687
REMARK UNBOUND:                -0.427
REMARK SMILES CCCCCCCCCCCCCC(=O)[O-]
REMARK SMILES IDX 8 1 9 2 10 3 11 4 12 5 13 6 14 7 15 8 16 9 7 10 6 11 5 12
REMARK SMILES IDX 4 13 3 14 2 15 1 16
REMARK H PARENT
REMARK Flexibility Score: inf
ROOT
ATOM      1  C   UNL     1      11.869  11.408  14.628  1.00  0.00     0.000 C 
ENDROOT
BRANCH   1   2
ATOM      2  C   UNL     1      13.155  10.620  14.919  1.00  0.00     0.000 C 
BRANCH   2   3
ATOM      3  C   UNL     1      12.833   9.217  15.447  1.00  0.00     0.000 C 
BRANCH   3   4
ATOM      4  C   UNL     1      13.939   8.219  15.071  1.00  0.00     0.000 C 
BRANCH   4   5
ATOM      5  C   UNL     1      13.604   6.774  15.483  1.00  0.00     0.006 C 
BRANCH   5   6
ATOM      6  C   UNL     1      12.563   6.662  16.608  1.00  0.00     0.053 C 
BRANCH   6   7
ATOM      7  C   UNL     1      12.801   5.463  17.475  1.00  0.00     0.041 C 
ATOM      8  O   UNL     1      12.629   5.537  18.719  1.00  0.00    -0.550 OA
ATOM      9  O   UNL     1      13.244   4.274  16.910  1.00  0.00    -0.550 OA
ENDBRANCH   6   7
ENDBRANCH   5   6
ENDBRANCH   4   5
ENDBRANCH   3   4
ENDBRANCH   2   3
ENDBRANCH   1   2
BRANCH   1  10
ATOM     10  C   UNL     1      11.840  12.773  15.333  1.00  0.00     0.000 C 
BRANCH  10  11
ATOM     11  C   UNL     1      13.226  13.440  15.388  1.00  0.00    -0.000 C 
BRANCH  11  12
ATOM     12  C   UNL     1      13.160  14.963  15.186  1.00  0.00    -0.000 C 
BRANCH  12  13
ATOM     13  C   UNL     1      13.005  15.356  13.707  1.00  0.00    -0.000 C 
BRANCH  13  14
ATOM     14  C   UNL     1      13.252  14.176  12.754  1.00  0.00    -0.000 C 
BRANCH  14  15
ATOM     15  C   UNL     1      12.143  14.021  11.702  1.00  0.00    -0.003 C 
ATOM     16  C   UNL     1      11.961  12.558  11.309  1.00  0.00     0.004 C 
ENDBRANCH  14  15
ENDBRANCH  13  14
ENDBRANCH  12  13
ENDBRANCH  11  12
ENDBRANCH  10  11
ENDBRANCH   1  10
TORSDOF 12
ENDMDL
MODEL 7
REMARK VINA RESULT:    -1.619      1.527      2.392
REMARK INTER + INTRA:          -3.183
REMARK INTER:                  -2.633
REMARK INTRA:                  -0.549
REMARK UNBOUND:                -0.427
REMARK SMILES CCCCCCCCCCCCCC(=O)[O-]
REMARK SMILES IDX 8 1 9 2 10 3 11 4 12 5 13 6 14 7 15 8 16 9 7 10 6 11 5 12
REMARK SMILES IDX 4 13 3 14 2 15 1 16
REMARK H PARENT
REMARK Flexibility Score: inf
ROOT
ATOM      1  C   UNL     1      12.943   7.852  16.737  1.00  0.00     0.000 C 
ENDROOT
BRANCH   1   2
ATOM      2  C   UNL     1      13.297   8.284  15.307  1.00  0.00     0.000 C 
BRANCH   2   3
ATOM      3  C   UNL     1      12.530   9.551  14.909  1.00  0.00     0.000 C 
BRANCH   3   4
ATOM      4  C   UNL     1      13.253  10.812  15.408  1.00  0.00     0.000 C 
BRANCH   4   5
ATOM      5  C   UNL     1      12.614  12.111  14.883  1.00  0.00     0.006 C 
BRANCH   5   6
ATOM      6  C   UNL     1      11.661  11.912  13.694  1.00  0.00     0.053 C 
BRANCH   6   7
ATOM      7  C   UNL     1      12.092  12.695  12.492  1.00  0.00     0.041 C 
ATOM      8  O   UNL     1      11.767  12.314  11.338  1.00  0.00    -0.550 OA
ATOM      9  O   UNL     1      12.881  13.828  12.647  1.00  0.00    -0.550 OA
ENDBRANCH   6   7
ENDBRANCH   5   6
ENDBRANCH   4   5
ENDBRANCH   3   4
ENDBRANCH   2   3
ENDBRANCH   1   2
BRANCH   1  10
ATOM     10  C   UNL     1      12.232   6.491  16.785  1.00  0.00     0.000 C 
BRANCH  10  11
ATOM     11  C   UNL     1      13.090   5.355  16.198  1.00  0.00    -0.000 C 
BRANCH  11  12
ATOM     12  C   UNL     1      13.343   4.222  17.206  1.00  0.00    -0.000 C 
BRANCH  12  13
ATOM     13  C   UNL     1      12.783   4.538  18.603  1.00  0.00    -0.000 C 
BRANCH  13  14
ATOM     14  C   UNL     1      12.089   3.329  19.248  1.00  0.00    -0.000 C 
BRANCH  14  15
ATOM     15  C   UNL     1      11.344   3.692  20.541  1.00  0.00    -0.003 C 
ATOM     16  C   UNL     1      11.924   2.945  21.738  1.00  0.00     0.004 C 
ENDBRANCH  14  15
ENDBRANCH  13  14
ENDBRANCH  12  13
ENDBRANCH  11  12
ENDBRANCH  10  11
ENDBRANCH   1  10
TORSDOF 12
ENDMDL
MODEL 8
REMARK VINA RESULT:    -1.316      7.014      9.290
REMARK INTER + INTRA:          -2.667
REMARK INTER:                  -2.056
REMARK INTRA:                  -0.611
REMARK UNBOUND:                -0.427
REMARK SMILES CCCCCCCCCCCCCC(=O)[O-]
REMARK SMILES IDX 8 1 9 2 10 3 11 4 12 5 13 6 14 7 15 8 16 9 7 10 6 11 5 12
REMARK SMILES IDX 4 13 3 14 2 15 1 16
REMARK H PARENT
REMARK Flexibility Score: inf
ROOT
ATOM      1  C   UNL     1      14.261   4.331  15.281  1.00  0.00     0.000 C 
ENDROOT
BRANCH   1   2
ATOM      2  C   UNL     1      13.369   4.571  16.507  1.00  0.00     0.000 C 
BRANCH   2   3
ATOM      3  C   UNL     1      12.780   5.987  16.492  1.00  0.00     0.000 C 
BRANCH   3   4
ATOM      4  C   UNL     1      12.592   6.520  17.920  1.00  0.00     0.000 C 
BRANCH   4   5
ATOM      5  C   UNL     1      12.909   5.466  18.997  1.00  0.00     0.006 C 
BRANCH   5   6
ATOM      6  C   UNL     1      11.677   4.940  19.750  1.00  0.00     0.053 C 
BRANCH   6   7
ATOM      7  C   UNL     1      11.869   3.531  20.224  1.00  0.00     0.041 C 
ATOM      8  O   UNL     1      12.241   2.638  19.419  1.00  0.00    -0.550 OA
ATOM      9  O   UNL     1      11.606   3.201  21.547  1.00  0.00    -0.550 OA
ENDBRANCH   6   7
ENDBRANCH   5   6
ENDBRANCH   4   5
ENDBRANCH   3   4
ENDBRANCH   2   3
ENDBRANCH   1   2
BRANCH   1  10
ATOM     10  C   UNL     1      14.827   5.635  14.697  1.00  0.00     0.000 C 
BRANCH  10  11
ATOM     11  C   UNL     1      15.332   5.466  13.252  1.00  0.00    -0.000 C 
BRANCH  11  12
ATOM     12  C   UNL     1      14.300   4.784  12.339  1.00  0.00    -0.000 C 
BRANCH  12  13
ATOM     13  C   UNL     1      14.862   4.472  10.943  1.00  0.00    -0.000 C 
BRANCH  13  14
ATOM     14  C   UNL     1      15.741   3.212  10.929  1.00  0.00    -0.000 C 
BRANCH  14  15
ATOM     15  C   UNL     1      17.242   3.536  10.891  1.00  0.00    -0.003 C 
ATOM     16  C   UNL     1      17.824   3.611  12.299  1.00  0.00     0.004 C 
ENDBRANCH  14  15
ENDBRANCH  13  14
ENDBRANCH  12  13
ENDBRANCH  11  12
ENDBRANCH  10  11
ENDBRANCH   1  10
TORSDOF 12
ENDMDL
MODEL 9
REMARK VINA RESULT:    -1.259      4.796      9.300
REMARK INTER + INTRA:          -2.570
REMARK INTER:                  -2.188
REMARK INTRA:                  -0.382
REMARK UNBOUND:                -0.427
REMARK SMILES CCCCCCCCCCCCCC(=O)[O-]
REMARK SMILES IDX 8 1 9 2 10 3 11 4 12 5 13 6 14 7 15 8 16 9 7 10 6 11 5 12
REMARK SMILES IDX 4 13 3 14 2 15 1 16
REMARK H PARENT
REMARK Flexibility Score: inf
ROOT
ATOM      1  C   UNL     1      13.655   8.494  15.387  1.00  0.00     0.000 C 
ENDROOT
BRANCH   1   2
ATOM      2  C   UNL     1      12.965   7.234  15.930  1.00  0.00     0.000 C 
BRANCH   2   3
ATOM      3  C   UNL     1      13.690   5.966  15.465  1.00  0.00     0.000 C 
BRANCH   3   4
ATOM      4  C   UNL     1      14.678   6.280  14.332  1.00  0.00     0.000 C 
BRANCH   4   5
ATOM      5  C   UNL     1      15.168   5.016  13.601  1.00  0.00     0.006 C 
BRANCH   5   6
ATOM      6  C   UNL     1      16.631   4.644  13.892  1.00  0.00     0.053 C 
BRANCH   6   7
ATOM      7  C   UNL     1      17.314   4.070  12.688  1.00  0.00     0.041 C 
ATOM      8  O   UNL     1      16.695   3.969  11.598  1.00  0.00    -0.550 OA
ATOM      9  O   UNL     1      18.625   3.620  12.782  1.00  0.00    -0.550 OA
ENDBRANCH   6   7
ENDBRANCH   5   6
ENDBRANCH   4   5
ENDBRANCH   3   4
ENDBRANCH   2   3
ENDBRANCH   1   2
BRANCH   1  10
ATOM     10  C   UNL     1      12.654   9.557  14.907  1.00  0.00     0.000 C 
BRANCH  10  11
ATOM     11  C   UNL     1      13.005  10.969  15.410  1.00  0.00    -0.000 C 
BRANCH  11  12
ATOM     12  C   UNL     1      12.220  12.071  14.680  1.00  0.00    -0.000 C 
BRANCH  12  13
ATOM     13  C   UNL     1      12.814  13.471  14.911  1.00  0.00    -0.000 C 
BRANCH  13  14
ATOM     14  C   UNL     1      13.325  14.116  13.613  1.00  0.00    -0.000 C 
BRANCH  14  15
ATOM     15  C   UNL     1      13.336  15.651  13.678  1.00  0.00    -0.003 C 
ATOM     16  C   UNL     1      13.403  16.258  12.280  1.00  0.00     0.004 C 
ENDBRANCH  14  15
ENDBRANCH  13  14
ENDBRANCH  12  13
ENDBRANCH  11  12
ENDBRANCH  10  11
ENDBRANCH   1  10
TORSDOF 12
ENDMDL
