MODEL 1
REMARK VINA RESULT:    -5.557      0.000      0.000
REMARK INTER + INTRA:          -7.825
REMARK INTER:                  -7.506
REMARK INTRA:                  -0.319
REMARK UNBOUND:                -0.319
REMARK SMILES COc1ccc(-c2cc(=O)c3c(OC)c(OC)c(OC)c(OC)c3o2)cc1
REMARK SMILES IDX 7 1 8 2 9 3 10 4 11 5 24 6 25 7 21 8 18 9 15 10 12 11 6 12
REMARK SMILES IDX 3 13 4 14 27 15 5 16 26 17 2 18 1 19 22 20 23 21 13 22 14 23
REMARK SMILES IDX 19 24 20 25 16 26 17 27
REMARK H PARENT
REMARK Flexibility Score: inf
ROOT
ATOM      1  C   UNL     1       9.521 -13.361  -2.876  1.00  0.00     0.138 A 
ATOM      2  C   UNL     1       9.111 -14.607  -3.359  1.00  0.00     0.100 A 
ATOM      3  C   UNL     1      10.047 -15.629  -3.486  1.00  0.00     0.197 A 
ATOM      4  O   UNL     1       9.663 -16.748  -3.925  1.00  0.00    -0.289 OA
ATOM      5  C   UNL     1      11.393 -15.397  -3.124  1.00  0.00     0.115 A 
ATOM      6  C   UNL     1      11.736 -14.115  -2.634  1.00  0.00     0.188 A 
ATOM      7  O   UNL     1      10.793 -13.179  -2.532  1.00  0.00    -0.452 OA
ATOM      8  C   UNL     1      13.073 -13.821  -2.268  1.00  0.00     0.209 A 
ATOM      9  C   UNL     1      14.067 -14.832  -2.376  1.00  0.00     0.211 A 
ATOM     10  C   UNL     1      13.711 -16.119  -2.856  1.00  0.00     0.208 A 
ATOM     11  C   UNL     1      12.391 -16.384  -3.251  1.00  0.00     0.179 A 
ENDROOT
BRANCH   1  12
ATOM     12  C   UNL     1       8.566 -12.235  -2.734  1.00  0.00     0.018 A 
ATOM     13  C   UNL     1       6.780 -10.071  -2.424  1.00  0.00     0.118 A 
ATOM     14  C   UNL     1       7.220 -10.797  -1.302  1.00  0.00     0.047 A 
ATOM     15  C   UNL     1       7.242 -10.432  -3.693  1.00  0.00     0.047 A 
ATOM     16  C   UNL     1       8.108 -11.867  -1.459  1.00  0.00     0.016 A 
ATOM     17  C   UNL     1       8.128 -11.501  -3.851  1.00  0.00     0.016 A 
BRANCH  13  18
ATOM     18  O   UNL     1       5.891  -8.990  -2.319  1.00  0.00    -0.497 OA
ATOM     19  C   UNL     1       5.719  -7.991  -3.320  1.00  0.00     0.278 C 
ENDBRANCH  13  18
ENDBRANCH   1  12
BRANCH   8  20
ATOM     20  O   UNL     1      13.463 -12.551  -1.805  1.00  0.00    -0.490 OA
ATOM     21  C   UNL     1      13.487 -12.088  -0.459  1.00  0.00     0.278 C 
ENDBRANCH   8  20
BRANCH  11  22
ATOM     22  O   UNL     1      12.061 -17.650  -3.752  1.00  0.00    -0.492 OA
ATOM     23  C   UNL     1      11.623 -18.713  -2.912  1.00  0.00     0.278 C 
ENDBRANCH  11  22
BRANCH   9  24
ATOM     24  O   UNL     1      15.413 -14.612  -2.022  1.00  0.00    -0.490 OA
ATOM     25  C   UNL     1      16.045 -14.878  -0.774  1.00  0.00     0.279 C 
ENDBRANCH   9  24
BRANCH  10  26
ATOM     26  O   UNL     1      14.618 -17.195  -2.944  1.00  0.00    -0.490 OA
ATOM     27  C   UNL     1      15.634 -17.396  -3.921  1.00  0.00     0.278 C 
ENDBRANCH  10  26
TORSDOF 6
ENDMDL
MODEL 2
REMARK VINA RESULT:    -5.312      2.733      6.659
REMARK INTER + INTRA:          -7.494
REMARK INTER:                  -7.243
REMARK INTRA:                  -0.251
REMARK UNBOUND:                -0.319
REMARK SMILES COc1ccc(-c2cc(=O)c3c(OC)c(OC)c(OC)c(OC)c3o2)cc1
REMARK SMILES IDX 7 1 8 2 9 3 10 4 11 5 24 6 25 7 21 8 18 9 15 10 12 11 6 12
REMARK SMILES IDX 3 13 4 14 27 15 5 16 26 17 2 18 1 19 22 20 23 21 13 22 14 23
REMARK SMILES IDX 19 24 20 25 16 26 17 27
REMARK H PARENT
REMARK Flexibility Score: inf
ROOT
ATOM      1  C   UNL     1      13.693 -13.764  -0.914  1.00  0.00     0.138 A 
ATOM      2  C   UNL     1      14.073 -14.858  -1.697  1.00  0.00     0.100 A 
ATOM      3  C   UNL     1      13.096 -15.730  -2.167  1.00  0.00     0.197 A 
ATOM      4  O   UNL     1      13.453 -16.715  -2.870  1.00  0.00    -0.289 OA
ATOM      5  C   UNL     1      11.738 -15.499  -1.850  1.00  0.00     0.115 A 
ATOM      6  C   UNL     1      11.425 -14.367  -1.061  1.00  0.00     0.188 A 
ATOM      7  O   UNL     1      12.405 -13.567  -0.646  1.00  0.00    -0.452 OA
ATOM      8  C   UNL     1      10.081 -14.093  -0.703  1.00  0.00     0.209 A 
ATOM      9  C   UNL     1       9.045 -14.952  -1.160  1.00  0.00     0.211 A 
ATOM     10  C   UNL     1       9.367 -16.077  -1.960  1.00  0.00     0.208 A 
ATOM     11  C   UNL     1      10.706 -16.358  -2.276  1.00  0.00     0.179 A 
ENDROOT
BRANCH   1  12
ATOM     12  C   UNL     1      14.697 -12.812  -0.379  1.00  0.00     0.018 A 
ATOM     13  C   UNL     1      16.639 -11.009   0.595  1.00  0.00     0.118 A 
ATOM     14  C   UNL     1      17.015 -12.294   0.161  1.00  0.00     0.047 A 
ATOM     15  C   UNL     1      15.293 -10.635   0.533  1.00  0.00     0.047 A 
ATOM     16  C   UNL     1      16.050 -13.183  -0.324  1.00  0.00     0.016 A 
ATOM     17  C   UNL     1      14.329 -11.524   0.050  1.00  0.00     0.016 A 
BRANCH  13  18
ATOM     18  O   UNL     1      17.568 -10.080   1.089  1.00  0.00    -0.497 OA
ATOM     19  C   UNL     1      18.114  -9.007   0.327  1.00  0.00     0.278 C 
ENDBRANCH  13  18
ENDBRANCH   1  12
BRANCH   8  20
ATOM     20  O   UNL     1       9.729 -12.995   0.105  1.00  0.00    -0.490 OA
ATOM     21  C   UNL     1       9.720 -11.619  -0.258  1.00  0.00     0.278 C 
ENDBRANCH   8  20
BRANCH  11  22
ATOM     22  O   UNL     1      11.011 -17.490  -3.043  1.00  0.00    -0.492 OA
ATOM     23  C   UNL     1      11.054 -18.801  -2.488  1.00  0.00     0.278 C 
ENDBRANCH  11  22
BRANCH   9  24
ATOM     24  O   UNL     1       7.688 -14.734  -0.848  1.00  0.00    -0.490 OA
ATOM     25  C   UNL     1       6.855 -13.659  -1.269  1.00  0.00     0.279 C 
ENDBRANCH   9  24
BRANCH  10  26
ATOM     26  O   UNL     1       8.401 -16.950  -2.502  1.00  0.00    -0.490 OA
ATOM     27  C   UNL     1       7.996 -17.057  -3.863  1.00  0.00     0.278 C 
ENDBRANCH  10  26
TORSDOF 6
ENDMDL
MODEL 3
REMARK VINA RESULT:    -4.870      3.174      6.582
REMARK INTER + INTRA:          -6.897
REMARK INTER:                  -6.812
REMARK INTRA:                  -0.085
REMARK UNBOUND:                -0.319
REMARK SMILES COc1ccc(-c2cc(=O)c3c(OC)c(OC)c(OC)c(OC)c3o2)cc1
REMARK SMILES IDX 7 1 8 2 9 3 10 4 11 5 24 6 25 7 21 8 18 9 15 10 12 11 6 12
REMARK SMILES IDX 3 13 4 14 27 15 5 16 26 17 2 18 1 19 22 20 23 21 13 22 14 23
REMARK SMILES IDX 19 24 20 25 16 26 17 27
REMARK H PARENT
REMARK Flexibility Score: inf
ROOT
ATOM      1  C   UNL     1      13.489 -13.450  -0.801  1.00  0.00     0.138 A 
ATOM      2  C   UNL     1      13.082 -14.589  -0.101  1.00  0.00     0.100 A 
ATOM      3  C   UNL     1      12.030 -15.353  -0.597  1.00  0.00     0.197 A 
ATOM      4  O   UNL     1      11.672 -16.378   0.046  1.00  0.00    -0.289 OA
ATOM      5  C   UNL     1      11.391 -14.971  -1.798  1.00  0.00     0.115 A 
ATOM      6  C   UNL     1      11.861 -13.812  -2.459  1.00  0.00     0.188 A 
ATOM      7  O   UNL     1      12.875 -13.125  -1.936  1.00  0.00    -0.452 OA
ATOM      8  C   UNL     1      11.249 -13.375  -3.661  1.00  0.00     0.209 A 
ATOM      9  C   UNL     1      10.172 -14.122  -4.211  1.00  0.00     0.211 A 
ATOM     10  C   UNL     1       9.716 -15.290  -3.548  1.00  0.00     0.208 A 
ATOM     11  C   UNL     1      10.306 -15.690  -2.338  1.00  0.00     0.179 A 
ENDROOT
BRANCH   1  12
ATOM     12  C   UNL     1      14.597 -12.595  -0.309  1.00  0.00     0.018 A 
ATOM     13  C   UNL     1      16.735 -10.982   0.584  1.00  0.00     0.118 A 
ATOM     14  C   UNL     1      16.967 -12.308   0.174  1.00  0.00     0.047 A 
ATOM     15  C   UNL     1      15.434 -10.473   0.538  1.00  0.00     0.047 A 
ATOM     16  C   UNL     1      15.906 -13.104  -0.271  1.00  0.00     0.016 A 
ATOM     17  C   UNL     1      14.373 -11.267   0.095  1.00  0.00     0.016 A 
BRANCH  13  18
ATOM     18  O   UNL     1      17.765 -10.144   1.037  1.00  0.00    -0.497 OA
ATOM     19  C   UNL     1      18.133  -8.915   0.417  1.00  0.00     0.278 C 
ENDBRANCH  13  18
ENDBRANCH   1  12
BRANCH   8  20
ATOM     20  O   UNL     1      11.665 -12.211  -4.334  1.00  0.00    -0.490 OA
ATOM     21  C   UNL     1      12.727 -12.085  -5.273  1.00  0.00     0.278 C 
ENDBRANCH   8  20
BRANCH  11  22
ATOM     22  O   UNL     1       9.825 -16.829  -1.679  1.00  0.00    -0.492 OA
ATOM     23  C   UNL     1      10.305 -18.138  -1.969  1.00  0.00     0.278 C 
ENDBRANCH  11  22
BRANCH   9  24
ATOM     24  O   UNL     1       9.524 -13.749  -5.406  1.00  0.00    -0.490 OA
ATOM     25  C   UNL     1       8.774 -12.565  -5.662  1.00  0.00     0.279 C 
ENDBRANCH   9  24
BRANCH  10  26
ATOM     26  O   UNL     1       8.693 -16.120  -4.049  1.00  0.00    -0.490 OA
ATOM     27  C   UNL     1       8.833 -17.243  -4.914  1.00  0.00     0.278 C 
ENDBRANCH  10  26
TORSDOF 6
ENDMDL
MODEL 4
REMARK VINA RESULT:    -4.840      1.785      3.178
REMARK INTER + INTRA:          -6.857
REMARK INTER:                  -6.480
REMARK INTRA:                  -0.376
REMARK UNBOUND:                -0.319
REMARK SMILES COc1ccc(-c2cc(=O)c3c(OC)c(OC)c(OC)c(OC)c3o2)cc1
REMARK SMILES IDX 7 1 8 2 9 3 10 4 11 5 24 6 25 7 21 8 18 9 15 10 12 11 6 12
REMARK SMILES IDX 3 13 4 14 27 15 5 16 26 17 2 18 1 19 22 20 23 21 13 22 14 23
REMARK SMILES IDX 19 24 20 25 16 26 17 27
REMARK H PARENT
REMARK Flexibility Score: inf
ROOT
ATOM      1  C   UNL     1       9.957 -12.452  -1.434  1.00  0.00     0.138 A 
ATOM      2  C   UNL     1      10.521 -12.624  -0.166  1.00  0.00     0.100 A 
ATOM      3  C   UNL     1      11.625 -13.458  -0.020  1.00  0.00     0.197 A 
ATOM      4  O   UNL     1      12.123 -13.605   1.130  1.00  0.00    -0.289 OA
ATOM      5  C   UNL     1      12.161 -14.117  -1.150  1.00  0.00     0.115 A 
ATOM      6  C   UNL     1      11.545 -13.890  -2.403  1.00  0.00     0.188 A 
ATOM      7  O   UNL     1      10.494 -13.076  -2.479  1.00  0.00    -0.452 OA
ATOM      8  C   UNL     1      12.033 -14.534  -3.568  1.00  0.00     0.209 A 
ATOM      9  C   UNL     1      13.160 -15.395  -3.473  1.00  0.00     0.211 A 
ATOM     10  C   UNL     1      13.778 -15.607  -2.214  1.00  0.00     0.208 A 
ATOM     11  C   UNL     1      13.261 -14.993  -1.062  1.00  0.00     0.179 A 
ENDROOT
BRANCH   1  12
ATOM     12  C   UNL     1       8.773 -11.583  -1.641  1.00  0.00     0.018 A 
ATOM     13  C   UNL     1       6.517  -9.919  -1.981  1.00  0.00     0.118 A 
ATOM     14  C   UNL     1       6.517 -10.927  -0.999  1.00  0.00     0.047 A 
ATOM     15  C   UNL     1       7.651  -9.749  -2.782  1.00  0.00     0.047 A 
ATOM     16  C   UNL     1       7.637 -11.748  -0.831  1.00  0.00     0.016 A 
ATOM     17  C   UNL     1       8.770 -10.569  -2.616  1.00  0.00     0.016 A 
BRANCH  13  18
ATOM     18  O   UNL     1       5.420  -9.070  -2.188  1.00  0.00    -0.497 OA
ATOM     19  C   UNL     1       5.277  -8.198  -3.306  1.00  0.00     0.278 C 
ENDBRANCH  13  18
ENDBRANCH   1  12
BRANCH   8  20
ATOM     20  O   UNL     1      11.432 -14.361  -4.829  1.00  0.00    -0.490 OA
ATOM     21  C   UNL     1      11.659 -13.308  -5.760  1.00  0.00     0.278 C 
ENDBRANCH   8  20
BRANCH  11  22
ATOM     22  O   UNL     1      13.865 -15.234   0.179  1.00  0.00    -0.492 OA
ATOM     23  C   UNL     1      15.119 -14.666   0.542  1.00  0.00     0.278 C 
ENDBRANCH  11  22
BRANCH   9  24
ATOM     24  O   UNL     1      13.701 -16.061  -4.591  1.00  0.00    -0.490 OA
ATOM     25  C   UNL     1      13.272 -17.289  -5.171  1.00  0.00     0.279 C 
ENDBRANCH   9  24
BRANCH  10  26
ATOM     26  O   UNL     1      14.932 -16.398  -2.036  1.00  0.00    -0.490 OA
ATOM     27  C   UNL     1      16.255 -16.113  -2.476  1.00  0.00     0.278 C 
ENDBRANCH  10  26
TORSDOF 6
ENDMDL
MODEL 5
REMARK VINA RESULT:    -4.816      3.097      6.717
REMARK INTER + INTRA:          -6.824
REMARK INTER:                  -6.467
REMARK INTRA:                  -0.357
REMARK UNBOUND:                -0.319
REMARK SMILES COc1ccc(-c2cc(=O)c3c(OC)c(OC)c(OC)c(OC)c3o2)cc1
REMARK SMILES IDX 7 1 8 2 9 3 10 4 11 5 24 6 25 7 21 8 18 9 15 10 12 11 6 12
REMARK SMILES IDX 3 13 4 14 27 15 5 16 26 17 2 18 1 19 22 20 23 21 13 22 14 23
REMARK SMILES IDX 19 24 20 25 16 26 17 27
REMARK H PARENT
REMARK Flexibility Score: inf
ROOT
ATOM      1  C   UNL     1      13.111 -13.350  -0.352  1.00  0.00     0.138 A 
ATOM      2  C   UNL     1      11.958 -13.144   0.413  1.00  0.00     0.100 A 
ATOM      3  C   UNL     1      10.816 -13.889   0.136  1.00  0.00     0.197 A 
ATOM      4  O   UNL     1       9.783 -13.692   0.832  1.00  0.00    -0.289 OA
ATOM      5  C   UNL     1      10.836 -14.842  -0.909  1.00  0.00     0.115 A 
ATOM      6  C   UNL     1      12.040 -15.004  -1.635  1.00  0.00     0.188 A 
ATOM      7  O   UNL     1      13.100 -14.264  -1.318  1.00  0.00    -0.452 OA
ATOM      8  C   UNL     1      12.113 -15.936  -2.701  1.00  0.00     0.209 A 
ATOM      9  C   UNL     1      10.974 -16.724  -3.023  1.00  0.00     0.211 A 
ATOM     10  C   UNL     1       9.776 -16.563  -2.281  1.00  0.00     0.208 A 
ATOM     11  C   UNL     1       9.706 -15.609  -1.253  1.00  0.00     0.179 A 
ENDROOT
BRANCH   1  12
ATOM     12  C   UNL     1      14.350 -12.573  -0.104  1.00  0.00     0.018 A 
ATOM     13  C   UNL     1      16.729 -11.113   0.318  1.00  0.00     0.118 A 
ATOM     14  C   UNL     1      16.783 -12.473  -0.041  1.00  0.00     0.047 A 
ATOM     15  C   UNL     1      15.483 -10.494   0.458  1.00  0.00     0.047 A 
ATOM     16  C   UNL     1      15.602 -13.192  -0.253  1.00  0.00     0.016 A 
ATOM     17  C   UNL     1      14.303 -11.212   0.248  1.00  0.00     0.016 A 
BRANCH  13  18
ATOM     18  O   UNL     1      17.884 -10.347   0.540  1.00  0.00    -0.497 OA
ATOM     19  C   UNL     1      18.063  -9.011   0.081  1.00  0.00     0.278 C 
ENDBRANCH  13  18
ENDBRANCH   1  12
BRANCH   8  20
ATOM     20  O   UNL     1      13.280 -16.106  -3.469  1.00  0.00    -0.490 OA
ATOM     21  C   UNL     1      14.341 -17.028  -3.240  1.00  0.00     0.278 C 
ENDBRANCH   8  20
BRANCH  11  22
ATOM     22  O   UNL     1       8.507 -15.441  -0.548  1.00  0.00    -0.492 OA
ATOM     23  C   UNL     1       7.444 -14.626  -1.033  1.00  0.00     0.278 C 
ENDBRANCH  11  22
BRANCH   9  24
ATOM     24  O   UNL     1      10.981 -17.673  -4.064  1.00  0.00    -0.490 OA
ATOM     25  C   UNL     1      10.852 -19.088  -3.959  1.00  0.00     0.279 C 
ENDBRANCH   9  24
BRANCH  10  26
ATOM     26  O   UNL     1       8.619 -17.339  -2.494  1.00  0.00    -0.490 OA
ATOM     27  C   UNL     1       7.698 -17.243  -3.575  1.00  0.00     0.278 C 
ENDBRANCH  10  26
TORSDOF 6
ENDMDL
MODEL 6
REMARK VINA RESULT:    -4.298      1.598      3.887
REMARK INTER + INTRA:          -6.124
REMARK INTER:                  -6.325
REMARK INTRA:                   0.201
REMARK UNBOUND:                -0.319
REMARK SMILES COc1ccc(-c2cc(=O)c3c(OC)c(OC)c(OC)c(OC)c3o2)cc1
REMARK SMILES IDX 7 1 8 2 9 3 10 4 11 5 24 6 25 7 21 8 18 9 15 10 12 11 6 12
REMARK SMILES IDX 3 13 4 14 27 15 5 16 26 17 2 18 1 19 22 20 23 21 13 22 14 23
REMARK SMILES IDX 19 24 20 25 16 26 17 27
REMARK H PARENT
REMARK Flexibility Score: inf
ROOT
ATOM      1  C   UNL     1      10.541 -12.774  -1.253  1.00  0.00     0.138 A 
ATOM      2  C   UNL     1      11.652 -12.178  -0.649  1.00  0.00     0.100 A 
ATOM      3  C   UNL     1      12.921 -12.692  -0.900  1.00  0.00     0.197 A 
ATOM      4  O   UNL     1      13.914 -12.146  -0.347  1.00  0.00    -0.289 OA
ATOM      5  C   UNL     1      13.069 -13.805  -1.759  1.00  0.00     0.115 A 
ATOM      6  C   UNL     1      11.902 -14.352  -2.343  1.00  0.00     0.188 A 
ATOM      7  O   UNL     1      10.717 -13.811  -2.067  1.00  0.00    -0.452 OA
ATOM      8  C   UNL     1      11.990 -15.475  -3.203  1.00  0.00     0.209 A 
ATOM      9  C   UNL     1      13.263 -16.038  -3.493  1.00  0.00     0.211 A 
ATOM     10  C   UNL     1      14.429 -15.474  -2.913  1.00  0.00     0.208 A 
ATOM     11  C   UNL     1      14.323 -14.386  -2.033  1.00  0.00     0.179 A 
ENDROOT
BRANCH   1  12
ATOM     12  C   UNL     1       9.167 -12.270  -1.009  1.00  0.00     0.018 A 
ATOM     13  C   UNL     1       6.542 -11.315  -0.600  1.00  0.00     0.118 A 
ATOM     14  C   UNL     1       7.371 -10.725  -1.572  1.00  0.00     0.047 A 
ATOM     15  C   UNL     1       7.034 -12.383   0.157  1.00  0.00     0.047 A 
ATOM     16  C   UNL     1       8.670 -11.203  -1.775  1.00  0.00     0.016 A 
ATOM     17  C   UNL     1       8.332 -12.861  -0.044  1.00  0.00     0.016 A 
BRANCH  13  18
ATOM     18  O   UNL     1       5.232 -10.874  -0.359  1.00  0.00    -0.497 OA
ATOM     19  C   UNL     1       4.223 -11.657   0.271  1.00  0.00     0.278 C 
ENDBRANCH  13  18
ENDBRANCH   1  12
BRANCH   8  20
ATOM     20  O   UNL     1      10.852 -16.069  -3.780  1.00  0.00    -0.490 OA
ATOM     21  C   UNL     1      10.059 -17.123  -3.245  1.00  0.00     0.278 C 
ENDBRANCH   8  20
BRANCH  11  22
ATOM     22  O   UNL     1      15.480 -13.859  -1.444  1.00  0.00    -0.492 OA
ATOM     23  C   UNL     1      16.141 -14.496  -0.356  1.00  0.00     0.278 C 
ENDBRANCH  11  22
BRANCH   9  24
ATOM     24  O   UNL     1      13.424 -17.149  -4.345  1.00  0.00    -0.490 OA
ATOM     25  C   UNL     1      13.168 -17.223  -5.743  1.00  0.00     0.279 C 
ENDBRANCH   9  24
BRANCH  10  26
ATOM     26  O   UNL     1      15.734 -15.932  -3.188  1.00  0.00    -0.490 OA
ATOM     27  C   UNL     1      16.114 -17.191  -3.733  1.00  0.00     0.278 C 
ENDBRANCH  10  26
TORSDOF 6
ENDMDL
MODEL 7
REMARK VINA RESULT:    -3.451      2.411      7.958
REMARK INTER + INTRA:          -4.980
REMARK INTER:                  -4.750
REMARK INTRA:                  -0.230
REMARK UNBOUND:                -0.319
REMARK SMILES COc1ccc(-c2cc(=O)c3c(OC)c(OC)c(OC)c(OC)c3o2)cc1
REMARK SMILES IDX 7 1 8 2 9 3 10 4 11 5 24 6 25 7 21 8 18 9 15 10 12 11 6 12
REMARK SMILES IDX 3 13 4 14 27 15 5 16 26 17 2 18 1 19 22 20 23 21 13 22 14 23
REMARK SMILES IDX 19 24 20 25 16 26 17 27
REMARK H PARENT
REMARK Flexibility Score: inf
ROOT
ATOM      1  C   UNL     1      11.924 -13.570  -1.977  1.00  0.00     0.138 A 
ATOM      2  C   UNL     1      11.865 -13.251  -3.337  1.00  0.00     0.100 A 
ATOM      3  C   UNL     1      10.769 -12.544  -3.823  1.00  0.00     0.197 A 
ATOM      4  O   UNL     1      10.728 -12.263  -5.052  1.00  0.00    -0.289 OA
ATOM      5  C   UNL     1       9.735 -12.158  -2.939  1.00  0.00     0.115 A 
ATOM      6  C   UNL     1       9.865 -12.507  -1.574  1.00  0.00     0.188 A 
ATOM      7  O   UNL     1      10.941 -13.181  -1.170  1.00  0.00    -0.452 OA
ATOM      8  C   UNL     1       8.853 -12.157  -0.646  1.00  0.00     0.209 A 
ATOM      9  C   UNL     1       7.714 -11.432  -1.091  1.00  0.00     0.211 A 
ATOM     10  C   UNL     1       7.599 -11.075  -2.459  1.00  0.00     0.208 A 
ATOM     11  C   UNL     1       8.590 -11.462  -3.374  1.00  0.00     0.179 A 
ENDROOT
BRANCH   1  12
ATOM     12  C   UNL     1      13.064 -14.333  -1.412  1.00  0.00     0.018 A 
ATOM     13  C   UNL     1      15.268 -15.758  -0.372  1.00  0.00     0.118 A 
ATOM     14  C   UNL     1      15.045 -15.706  -1.761  1.00  0.00     0.047 A 
ATOM     15  C   UNL     1      14.387 -15.091   0.484  1.00  0.00     0.047 A 
ATOM     16  C   UNL     1      13.954 -14.996  -2.273  1.00  0.00     0.016 A 
ATOM     17  C   UNL     1      13.296 -14.382  -0.026  1.00  0.00     0.016 A 
BRANCH  13  18
ATOM     18  O   UNL     1      16.348 -16.455   0.191  1.00  0.00    -0.497 OA
ATOM     19  C   UNL     1      16.246 -17.320   1.318  1.00  0.00     0.278 C 
ENDBRANCH  13  18
ENDBRANCH   1  12
BRANCH   8  20
ATOM     20  O   UNL     1       8.928 -12.511   0.714  1.00  0.00    -0.490 OA
ATOM     21  C   UNL     1       8.519 -13.735   1.315  1.00  0.00     0.278 C 
ENDBRANCH   8  20
BRANCH  11  22
ATOM     22  O   UNL     1       8.448 -11.128  -4.728  1.00  0.00    -0.492 OA
ATOM     23  C   UNL     1       7.962 -12.053  -5.695  1.00  0.00     0.278 C 
ENDBRANCH  11  22
BRANCH   9  24
ATOM     24  O   UNL     1       6.676 -11.045  -0.220  1.00  0.00    -0.490 OA
ATOM     25  C   UNL     1       5.501 -11.775   0.119  1.00  0.00     0.279 C 
ENDBRANCH   9  24
BRANCH  10  26
ATOM     26  O   UNL     1       6.533 -10.310  -2.976  1.00  0.00    -0.490 OA
ATOM     27  C   UNL     1       6.395  -8.893  -2.961  1.00  0.00     0.278 C 
ENDBRANCH  10  26
TORSDOF 6
ENDMDL
