MODEL 1
REMARK VINA RESULT:    -5.653      0.000      0.000
REMARK INTER + INTRA:          -7.055
REMARK INTER:                  -6.810
REMARK INTRA:                  -0.244
REMARK UNBOUND:                -0.244
REMARK SMILES O=c1c(O)c(-c2ccc(O)c(O)c2)oc2cc(O)cc(O)c12
REMARK SMILES IDX 5 1 3 2 2 3 1 4 22 5 20 6 19 7 17 8 16 9 15 10 14 11 6 12
REMARK SMILES IDX 7 13 8 14 9 15 13 16 11 17 10 18 12 20 4 22 21 24 18 26
REMARK H PARENT 10 19 12 21 4 23 21 25 18 27
REMARK Flexibility Score: inf
ROOT
ATOM      1  C   UNL     1      57.330  25.853  28.216  1.00  0.00     0.180 A 
ATOM      2  C   UNL     1      58.574  25.307  28.574  1.00  0.00     0.208 A 
ATOM      3  C   UNL     1      59.672  26.165  28.747  1.00  0.00     0.238 A 
ATOM      4  O   UNL     1      60.769  25.677  29.121  1.00  0.00    -0.285 OA
ATOM      5  C   UNL     1      59.516  27.558  28.542  1.00  0.00     0.111 A 
ATOM      6  C   UNL     1      60.568  28.515  28.650  1.00  0.00     0.134 A 
ATOM      7  C   UNL     1      60.271  29.881  28.554  1.00  0.00     0.093 A 
ATOM      8  C   UNL     1      58.974  30.319  28.291  1.00  0.00     0.123 A 
ATOM      9  C   UNL     1      57.948  29.389  28.124  1.00  0.00     0.094 A 
ATOM     10  C   UNL     1      58.206  28.022  28.250  1.00  0.00     0.146 A 
ATOM     11  O   UNL     1      57.201  27.169  28.095  1.00  0.00    -0.452 OA
ENDROOT
BRANCH   1  12
ATOM     12  C   UNL     1      56.134  25.010  27.992  1.00  0.00     0.025 A 
ATOM     13  C   UNL     1      55.093  24.952  28.935  1.00  0.00     0.016 A 
ATOM     14  C   UNL     1      53.984  24.130  28.713  1.00  0.00     0.051 A 
ATOM     15  C   UNL     1      53.904  23.347  27.559  1.00  0.00     0.157 A 
ATOM     16  C   UNL     1      56.060  24.206  26.843  1.00  0.00     0.062 A 
ATOM     17  C   UNL     1      54.947  23.382  26.618  1.00  0.00     0.158 A 
BRANCH  15  18
ATOM     18  O   UNL     1      52.784  22.539  27.364  1.00  0.00    -0.504 OA
ATOM     19  H   UNL     1      52.413  21.947  28.097  1.00  0.00     0.293 HD
ENDBRANCH  15  18
BRANCH  17  20
ATOM     20  O   UNL     1      54.877  22.597  25.468  1.00  0.00    -0.504 OA
ATOM     21  H   UNL     1      54.015  22.501  24.943  1.00  0.00     0.293 HD
ENDBRANCH  17  20
ENDBRANCH   1  12
BRANCH   2  22
ATOM     22  O   UNL     1      58.701  23.932  28.793  1.00  0.00    -0.502 OA
ATOM     23  H   UNL     1      57.923  23.354  29.091  1.00  0.00     0.293 HD
ENDBRANCH   2  22
BRANCH   6  24
ATOM     24  O   UNL     1      61.914  28.180  28.821  1.00  0.00    -0.507 OA
ATOM     25  H   UNL     1      62.250  27.426  29.400  1.00  0.00     0.293 HD
ENDBRANCH   6  24
BRANCH   8  26
ATOM     26  O   UNL     1      58.718  31.685  28.187  1.00  0.00    -0.508 OA
ATOM     27  H   UNL     1      59.404  32.326  27.805  1.00  0.00     0.293 HD
ENDBRANCH   8  26
TORSDOF 6
ENDMDL
MODEL 2
REMARK VINA RESULT:    -5.231      1.035      1.218
REMARK INTER + INTRA:          -6.546
REMARK INTER:                  -6.244
REMARK INTRA:                  -0.302
REMARK UNBOUND:                -0.244
REMARK SMILES O=c1c(O)c(-c2ccc(O)c(O)c2)oc2cc(O)cc(O)c12
REMARK SMILES IDX 5 1 3 2 2 3 1 4 22 5 20 6 19 7 17 8 16 9 15 10 14 11 6 12
REMARK SMILES IDX 7 13 8 14 9 15 13 16 11 17 10 18 12 20 4 22 21 24 18 26
REMARK H PARENT 10 19 12 21 4 23 21 25 18 27
REMARK Flexibility Score: inf
ROOT
ATOM      1  C   UNL     1      56.376  25.159  28.314  1.00  0.00     0.180 A 
ATOM      2  C   UNL     1      57.581  24.505  28.623  1.00  0.00     0.208 A 
ATOM      3  C   UNL     1      58.747  25.268  28.794  1.00  0.00     0.238 A 
ATOM      4  O   UNL     1      59.810  24.683  29.125  1.00  0.00    -0.285 OA
ATOM      5  C   UNL     1      58.697  26.675  28.637  1.00  0.00     0.111 A 
ATOM      6  C   UNL     1      59.825  27.542  28.747  1.00  0.00     0.134 A 
ATOM      7  C   UNL     1      59.636  28.929  28.701  1.00  0.00     0.093 A 
ATOM      8  C   UNL     1      58.372  29.477  28.485  1.00  0.00     0.123 A 
ATOM      9  C   UNL     1      57.272  28.637  28.316  1.00  0.00     0.094 A 
ATOM     10  C   UNL     1      57.423  27.250  28.393  1.00  0.00     0.146 A 
ATOM     11  O   UNL     1      56.349  26.485  28.238  1.00  0.00    -0.452 OA
ENDROOT
BRANCH   1  12
ATOM     12  C   UNL     1      55.112  24.421  28.095  1.00  0.00     0.025 A 
ATOM     13  C   UNL     1      54.168  24.265  29.125  1.00  0.00     0.016 A 
ATOM     14  C   UNL     1      52.992  23.544  28.902  1.00  0.00     0.051 A 
ATOM     15  C   UNL     1      52.747  22.957  27.657  1.00  0.00     0.157 A 
ATOM     16  C   UNL     1      54.872  23.813  26.852  1.00  0.00     0.062 A 
ATOM     17  C   UNL     1      53.692  23.089  26.626  1.00  0.00     0.158 A 
BRANCH  15  18
ATOM     18  O   UNL     1      51.563  22.245  27.464  1.00  0.00    -0.504 OA
ATOM     19  H   UNL     1      50.961  21.983  28.235  1.00  0.00     0.293 HD
ENDBRANCH  15  18
BRANCH  17  20
ATOM     20  O   UNL     1      53.457  22.501  25.384  1.00  0.00    -0.504 OA
ATOM     21  H   UNL     1      53.406  23.053  24.536  1.00  0.00     0.293 HD
ENDBRANCH  17  20
ENDBRANCH   1  12
BRANCH   2  22
ATOM     22  O   UNL     1      57.603  23.118  28.796  1.00  0.00    -0.502 OA
ATOM     23  H   UNL     1      57.103  22.655  29.547  1.00  0.00     0.293 HD
ENDBRANCH   2  22
BRANCH   6  24
ATOM     24  O   UNL     1      61.144  27.096  28.872  1.00  0.00    -0.507 OA
ATOM     25  H   UNL     1      61.842  27.153  28.147  1.00  0.00     0.293 HD
ENDBRANCH   6  24
BRANCH   8  26
ATOM     26  O   UNL     1      58.224  30.861  28.430  1.00  0.00    -0.508 OA
ATOM     27  H   UNL     1      57.596  31.301  27.768  1.00  0.00     0.293 HD
ENDBRANCH   8  26
TORSDOF 6
ENDMDL
MODEL 3
REMARK VINA RESULT:    -4.914      1.874      7.480
REMARK INTER + INTRA:          -6.164
REMARK INTER:                  -5.917
REMARK INTRA:                  -0.247
REMARK UNBOUND:                -0.244
REMARK SMILES O=c1c(O)c(-c2ccc(O)c(O)c2)oc2cc(O)cc(O)c12
REMARK SMILES IDX 5 1 3 2 2 3 1 4 22 5 20 6 19 7 17 8 16 9 15 10 14 11 6 12
REMARK SMILES IDX 7 13 8 14 9 15 13 16 11 17 10 18 12 20 4 22 21 24 18 26
REMARK H PARENT 10 19 12 21 4 23 21 25 18 27
REMARK Flexibility Score: inf
ROOT
ATOM      1  C   UNL     1      56.052  24.472  27.240  1.00  0.00     0.180 A 
ATOM      2  C   UNL     1      56.134  23.897  25.961  1.00  0.00     0.208 A 
ATOM      3  C   UNL     1      55.137  22.996  25.554  1.00  0.00     0.238 A 
ATOM      4  O   UNL     1      55.185  22.526  24.387  1.00  0.00    -0.285 OA
ATOM      5  C   UNL     1      54.080  22.668  26.438  1.00  0.00     0.111 A 
ATOM      6  C   UNL     1      53.039  21.737  26.146  1.00  0.00     0.134 A 
ATOM      7  C   UNL     1      51.974  21.588  27.043  1.00  0.00     0.093 A 
ATOM      8  C   UNL     1      51.945  22.288  28.249  1.00  0.00     0.123 A 
ATOM      9  C   UNL     1      52.988  23.156  28.572  1.00  0.00     0.094 A 
ATOM     10  C   UNL     1      54.046  23.353  27.681  1.00  0.00     0.146 A 
ATOM     11  O   UNL     1      55.014  24.195  28.021  1.00  0.00    -0.452 OA
ENDROOT
BRANCH   1  12
ATOM     12  C   UNL     1      57.078  25.411  27.749  1.00  0.00     0.025 A 
ATOM     13  C   UNL     1      56.830  26.793  27.829  1.00  0.00     0.016 A 
ATOM     14  C   UNL     1      57.821  27.663  28.290  1.00  0.00     0.051 A 
ATOM     15  C   UNL     1      59.075  27.172  28.665  1.00  0.00     0.157 A 
ATOM     16  C   UNL     1      58.345  24.924  28.108  1.00  0.00     0.062 A 
ATOM     17  C   UNL     1      59.341  25.795  28.572  1.00  0.00     0.158 A 
BRANCH  15  18
ATOM     18  O   UNL     1      60.043  28.065  29.124  1.00  0.00    -0.504 OA
ATOM     19  H   UNL     1      60.042  28.418  30.073  1.00  0.00     0.293 HD
ENDBRANCH  15  18
BRANCH  17  20
ATOM     20  O   UNL     1      60.592  25.300  28.938  1.00  0.00    -0.504 OA
ATOM     21  H   UNL     1      61.303  25.899  29.340  1.00  0.00     0.293 HD
ENDBRANCH  17  20
ENDBRANCH   1  12
BRANCH   2  22
ATOM     22  O   UNL     1      57.173  24.252  25.096  1.00  0.00    -0.502 OA
ATOM     23  H   UNL     1      57.485  25.210  24.983  1.00  0.00     0.293 HD
ENDBRANCH   2  22
BRANCH   6  24
ATOM     24  O   UNL     1      53.018  20.920  25.011  1.00  0.00    -0.507 OA
ATOM     25  H   UNL     1      52.832  21.242  24.074  1.00  0.00     0.293 HD
ENDBRANCH   6  24
BRANCH   8  26
ATOM     26  O   UNL     1      50.877  22.104  29.124  1.00  0.00    -0.508 OA
ATOM     27  H   UNL     1      50.443  22.884  29.602  1.00  0.00     0.293 HD
ENDBRANCH   8  26
TORSDOF 6
ENDMDL
MODEL 4
REMARK VINA RESULT:    -4.382      4.423      9.236
REMARK INTER + INTRA:          -5.523
REMARK INTER:                  -6.077
REMARK INTRA:                   0.554
REMARK UNBOUND:                -0.244
REMARK SMILES O=c1c(O)c(-c2ccc(O)c(O)c2)oc2cc(O)cc(O)c12
REMARK SMILES IDX 5 1 3 2 2 3 1 4 22 5 20 6 19 7 17 8 16 9 15 10 14 11 6 12
REMARK SMILES IDX 7 13 8 14 9 15 13 16 11 17 10 18 12 20 4 22 21 24 18 26
REMARK H PARENT 10 19 12 21 4 23 21 25 18 27
REMARK Flexibility Score: inf
ROOT
ATOM      1  C   UNL     1      63.622  29.748  28.696  1.00  0.00     0.180 A 
ATOM      2  C   UNL     1      63.334  28.375  28.768  1.00  0.00     0.208 A 
ATOM      3  C   UNL     1      61.996  27.955  28.717  1.00  0.00     0.238 A 
ATOM      4  O   UNL     1      61.747  26.721  28.727  1.00  0.00    -0.285 OA
ATOM      5  C   UNL     1      60.960  28.915  28.612  1.00  0.00     0.111 A 
ATOM      6  C   UNL     1      59.567  28.605  28.593  1.00  0.00     0.134 A 
ATOM      7  C   UNL     1      58.636  29.624  28.354  1.00  0.00     0.093 A 
ATOM      8  C   UNL     1      59.043  30.949  28.198  1.00  0.00     0.123 A 
ATOM      9  C   UNL     1      60.398  31.272  28.275  1.00  0.00     0.094 A 
ATOM     10  C   UNL     1      61.353  30.272  28.476  1.00  0.00     0.146 A 
ATOM     11  O   UNL     1      62.633  30.619  28.531  1.00  0.00    -0.452 OA
ENDROOT
BRANCH   1  12
ATOM     12  C   UNL     1      65.006  30.269  28.768  1.00  0.00     0.025 A 
ATOM     13  C   UNL     1      65.280  31.641  28.634  1.00  0.00     0.016 A 
ATOM     14  C   UNL     1      66.596  32.107  28.682  1.00  0.00     0.051 A 
ATOM     15  C   UNL     1      67.657  31.213  28.849  1.00  0.00     0.157 A 
ATOM     16  C   UNL     1      66.076  29.371  28.916  1.00  0.00     0.062 A 
ATOM     17  C   UNL     1      67.398  29.837  28.965  1.00  0.00     0.158 A 
BRANCH  15  18
ATOM     18  O   UNL     1      68.961  31.708  28.896  1.00  0.00    -0.504 OA
ATOM     19  H   UNL     1      69.768  31.098  28.879  1.00  0.00     0.293 HD
ENDBRANCH  15  18
BRANCH  17  20
ATOM     20  O   UNL     1      68.452  28.939  29.125  1.00  0.00    -0.504 OA
ATOM     21  H   UNL     1      68.907  28.506  28.329  1.00  0.00     0.293 HD
ENDBRANCH  17  20
ENDBRANCH   1  12
BRANCH   2  22
ATOM     22  O   UNL     1      64.373  27.443  28.850  1.00  0.00    -0.502 OA
ATOM     23  H   UNL     1      65.335  27.680  28.635  1.00  0.00     0.293 HD
ENDBRANCH   2  22
BRANCH   6  24
ATOM     24  O   UNL     1      59.048  27.329  28.830  1.00  0.00    -0.507 OA
ATOM     25  H   UNL     1      58.826  26.958  29.740  1.00  0.00     0.293 HD
ENDBRANCH   6  24
BRANCH   8  26
ATOM     26  O   UNL     1      58.088  31.939  27.977  1.00  0.00    -0.508 OA
ATOM     27  H   UNL     1      58.289  32.751  27.405  1.00  0.00     0.293 HD
ENDBRANCH   8  26
TORSDOF 6
ENDMDL
MODEL 5
REMARK VINA RESULT:    -4.328      1.432      3.123
REMARK INTER + INTRA:          -5.458
REMARK INTER:                  -5.370
REMARK INTRA:                  -0.089
REMARK UNBOUND:                -0.244
REMARK SMILES O=c1c(O)c(-c2ccc(O)c(O)c2)oc2cc(O)cc(O)c12
REMARK SMILES IDX 5 1 3 2 2 3 1 4 22 5 20 6 19 7 17 8 16 9 15 10 14 11 6 12
REMARK SMILES IDX 7 13 8 14 9 15 13 16 11 17 10 18 12 20 4 22 21 24 18 26
REMARK H PARENT 10 19 12 21 4 23 21 25 18 27
REMARK Flexibility Score: inf
ROOT
ATOM      1  C   UNL     1      57.873  27.156  28.412  1.00  0.00     0.180 A 
ATOM      2  C   UNL     1      57.604  28.535  28.363  1.00  0.00     0.208 A 
ATOM      3  C   UNL     1      58.664  29.442  28.519  1.00  0.00     0.238 A 
ATOM      4  O   UNL     1      58.426  30.674  28.421  1.00  0.00    -0.285 OA
ATOM      5  C   UNL     1      59.977  28.960  28.738  1.00  0.00     0.111 A 
ATOM      6  C   UNL     1      61.119  29.789  28.949  1.00  0.00     0.134 A 
ATOM      7  C   UNL     1      62.391  29.206  29.026  1.00  0.00     0.093 A 
ATOM      8  C   UNL     1      62.554  27.823  28.963  1.00  0.00     0.123 A 
ATOM      9  C   UNL     1      61.438  26.999  28.816  1.00  0.00     0.094 A 
ATOM     10  C   UNL     1      60.160  27.553  28.701  1.00  0.00     0.146 A 
ATOM     11  O   UNL     1      59.125  26.736  28.552  1.00  0.00    -0.452 OA
ENDROOT
BRANCH   1  12
ATOM     12  C   UNL     1      56.805  26.140  28.280  1.00  0.00     0.025 A 
ATOM     13  C   UNL     1      55.682  26.145  29.125  1.00  0.00     0.016 A 
ATOM     14  C   UNL     1      54.698  25.161  28.998  1.00  0.00     0.051 A 
ATOM     15  C   UNL     1      54.826  24.152  28.040  1.00  0.00     0.157 A 
ATOM     16  C   UNL     1      56.941  25.113  27.331  1.00  0.00     0.062 A 
ATOM     17  C   UNL     1      55.954  24.125  27.202  1.00  0.00     0.158 A 
BRANCH  15  18
ATOM     18  O   UNL     1      53.826  23.185  27.935  1.00  0.00    -0.504 OA
ATOM     19  H   UNL     1      53.666  22.667  27.080  1.00  0.00     0.293 HD
ENDBRANCH  15  18
BRANCH  17  20
ATOM     20  O   UNL     1      56.091  23.117  26.248  1.00  0.00    -0.504 OA
ATOM     21  H   UNL     1      55.779  22.170  26.428  1.00  0.00     0.293 HD
ENDBRANCH  17  20
ENDBRANCH   1  12
BRANCH   2  22
ATOM     22  O   UNL     1      56.304  28.989  28.125  1.00  0.00    -0.502 OA
ATOM     23  H   UNL     1      55.534  28.358  27.929  1.00  0.00     0.293 HD
ENDBRANCH   2  22
BRANCH   6  24
ATOM     24  O   UNL     1      61.057  31.175  29.118  1.00  0.00    -0.507 OA
ATOM     25  H   UNL     1      61.200  31.655  29.994  1.00  0.00     0.293 HD
ENDBRANCH   6  24
BRANCH   8  26
ATOM     26  O   UNL     1      63.832  27.277  29.057  1.00  0.00    -0.508 OA
ATOM     27  H   UNL     1      64.067  26.398  28.612  1.00  0.00     0.293 HD
ENDBRANCH   8  26
TORSDOF 6
ENDMDL
MODEL 6
REMARK VINA RESULT:    -4.278      2.070      4.221
REMARK INTER + INTRA:          -5.398
REMARK INTER:                  -5.941
REMARK INTRA:                   0.544
REMARK UNBOUND:                -0.244
REMARK SMILES O=c1c(O)c(-c2ccc(O)c(O)c2)oc2cc(O)cc(O)c12
REMARK SMILES IDX 5 1 3 2 2 3 1 4 22 5 20 6 19 7 17 8 16 9 15 10 14 11 6 12
REMARK SMILES IDX 7 13 8 14 9 15 13 16 11 17 10 18 12 20 4 22 21 24 18 26
REMARK H PARENT 10 19 12 21 4 23 21 25 18 27
REMARK Flexibility Score: inf
ROOT
ATOM      1  C   UNL     1      59.547  27.615  28.668  1.00  0.00     0.180 A 
ATOM      2  C   UNL     1      59.057  28.901  28.388  1.00  0.00     0.208 A 
ATOM      3  C   UNL     1      59.964  29.969  28.292  1.00  0.00     0.238 A 
ATOM      4  O   UNL     1      59.526  31.109  27.987  1.00  0.00    -0.285 OA
ATOM      5  C   UNL     1      61.346  29.741  28.494  1.00  0.00     0.111 A 
ATOM      6  C   UNL     1      62.349  30.756  28.460  1.00  0.00     0.134 A 
ATOM      7  C   UNL     1      63.699  30.395  28.544  1.00  0.00     0.093 A 
ATOM      8  C   UNL     1      64.080  29.066  28.725  1.00  0.00     0.123 A 
ATOM      9  C   UNL     1      63.106  28.072  28.820  1.00  0.00     0.094 A 
ATOM     10  C   UNL     1      61.751  28.396  28.703  1.00  0.00     0.146 A 
ATOM     11  O   UNL     1      60.856  27.421  28.787  1.00  0.00    -0.452 OA
ENDROOT
BRANCH   1  12
ATOM     12  C   UNL     1      58.652  26.444  28.809  1.00  0.00     0.025 A 
ATOM     13  C   UNL     1      59.165  25.146  28.975  1.00  0.00     0.016 A 
ATOM     14  C   UNL     1      58.301  24.053  29.082  1.00  0.00     0.051 A 
ATOM     15  C   UNL     1      56.917  24.235  29.012  1.00  0.00     0.157 A 
ATOM     16  C   UNL     1      57.261  26.621  28.719  1.00  0.00     0.062 A 
ATOM     17  C   UNL     1      56.393  25.526  28.828  1.00  0.00     0.158 A 
BRANCH  15  18
ATOM     18  O   UNL     1      56.080  23.125  29.125  1.00  0.00    -0.504 OA
ATOM     19  H   UNL     1      55.733  22.802  30.019  1.00  0.00     0.293 HD
ENDBRANCH  15  18
BRANCH  17  20
ATOM     20  O   UNL     1      55.013  25.714  28.750  1.00  0.00    -0.504 OA
ATOM     21  H   UNL     1      54.421  25.642  29.569  1.00  0.00     0.293 HD
ENDBRANCH  17  20
ENDBRANCH   1  12
BRANCH   2  22
ATOM     22  O   UNL     1      57.691  29.101  28.170  1.00  0.00    -0.502 OA
ATOM     23  H   UNL     1      57.056  29.375  28.912  1.00  0.00     0.293 HD
ENDBRANCH   2  22
BRANCH   6  24
ATOM     24  O   UNL     1      62.072  32.123  28.375  1.00  0.00    -0.507 OA
ATOM     25  H   UNL     1      61.288  32.580  28.814  1.00  0.00     0.293 HD
ENDBRANCH   6  24
BRANCH   8  26
ATOM     26  O   UNL     1      65.433  28.745  28.820  1.00  0.00    -0.508 OA
ATOM     27  H   UNL     1      65.900  28.676  29.716  1.00  0.00     0.293 HD
ENDBRANCH   8  26
TORSDOF 6
ENDMDL
MODEL 7
REMARK VINA RESULT:    -4.187      2.161      7.559
REMARK INTER + INTRA:          -5.288
REMARK INTER:                  -5.455
REMARK INTRA:                   0.167
REMARK UNBOUND:                -0.244
REMARK SMILES O=c1c(O)c(-c2ccc(O)c(O)c2)oc2cc(O)cc(O)c12
REMARK SMILES IDX 5 1 3 2 2 3 1 4 22 5 20 6 19 7 17 8 16 9 15 10 14 11 6 12
REMARK SMILES IDX 7 13 8 14 9 15 13 16 11 17 10 18 12 20 4 22 21 24 18 26
REMARK H PARENT 10 19 12 21 4 23 21 25 18 27
REMARK Flexibility Score: inf
ROOT
ATOM      1  C   UNL     1      59.114  28.612  28.538  1.00  0.00     0.180 A 
ATOM      2  C   UNL     1      57.858  29.215  28.721  1.00  0.00     0.208 A 
ATOM      3  C   UNL     1      56.731  28.398  28.906  1.00  0.00     0.238 A 
ATOM      4  O   UNL     1      55.618  28.944  29.125  1.00  0.00    -0.285 OA
ATOM      5  C   UNL     1      56.871  26.989  28.889  1.00  0.00     0.111 A 
ATOM      6  C   UNL     1      55.791  26.066  29.026  1.00  0.00     0.134 A 
ATOM      7  C   UNL     1      56.063  24.696  29.124  1.00  0.00     0.093 A 
ATOM      8  C   UNL     1      57.367  24.211  29.027  1.00  0.00     0.123 A 
ATOM      9  C   UNL     1      58.424  25.100  28.833  1.00  0.00     0.094 A 
ATOM     10  C   UNL     1      58.189  26.476  28.766  1.00  0.00     0.146 A 
ATOM     11  O   UNL     1      59.223  27.289  28.592  1.00  0.00    -0.452 OA
ENDROOT
BRANCH   1  12
ATOM     12  C   UNL     1      60.343  29.405  28.312  1.00  0.00     0.025 A 
ATOM     13  C   UNL     1      60.320  30.596  27.565  1.00  0.00     0.016 A 
ATOM     14  C   UNL     1      61.497  31.316  27.345  1.00  0.00     0.051 A 
ATOM     15  C   UNL     1      62.714  30.853  27.853  1.00  0.00     0.157 A 
ATOM     16  C   UNL     1      61.572  28.933  28.803  1.00  0.00     0.062 A 
ATOM     17  C   UNL     1      62.754  29.654  28.584  1.00  0.00     0.158 A 
BRANCH  15  18
ATOM     18  O   UNL     1      63.872  31.595  27.619  1.00  0.00    -0.504 OA
ATOM     19  H   UNL     1      64.443  31.454  26.795  1.00  0.00     0.293 HD
ENDBRANCH  15  18
BRANCH  17  20
ATOM     20  O   UNL     1      63.966  29.183  29.088  1.00  0.00    -0.504 OA
ATOM     21  H   UNL     1      64.793  29.117  28.505  1.00  0.00     0.293 HD
ENDBRANCH  17  20
ENDBRANCH   1  12
BRANCH   2  22
ATOM     22  O   UNL     1      57.746  30.608  28.757  1.00  0.00    -0.502 OA
ATOM     23  H   UNL     1      56.972  31.102  28.326  1.00  0.00     0.293 HD
ENDBRANCH   2  22
BRANCH   6  24
ATOM     24  O   UNL     1      54.444  26.438  29.041  1.00  0.00    -0.507 OA
ATOM     25  H   UNL     1      53.725  25.970  29.571  1.00  0.00     0.293 HD
ENDBRANCH   6  24
BRANCH   8  26
ATOM     26  O   UNL     1      57.599  22.840  29.114  1.00  0.00    -0.508 OA
ATOM     27  H   UNL     1      56.997  22.234  29.658  1.00  0.00     0.293 HD
ENDBRANCH   8  26
TORSDOF 6
ENDMDL
MODEL 8
REMARK VINA RESULT:    -4.000      2.948      8.594
REMARK INTER + INTRA:          -5.063
REMARK INTER:                  -5.515
REMARK INTRA:                   0.452
REMARK UNBOUND:                -0.244
REMARK SMILES O=c1c(O)c(-c2ccc(O)c(O)c2)oc2cc(O)cc(O)c12
REMARK SMILES IDX 5 1 3 2 2 3 1 4 22 5 20 6 19 7 17 8 16 9 15 10 14 11 6 12
REMARK SMILES IDX 7 13 8 14 9 15 13 16 11 17 10 18 12 20 4 22 21 24 18 26
REMARK H PARENT 10 19 12 21 4 23 21 25 18 27
REMARK Flexibility Score: inf
ROOT
ATOM      1  C   UNL     1      61.723  29.271  28.770  1.00  0.00     0.180 A 
ATOM      2  C   UNL     1      60.526  30.001  28.693  1.00  0.00     0.208 A 
ATOM      3  C   UNL     1      59.306  29.308  28.655  1.00  0.00     0.238 A 
ATOM      4  O   UNL     1      58.234  29.968  28.642  1.00  0.00    -0.285 OA
ATOM      5  C   UNL     1      59.299  27.892  28.678  1.00  0.00     0.111 A 
ATOM      6  C   UNL     1      58.124  27.086  28.603  1.00  0.00     0.134 A 
ATOM      7  C   UNL     1      58.227  25.699  28.765  1.00  0.00     0.093 A 
ATOM      8  C   UNL     1      59.466  25.083  28.935  1.00  0.00     0.123 A 
ATOM      9  C   UNL     1      60.628  25.856  28.949  1.00  0.00     0.094 A 
ATOM     10  C   UNL     1      60.554  27.246  28.826  1.00  0.00     0.146 A 
ATOM     11  O   UNL     1      61.681  27.946  28.856  1.00  0.00    -0.452 OA
ENDROOT
BRANCH   1  12
ATOM     12  C   UNL     1      63.049  29.930  28.789  1.00  0.00     0.025 A 
ATOM     13  C   UNL     1      63.180  31.316  28.593  1.00  0.00     0.016 A 
ATOM     14  C   UNL     1      64.444  31.913  28.591  1.00  0.00     0.051 A 
ATOM     15  C   UNL     1      65.592  31.137  28.770  1.00  0.00     0.157 A 
ATOM     16  C   UNL     1      64.207  29.151  28.948  1.00  0.00     0.062 A 
ATOM     17  C   UNL     1      65.476  29.749  28.948  1.00  0.00     0.158 A 
BRANCH  15  18
ATOM     18  O   UNL     1      66.840  31.762  28.766  1.00  0.00    -0.504 OA
ATOM     19  H   UNL     1      67.470  31.699  27.977  1.00  0.00     0.293 HD
ENDBRANCH  15  18
BRANCH  17  20
ATOM     20  O   UNL     1      66.618  28.968  29.120  1.00  0.00    -0.504 OA
ATOM     21  H   UNL     1      66.672  28.020  28.767  1.00  0.00     0.293 HD
ENDBRANCH  17  20
ENDBRANCH   1  12
BRANCH   2  22
ATOM     22  O   UNL     1      60.554  31.399  28.694  1.00  0.00    -0.502 OA
ATOM     23  H   UNL     1      59.757  31.959  28.977  1.00  0.00     0.293 HD
ENDBRANCH   2  22
BRANCH   6  24
ATOM     24  O   UNL     1      56.846  27.591  28.345  1.00  0.00    -0.507 OA
ATOM     25  H   UNL     1      56.080  27.579  29.001  1.00  0.00     0.293 HD
ENDBRANCH   6  24
BRANCH   8  26
ATOM     26  O   UNL     1      59.533  23.699  29.078  1.00  0.00    -0.508 OA
ATOM     27  H   UNL     1      59.035  23.077  28.452  1.00  0.00     0.293 HD
ENDBRANCH   8  26
TORSDOF 6
ENDMDL
MODEL 9
REMARK VINA RESULT:    -3.112      4.552      5.614
REMARK INTER + INTRA:          -3.993
REMARK INTER:                  -3.683
REMARK INTRA:                  -0.310
REMARK UNBOUND:                -0.244
REMARK SMILES O=c1c(O)c(-c2ccc(O)c(O)c2)oc2cc(O)cc(O)c12
REMARK SMILES IDX 5 1 3 2 2 3 1 4 22 5 20 6 19 7 17 8 16 9 15 10 14 11 6 12
REMARK SMILES IDX 7 13 8 14 9 15 13 16 11 17 10 18 12 20 4 22 21 24 18 26
REMARK H PARENT 10 19 12 21 4 23 21 25 18 27
REMARK Flexibility Score: inf
ROOT
ATOM      1  C   UNL     1      60.343  29.513  28.301  1.00  0.00     0.180 A 
ATOM      2  C   UNL     1      60.698  28.187  28.598  1.00  0.00     0.208 A 
ATOM      3  C   UNL     1      62.052  27.871  28.793  1.00  0.00     0.238 A 
ATOM      4  O   UNL     1      62.360  26.693  29.113  1.00  0.00    -0.285 OA
ATOM      5  C   UNL     1      63.036  28.882  28.672  1.00  0.00     0.111 A 
ATOM      6  C   UNL     1      64.440  28.667  28.809  1.00  0.00     0.134 A 
ATOM      7  C   UNL     1      65.311  29.764  28.797  1.00  0.00     0.093 A 
ATOM      8  C   UNL     1      64.836  31.059  28.591  1.00  0.00     0.123 A 
ATOM      9  C   UNL     1      63.472  31.274  28.396  1.00  0.00     0.094 A 
ATOM     10  C   UNL     1      62.574  30.204  28.438  1.00  0.00     0.146 A 
ATOM     11  O   UNL     1      61.282  30.452  28.259  1.00  0.00    -0.452 OA
ENDROOT
BRANCH   1  12
ATOM     12  C   UNL     1      58.940  29.918  28.058  1.00  0.00     0.025 A 
ATOM     13  C   UNL     1      58.141  30.442  29.089  1.00  0.00     0.016 A 
ATOM     14  C   UNL     1      56.811  30.795  28.842  1.00  0.00     0.051 A 
ATOM     15  C   UNL     1      56.257  30.619  27.571  1.00  0.00     0.157 A 
ATOM     16  C   UNL     1      58.374  29.724  26.787  1.00  0.00     0.062 A 
ATOM     17  C   UNL     1      57.040  30.079  26.537  1.00  0.00     0.158 A 
BRANCH  15  18
ATOM     18  O   UNL     1      54.928  30.983  27.354  1.00  0.00    -0.504 OA
ATOM     19  H   UNL     1      54.176  30.649  27.944  1.00  0.00     0.293 HD
ENDBRANCH  15  18
BRANCH  17  20
ATOM     20  O   UNL     1      56.492  29.894  25.269  1.00  0.00    -0.504 OA
ATOM     21  H   UNL     1      56.320  30.675  24.646  1.00  0.00     0.293 HD
ENDBRANCH  17  20
ENDBRANCH   1  12
BRANCH   2  22
ATOM     22  O   UNL     1      59.710  27.209  28.736  1.00  0.00    -0.502 OA
ATOM     23  H   UNL     1      59.811  26.275  28.354  1.00  0.00     0.293 HD
ENDBRANCH   2  22
BRANCH   6  24
ATOM     24  O   UNL     1      65.029  27.405  28.928  1.00  0.00    -0.507 OA
ATOM     25  H   UNL     1      64.998  26.687  28.221  1.00  0.00     0.293 HD
ENDBRANCH   6  24
BRANCH   8  26
ATOM     26  O   UNL     1      65.733  32.125  28.570  1.00  0.00    -0.508 OA
ATOM     27  H   UNL     1      66.170  32.467  29.418  1.00  0.00     0.293 HD
ENDBRANCH   8  26
TORSDOF 6
ENDMDL
