MODEL 1
REMARK VINA RESULT:    -3.577      0.000      0.000
REMARK INTER + INTRA:          -5.084
REMARK INTER:                  -4.727
REMARK INTRA:                  -0.356
REMARK UNBOUND:                -0.356
REMARK SMILES C=C[C@@H](O)CCCCC
REMARK SMILES IDX 6 1 7 2 8 3 9 4 5 5 3 6 2 7 1 8 4 9
REMARK H PARENT 4 10
REMARK Flexibility Score: inf
ROOT
ATOM      1  C   UNL     1     184.817 189.775 186.807  1.00  0.00     0.003 C 
ENDROOT
BRANCH   1   2
ATOM      2  C   UNL     1     185.999 189.670 185.836  1.00  0.00    -0.000 C 
BRANCH   2   3
ATOM      3  C   UNL     1     186.858 190.939 185.875  1.00  0.00    -0.003 C 
ATOM      4  C   UNL     1     187.664 191.098 184.590  1.00  0.00     0.004 C 
ENDBRANCH   2   3
ENDBRANCH   1   2
BRANCH   1   5
ATOM      5  C   UNL     1     184.718 191.191 187.401  1.00  0.00     0.036 C 
BRANCH   5   6
ATOM      6  C   UNL     1     184.640 191.216 188.942  1.00  0.00     0.136 C 
BRANCH   6   7
ATOM      7  C   UNL     1     185.282 192.452 189.535  1.00  0.00    -0.004 C 
ATOM      8  C   UNL     1     186.015 193.278 188.785  1.00  0.00     0.007 C 
ENDBRANCH   6   7
BRANCH   6   9
ATOM      9  O   UNL     1     183.314 191.055 189.385  1.00  0.00    -0.389 OA
ATOM     10  H   UNL     1     183.112 190.082 189.407  1.00  0.00     0.211 HD
ENDBRANCH   6   9
ENDBRANCH   5   6
ENDBRANCH   1   5
TORSDOF 6
ENDMDL
MODEL 2
REMARK VINA RESULT:    -3.549      2.270      3.554
REMARK INTER + INTRA:          -5.047
REMARK INTER:                  -4.608
REMARK INTRA:                  -0.438
REMARK UNBOUND:                -0.356
REMARK SMILES C=C[C@@H](O)CCCCC
REMARK SMILES IDX 6 1 7 2 8 3 9 4 5 5 3 6 2 7 1 8 4 9
REMARK H PARENT 4 10
REMARK Flexibility Score: inf
ROOT
ATOM      1  C   UNL     1     184.788 191.206 188.123  1.00  0.00     0.003 C 
ENDROOT
BRANCH   1   2
ATOM      2  C   UNL     1     185.634 192.480 188.002  1.00  0.00    -0.000 C 
BRANCH   2   3
ATOM      3  C   UNL     1     186.050 192.998 189.384  1.00  0.00    -0.003 C 
ATOM      4  C   UNL     1     186.159 194.520 189.391  1.00  0.00     0.004 C 
ENDBRANCH   2   3
ENDBRANCH   1   2
BRANCH   1   5
ATOM      5  C   UNL     1     184.041 191.170 189.468  1.00  0.00     0.036 C 
BRANCH   5   6
ATOM      6  C   UNL     1     184.036 189.780 190.139  1.00  0.00     0.136 C 
BRANCH   6   7
ATOM      7  C   UNL     1     185.399 189.388 190.670  1.00  0.00    -0.004 C 
ATOM      8  C   UNL     1     185.969 190.058 191.674  1.00  0.00     0.007 C 
ENDBRANCH   6   7
BRANCH   6   9
ATOM      9  O   UNL     1     183.048 189.703 191.138  1.00  0.00    -0.389 OA
ATOM     10  H   UNL     1     182.661 188.787 191.119  1.00  0.00     0.211 HD
ENDBRANCH   6   9
ENDBRANCH   5   6
ENDBRANCH   1   5
TORSDOF 6
ENDMDL
MODEL 3
REMARK VINA RESULT:    -3.504      1.788      3.243
REMARK INTER + INTRA:          -4.987
REMARK INTER:                  -4.457
REMARK INTRA:                  -0.530
REMARK UNBOUND:                -0.356
REMARK SMILES C=C[C@@H](O)CCCCC
REMARK SMILES IDX 6 1 7 2 8 3 9 4 5 5 3 6 2 7 1 8 4 9
REMARK H PARENT 4 10
REMARK Flexibility Score: inf
ROOT
ATOM      1  C   UNL     1     185.307 191.981 189.907  1.00  0.00     0.003 C 
ENDROOT
BRANCH   1   2
ATOM      2  C   UNL     1     185.803 192.781 188.697  1.00  0.00    -0.000 C 
BRANCH   2   3
ATOM      3  C   UNL     1     185.363 192.122 187.384  1.00  0.00    -0.003 C 
ATOM      4  C   UNL     1     186.504 191.322 186.761  1.00  0.00     0.004 C 
ENDBRANCH   2   3
ENDBRANCH   1   2
BRANCH   1   5
ATOM      5  C   UNL     1     183.995 191.247 189.581  1.00  0.00     0.036 C 
BRANCH   5   6
ATOM      6  C   UNL     1     183.981 189.770 190.026  1.00  0.00     0.136 C 
BRANCH   6   7
ATOM      7  C   UNL     1     185.375 189.210 190.220  1.00  0.00    -0.004 C 
ATOM      8  C   UNL     1     185.898 188.341 189.351  1.00  0.00     0.007 C 
ENDBRANCH   6   7
BRANCH   6   9
ATOM      9  O   UNL     1     183.186 189.593 191.173  1.00  0.00    -0.389 OA
ATOM     10  H   UNL     1     182.233 189.677 190.904  1.00  0.00     0.211 HD
ENDBRANCH   6   9
ENDBRANCH   5   6
ENDBRANCH   1   5
TORSDOF 6
ENDMDL
MODEL 4
REMARK VINA RESULT:    -3.482      1.201      3.779
REMARK INTER + INTRA:          -4.958
REMARK INTER:                  -4.526
REMARK INTRA:                  -0.432
REMARK UNBOUND:                -0.356
REMARK SMILES C=C[C@@H](O)CCCCC
REMARK SMILES IDX 6 1 7 2 8 3 9 4 5 5 3 6 2 7 1 8 4 9
REMARK H PARENT 4 10
REMARK Flexibility Score: inf
ROOT
ATOM      1  C   UNL     1     184.255 191.354 189.219  1.00  0.00     0.003 C 
ENDROOT
BRANCH   1   2
ATOM      2  C   UNL     1     185.450 192.111 189.810  1.00  0.00    -0.000 C 
BRANCH   2   3
ATOM      3  C   UNL     1     185.953 193.188 188.840  1.00  0.00    -0.003 C 
ATOM      4  C   UNL     1     186.191 194.511 189.562  1.00  0.00     0.004 C 
ENDBRANCH   2   3
ENDBRANCH   1   2
BRANCH   1   5
ATOM      5  C   UNL     1     184.258 191.435 187.683  1.00  0.00     0.036 C 
BRANCH   5   6
ATOM      6  C   UNL     1     184.197 190.059 186.987  1.00  0.00     0.136 C 
BRANCH   6   7
ATOM      7  C   UNL     1     185.470 189.734 186.233  1.00  0.00    -0.004 C 
ATOM      8  C   UNL     1     186.505 190.578 186.227  1.00  0.00     0.007 C 
ENDBRANCH   6   7
BRANCH   6   9
ATOM      9  O   UNL     1     183.861 189.044 187.900  1.00  0.00    -0.389 OA
ATOM     10  H   UNL     1     182.894 189.129 188.114  1.00  0.00     0.211 HD
ENDBRANCH   6   9
ENDBRANCH   5   6
ENDBRANCH   1   5
TORSDOF 6
ENDMDL
MODEL 5
REMARK VINA RESULT:    -3.462      2.551      4.349
REMARK INTER + INTRA:          -4.931
REMARK INTER:                  -4.725
REMARK INTRA:                  -0.207
REMARK UNBOUND:                -0.356
REMARK SMILES C=C[C@@H](O)CCCCC
REMARK SMILES IDX 6 1 7 2 8 3 9 4 5 5 3 6 2 7 1 8 4 9
REMARK H PARENT 4 10
REMARK Flexibility Score: inf
ROOT
ATOM      1  C   UNL     1     184.117 190.894 189.572  1.00  0.00     0.003 C 
ENDROOT
BRANCH   1   2
ATOM      2  C   UNL     1     184.153 189.378 189.800  1.00  0.00    -0.000 C 
BRANCH   2   3
ATOM      3  C   UNL     1     183.542 189.011 191.158  1.00  0.00    -0.003 C 
ATOM      4  C   UNL     1     182.767 187.699 191.076  1.00  0.00     0.004 C 
ENDBRANCH   2   3
ENDBRANCH   1   2
BRANCH   1   5
ATOM      5  C   UNL     1     184.247 191.228 188.076  1.00  0.00     0.036 C 
BRANCH   5   6
ATOM      6  C   UNL     1     185.255 192.357 187.775  1.00  0.00     0.136 C 
BRANCH   6   7
ATOM      7  C   UNL     1     185.923 192.886 189.027  1.00  0.00    -0.004 C 
ATOM      8  C   UNL     1     186.070 194.197 189.231  1.00  0.00     0.007 C 
ENDBRANCH   6   7
BRANCH   6   9
ATOM      9  O   UNL     1     186.199 191.951 186.814  1.00  0.00    -0.389 OA
ATOM     10  H   UNL     1     186.750 191.226 187.210  1.00  0.00     0.211 HD
ENDBRANCH   6   9
ENDBRANCH   5   6
ENDBRANCH   1   5
TORSDOF 6
ENDMDL
MODEL 6
REMARK VINA RESULT:    -3.457      3.706      5.474
REMARK INTER + INTRA:          -4.925
REMARK INTER:                  -4.489
REMARK INTRA:                  -0.436
REMARK UNBOUND:                -0.356
REMARK SMILES C=C[C@@H](O)CCCCC
REMARK SMILES IDX 6 1 7 2 8 3 9 4 5 5 3 6 2 7 1 8 4 9
REMARK H PARENT 4 10
REMARK Flexibility Score: inf
ROOT
ATOM      1  C   UNL     1     184.543 188.819 191.634  1.00  0.00     0.003 C 
ENDROOT
BRANCH   1   2
ATOM      2  C   UNL     1     183.842 189.810 190.697  1.00  0.00    -0.000 C 
BRANCH   2   3
ATOM      3  C   UNL     1     184.719 190.131 189.481  1.00  0.00    -0.003 C 
ATOM      4  C   UNL     1     184.297 191.445 188.829  1.00  0.00     0.004 C 
ENDBRANCH   2   3
ENDBRANCH   1   2
BRANCH   1   5
ATOM      5  C   UNL     1     183.992 187.395 191.440  1.00  0.00     0.036 C 
BRANCH   5   6
ATOM      6  C   UNL     1     182.650 187.346 190.680  1.00  0.00     0.136 C 
BRANCH   6   7
ATOM      7  C   UNL     1     182.703 186.438 189.468  1.00  0.00    -0.004 C 
ATOM      8  C   UNL     1     183.151 186.882 188.291  1.00  0.00     0.007 C 
ENDBRANCH   6   7
BRANCH   6   9
ATOM      9  O   UNL     1     181.592 187.002 191.541  1.00  0.00    -0.389 OA
ATOM     10  H   UNL     1     180.739 187.245 191.093  1.00  0.00     0.211 HD
ENDBRANCH   6   9
ENDBRANCH   5   6
ENDBRANCH   1   5
TORSDOF 6
ENDMDL
MODEL 7
REMARK VINA RESULT:    -3.455      2.022      3.565
REMARK INTER + INTRA:          -4.922
REMARK INTER:                  -4.540
REMARK INTRA:                  -0.382
REMARK UNBOUND:                -0.356
REMARK SMILES C=C[C@@H](O)CCCCC
REMARK SMILES IDX 6 1 7 2 8 3 9 4 5 5 3 6 2 7 1 8 4 9
REMARK H PARENT 4 10
REMARK Flexibility Score: inf
ROOT
ATOM      1  C   UNL     1     185.759 191.880 187.361  1.00  0.00     0.003 C 
ENDROOT
BRANCH   1   2
ATOM      2  C   UNL     1     186.543 192.476 188.536  1.00  0.00    -0.000 C 
BRANCH   2   3
ATOM      3  C   UNL     1     185.687 193.480 189.318  1.00  0.00    -0.003 C 
ATOM      4  C   UNL     1     186.442 194.786 189.548  1.00  0.00     0.004 C 
ENDBRANCH   2   3
ENDBRANCH   1   2
BRANCH   1   5
ATOM      5  C   UNL     1     184.376 191.383 187.820  1.00  0.00     0.036 C 
BRANCH   5   6
ATOM      6  C   UNL     1     184.428 190.087 188.657  1.00  0.00     0.136 C 
BRANCH   6   7
ATOM      7  C   UNL     1     183.893 190.281 190.060  1.00  0.00    -0.004 C 
ATOM      8  C   UNL     1     184.590 189.883 191.127  1.00  0.00     0.007 C 
ENDBRANCH   6   7
BRANCH   6   9
ATOM      9  O   UNL     1     183.777 189.030 187.995  1.00  0.00    -0.389 OA
ATOM     10  H   UNL     1     184.426 188.284 187.892  1.00  0.00     0.211 HD
ENDBRANCH   6   9
ENDBRANCH   5   6
ENDBRANCH   1   5
TORSDOF 6
ENDMDL
MODEL 8
REMARK VINA RESULT:    -3.437      1.718      4.359
REMARK INTER + INTRA:          -4.898
REMARK INTER:                  -4.678
REMARK INTRA:                  -0.219
REMARK UNBOUND:                -0.356
REMARK SMILES C=C[C@@H](O)CCCCC
REMARK SMILES IDX 6 1 7 2 8 3 9 4 5 5 3 6 2 7 1 8 4 9
REMARK H PARENT 4 10
REMARK Flexibility Score: inf
ROOT
ATOM      1  C   UNL     1     185.534 192.251 187.461  1.00  0.00     0.003 C 
ENDROOT
BRANCH   1   2
ATOM      2  C   UNL     1     184.996 191.973 188.869  1.00  0.00    -0.000 C 
BRANCH   2   3
ATOM      3  C   UNL     1     185.780 192.764 189.924  1.00  0.00    -0.003 C 
ATOM      4  C   UNL     1     186.040 194.194 189.460  1.00  0.00     0.004 C 
ENDBRANCH   2   3
ENDBRANCH   1   2
BRANCH   1   5
ATOM      5  C   UNL     1     186.601 191.215 187.066  1.00  0.00     0.036 C 
BRANCH   5   6
ATOM      6  C   UNL     1     186.100 190.159 186.058  1.00  0.00     0.136 C 
BRANCH   6   7
ATOM      7  C   UNL     1     187.019 190.014 184.864  1.00  0.00    -0.004 C 
ATOM      8  C   UNL     1     187.666 191.067 184.358  1.00  0.00     0.007 C 
ENDBRANCH   6   7
BRANCH   6   9
ATOM      9  O   UNL     1     185.871 188.923 186.691  1.00  0.00    -0.389 OA
ATOM     10  H   UNL     1     185.232 188.405 186.134  1.00  0.00     0.211 HD
ENDBRANCH   6   9
ENDBRANCH   5   6
ENDBRANCH   1   5
TORSDOF 6
ENDMDL
MODEL 9
REMARK VINA RESULT:    -3.424      9.733     10.646
REMARK INTER + INTRA:          -4.881
REMARK INTER:                  -4.340
REMARK INTRA:                  -0.541
REMARK UNBOUND:                -0.356
REMARK SMILES C=C[C@@H](O)CCCCC
REMARK SMILES IDX 6 1 7 2 8 3 9 4 5 5 3 6 2 7 1 8 4 9
REMARK H PARENT 4 10
REMARK Flexibility Score: inf
ROOT
ATOM      1  C   UNL     1     185.366 181.895 191.685  1.00  0.00     0.003 C 
ENDROOT
BRANCH   1   2
ATOM      2  C   UNL     1     186.493 180.857 191.748  1.00  0.00    -0.000 C 
BRANCH   2   3
ATOM      3  C   UNL     1     186.354 179.967 192.989  1.00  0.00    -0.003 C 
ATOM      4  C   UNL     1     185.011 180.190 193.678  1.00  0.00     0.004 C 
ENDBRANCH   2   3
ENDBRANCH   1   2
BRANCH   1   5
ATOM      5  C   UNL     1     185.916 183.316 191.900  1.00  0.00     0.036 C 
BRANCH   5   6
ATOM      6  C   UNL     1     185.727 183.846 193.337  1.00  0.00     0.136 C 
BRANCH   6   7
ATOM      7  C   UNL     1     187.043 184.165 194.016  1.00  0.00    -0.004 C 
ATOM      8  C   UNL     1     187.939 183.208 194.270  1.00  0.00     0.007 C 
ENDBRANCH   6   7
BRANCH   6   9
ATOM      9  O   UNL     1     184.850 184.946 193.360  1.00  0.00    -0.389 OA
ATOM     10  H   UNL     1     185.396 185.774 193.425  1.00  0.00     0.211 HD
ENDBRANCH   6   9
ENDBRANCH   5   6
ENDBRANCH   1   5
TORSDOF 6
ENDMDL
