MODEL 1
REMARK VINA RESULT:    -4.391      0.000      0.000
REMARK INTER + INTRA:          -6.833
REMARK INTER:                  -6.445
REMARK INTRA:                  -0.388
REMARK UNBOUND:                -0.388
REMARK SMILES O=C([O-])CCCCCCCC(=O)[O-]
REMARK SMILES IDX 7 1 6 2 5 3 4 4 2 5 1 6 3 7 8 8 9 9 10 10 11 11 12 12 13 13
REMARK H PARENT
REMARK Flexibility Score: inf
ROOT
ATOM      1  C   UNL     1     -11.038  -5.450  -5.095  1.00  0.00     0.000 C 
ENDROOT
BRANCH   1   2
ATOM      2  C   UNL     1     -10.678  -5.267  -6.574  1.00  0.00     0.000 C 
BRANCH   2   3
ATOM      3  C   UNL     1      -9.622  -6.293  -7.015  1.00  0.00     0.006 C 
BRANCH   3   4
ATOM      4  C   UNL     1      -8.864  -6.895  -5.825  1.00  0.00     0.053 C 
BRANCH   4   5
ATOM      5  C   UNL     1      -7.380  -6.825  -6.020  1.00  0.00     0.041 C 
ATOM      6  O   UNL     1      -6.611  -7.504  -5.290  1.00  0.00    -0.550 OA
ATOM      7  O   UNL     1      -6.845  -5.984  -6.988  1.00  0.00    -0.550 OA
ENDBRANCH   4   5
ENDBRANCH   3   4
ENDBRANCH   2   3
ENDBRANCH   1   2
BRANCH   1   8
ATOM      8  C   UNL     1     -10.899  -4.130  -4.327  1.00  0.00     0.000 C 
BRANCH   8   9
ATOM      9  C   UNL     1     -11.105  -4.346  -2.820  1.00  0.00     0.006 C 
BRANCH   9  10
ATOM     10  C   UNL     1     -10.437  -3.250  -1.981  1.00  0.00     0.053 C 
BRANCH  10  11
ATOM     11  C   UNL     1      -8.961  -3.472  -1.849  1.00  0.00     0.041 C 
ATOM     12  O   UNL     1      -8.160  -2.511  -1.987  1.00  0.00    -0.550 OA
ATOM     13  O   UNL     1      -8.474  -4.737  -1.544  1.00  0.00    -0.550 OA
ENDBRANCH  10  11
ENDBRANCH   9  10
ENDBRANCH   8   9
ENDBRANCH   1   8
TORSDOF 8
ENDMDL
MODEL 2
REMARK VINA RESULT:    -4.318      1.448      1.900
REMARK INTER + INTRA:          -6.726
REMARK INTER:                  -6.317
REMARK INTRA:                  -0.408
REMARK UNBOUND:                -0.388
REMARK SMILES O=C([O-])CCCCCCCC(=O)[O-]
REMARK SMILES IDX 7 1 6 2 5 3 4 4 2 5 1 6 3 7 8 8 9 9 10 10 11 11 12 12 13 13
REMARK H PARENT
REMARK Flexibility Score: inf
ROOT
ATOM      1  C   UNL     1      -9.858  -5.390  -4.905  1.00  0.00     0.000 C 
ENDROOT
BRANCH   1   2
ATOM      2  C   UNL     1     -10.078  -6.734  -5.608  1.00  0.00     0.000 C 
BRANCH   2   3
ATOM      3  C   UNL     1     -10.271  -6.541  -7.119  1.00  0.00     0.006 C 
BRANCH   3   4
ATOM      4  C   UNL     1      -9.544  -5.297  -7.644  1.00  0.00     0.053 C 
BRANCH   4   5
ATOM      5  C   UNL     1      -8.215  -5.642  -8.241  1.00  0.00     0.041 C 
ATOM      6  O   UNL     1      -7.746  -6.805  -8.120  1.00  0.00    -0.550 OA
ATOM      7  O   UNL     1      -7.478  -4.669  -8.906  1.00  0.00    -0.550 OA
ENDBRANCH   4   5
ENDBRANCH   3   4
ENDBRANCH   2   3
ENDBRANCH   1   2
BRANCH   1   8
ATOM      8  C   UNL     1     -11.006  -5.078  -3.937  1.00  0.00     0.000 C 
BRANCH   8   9
ATOM      9  C   UNL     1     -10.906  -3.640  -3.409  1.00  0.00     0.006 C 
BRANCH   9  10
ATOM     10  C   UNL     1     -10.456  -3.590  -1.943  1.00  0.00     0.053 C 
BRANCH  10  11
ATOM     11  C   UNL     1      -8.966  -3.682  -1.816  1.00  0.00     0.041 C 
ATOM     12  O   UNL     1      -8.420  -4.777  -1.521  1.00  0.00    -0.550 OA
ATOM     13  O   UNL     1      -8.179  -2.562  -2.055  1.00  0.00    -0.550 OA
ENDBRANCH  10  11
ENDBRANCH   9  10
ENDBRANCH   8   9
ENDBRANCH   1   8
TORSDOF 8
ENDMDL
MODEL 3
REMARK VINA RESULT:    -4.298      0.958      4.788
REMARK INTER + INTRA:          -6.696
REMARK INTER:                  -6.258
REMARK INTRA:                  -0.438
REMARK UNBOUND:                -0.388
REMARK SMILES O=C([O-])CCCCCCCC(=O)[O-]
REMARK SMILES IDX 7 1 6 2 5 3 4 4 2 5 1 6 3 7 8 8 9 9 10 10 11 11 12 12 13 13
REMARK H PARENT
REMARK Flexibility Score: inf
ROOT
ATOM      1  C   UNL     1     -11.027  -5.300  -5.338  1.00  0.00     0.000 C 
ENDROOT
BRANCH   1   2
ATOM      2  C   UNL     1     -11.049  -5.173  -3.811  1.00  0.00     0.000 C 
BRANCH   2   3
ATOM      3  C   UNL     1     -11.035  -3.699  -3.380  1.00  0.00     0.006 C 
BRANCH   3   4
ATOM      4  C   UNL     1     -10.516  -3.516  -1.949  1.00  0.00     0.053 C 
BRANCH   4   5
ATOM      5  C   UNL     1      -9.023  -3.622  -1.882  1.00  0.00     0.041 C 
ATOM      6  O   UNL     1      -8.301  -2.654  -2.238  1.00  0.00    -0.550 OA
ATOM      7  O   UNL     1      -8.429  -4.804  -1.456  1.00  0.00    -0.550 OA
ENDBRANCH   4   5
ENDBRANCH   3   4
ENDBRANCH   2   3
ENDBRANCH   1   2
BRANCH   1   8
ATOM      8  C   UNL     1     -10.729  -6.742  -5.767  1.00  0.00     0.000 C 
BRANCH   8   9
ATOM      9  C   UNL     1      -9.728  -6.775  -6.931  1.00  0.00     0.006 C 
BRANCH   9  10
ATOM     10  C   UNL     1      -8.426  -6.038  -6.598  1.00  0.00     0.053 C 
BRANCH  10  11
ATOM     11  C   UNL     1      -7.707  -6.672  -5.446  1.00  0.00     0.041 C 
ATOM     12  O   UNL     1      -7.731  -6.134  -4.309  1.00  0.00    -0.550 OA
ATOM     13  O   UNL     1      -7.037  -7.876  -5.625  1.00  0.00    -0.550 OA
ENDBRANCH  10  11
ENDBRANCH   9  10
ENDBRANCH   8   9
ENDBRANCH   1   8
TORSDOF 8
ENDMDL
MODEL 4
REMARK VINA RESULT:    -4.291      1.280      5.361
REMARK INTER + INTRA:          -6.686
REMARK INTER:                  -6.257
REMARK INTRA:                  -0.429
REMARK UNBOUND:                -0.388
REMARK SMILES O=C([O-])CCCCCCCC(=O)[O-]
REMARK SMILES IDX 7 1 6 2 5 3 4 4 2 5 1 6 3 7 8 8 9 9 10 10 11 11 12 12 13 13
REMARK H PARENT
REMARK Flexibility Score: inf
ROOT
ATOM      1  C   UNL     1     -10.059  -5.698  -4.951  1.00  0.00     0.000 C 
ENDROOT
BRANCH   1   2
ATOM      2  C   UNL     1     -11.079  -5.097  -3.977  1.00  0.00     0.000 C 
BRANCH   2   3
ATOM      3  C   UNL     1     -10.789  -3.610  -3.725  1.00  0.00     0.006 C 
BRANCH   3   4
ATOM      4  C   UNL     1     -10.461  -3.322  -2.255  1.00  0.00     0.053 C 
BRANCH   4   5
ATOM      5  C   UNL     1      -9.005  -3.519  -1.962  1.00  0.00     0.041 C 
ATOM      6  O   UNL     1      -8.575  -4.649  -1.611  1.00  0.00    -0.550 OA
ATOM      7  O   UNL     1      -8.128  -2.445  -2.048  1.00  0.00    -0.550 OA
ENDBRANCH   4   5
ENDBRANCH   3   4
ENDBRANCH   2   3
ENDBRANCH   1   2
BRANCH   1   8
ATOM      8  C   UNL     1     -10.698  -5.971  -6.319  1.00  0.00     0.000 C 
BRANCH   8   9
ATOM      9  C   UNL     1     -10.145  -5.014  -7.385  1.00  0.00     0.006 C 
BRANCH   9  10
ATOM     10  C   UNL     1      -9.312  -5.746  -8.445  1.00  0.00     0.053 C 
BRANCH  10  11
ATOM     11  C   UNL     1      -7.846  -5.672  -8.148  1.00  0.00     0.041 C 
ATOM     12  O   UNL     1      -7.352  -6.354  -7.213  1.00  0.00    -0.550 OA
ATOM     13  O   UNL     1      -7.020  -4.871  -8.927  1.00  0.00    -0.550 OA
ENDBRANCH  10  11
ENDBRANCH   9  10
ENDBRANCH   8   9
ENDBRANCH   1   8
TORSDOF 8
ENDMDL
MODEL 5
REMARK VINA RESULT:    -4.287      1.241      1.701
REMARK INTER + INTRA:          -6.681
REMARK INTER:                  -6.259
REMARK INTRA:                  -0.421
REMARK UNBOUND:                -0.388
REMARK SMILES O=C([O-])CCCCCCCC(=O)[O-]
REMARK SMILES IDX 7 1 6 2 5 3 4 4 2 5 1 6 3 7 8 8 9 9 10 10 11 11 12 12 13 13
REMARK H PARENT
REMARK Flexibility Score: inf
ROOT
ATOM      1  C   UNL     1      -9.969  -5.529  -4.872  1.00  0.00     0.000 C 
ENDROOT
BRANCH   1   2
ATOM      2  C   UNL     1     -10.592  -5.987  -6.196  1.00  0.00     0.000 C 
BRANCH   2   3
ATOM      3  C   UNL     1      -9.971  -5.240  -7.385  1.00  0.00     0.006 C 
BRANCH   3   4
ATOM      4  C   UNL     1      -9.000  -6.119  -8.182  1.00  0.00     0.053 C 
BRANCH   4   5
ATOM      5  C   UNL     1      -7.586  -5.643  -8.052  1.00  0.00     0.041 C 
ATOM      6  O   UNL     1      -7.075  -4.919  -8.947  1.00  0.00    -0.550 OA
ATOM      7  O   UNL     1      -6.822  -6.025  -6.957  1.00  0.00    -0.550 OA
ENDBRANCH   4   5
ENDBRANCH   3   4
ENDBRANCH   2   3
ENDBRANCH   1   2
BRANCH   1   8
ATOM      8  C   UNL     1     -11.043  -5.019  -3.904  1.00  0.00     0.000 C 
BRANCH   8   9
ATOM      9  C   UNL     1     -10.836  -3.531  -3.585  1.00  0.00     0.006 C 
BRANCH   9  10
ATOM     10  C   UNL     1     -10.440  -3.301  -2.122  1.00  0.00     0.053 C 
BRANCH  10  11
ATOM     11  C   UNL     1      -8.969  -3.490  -1.908  1.00  0.00     0.041 C 
ATOM     12  O   UNL     1      -8.178  -2.520  -2.040  1.00  0.00    -0.550 OA
ATOM     13  O   UNL     1      -8.477  -4.734  -1.532  1.00  0.00    -0.550 OA
ENDBRANCH  10  11
ENDBRANCH   9  10
ENDBRANCH   8   9
ENDBRANCH   1   8
TORSDOF 8
ENDMDL
MODEL 6
REMARK VINA RESULT:    -4.126      1.125      4.818
REMARK INTER + INTRA:          -6.444
REMARK INTER:                  -5.948
REMARK INTRA:                  -0.496
REMARK UNBOUND:                -0.388
REMARK SMILES O=C([O-])CCCCCCCC(=O)[O-]
REMARK SMILES IDX 7 1 6 2 5 3 4 4 2 5 1 6 3 7 8 8 9 9 10 10 11 11 12 12 13 13
REMARK H PARENT
REMARK Flexibility Score: inf
ROOT
ATOM      1  C   UNL     1     -11.014  -5.771  -4.600  1.00  0.00     0.000 C 
ENDROOT
BRANCH   1   2
ATOM      2  C   UNL     1     -11.055  -4.314  -5.075  1.00  0.00     0.000 C 
BRANCH   2   3
ATOM      3  C   UNL     1     -10.796  -3.347  -3.909  1.00  0.00     0.006 C 
BRANCH   3   4
ATOM      4  C   UNL     1     -10.581  -4.083  -2.581  1.00  0.00     0.053 C 
BRANCH   4   5
ATOM      5  C   UNL     1      -9.230  -3.795  -2.000  1.00  0.00     0.041 C 
ATOM      6  O   UNL     1      -8.513  -4.734  -1.564  1.00  0.00    -0.550 OA
ATOM      7  O   UNL     1      -8.777  -2.484  -1.911  1.00  0.00    -0.550 OA
ENDBRANCH   4   5
ENDBRANCH   3   4
ENDBRANCH   2   3
ENDBRANCH   1   2
BRANCH   1   8
ATOM      8  C   UNL     1      -9.916  -6.557  -5.327  1.00  0.00     0.000 C 
BRANCH   8   9
ATOM      9  C   UNL     1      -8.540  -5.911  -5.110  1.00  0.00     0.006 C 
BRANCH   9  10
ATOM     10  C   UNL     1      -7.391  -6.845  -5.509  1.00  0.00     0.053 C 
BRANCH  10  11
ATOM     11  C   UNL     1      -6.305  -6.112  -6.234  1.00  0.00     0.041 C 
ATOM     12  O   UNL     1      -6.509  -5.653  -7.388  1.00  0.00    -0.550 OA
ATOM     13  O   UNL     1      -5.076  -5.907  -5.619  1.00  0.00    -0.550 OA
ENDBRANCH  10  11
ENDBRANCH   9  10
ENDBRANCH   8   9
ENDBRANCH   1   8
TORSDOF 8
ENDMDL
MODEL 7
REMARK VINA RESULT:    -3.498      1.881      2.637
REMARK INTER + INTRA:          -5.521
REMARK INTER:                  -5.172
REMARK INTRA:                  -0.349
REMARK UNBOUND:                -0.388
REMARK SMILES O=C([O-])CCCCCCCC(=O)[O-]
REMARK SMILES IDX 7 1 6 2 5 3 4 4 2 5 1 6 3 7 8 8 9 9 10 10 11 11 12 12 13 13
REMARK H PARENT
REMARK Flexibility Score: inf
ROOT
ATOM      1  C   UNL     1      -8.818  -5.829  -5.079  1.00  0.00     0.000 C 
ENDROOT
BRANCH   1   2
ATOM      2  C   UNL     1      -8.093  -7.051  -5.652  1.00  0.00     0.000 C 
BRANCH   2   3
ATOM      3  C   UNL     1      -6.569  -6.878  -5.568  1.00  0.00     0.006 C 
BRANCH   3   4
ATOM      4  C   UNL     1      -6.083  -5.632  -6.318  1.00  0.00     0.053 C 
BRANCH   4   5
ATOM      5  C   UNL     1      -4.685  -5.260  -5.928  1.00  0.00     0.041 C 
ATOM      6  O   UNL     1      -3.839  -6.155  -5.666  1.00  0.00    -0.550 OA
ATOM      7  O   UNL     1      -4.326  -3.922  -5.824  1.00  0.00    -0.550 OA
ENDBRANCH   4   5
ENDBRANCH   3   4
ENDBRANCH   2   3
ENDBRANCH   1   2
BRANCH   1   8
ATOM      8  C   UNL     1     -10.292  -6.144  -4.796  1.00  0.00     0.000 C 
BRANCH   8   9
ATOM      9  C   UNL     1     -10.924  -5.068  -3.901  1.00  0.00     0.006 C 
BRANCH   9  10
ATOM     10  C   UNL     1      -9.997  -3.863  -3.700  1.00  0.00     0.053 C 
BRANCH  10  11
ATOM     11  C   UNL     1      -9.595  -3.705  -2.266  1.00  0.00     0.041 C 
ATOM     12  O   UNL     1      -8.778  -4.508  -1.743  1.00  0.00    -0.550 OA
ATOM     13  O   UNL     1     -10.100  -2.651  -1.515  1.00  0.00    -0.550 OA
ENDBRANCH  10  11
ENDBRANCH   9  10
ENDBRANCH   8   9
ENDBRANCH   1   8
TORSDOF 8
ENDMDL
MODEL 8
REMARK VINA RESULT:    -3.296     17.078     19.058
REMARK INTER + INTRA:          -5.225
REMARK INTER:                  -4.814
REMARK INTRA:                  -0.411
REMARK UNBOUND:                -0.388
REMARK SMILES O=C([O-])CCCCCCCC(=O)[O-]
REMARK SMILES IDX 7 1 6 2 5 3 4 4 2 5 1 6 3 7 8 8 9 9 10 10 11 11 12 12 13 13
REMARK H PARENT
REMARK Flexibility Score: inf
ROOT
ATOM      1  C   UNL     1       3.606  -5.320   9.743  1.00  0.00     0.000 C 
ENDROOT
BRANCH   1   2
ATOM      2  C   UNL     1       4.896  -6.137   9.884  1.00  0.00     0.000 C 
BRANCH   2   3
ATOM      3  C   UNL     1       6.000  -5.586   8.971  1.00  0.00     0.006 C 
BRANCH   3   4
ATOM      4  C   UNL     1       7.173  -6.563   8.821  1.00  0.00     0.053 C 
BRANCH   4   5
ATOM      5  C   UNL     1       6.900  -7.601   7.776  1.00  0.00     0.041 C 
ATOM      6  O   UNL     1       7.185  -7.379   6.570  1.00  0.00    -0.550 OA
ATOM      7  O   UNL     1       6.301  -8.804   8.131  1.00  0.00    -0.550 OA
ENDBRANCH   4   5
ENDBRANCH   3   4
ENDBRANCH   2   3
ENDBRANCH   1   2
BRANCH   1   8
ATOM      8  C   UNL     1       2.387  -6.237   9.583  1.00  0.00     0.000 C 
BRANCH   8   9
ATOM      9  C   UNL     1       2.800  -7.610   9.032  1.00  0.00     0.006 C 
BRANCH   9  10
ATOM     10  C   UNL     1       1.687  -8.260   8.201  1.00  0.00     0.053 C 
BRANCH  10  11
ATOM     11  C   UNL     1       2.234  -8.982   7.008  1.00  0.00     0.041 C 
ATOM     12  O   UNL     1       3.325  -9.605   7.088  1.00  0.00    -0.550 OA
ATOM     13  O   UNL     1       1.522  -8.992   5.816  1.00  0.00    -0.550 OA
ENDBRANCH  10  11
ENDBRANCH   9  10
ENDBRANCH   8   9
ENDBRANCH   1   8
TORSDOF 8
ENDMDL
MODEL 9
REMARK VINA RESULT:    -3.272     17.219     19.183
REMARK INTER + INTRA:          -5.190
REMARK INTER:                  -4.777
REMARK INTRA:                  -0.413
REMARK UNBOUND:                -0.388
REMARK SMILES O=C([O-])CCCCCCCC(=O)[O-]
REMARK SMILES IDX 7 1 6 2 5 3 4 4 2 5 1 6 3 7 8 8 9 9 10 10 11 11 12 12 13 13
REMARK H PARENT
REMARK Flexibility Score: inf
ROOT
ATOM      1  C   UNL     1       3.850  -5.430   9.726  1.00  0.00     0.000 C 
ENDROOT
BRANCH   1   2
ATOM      2  C   UNL     1       2.598  -6.314   9.739  1.00  0.00     0.000 C 
BRANCH   2   3
ATOM      3  C   UNL     1       2.895  -7.698   9.143  1.00  0.00     0.006 C 
BRANCH   3   4
ATOM      4  C   UNL     1       1.772  -8.186   8.219  1.00  0.00     0.053 C 
BRANCH   4   5
ATOM      5  C   UNL     1       2.307  -8.986   7.071  1.00  0.00     0.041 C 
ATOM      6  O   UNL     1       3.409  -9.586   7.174  1.00  0.00    -0.550 OA
ATOM      7  O   UNL     1       1.602  -9.042   5.875  1.00  0.00    -0.550 OA
ENDBRANCH   4   5
ENDBRANCH   3   4
ENDBRANCH   2   3
ENDBRANCH   1   2
BRANCH   1   8
ATOM      8  C   UNL     1       5.122  -6.271   9.891  1.00  0.00     0.000 C 
BRANCH   8   9
ATOM      9  C   UNL     1       6.244  -5.758   8.978  1.00  0.00     0.006 C 
BRANCH   9  10
ATOM     10  C   UNL     1       7.362  -6.792   8.796  1.00  0.00     0.053 C 
BRANCH  10  11
ATOM     11  C   UNL     1       7.046  -7.766   7.702  1.00  0.00     0.041 C 
ATOM     12  O   UNL     1       6.546  -8.888   7.977  1.00  0.00    -0.550 OA
ATOM     13  O   UNL     1       7.275  -7.420   6.377  1.00  0.00    -0.550 OA
ENDBRANCH  10  11
ENDBRANCH   9  10
ENDBRANCH   8   9
ENDBRANCH   1   8
TORSDOF 8
ENDMDL
