MODEL 1
REMARK VINA RESULT:    -5.995      0.000      0.000
REMARK INTER + INTRA:          -7.778
REMARK INTER:                  -7.397
REMARK INTRA:                  -0.382
REMARK UNBOUND:                -0.382
REMARK SMILES O=C1c2c(O)cc(O)cc2O[C@H](c2cc(O)c(O)c(O)c2)[C@H]1O
REMARK SMILES IDX 12 1 22 2 2 3 1 4 3 5 4 6 6 7 7 8 9 9 10 10 11 11 13 12
REMARK SMILES IDX 14 13 15 14 21 15 17 16 19 17 16 18 18 20 20 22 23 24 5 26
REMARK SMILES IDX 8 28
REMARK H PARENT 16 19 18 21 20 23 23 25 5 27 8 29
REMARK Flexibility Score: inf
ROOT
ATOM      1  C   UNL     1      19.130  20.607  20.552  1.00  0.00     0.240 C 
ATOM      2  C   UNL     1      18.118  20.268  21.662  1.00  0.00     0.231 C 
ATOM      3  C   UNL     1      17.987  18.769  21.791  1.00  0.00     0.202 C 
ATOM      4  O   UNL     1      16.883  18.268  22.139  1.00  0.00    -0.291 OA
ATOM      5  C   UNL     1      19.179  17.911  21.581  1.00  0.00     0.105 A 
ATOM      6  C   UNL     1      19.195  16.535  21.897  1.00  0.00     0.133 A 
ATOM      7  C   UNL     1      20.373  15.794  21.721  1.00  0.00     0.093 A 
ATOM      8  C   UNL     1      21.533  16.409  21.243  1.00  0.00     0.123 A 
ATOM      9  C   UNL     1      21.519  17.772  20.926  1.00  0.00     0.093 A 
ATOM     10  C   UNL     1      20.345  18.517  21.078  1.00  0.00     0.138 A 
ATOM     11  O   UNL     1      20.344  19.873  20.733  1.00  0.00    -0.481 OA
ENDROOT
BRANCH   1  12
ATOM     12  C   UNL     1      19.430  22.089  20.527  1.00  0.00     0.003 A 
ATOM     13  C   UNL     1      19.123  22.858  19.393  1.00  0.00     0.058 A 
ATOM     14  C   UNL     1      19.425  24.223  19.355  1.00  0.00     0.161 A 
ATOM     15  C   UNL     1      20.066  22.701  21.619  1.00  0.00     0.058 A 
ATOM     16  C   UNL     1      20.050  24.835  20.456  1.00  0.00     0.200 A 
ATOM     17  C   UNL     1      20.372  24.068  21.589  1.00  0.00     0.161 A 
BRANCH  14  18
ATOM     18  O   UNL     1      19.098  24.955  18.214  1.00  0.00    -0.504 OA
ATOM     19  H   UNL     1      18.244  25.496  18.146  1.00  0.00     0.293 HD
ENDBRANCH  14  18
BRANCH  16  20
ATOM     20  O   UNL     1      20.345  26.197  20.411  1.00  0.00    -0.502 OA
ATOM     21  H   UNL     1      20.200  26.808  21.206  1.00  0.00     0.293 HD
ENDBRANCH  16  20
BRANCH  17  22
ATOM     22  O   UNL     1      20.997  24.667  22.681  1.00  0.00    -0.504 OA
ATOM     23  H   UNL     1      20.784  25.618  22.960  1.00  0.00     0.293 HD
ENDBRANCH  17  22
ENDBRANCH   1  12
BRANCH   2  24
ATOM     24  O   UNL     1      16.875  20.843  21.351  1.00  0.00    -0.381 OA
ATOM     25  H   UNL     1      16.618  21.411  22.124  1.00  0.00     0.211 HD
ENDBRANCH   2  24
BRANCH   6  26
ATOM     26  O   UNL     1      18.053  15.904  22.392  1.00  0.00    -0.507 OA
ATOM     27  H   UNL     1      18.048  14.918  22.621  1.00  0.00     0.293 HD
ENDBRANCH   6  26
BRANCH   8  28
ATOM     28  O   UNL     1      22.695  15.657  21.084  1.00  0.00    -0.508 OA
ATOM     29  H   UNL     1      23.127  15.534  20.176  1.00  0.00     0.293 HD
ENDBRANCH   8  28
TORSDOF 7
ENDMDL
MODEL 2
REMARK VINA RESULT:    -5.812      0.631      1.812
REMARK INTER + INTRA:          -7.554
REMARK INTER:                  -7.251
REMARK INTRA:                  -0.303
REMARK UNBOUND:                -0.382
REMARK SMILES O=C1c2c(O)cc(O)cc2O[C@H](c2cc(O)c(O)c(O)c2)[C@H]1O
REMARK SMILES IDX 12 1 22 2 2 3 1 4 3 5 4 6 6 7 7 8 9 9 10 10 11 11 13 12
REMARK SMILES IDX 14 13 15 14 21 15 17 16 19 17 16 18 18 20 20 22 23 24 5 26
REMARK SMILES IDX 8 28
REMARK H PARENT 16 19 18 21 20 23 23 25 5 27 8 29
REMARK Flexibility Score: inf
ROOT
ATOM      1  C   UNL     1      19.086  20.074  20.584  1.00  0.00     0.240 C 
ATOM      2  C   UNL     1      18.121  19.744  21.739  1.00  0.00     0.231 C 
ATOM      3  C   UNL     1      17.970  18.247  21.865  1.00  0.00     0.202 C 
ATOM      4  O   UNL     1      16.875  17.763  22.262  1.00  0.00    -0.291 OA
ATOM      5  C   UNL     1      19.136  17.371  21.594  1.00  0.00     0.105 A 
ATOM      6  C   UNL     1      19.142  15.992  21.900  1.00  0.00     0.133 A 
ATOM      7  C   UNL     1      20.298  15.232  21.664  1.00  0.00     0.093 A 
ATOM      8  C   UNL     1      21.445  15.831  21.136  1.00  0.00     0.123 A 
ATOM      9  C   UNL     1      21.439  17.196  20.828  1.00  0.00     0.093 A 
ATOM     10  C   UNL     1      20.288  17.960  21.040  1.00  0.00     0.138 A 
ATOM     11  O   UNL     1      20.293  19.318  20.703  1.00  0.00    -0.481 OA
ENDROOT
BRANCH   1  12
ATOM     12  C   UNL     1      19.410  21.550  20.553  1.00  0.00     0.003 A 
ATOM     13  C   UNL     1      20.363  22.089  21.431  1.00  0.00     0.058 A 
ATOM     14  C   UNL     1      20.645  23.459  21.425  1.00  0.00     0.161 A 
ATOM     15  C   UNL     1      18.722  22.407  19.679  1.00  0.00     0.058 A 
ATOM     16  C   UNL     1      19.963  24.311  20.539  1.00  0.00     0.200 A 
ATOM     17  C   UNL     1      18.997  23.780  19.665  1.00  0.00     0.161 A 
BRANCH  14  18
ATOM     18  O   UNL     1      21.604  23.955  22.307  1.00  0.00    -0.504 OA
ATOM     19  H   UNL     1      21.634  23.679  23.282  1.00  0.00     0.293 HD
ENDBRANCH  14  18
BRANCH  16  20
ATOM     20  O   UNL     1      20.252  25.676  20.537  1.00  0.00    -0.502 OA
ATOM     21  H   UNL     1      19.524  26.381  20.537  1.00  0.00     0.293 HD
ENDBRANCH  16  20
BRANCH  17  22
ATOM     22  O   UNL     1      18.313  24.621  18.790  1.00  0.00    -0.504 OA
ATOM     23  H   UNL     1      18.486  24.603  17.791  1.00  0.00     0.293 HD
ENDBRANCH  17  22
ENDBRANCH   1  12
BRANCH   2  24
ATOM     24  O   UNL     1      16.875  20.343  21.489  1.00  0.00    -0.381 OA
ATOM     25  H   UNL     1      16.696  20.963  22.244  1.00  0.00     0.211 HD
ENDBRANCH   2  24
BRANCH   6  26
ATOM     26  O   UNL     1      18.015  15.378  22.445  1.00  0.00    -0.507 OA
ATOM     27  H   UNL     1      17.498  14.669  21.938  1.00  0.00     0.293 HD
ENDBRANCH   6  26
BRANCH   8  28
ATOM     28  O   UNL     1      22.585  15.060  20.918  1.00  0.00    -0.508 OA
ATOM     29  H   UNL     1      23.414  15.166  21.491  1.00  0.00     0.293 HD
ENDBRANCH   8  28
TORSDOF 7
ENDMDL
MODEL 3
REMARK VINA RESULT:    -5.603      1.710      7.009
REMARK INTER + INTRA:          -7.295
REMARK INTER:                  -6.913
REMARK INTRA:                  -0.382
REMARK UNBOUND:                -0.382
REMARK SMILES O=C1c2c(O)cc(O)cc2O[C@H](c2cc(O)c(O)c(O)c2)[C@H]1O
REMARK SMILES IDX 12 1 22 2 2 3 1 4 3 5 4 6 6 7 7 8 9 9 10 10 11 11 13 12
REMARK SMILES IDX 14 13 15 14 21 15 17 16 19 17 16 18 18 20 20 22 23 24 5 26
REMARK SMILES IDX 8 28
REMARK H PARENT 16 19 18 21 20 23 23 25 5 27 8 29
REMARK Flexibility Score: inf
ROOT
ATOM      1  C   UNL     1      18.583  19.865  20.583  1.00  0.00     0.240 C 
ATOM      2  C   UNL     1      18.862  19.637  19.086  1.00  0.00     0.231 C 
ATOM      3  C   UNL     1      18.670  20.929  18.328  1.00  0.00     0.202 C 
ATOM      4  O   UNL     1      18.254  20.898  17.138  1.00  0.00    -0.291 OA
ATOM      5  C   UNL     1      19.046  22.213  18.970  1.00  0.00     0.105 A 
ATOM      6  C   UNL     1      19.107  23.432  18.260  1.00  0.00     0.133 A 
ATOM      7  C   UNL     1      19.520  24.601  18.918  1.00  0.00     0.093 A 
ATOM      8  C   UNL     1      19.879  24.566  20.268  1.00  0.00     0.123 A 
ATOM      9  C   UNL     1      19.816  23.359  20.974  1.00  0.00     0.093 A 
ATOM     10  C   UNL     1      19.387  22.192  20.335  1.00  0.00     0.138 A 
ATOM     11  O   UNL     1      19.307  21.000  21.064  1.00  0.00    -0.481 OA
ENDROOT
BRANCH   1  12
ATOM     12  C   UNL     1      18.952  18.645  21.395  1.00  0.00     0.003 A 
ATOM     13  C   UNL     1      18.004  18.032  22.230  1.00  0.00     0.058 A 
ATOM     14  C   UNL     1      18.349  16.919  23.005  1.00  0.00     0.161 A 
ATOM     15  C   UNL     1      20.262  18.141  21.361  1.00  0.00     0.058 A 
ATOM     16  C   UNL     1      19.659  16.411  22.957  1.00  0.00     0.200 A 
ATOM     17  C   UNL     1      20.617  17.027  22.133  1.00  0.00     0.161 A 
BRANCH  14  18
ATOM     18  O   UNL     1      17.378  16.334  23.816  1.00  0.00    -0.504 OA
ATOM     19  H   UNL     1      16.890  16.856  24.535  1.00  0.00     0.293 HD
ENDBRANCH  14  18
BRANCH  16  20
ATOM     20  O   UNL     1      19.994  15.299  23.731  1.00  0.00    -0.502 OA
ATOM     21  H   UNL     1      20.581  15.372  24.554  1.00  0.00     0.293 HD
ENDBRANCH  16  20
BRANCH  17  22
ATOM     22  O   UNL     1      21.918  16.531  22.087  1.00  0.00    -0.504 OA
ATOM     23  H   UNL     1      22.714  17.101  22.354  1.00  0.00     0.293 HD
ENDBRANCH  17  22
ENDBRANCH   1  12
BRANCH   2  24
ATOM     24  O   UNL     1      17.992  18.649  18.596  1.00  0.00    -0.381 OA
ATOM     25  H   UNL     1      18.554  17.970  18.137  1.00  0.00     0.211 HD
ENDBRANCH   2  24
BRANCH   6  26
ATOM     26  O   UNL     1      18.770  23.487  16.907  1.00  0.00    -0.507 OA
ATOM     27  H   UNL     1      18.490  24.353  16.463  1.00  0.00     0.293 HD
ENDBRANCH   6  26
BRANCH   8  28
ATOM     28  O   UNL     1      20.295  25.735  20.899  1.00  0.00    -0.508 OA
ATOM     29  H   UNL     1      21.112  25.753  21.498  1.00  0.00     0.293 HD
ENDBRANCH   8  28
TORSDOF 7
ENDMDL
MODEL 4
REMARK VINA RESULT:    -5.533      1.671      7.041
REMARK INTER + INTRA:          -7.209
REMARK INTER:                  -6.830
REMARK INTRA:                  -0.379
REMARK UNBOUND:                -0.382
REMARK SMILES O=C1c2c(O)cc(O)cc2O[C@H](c2cc(O)c(O)c(O)c2)[C@H]1O
REMARK SMILES IDX 12 1 22 2 2 3 1 4 3 5 4 6 6 7 7 8 9 9 10 10 11 11 13 12
REMARK SMILES IDX 14 13 15 14 21 15 17 16 19 17 16 18 18 20 20 22 23 24 5 26
REMARK SMILES IDX 8 28
REMARK H PARENT 16 19 18 21 20 23 23 25 5 27 8 29
REMARK Flexibility Score: inf
ROOT
ATOM      1  C   UNL     1      18.648  19.828  20.600  1.00  0.00     0.240 C 
ATOM      2  C   UNL     1      18.936  19.620  19.101  1.00  0.00     0.231 C 
ATOM      3  C   UNL     1      18.725  20.917  18.356  1.00  0.00     0.202 C 
ATOM      4  O   UNL     1      18.315  20.891  17.164  1.00  0.00    -0.291 OA
ATOM      5  C   UNL     1      19.077  22.200  19.013  1.00  0.00     0.105 A 
ATOM      6  C   UNL     1      19.120  23.427  18.316  1.00  0.00     0.133 A 
ATOM      7  C   UNL     1      19.511  24.596  18.987  1.00  0.00     0.093 A 
ATOM      8  C   UNL     1      19.865  24.553  20.338  1.00  0.00     0.123 A 
ATOM      9  C   UNL     1      19.820  23.338  21.032  1.00  0.00     0.093 A 
ATOM     10  C   UNL     1      19.413  22.170  20.379  1.00  0.00     0.138 A 
ATOM     11  O   UNL     1      19.350  20.970  21.096  1.00  0.00    -0.481 OA
ENDROOT
BRANCH   1  12
ATOM     12  C   UNL     1      19.034  18.606  21.400  1.00  0.00     0.003 A 
ATOM     13  C   UNL     1      20.347  18.112  21.358  1.00  0.00     0.058 A 
ATOM     14  C   UNL     1      20.701  16.963  22.075  1.00  0.00     0.161 A 
ATOM     15  C   UNL     1      18.068  17.921  22.156  1.00  0.00     0.058 A 
ATOM     16  C   UNL     1      19.733  16.289  22.841  1.00  0.00     0.200 A 
ATOM     17  C   UNL     1      18.413  16.771  22.878  1.00  0.00     0.161 A 
BRANCH  14  18
ATOM     18  O   UNL     1      22.017  16.508  22.013  1.00  0.00    -0.504 OA
ATOM     19  H   UNL     1      22.686  16.688  22.752  1.00  0.00     0.293 HD
ENDBRANCH  14  18
BRANCH  16  20
ATOM     20  O   UNL     1      20.095  15.146  23.555  1.00  0.00    -0.502 OA
ATOM     21  H   UNL     1      20.882  15.135  24.192  1.00  0.00     0.293 HD
ENDBRANCH  16  20
BRANCH  17  22
ATOM     22  O   UNL     1      17.448  16.103  23.629  1.00  0.00    -0.504 OA
ATOM     23  H   UNL     1      16.826  16.599  24.257  1.00  0.00     0.293 HD
ENDBRANCH  17  22
ENDBRANCH   1  12
BRANCH   2  24
ATOM     24  O   UNL     1      18.085  18.623  18.597  1.00  0.00    -0.381 OA
ATOM     25  H   UNL     1      17.639  19.002  17.795  1.00  0.00     0.211 HD
ENDBRANCH   2  24
BRANCH   6  26
ATOM     26  O   UNL     1      18.788  23.491  16.962  1.00  0.00    -0.507 OA
ATOM     27  H   UNL     1      18.947  22.709  16.338  1.00  0.00     0.293 HD
ENDBRANCH   6  26
BRANCH   8  28
ATOM     28  O   UNL     1      20.259  25.723  20.984  1.00  0.00    -0.508 OA
ATOM     29  H   UNL     1      21.069  26.250  20.679  1.00  0.00     0.293 HD
ENDBRANCH   8  28
TORSDOF 7
ENDMDL
MODEL 5
REMARK VINA RESULT:    -5.530      1.410      2.994
REMARK INTER + INTRA:          -7.205
REMARK INTER:                  -6.907
REMARK INTRA:                  -0.298
REMARK UNBOUND:                -0.382
REMARK SMILES O=C1c2c(O)cc(O)cc2O[C@H](c2cc(O)c(O)c(O)c2)[C@H]1O
REMARK SMILES IDX 12 1 22 2 2 3 1 4 3 5 4 6 6 7 7 8 9 9 10 10 11 11 13 12
REMARK SMILES IDX 14 13 15 14 21 15 17 16 19 17 16 18 18 20 20 22 23 24 5 26
REMARK SMILES IDX 8 28
REMARK H PARENT 16 19 18 21 20 23 23 25 5 27 8 29
REMARK Flexibility Score: inf
ROOT
ATOM      1  C   UNL     1      20.247  20.648  21.109  1.00  0.00     0.240 C 
ATOM      2  C   UNL     1      21.661  20.127  20.790  1.00  0.00     0.231 C 
ATOM      3  C   UNL     1      21.878  18.794  21.465  1.00  0.00     0.202 C 
ATOM      4  O   UNL     1      23.032  18.475  21.859  1.00  0.00    -0.291 OA
ATOM      5  C   UNL     1      20.743  17.846  21.587  1.00  0.00     0.105 A 
ATOM      6  C   UNL     1      20.910  16.505  21.999  1.00  0.00     0.133 A 
ATOM      7  C   UNL     1      19.800  15.648  22.043  1.00  0.00     0.093 A 
ATOM      8  C   UNL     1      18.533  16.107  21.674  1.00  0.00     0.123 A 
ATOM      9  C   UNL     1      18.365  17.436  21.268  1.00  0.00     0.093 A 
ATOM     10  C   UNL     1      19.460  18.306  21.239  1.00  0.00     0.138 A 
ATOM     11  O   UNL     1      19.268  19.638  20.855  1.00  0.00    -0.481 OA
ENDROOT
BRANCH   1  12
ATOM     12  C   UNL     1      19.928  21.882  20.297  1.00  0.00     0.003 A 
ATOM     13  C   UNL     1      19.512  21.768  18.961  1.00  0.00     0.058 A 
ATOM     14  C   UNL     1      19.244  22.909  18.197  1.00  0.00     0.161 A 
ATOM     15  C   UNL     1      20.093  23.160  20.856  1.00  0.00     0.058 A 
ATOM     16  C   UNL     1      19.399  24.186  18.765  1.00  0.00     0.200 A 
ATOM     17  C   UNL     1      19.827  24.308  20.099  1.00  0.00     0.161 A 
BRANCH  14  18
ATOM     18  O   UNL     1      18.827  22.754  16.876  1.00  0.00    -0.504 OA
ATOM     19  H   UNL     1      18.777  21.846  16.429  1.00  0.00     0.293 HD
ENDBRANCH  14  18
BRANCH  16  20
ATOM     20  O   UNL     1      19.126  25.318  17.998  1.00  0.00    -0.502 OA
ATOM     21  H   UNL     1      18.795  25.256  17.042  1.00  0.00     0.293 HD
ENDBRANCH  16  20
BRANCH  17  22
ATOM     22  O   UNL     1      19.988  25.571  20.665  1.00  0.00    -0.504 OA
ATOM     23  H   UNL     1      20.304  25.688  21.621  1.00  0.00     0.293 HD
ENDBRANCH  17  22
ENDBRANCH   1  12
BRANCH   2  24
ATOM     24  O   UNL     1      22.612  21.061  21.235  1.00  0.00    -0.381 OA
ATOM     25  H   UNL     1      22.171  21.609  21.937  1.00  0.00     0.211 HD
ENDBRANCH   2  24
BRANCH   6  26
ATOM     26  O   UNL     1      22.168  16.020  22.354  1.00  0.00    -0.507 OA
ATOM     27  H   UNL     1      22.277  15.227  22.976  1.00  0.00     0.293 HD
ENDBRANCH   6  26
BRANCH   8  28
ATOM     28  O   UNL     1      17.447  15.237  21.715  1.00  0.00    -0.508 OA
ATOM     29  H   UNL     1      16.617  15.450  22.255  1.00  0.00     0.293 HD
ENDBRANCH   8  28
TORSDOF 7
ENDMDL
MODEL 6
REMARK VINA RESULT:    -5.476      2.970      6.674
REMARK INTER + INTRA:          -7.138
REMARK INTER:                  -6.842
REMARK INTRA:                  -0.296
REMARK UNBOUND:                -0.382
REMARK SMILES O=C1c2c(O)cc(O)cc2O[C@H](c2cc(O)c(O)c(O)c2)[C@H]1O
REMARK SMILES IDX 12 1 22 2 2 3 1 4 3 5 4 6 6 7 7 8 9 9 10 10 11 11 13 12
REMARK SMILES IDX 14 13 15 14 21 15 17 16 19 17 16 18 18 20 20 22 23 24 5 26
REMARK SMILES IDX 8 28
REMARK H PARENT 16 19 18 21 20 23 23 25 5 27 8 29
REMARK Flexibility Score: inf
ROOT
ATOM      1  C   UNL     1      21.935  17.566  21.408  1.00  0.00     0.240 C 
ATOM      2  C   UNL     1      21.184  16.267  21.754  1.00  0.00     0.231 C 
ATOM      3  C   UNL     1      19.873  16.598  22.426  1.00  0.00     0.202 C 
ATOM      4  O   UNL     1      19.401  15.814  23.293  1.00  0.00    -0.291 OA
ATOM      5  C   UNL     1      19.120  17.804  22.000  1.00  0.00     0.105 A 
ATOM      6  C   UNL     1      17.795  18.062  22.414  1.00  0.00     0.133 A 
ATOM      7  C   UNL     1      17.124  19.196  21.932  1.00  0.00     0.093 A 
ATOM      8  C   UNL     1      17.753  20.067  21.039  1.00  0.00     0.123 A 
ATOM      9  C   UNL     1      19.067  19.814  20.630  1.00  0.00     0.093 A 
ATOM     10  C   UNL     1      19.754  18.699  21.118  1.00  0.00     0.138 A 
ATOM     11  O   UNL     1      21.076  18.477  20.717  1.00  0.00    -0.481 OA
ENDROOT
BRANCH   1  12
ATOM     12  C   UNL     1      23.156  17.279  20.565  1.00  0.00     0.003 A 
ATOM     13  C   UNL     1      24.323  18.045  20.717  1.00  0.00     0.058 A 
ATOM     14  C   UNL     1      25.445  17.800  19.919  1.00  0.00     0.161 A 
ATOM     15  C   UNL     1      23.119  16.273  19.586  1.00  0.00     0.058 A 
ATOM     16  C   UNL     1      25.408  16.784  18.948  1.00  0.00     0.200 A 
ATOM     17  C   UNL     1      24.239  16.021  18.782  1.00  0.00     0.161 A 
BRANCH  14  18
ATOM     18  O   UNL     1      26.587  18.578  20.104  1.00  0.00    -0.504 OA
ATOM     19  H   UNL     1      26.652  19.530  19.765  1.00  0.00     0.293 HD
ENDBRANCH  14  18
BRANCH  16  20
ATOM     20  O   UNL     1      26.533  16.545  18.159  1.00  0.00    -0.502 OA
ATOM     21  H   UNL     1      26.733  17.086  17.326  1.00  0.00     0.293 HD
ENDBRANCH  16  20
BRANCH  17  22
ATOM     22  O   UNL     1      24.194  15.017  17.817  1.00  0.00    -0.504 OA
ATOM     23  H   UNL     1      23.942  15.216  16.855  1.00  0.00     0.293 HD
ENDBRANCH  17  22
ENDBRANCH   1  12
BRANCH   2  24
ATOM     24  O   UNL     1      21.982  15.480  22.601  1.00  0.00    -0.381 OA
ATOM     25  H   UNL     1      22.451  16.103  23.216  1.00  0.00     0.211 HD
ENDBRANCH   2  24
BRANCH   6  26
ATOM     26  O   UNL     1      17.141  17.197  23.291  1.00  0.00    -0.507 OA
ATOM     27  H   UNL     1      16.234  16.801  23.072  1.00  0.00     0.293 HD
ENDBRANCH   6  26
BRANCH   8  28
ATOM     28  O   UNL     1      17.065  21.182  20.565  1.00  0.00    -0.508 OA
ATOM     29  H   UNL     1      17.456  21.781  19.848  1.00  0.00     0.293 HD
ENDBRANCH   8  28
TORSDOF 7
ENDMDL
MODEL 7
REMARK VINA RESULT:    -5.249      4.690      6.715
REMARK INTER + INTRA:          -6.858
REMARK INTER:                  -6.561
REMARK INTRA:                  -0.297
REMARK UNBOUND:                -0.382
REMARK SMILES O=C1c2c(O)cc(O)cc2O[C@H](c2cc(O)c(O)c(O)c2)[C@H]1O
REMARK SMILES IDX 12 1 22 2 2 3 1 4 3 5 4 6 6 7 7 8 9 9 10 10 11 11 13 12
REMARK SMILES IDX 14 13 15 14 21 15 17 16 19 17 16 18 18 20 20 22 23 24 5 26
REMARK SMILES IDX 8 28
REMARK H PARENT 16 19 18 21 20 23 23 25 5 27 8 29
REMARK Flexibility Score: inf
ROOT
ATOM      1  C   UNL     1      21.336  16.986  20.597  1.00  0.00     0.240 C 
ATOM      2  C   UNL     1      21.362  15.611  19.904  1.00  0.00     0.231 C 
ATOM      3  C   UNL     1      22.480  15.572  18.889  1.00  0.00     0.202 C 
ATOM      4  O   UNL     1      22.349  14.879  17.843  1.00  0.00    -0.291 OA
ATOM      5  C   UNL     1      23.748  16.288  19.174  1.00  0.00     0.105 A 
ATOM      6  C   UNL     1      24.911  16.121  18.390  1.00  0.00     0.133 A 
ATOM      7  C   UNL     1      26.092  16.790  18.747  1.00  0.00     0.093 A 
ATOM      8  C   UNL     1      26.127  17.614  19.875  1.00  0.00     0.123 A 
ATOM      9  C   UNL     1      24.975  17.783  20.651  1.00  0.00     0.093 A 
ATOM     10  C   UNL     1      23.787  17.137  20.295  1.00  0.00     0.138 A 
ATOM     11  O   UNL     1      22.638  17.339  21.069  1.00  0.00    -0.481 OA
ENDROOT
BRANCH   1  12
ATOM     12  C   UNL     1      20.357  16.994  21.748  1.00  0.00     0.003 A 
ATOM     13  C   UNL     1      19.058  17.497  21.575  1.00  0.00     0.058 A 
ATOM     14  C   UNL     1      18.159  17.533  22.646  1.00  0.00     0.161 A 
ATOM     15  C   UNL     1      20.755  16.545  23.018  1.00  0.00     0.058 A 
ATOM     16  C   UNL     1      18.557  17.070  23.913  1.00  0.00     0.200 A 
ATOM     17  C   UNL     1      19.861  16.576  24.096  1.00  0.00     0.161 A 
BRANCH  14  18
ATOM     18  O   UNL     1      16.875  18.034  22.433  1.00  0.00    -0.504 OA
ATOM     19  H   UNL     1      16.244  17.628  21.752  1.00  0.00     0.293 HD
ENDBRANCH  14  18
BRANCH  16  20
ATOM     20  O   UNL     1      17.653  17.106  24.975  1.00  0.00    -0.502 OA
ATOM     21  H   UNL     1      17.153  16.282  25.286  1.00  0.00     0.293 HD
ENDBRANCH  16  20
BRANCH  17  22
ATOM     22  O   UNL     1      20.263  16.122  25.351  1.00  0.00    -0.504 OA
ATOM     23  H   UNL     1      19.590  15.859  26.062  1.00  0.00     0.293 HD
ENDBRANCH  17  22
ENDBRANCH   1  12
BRANCH   2  24
ATOM     24  O   UNL     1      20.125  15.382  19.277  1.00  0.00    -0.381 OA
ATOM     25  H   UNL     1      19.956  16.157  18.680  1.00  0.00     0.211 HD
ENDBRANCH   2  24
BRANCH   6  26
ATOM     26  O   UNL     1      24.903  15.290  17.270  1.00  0.00    -0.507 OA
ATOM     27  H   UNL     1      25.729  15.159  16.698  1.00  0.00     0.293 HD
ENDBRANCH   6  26
BRANCH   8  28
ATOM     28  O   UNL     1      27.313  18.261  20.216  1.00  0.00    -0.508 OA
ATOM     29  H   UNL     1      27.773  18.897  19.576  1.00  0.00     0.293 HD
ENDBRANCH   8  28
TORSDOF 7
ENDMDL
MODEL 8
REMARK VINA RESULT:    -5.138      2.172      6.768
REMARK INTER + INTRA:          -6.721
REMARK INTER:                  -7.009
REMARK INTRA:                   0.288
REMARK UNBOUND:                -0.382
REMARK SMILES O=C1c2c(O)cc(O)cc2O[C@H](c2cc(O)c(O)c(O)c2)[C@H]1O
REMARK SMILES IDX 12 1 22 2 2 3 1 4 3 5 4 6 6 7 7 8 9 9 10 10 11 11 13 12
REMARK SMILES IDX 14 13 15 14 21 15 17 16 19 17 16 18 18 20 20 22 23 24 5 26
REMARK SMILES IDX 8 28
REMARK H PARENT 16 19 18 21 20 23 23 25 5 27 8 29
REMARK Flexibility Score: inf
ROOT
ATOM      1  C   UNL     1      21.575  19.368  21.299  1.00  0.00     0.240 C 
ATOM      2  C   UNL     1      20.232  18.903  20.704  1.00  0.00     0.231 C 
ATOM      3  C   UNL     1      19.151  19.901  21.042  1.00  0.00     0.202 C 
ATOM      4  O   UNL     1      17.967  19.503  21.213  1.00  0.00    -0.291 OA
ATOM      5  C   UNL     1      19.483  21.346  21.093  1.00  0.00     0.105 A 
ATOM      6  C   UNL     1      18.497  22.353  21.181  1.00  0.00     0.133 A 
ATOM      7  C   UNL     1      18.878  23.703  21.174  1.00  0.00     0.093 A 
ATOM      8  C   UNL     1      20.226  24.059  21.072  1.00  0.00     0.123 A 
ATOM      9  C   UNL     1      21.205  23.063  20.988  1.00  0.00     0.093 A 
ATOM     10  C   UNL     1      20.839  21.713  21.014  1.00  0.00     0.138 A 
ATOM     11  O   UNL     1      21.834  20.731  20.955  1.00  0.00    -0.481 OA
ENDROOT
BRANCH   1  12
ATOM     12  C   UNL     1      22.712  18.496  20.819  1.00  0.00     0.003 A 
ATOM     13  C   UNL     1      23.969  19.055  20.538  1.00  0.00     0.058 A 
ATOM     14  C   UNL     1      25.016  18.256  20.066  1.00  0.00     0.161 A 
ATOM     15  C   UNL     1      22.508  17.124  20.600  1.00  0.00     0.058 A 
ATOM     16  C   UNL     1      24.810  16.880  19.861  1.00  0.00     0.200 A 
ATOM     17  C   UNL     1      23.550  16.316  20.128  1.00  0.00     0.161 A 
BRANCH  14  18
ATOM     18  O   UNL     1      26.251  18.847  19.805  1.00  0.00    -0.504 OA
ATOM     19  H   UNL     1      27.098  18.560  20.282  1.00  0.00     0.293 HD
ENDBRANCH  14  18
BRANCH  16  20
ATOM     20  O   UNL     1      25.860  16.090  19.393  1.00  0.00    -0.502 OA
ATOM     21  H   UNL     1      25.735  15.411  18.651  1.00  0.00     0.293 HD
ENDBRANCH  16  20
BRANCH  17  22
ATOM     22  O   UNL     1      23.339  14.954  19.920  1.00  0.00    -0.504 OA
ATOM     23  H   UNL     1      23.392  14.286  20.681  1.00  0.00     0.293 HD
ENDBRANCH  17  22
ENDBRANCH   1  12
BRANCH   2  24
ATOM     24  O   UNL     1      19.909  17.637  21.221  1.00  0.00    -0.381 OA
ATOM     25  H   UNL     1      20.249  16.965  20.573  1.00  0.00     0.211 HD
ENDBRANCH   2  24
BRANCH   6  26
ATOM     26  O   UNL     1      17.144  22.021  21.266  1.00  0.00    -0.507 OA
ATOM     27  H   UNL     1      16.840  21.076  21.465  1.00  0.00     0.293 HD
ENDBRANCH   6  26
BRANCH   8  28
ATOM     28  O   UNL     1      20.582  25.406  21.057  1.00  0.00    -0.508 OA
ATOM     29  H   UNL     1      20.564  25.949  20.203  1.00  0.00     0.293 HD
ENDBRANCH   8  28
TORSDOF 7
ENDMDL
MODEL 9
REMARK VINA RESULT:    -4.965      2.183      2.868
REMARK INTER + INTRA:          -6.508
REMARK INTER:                  -6.504
REMARK INTRA:                  -0.004
REMARK UNBOUND:                -0.382
REMARK SMILES O=C1c2c(O)cc(O)cc2O[C@H](c2cc(O)c(O)c(O)c2)[C@H]1O
REMARK SMILES IDX 12 1 22 2 2 3 1 4 3 5 4 6 6 7 7 8 9 9 10 10 11 11 13 12
REMARK SMILES IDX 14 13 15 14 21 15 17 16 19 17 16 18 18 20 20 22 23 24 5 26
REMARK SMILES IDX 8 28
REMARK H PARENT 16 19 18 21 20 23 23 25 5 27 8 29
REMARK Flexibility Score: inf
ROOT
ATOM      1  C   UNL     1      18.021  20.765  19.925  1.00  0.00     0.240 C 
ATOM      2  C   UNL     1      18.043  20.192  21.355  1.00  0.00     0.231 C 
ATOM      3  C   UNL     1      17.499  18.783  21.348  1.00  0.00     0.202 C 
ATOM      4  O   UNL     1      16.875  18.352  22.355  1.00  0.00    -0.291 OA
ATOM      5  C   UNL     1      17.774  17.901  20.187  1.00  0.00     0.105 A 
ATOM      6  C   UNL     1      17.497  16.517  20.198  1.00  0.00     0.133 A 
ATOM      7  C   UNL     1      17.829  15.732  19.084  1.00  0.00     0.093 A 
ATOM      8  C   UNL     1      18.440  16.308  17.967  1.00  0.00     0.123 A 
ATOM      9  C   UNL     1      18.712  17.680  17.953  1.00  0.00     0.093 A 
ATOM     10  C   UNL     1      18.368  18.477  19.049  1.00  0.00     0.138 A 
ATOM     11  O   UNL     1      18.626  19.852  19.006  1.00  0.00    -0.481 OA
ENDROOT
BRANCH   1  12
ATOM     12  C   UNL     1      18.734  22.096  19.863  1.00  0.00     0.003 A 
ATOM     13  C   UNL     1      19.483  22.555  20.959  1.00  0.00     0.058 A 
ATOM     14  C   UNL     1      20.120  23.799  20.916  1.00  0.00     0.161 A 
ATOM     15  C   UNL     1      18.612  22.912  18.727  1.00  0.00     0.058 A 
ATOM     16  C   UNL     1      20.006  24.607  19.771  1.00  0.00     0.200 A 
ATOM     17  C   UNL     1      19.247  24.160  18.675  1.00  0.00     0.161 A 
BRANCH  14  18
ATOM     18  O   UNL     1      20.860  24.217  22.022  1.00  0.00    -0.504 OA
ATOM     19  H   UNL     1      21.620  24.882  21.942  1.00  0.00     0.293 HD
ENDBRANCH  14  18
BRANCH  16  20
ATOM     20  O   UNL     1      20.647  25.846  19.736  1.00  0.00    -0.502 OA
ATOM     21  H   UNL     1      21.515  25.990  19.234  1.00  0.00     0.293 HD
ENDBRANCH  16  20
BRANCH  17  22
ATOM     22  O   UNL     1      19.125  24.959  17.540  1.00  0.00    -0.504 OA
ATOM     23  H   UNL     1      19.464  25.915  17.524  1.00  0.00     0.293 HD
ENDBRANCH  17  22
ENDBRANCH   1  12
BRANCH   2  24
ATOM     24  O   UNL     1      17.270  21.011  22.195  1.00  0.00    -0.381 OA
ATOM     25  H   UNL     1      16.606  21.472  21.618  1.00  0.00     0.211 HD
ENDBRANCH   2  24
BRANCH   6  26
ATOM     26  O   UNL     1      16.903  15.917  21.309  1.00  0.00    -0.507 OA
ATOM     27  H   UNL     1      17.451  15.426  22.005  1.00  0.00     0.293 HD
ENDBRANCH   6  26
BRANCH   8  28
ATOM     28  O   UNL     1      18.770  15.508  16.875  1.00  0.00    -0.508 OA
ATOM     29  H   UNL     1      18.616  15.820  15.924  1.00  0.00     0.293 HD
ENDBRANCH   8  28
TORSDOF 7
ENDMDL
