MODEL 1
REMARK VINA RESULT:    -4.605      0.000      0.000
REMARK INTER + INTRA:          -6.899
REMARK INTER:                  -6.355
REMARK INTRA:                  -0.544
REMARK UNBOUND:                -0.544
REMARK SMILES OC[C@H](O)C(O)[C@@H](O)CO
REMARK SMILES IDX 5 1 7 2 9 3 10 4 8 6 3 8 2 9 1 10 4 12 6 14
REMARK H PARENT 10 5 8 7 1 11 4 13 6 15
REMARK Flexibility Score: inf
ROOT
ATOM      1  C   UNL     1       5.671   5.146  12.581  1.00  0.00     0.176 C 
ENDROOT
BRANCH   1   2
ATOM      2  C   UNL     1       4.944   3.770  12.537  1.00  0.00     0.171 C 
BRANCH   2   3
ATOM      3  C   UNL     1       5.735   2.701  11.756  1.00  0.00     0.190 C 
BRANCH   3   4
ATOM      4  O   UNL     1       6.890   2.314  12.452  1.00  0.00    -0.394 OA
ATOM      5  H   UNL     1       6.653   1.507  12.979  1.00  0.00     0.210 HD
ENDBRANCH   3   4
ENDBRANCH   2   3
BRANCH   2   6
ATOM      6  O   UNL     1       3.648   3.880  12.003  1.00  0.00    -0.388 OA
ATOM      7  H   UNL     1       3.039   4.164  12.734  1.00  0.00     0.211 HD
ENDBRANCH   2   6
ENDBRANCH   1   2
BRANCH   1   8
ATOM      8  C   UNL     1       6.199   5.508  13.997  1.00  0.00     0.171 C 
BRANCH   8   9
ATOM      9  C   UNL     1       7.159   6.714  14.008  1.00  0.00     0.190 C 
BRANCH   9  10
ATOM     10  O   UNL     1       6.477   7.858  14.442  1.00  0.00    -0.394 OA
ATOM     11  H   UNL     1       5.850   7.555  15.150  1.00  0.00     0.210 HD
ENDBRANCH   9  10
ENDBRANCH   8   9
BRANCH   8  12
ATOM     12  O   UNL     1       6.833   4.393  14.574  1.00  0.00    -0.388 OA
ATOM     13  H   UNL     1       7.775   4.647  14.759  1.00  0.00     0.211 HD
ENDBRANCH   8  12
ENDBRANCH   1   8
BRANCH   1  14
ATOM     14  O   UNL     1       6.764   5.109  11.696  1.00  0.00    -0.388 OA
ATOM     15  H   UNL     1       7.233   5.983  11.767  1.00  0.00     0.211 HD
ENDBRANCH   1  14
TORSDOF 9
ENDMDL
MODEL 2
REMARK VINA RESULT:    -4.470      1.257      4.246
REMARK INTER + INTRA:          -6.712
REMARK INTER:                  -6.130
REMARK INTRA:                  -0.582
REMARK UNBOUND:                -0.544
REMARK SMILES OC[C@H](O)C(O)[C@@H](O)CO
REMARK SMILES IDX 5 1 7 2 9 3 10 4 8 6 3 8 2 9 1 10 4 12 6 14
REMARK H PARENT 10 5 8 7 1 11 4 13 6 15
REMARK Flexibility Score: inf
ROOT
ATOM      1  C   UNL     1       6.158   5.386  14.315  1.00  0.00     0.176 C 
ENDROOT
BRANCH   1   2
ATOM      2  C   UNL     1       7.095   6.615  14.500  1.00  0.00     0.171 C 
BRANCH   2   3
ATOM      3  C   UNL     1       7.741   6.668  15.899  1.00  0.00     0.190 C 
BRANCH   3   4
ATOM      4  O   UNL     1       9.078   6.241  15.859  1.00  0.00    -0.394 OA
ATOM      5  H   UNL     1       9.499   6.530  16.710  1.00  0.00     0.210 HD
ENDBRANCH   3   4
ENDBRANCH   2   3
BRANCH   2   6
ATOM      6  O   UNL     1       6.427   7.825  14.245  1.00  0.00    -0.388 OA
ATOM      7  H   UNL     1       6.648   8.457  14.978  1.00  0.00     0.211 HD
ENDBRANCH   2   6
ENDBRANCH   1   2
BRANCH   1   8
ATOM      8  C   UNL     1       5.829   5.093  12.823  1.00  0.00     0.171 C 
BRANCH   8   9
ATOM      9  C   UNL     1       5.590   3.601  12.526  1.00  0.00     0.190 C 
BRANCH   9  10
ATOM     10  O   UNL     1       6.818   2.938  12.406  1.00  0.00    -0.394 OA
ATOM     11  H   UNL     1       6.927   2.731  11.441  1.00  0.00     0.210 HD
ENDBRANCH   9  10
ENDBRANCH   8   9
BRANCH   8  12
ATOM     12  O   UNL     1       6.859   5.582  11.999  1.00  0.00    -0.388 OA
ATOM     13  H   UNL     1       6.599   6.494  11.706  1.00  0.00     0.211 HD
ENDBRANCH   8  12
ENDBRANCH   1   8
BRANCH   1  14
ATOM     14  O   UNL     1       6.786   4.251  14.861  1.00  0.00    -0.388 OA
ATOM     15  H   UNL     1       7.756   4.323  14.660  1.00  0.00     0.211 HD
ENDBRANCH   1  14
TORSDOF 9
ENDMDL
MODEL 3
REMARK VINA RESULT:    -4.171      1.646      3.804
REMARK INTER + INTRA:          -6.300
REMARK INTER:                  -5.588
REMARK INTRA:                  -0.712
REMARK UNBOUND:                -0.544
REMARK SMILES OC[C@H](O)C(O)[C@@H](O)CO
REMARK SMILES IDX 5 1 7 2 9 3 10 4 8 6 3 8 2 9 1 10 4 12 6 14
REMARK H PARENT 10 5 8 7 1 11 4 13 6 15
REMARK Flexibility Score: inf
ROOT
ATOM      1  C   UNL     1       5.492   3.050  12.214  1.00  0.00     0.176 C 
ENDROOT
BRANCH   1   2
ATOM      2  C   UNL     1       5.426   4.513  12.743  1.00  0.00     0.171 C 
BRANCH   2   3
ATOM      3  C   UNL     1       5.771   4.623  14.242  1.00  0.00     0.190 C 
BRANCH   3   4
ATOM      4  O   UNL     1       7.156   4.738  14.438  1.00  0.00    -0.394 OA
ATOM      5  H   UNL     1       7.302   5.542  15.002  1.00  0.00     0.210 HD
ENDBRANCH   3   4
ENDBRANCH   2   3
BRANCH   2   6
ATOM      6  O   UNL     1       4.169   5.098  12.506  1.00  0.00    -0.388 OA
ATOM      7  H   UNL     1       3.940   4.951  11.551  1.00  0.00     0.211 HD
ENDBRANCH   2   6
ENDBRANCH   1   2
BRANCH   1   8
ATOM      8  C   UNL     1       5.301   2.953  10.674  1.00  0.00     0.171 C 
BRANCH   8   9
ATOM      9  C   UNL     1       6.263   3.854   9.876  1.00  0.00     0.190 C 
BRANCH   9  10
ATOM     10  O   UNL     1       7.589   3.520  10.182  1.00  0.00    -0.394 OA
ATOM     11  H   UNL     1       7.562   2.604  10.564  1.00  0.00     0.210 HD
ENDBRANCH   9  10
ENDBRANCH   8   9
BRANCH   8  12
ATOM     12  O   UNL     1       3.971   3.261  10.334  1.00  0.00    -0.388 OA
ATOM     13  H   UNL     1       3.997   3.881   9.558  1.00  0.00     0.211 HD
ENDBRANCH   8  12
ENDBRANCH   1   8
BRANCH   1  14
ATOM     14  O   UNL     1       6.749   2.508  12.540  1.00  0.00    -0.388 OA
ATOM     15  H   UNL     1       6.695   2.177  13.475  1.00  0.00     0.211 HD
ENDBRANCH   1  14
TORSDOF 9
ENDMDL
MODEL 4
REMARK VINA RESULT:    -4.103      1.328      4.016
REMARK INTER + INTRA:          -6.206
REMARK INTER:                  -6.025
REMARK INTRA:                  -0.181
REMARK UNBOUND:                -0.544
REMARK SMILES OC[C@H](O)C(O)[C@@H](O)CO
REMARK SMILES IDX 5 1 7 2 9 3 10 4 8 6 3 8 2 9 1 10 4 12 6 14
REMARK H PARENT 10 5 8 7 1 11 4 13 6 15
REMARK Flexibility Score: inf
ROOT
ATOM      1  C   UNL     1       5.316   4.607  12.113  1.00  0.00     0.176 C 
ENDROOT
BRANCH   1   2
ATOM      2  C   UNL     1       5.766   4.987  13.554  1.00  0.00     0.171 C 
BRANCH   2   3
ATOM      3  C   UNL     1       6.588   6.290  13.600  1.00  0.00     0.190 C 
BRANCH   3   4
ATOM      4  O   UNL     1       6.343   7.005  14.783  1.00  0.00    -0.394 OA
ATOM      5  H   UNL     1       7.143   7.567  14.952  1.00  0.00     0.210 HD
ENDBRANCH   3   4
ENDBRANCH   2   3
BRANCH   2   6
ATOM      6  O   UNL     1       6.495   3.950  14.164  1.00  0.00    -0.388 OA
ATOM      7  H   UNL     1       7.051   4.350  14.884  1.00  0.00     0.211 HD
ENDBRANCH   2   6
ENDBRANCH   1   2
BRANCH   1   8
ATOM      8  C   UNL     1       6.060   3.361  11.554  1.00  0.00     0.171 C 
BRANCH   8   9
ATOM      9  C   UNL     1       6.514   3.520  10.090  1.00  0.00     0.190 C 
BRANCH   9  10
ATOM     10  O   UNL     1       7.905   3.677  10.040  1.00  0.00    -0.394 OA
ATOM     11  H   UNL     1       8.130   4.361  10.724  1.00  0.00     0.210 HD
ENDBRANCH   9  10
ENDBRANCH   8   9
BRANCH   8  12
ATOM     12  O   UNL     1       5.245   2.220  11.677  1.00  0.00    -0.388 OA
ATOM     13  H   UNL     1       5.428   1.817  12.566  1.00  0.00     0.211 HD
ENDBRANCH   8  12
ENDBRANCH   1   8
BRANCH   1  14
ATOM     14  O   UNL     1       3.937   4.331  12.128  1.00  0.00    -0.388 OA
ATOM     15  H   UNL     1       3.808   3.489  12.640  1.00  0.00     0.211 HD
ENDBRANCH   1  14
TORSDOF 9
ENDMDL
MODEL 5
REMARK VINA RESULT:    -4.072      2.941      4.588
REMARK INTER + INTRA:          -6.162
REMARK INTER:                  -5.897
REMARK INTRA:                  -0.265
REMARK UNBOUND:                -0.544
REMARK SMILES OC[C@H](O)C(O)[C@@H](O)CO
REMARK SMILES IDX 5 1 7 2 9 3 10 4 8 6 3 8 2 9 1 10 4 12 6 14
REMARK H PARENT 10 5 8 7 1 11 4 13 6 15
REMARK Flexibility Score: inf
ROOT
ATOM      1  C   UNL     1       3.423   2.459  11.750  1.00  0.00     0.176 C 
ENDROOT
BRANCH   1   2
ATOM      2  C   UNL     1       3.202   0.926  11.598  1.00  0.00     0.171 C 
BRANCH   2   3
ATOM      3  C   UNL     1       1.876   0.449  12.224  1.00  0.00     0.190 C 
BRANCH   3   4
ATOM      4  O   UNL     1       1.970  -0.881  12.662  1.00  0.00    -0.394 OA
ATOM      5  H   UNL     1       2.519  -1.368  11.994  1.00  0.00     0.210 HD
ENDBRANCH   3   4
ENDBRANCH   2   3
BRANCH   2   6
ATOM      6  O   UNL     1       4.270   0.188  12.138  1.00  0.00    -0.388 OA
ATOM      7  H   UNL     1       4.314   0.382  13.111  1.00  0.00     0.211 HD
ENDBRANCH   2   6
ENDBRANCH   1   2
BRANCH   1   8
ATOM      8  C   UNL     1       4.764   2.943  11.128  1.00  0.00     0.171 C 
BRANCH   8   9
ATOM      9  C   UNL     1       5.829   3.321  12.176  1.00  0.00     0.190 C 
BRANCH   9  10
ATOM     10  O   UNL     1       6.684   2.233  12.396  1.00  0.00    -0.394 OA
ATOM     11  H   UNL     1       6.252   1.450  11.965  1.00  0.00     0.210 HD
ENDBRANCH   9  10
ENDBRANCH   8   9
BRANCH   8  12
ATOM     12  O   UNL     1       4.531   4.036  10.274  1.00  0.00    -0.388 OA
ATOM     13  H   UNL     1       4.401   3.676   9.357  1.00  0.00     0.211 HD
ENDBRANCH   8  12
ENDBRANCH   1   8
BRANCH   1  14
ATOM     14  O   UNL     1       2.368   3.135  11.109  1.00  0.00    -0.388 OA
ATOM     15  H   UNL     1       2.330   2.805  10.173  1.00  0.00     0.211 HD
ENDBRANCH   1  14
TORSDOF 9
ENDMDL
MODEL 6
REMARK VINA RESULT:    -4.017      2.964      4.111
REMARK INTER + INTRA:          -6.087
REMARK INTER:                  -5.606
REMARK INTRA:                  -0.481
REMARK UNBOUND:                -0.544
REMARK SMILES OC[C@H](O)C(O)[C@@H](O)CO
REMARK SMILES IDX 5 1 7 2 9 3 10 4 8 6 3 8 2 9 1 10 4 12 6 14
REMARK H PARENT 10 5 8 7 1 11 4 13 6 15
REMARK Flexibility Score: inf
ROOT
ATOM      1  C   UNL     1       4.498   3.067  12.070  1.00  0.00     0.176 C 
ENDROOT
BRANCH   1   2
ATOM      2  C   UNL     1       3.547   2.109  11.295  1.00  0.00     0.171 C 
BRANCH   2   3
ATOM      3  C   UNL     1       2.059   2.470  11.475  1.00  0.00     0.190 C 
BRANCH   3   4
ATOM      4  O   UNL     1       1.610   3.307  10.441  1.00  0.00    -0.394 OA
ATOM      5  H   UNL     1       0.623   3.366  10.526  1.00  0.00     0.210 HD
ENDBRANCH   3   4
ENDBRANCH   2   3
BRANCH   2   6
ATOM      6  O   UNL     1       3.752   0.766  11.655  1.00  0.00    -0.388 OA
ATOM      7  H   UNL     1       3.883   0.243  10.820  1.00  0.00     0.211 HD
ENDBRANCH   2   6
ENDBRANCH   1   2
BRANCH   1   8
ATOM      8  C   UNL     1       5.998   2.846  11.722  1.00  0.00     0.171 C 
BRANCH   8   9
ATOM      9  C   UNL     1       6.345   3.175  10.257  1.00  0.00     0.190 C 
BRANCH   9  10
ATOM     10  O   UNL     1       7.695   3.534  10.159  1.00  0.00    -0.394 OA
ATOM     11  H   UNL     1       8.214   2.747  10.472  1.00  0.00     0.210 HD
ENDBRANCH   9  10
ENDBRANCH   8   9
BRANCH   8  12
ATOM     12  O   UNL     1       6.368   1.520  12.011  1.00  0.00    -0.388 OA
ATOM     13  H   UNL     1       6.363   1.417  12.999  1.00  0.00     0.211 HD
ENDBRANCH   8  12
ENDBRANCH   1   8
BRANCH   1  14
ATOM     14  O   UNL     1       4.161   4.396  11.753  1.00  0.00    -0.388 OA
ATOM     15  H   UNL     1       3.264   4.574  12.140  1.00  0.00     0.211 HD
ENDBRANCH   1  14
TORSDOF 9
ENDMDL
MODEL 7
REMARK VINA RESULT:    -3.962      2.995      5.274
REMARK INTER + INTRA:          -6.011
REMARK INTER:                  -5.530
REMARK INTRA:                  -0.481
REMARK UNBOUND:                -0.544
REMARK SMILES OC[C@H](O)C(O)[C@@H](O)CO
REMARK SMILES IDX 5 1 7 2 9 3 10 4 8 6 3 8 2 9 1 10 4 12 6 14
REMARK H PARENT 10 5 8 7 1 11 4 13 6 15
REMARK Flexibility Score: inf
ROOT
ATOM      1  C   UNL     1       3.346   2.061  11.737  1.00  0.00     0.176 C 
ENDROOT
BRANCH   1   2
ATOM      2  C   UNL     1       4.418   3.155  11.457  1.00  0.00     0.171 C 
BRANCH   2   3
ATOM      3  C   UNL     1       5.812   2.777  11.996  1.00  0.00     0.190 C 
BRANCH   3   4
ATOM      4  O   UNL     1       5.991   1.385  12.014  1.00  0.00    -0.394 OA
ATOM      5  H   UNL     1       5.546   1.047  12.834  1.00  0.00     0.210 HD
ENDBRANCH   3   4
ENDBRANCH   2   3
BRANCH   2   6
ATOM      6  O   UNL     1       4.035   4.405  11.975  1.00  0.00    -0.388 OA
ATOM      7  H   UNL     1       3.069   4.531  11.786  1.00  0.00     0.211 HD
ENDBRANCH   2   6
ENDBRANCH   1   2
BRANCH   1   8
ATOM      8  C   UNL     1       1.893   2.616  11.719  1.00  0.00     0.171 C 
BRANCH   8   9
ATOM      9  C   UNL     1       0.817   1.535  11.936  1.00  0.00     0.190 C 
BRANCH   9  10
ATOM     10  O   UNL     1      -0.255   2.071  12.660  1.00  0.00    -0.394 OA
ATOM     11  H   UNL     1      -0.199   1.676  13.570  1.00  0.00     0.210 HD
ENDBRANCH   9  10
ENDBRANCH   8   9
BRANCH   8  12
ATOM     12  O   UNL     1       1.651   3.290  10.507  1.00  0.00    -0.388 OA
ATOM     13  H   UNL     1       2.185   2.837   9.803  1.00  0.00     0.211 HD
ENDBRANCH   8  12
ENDBRANCH   1   8
BRANCH   1  14
ATOM     14  O   UNL     1       3.451   1.062  10.751  1.00  0.00    -0.388 OA
ATOM     15  H   UNL     1       3.703   0.218  11.210  1.00  0.00     0.211 HD
ENDBRANCH   1  14
TORSDOF 9
ENDMDL
MODEL 8
REMARK VINA RESULT:    -3.940      1.892      4.481
REMARK INTER + INTRA:          -5.981
REMARK INTER:                  -5.442
REMARK INTRA:                  -0.539
REMARK UNBOUND:                -0.544
REMARK SMILES OC[C@H](O)C(O)[C@@H](O)CO
REMARK SMILES IDX 5 1 7 2 9 3 10 4 8 6 3 8 2 9 1 10 4 12 6 14
REMARK H PARENT 10 5 8 7 1 11 4 13 6 15
REMARK Flexibility Score: inf
ROOT
ATOM      1  C   UNL     1       4.873   2.899  10.969  1.00  0.00     0.176 C 
ENDROOT
BRANCH   1   2
ATOM      2  C   UNL     1       5.564   3.157  12.340  1.00  0.00     0.171 C 
BRANCH   2   3
ATOM      3  C   UNL     1       5.619   4.652  12.710  1.00  0.00     0.190 C 
BRANCH   3   4
ATOM      4  O   UNL     1       6.670   5.303  12.044  1.00  0.00    -0.394 OA
ATOM      5  H   UNL     1       7.324   5.578  12.737  1.00  0.00     0.210 HD
ENDBRANCH   3   4
ENDBRANCH   2   3
BRANCH   2   6
ATOM      6  O   UNL     1       6.860   2.614  12.382  1.00  0.00    -0.388 OA
ATOM      7  H   UNL     1       7.307   2.823  11.520  1.00  0.00     0.211 HD
ENDBRANCH   2   6
ENDBRANCH   1   2
BRANCH   1   8
ATOM      8  C   UNL     1       3.609   2.001  11.085  1.00  0.00     0.171 C 
BRANCH   8   9
ATOM      9  C   UNL     1       2.437   2.678  11.822  1.00  0.00     0.190 C 
BRANCH   9  10
ATOM     10  O   UNL     1       1.574   3.273  10.893  1.00  0.00    -0.394 OA
ATOM     11  H   UNL     1       1.137   2.527  10.404  1.00  0.00     0.210 HD
ENDBRANCH   9  10
ENDBRANCH   8   9
BRANCH   8  12
ATOM     12  O   UNL     1       3.936   0.792  11.726  1.00  0.00    -0.388 OA
ATOM     13  H   UNL     1       3.141   0.199  11.668  1.00  0.00     0.211 HD
ENDBRANCH   8  12
ENDBRANCH   1   8
BRANCH   1  14
ATOM     14  O   UNL     1       4.489   4.135  10.416  1.00  0.00    -0.388 OA
ATOM     15  H   UNL     1       3.758   3.956   9.767  1.00  0.00     0.211 HD
ENDBRANCH   1  14
TORSDOF 9
ENDMDL
MODEL 9
REMARK VINA RESULT:    -3.906      2.040      3.272
REMARK INTER + INTRA:          -5.934
REMARK INTER:                  -5.283
REMARK INTRA:                  -0.651
REMARK UNBOUND:                -0.544
REMARK SMILES OC[C@H](O)C(O)[C@@H](O)CO
REMARK SMILES IDX 5 1 7 2 9 3 10 4 8 6 3 8 2 9 1 10 4 12 6 14
REMARK H PARENT 10 5 8 7 1 11 4 13 6 15
REMARK Flexibility Score: inf
ROOT
ATOM      1  C   UNL     1       5.067   2.478  11.362  1.00  0.00     0.176 C 
ENDROOT
BRANCH   1   2
ATOM      2  C   UNL     1       3.613   2.312  11.893  1.00  0.00     0.171 C 
BRANCH   2   3
ATOM      3  C   UNL     1       3.025   0.917  11.599  1.00  0.00     0.190 C 
BRANCH   3   4
ATOM      4  O   UNL     1       3.799  -0.095  12.185  1.00  0.00    -0.394 OA
ATOM      5  H   UNL     1       3.926  -0.797  11.496  1.00  0.00     0.210 HD
ENDBRANCH   3   4
ENDBRANCH   2   3
BRANCH   2   6
ATOM      6  O   UNL     1       2.754   3.302  11.382  1.00  0.00    -0.388 OA
ATOM      7  H   UNL     1       2.032   2.847  10.874  1.00  0.00     0.211 HD
ENDBRANCH   2   6
ENDBRANCH   1   2
BRANCH   1   8
ATOM      8  C   UNL     1       5.611   3.926  11.525  1.00  0.00     0.171 C 
BRANCH   8   9
ATOM      9  C   UNL     1       5.481   4.475  12.959  1.00  0.00     0.190 C 
BRANCH   9  10
ATOM     10  O   UNL     1       6.476   3.916  13.772  1.00  0.00    -0.394 OA
ATOM     11  H   UNL     1       6.971   4.681  14.168  1.00  0.00     0.210 HD
ENDBRANCH   9  10
ENDBRANCH   8   9
BRANCH   8  12
ATOM     12  O   UNL     1       4.958   4.789  10.626  1.00  0.00    -0.388 OA
ATOM     13  H   UNL     1       4.021   4.471  10.535  1.00  0.00     0.211 HD
ENDBRANCH   8  12
ENDBRANCH   1   8
BRANCH   1  14
ATOM     14  O   UNL     1       5.911   1.605  12.073  1.00  0.00    -0.388 OA
ATOM     15  H   UNL     1       6.794   2.052  12.161  1.00  0.00     0.211 HD
ENDBRANCH   1  14
TORSDOF 9
ENDMDL
