MODEL 1
REMARK VINA RESULT:    -2.986      0.000      0.000
REMARK INTER + INTRA:          -6.443
REMARK INTER:                  -4.731
REMARK INTRA:                  -1.712
REMARK UNBOUND:                -1.712
REMARK SMILES CCCCCCCCCCCC(=O)[O-]
REMARK SMILES IDX 7 1 8 2 9 3 10 4 11 5 12 6 13 7 14 8 6 9 5 10 4 11 3 12 2 13
REMARK SMILES IDX 1 14
REMARK H PARENT
REMARK Flexibility Score: inf
ROOT
ATOM      1  C   UNL     1      87.394  30.244  29.101  1.00  0.00     0.000 C 
ENDROOT
BRANCH   1   2
ATOM      2  C   UNL     1      88.891  30.225  28.746  1.00  0.00     0.000 C 
BRANCH   2   3
ATOM      3  C   UNL     1      89.384  28.827  28.342  1.00  0.00     0.000 C 
BRANCH   3   4
ATOM      4  C   UNL     1      89.554  28.673  26.820  1.00  0.00     0.006 C 
BRANCH   4   5
ATOM      5  C   UNL     1      89.794  30.020  26.125  1.00  0.00     0.053 C 
BRANCH   5   6
ATOM      6  C   UNL     1      89.046  30.118  24.831  1.00  0.00     0.041 C 
ATOM      7  O   UNL     1      88.082  29.344  24.596  1.00  0.00    -0.550 OA
ATOM      8  O   UNL     1      89.391  31.090  23.899  1.00  0.00    -0.550 OA
ENDBRANCH   5   6
ENDBRANCH   4   5
ENDBRANCH   3   4
ENDBRANCH   2   3
ENDBRANCH   1   2
BRANCH   1   9
ATOM      9  C   UNL     1      86.561  31.075  28.110  1.00  0.00     0.000 C 
BRANCH   9  10
ATOM     10  C   UNL     1      85.793  30.198  27.106  1.00  0.00    -0.000 C 
BRANCH  10  11
ATOM     11  C   UNL     1      85.434  28.818  27.680  1.00  0.00    -0.000 C 
BRANCH  11  12
ATOM     12  C   UNL     1      85.783  27.668  26.719  1.00  0.00    -0.000 C 
BRANCH  12  13
ATOM     13  C   UNL     1      86.488  26.502  27.428  1.00  0.00    -0.003 C 
ATOM     14  C   UNL     1      86.447  26.623  28.952  1.00  0.00     0.004 C 
ENDBRANCH  12  13
ENDBRANCH  11  12
ENDBRANCH  10  11
ENDBRANCH   9  10
ENDBRANCH   1   9
TORSDOF 10
ENDMDL
MODEL 2
REMARK VINA RESULT:    -2.911      3.114      5.097
REMARK INTER + INTRA:          -6.324
REMARK INTER:                  -4.761
REMARK INTRA:                  -1.562
REMARK UNBOUND:                -1.712
REMARK SMILES CCCCCCCCCCCC(=O)[O-]
REMARK SMILES IDX 7 1 8 2 9 3 10 4 11 5 12 6 13 7 14 8 6 9 5 10 4 11 3 12 2 13
REMARK SMILES IDX 1 14
REMARK H PARENT
REMARK Flexibility Score: inf
ROOT
ATOM      1  C   UNL     1      85.422  30.041  27.345  1.00  0.00     0.000 C 
ENDROOT
BRANCH   1   2
ATOM      2  C   UNL     1      84.921  28.589  27.444  1.00  0.00     0.000 C 
BRANCH   2   3
ATOM      3  C   UNL     1      85.676  27.639  26.501  1.00  0.00     0.000 C 
BRANCH   3   4
ATOM      4  C   UNL     1      86.519  26.598  27.257  1.00  0.00     0.006 C 
BRANCH   4   5
ATOM      5  C   UNL     1      85.935  26.271  28.639  1.00  0.00     0.053 C 
BRANCH   5   6
ATOM      6  C   UNL     1      85.382  24.880  28.693  1.00  0.00     0.041 C 
ATOM      7  O   UNL     1      84.329  24.642  29.340  1.00  0.00    -0.550 OA
ATOM      8  O   UNL     1      86.009  23.854  27.997  1.00  0.00    -0.550 OA
ENDBRANCH   5   6
ENDBRANCH   4   5
ENDBRANCH   3   4
ENDBRANCH   2   3
ENDBRANCH   1   2
BRANCH   1   9
ATOM      9  C   UNL     1      86.014  30.554  28.668  1.00  0.00     0.000 C 
BRANCH   9  10
ATOM     10  C   UNL     1      87.553  30.580  28.656  1.00  0.00    -0.000 C 
BRANCH  10  11
ATOM     11  C   UNL     1      88.169  29.294  29.231  1.00  0.00    -0.000 C 
BRANCH  11  12
ATOM     12  C   UNL     1      89.346  28.774  28.387  1.00  0.00    -0.000 C 
BRANCH  12  13
ATOM     13  C   UNL     1      89.519  29.554  27.074  1.00  0.00    -0.003 C 
ATOM     14  C   UNL     1      89.287  28.688  25.836  1.00  0.00     0.004 C 
ENDBRANCH  12  13
ENDBRANCH  11  12
ENDBRANCH  10  11
ENDBRANCH   9  10
ENDBRANCH   1   9
TORSDOF 10
ENDMDL
MODEL 3
REMARK VINA RESULT:    -2.895      3.263      5.349
REMARK INTER + INTRA:          -6.299
REMARK INTER:                  -4.882
REMARK INTRA:                  -1.417
REMARK UNBOUND:                -1.712
REMARK SMILES CCCCCCCCCCCC(=O)[O-]
REMARK SMILES IDX 7 1 8 2 9 3 10 4 11 5 12 6 13 7 14 8 6 9 5 10 4 11 3 12 2 13
REMARK SMILES IDX 1 14
REMARK H PARENT
REMARK Flexibility Score: inf
ROOT
ATOM      1  C   UNL     1      87.162  28.797  25.479  1.00  0.00     0.000 C 
ENDROOT
BRANCH   1   2
ATOM      2  C   UNL     1      86.631  27.423  25.033  1.00  0.00     0.000 C 
BRANCH   2   3
ATOM      3  C   UNL     1      85.980  26.640  26.184  1.00  0.00     0.000 C 
BRANCH   3   4
ATOM      4  C   UNL     1      86.185  27.312  27.552  1.00  0.00     0.006 C 
BRANCH   4   5
ATOM      5  C   UNL     1      86.495  26.292  28.657  1.00  0.00     0.053 C 
BRANCH   5   6
ATOM      6  C   UNL     1      85.441  25.232  28.746  1.00  0.00     0.041 C 
ATOM      7  O   UNL     1      85.732  24.029  28.519  1.00  0.00    -0.550 OA
ATOM      8  O   UNL     1      84.145  25.569  29.116  1.00  0.00    -0.550 OA
ENDBRANCH   5   6
ENDBRANCH   4   5
ENDBRANCH   3   4
ENDBRANCH   2   3
ENDBRANCH   1   2
BRANCH   1   9
ATOM      9  C   UNL     1      88.634  29.017  25.094  1.00  0.00     0.000 C 
BRANCH   9  10
ATOM     10  C   UNL     1      89.475  29.563  26.261  1.00  0.00    -0.000 C 
BRANCH  10  11
ATOM     11  C   UNL     1      89.747  28.501  27.339  1.00  0.00    -0.000 C 
BRANCH  11  12
ATOM     12  C   UNL     1      89.250  28.929  28.731  1.00  0.00    -0.000 C 
BRANCH  12  13
ATOM     13  C   UNL     1      88.730  30.375  28.750  1.00  0.00    -0.003 C 
ATOM     14  C   UNL     1      87.250  30.468  29.121  1.00  0.00     0.004 C 
ENDBRANCH  12  13
ENDBRANCH  11  12
ENDBRANCH  10  11
ENDBRANCH   9  10
ENDBRANCH   1   9
TORSDOF 10
ENDMDL
MODEL 4
REMARK VINA RESULT:    -2.784      3.347      4.702
REMARK INTER + INTRA:          -6.123
REMARK INTER:                  -4.771
REMARK INTRA:                  -1.352
REMARK UNBOUND:                -1.712
REMARK SMILES CCCCCCCCCCCC(=O)[O-]
REMARK SMILES IDX 7 1 8 2 9 3 10 4 11 5 12 6 13 7 14 8 6 9 5 10 4 11 3 12 2 13
REMARK SMILES IDX 1 14
REMARK H PARENT
REMARK Flexibility Score: inf
ROOT
ATOM      1  C   UNL     1      89.367  29.156  28.613  1.00  0.00     0.000 C 
ENDROOT
BRANCH   1   2
ATOM      2  C   UNL     1      88.498  30.426  28.636  1.00  0.00     0.000 C 
BRANCH   2   3
ATOM      3  C   UNL     1      87.142  30.201  29.323  1.00  0.00     0.000 C 
BRANCH   3   4
ATOM      4  C   UNL     1      86.028  31.092  28.745  1.00  0.00     0.006 C 
BRANCH   4   5
ATOM      5  C   UNL     1      84.736  31.010  29.569  1.00  0.00     0.053 C 
BRANCH   5   6
ATOM      6  C   UNL     1      84.845  31.776  30.852  1.00  0.00     0.041 C 
ATOM      7  O   UNL     1      84.281  31.351  31.893  1.00  0.00    -0.550 OA
ATOM      8  O   UNL     1      85.602  32.940  30.905  1.00  0.00    -0.550 OA
ENDBRANCH   5   6
ENDBRANCH   4   5
ENDBRANCH   3   4
ENDBRANCH   2   3
ENDBRANCH   1   2
BRANCH   1   9
ATOM      9  C   UNL     1      89.742  28.722  27.187  1.00  0.00     0.000 C 
BRANCH   9  10
ATOM     10  C   UNL     1      88.811  29.325  26.121  1.00  0.00    -0.000 C 
BRANCH  10  11
ATOM     11  C   UNL     1      87.857  28.283  25.512  1.00  0.00    -0.000 C 
BRANCH  11  12
ATOM     12  C   UNL     1      86.558  28.125  26.322  1.00  0.00    -0.000 C 
BRANCH  12  13
ATOM     13  C   UNL     1      86.577  26.885  27.229  1.00  0.00    -0.003 C 
ATOM     14  C   UNL     1      85.635  27.013  28.426  1.00  0.00     0.004 C 
ENDBRANCH  12  13
ENDBRANCH  11  12
ENDBRANCH  10  11
ENDBRANCH   9  10
ENDBRANCH   1   9
TORSDOF 10
ENDMDL
MODEL 5
REMARK VINA RESULT:    -2.782      3.871      5.700
REMARK INTER + INTRA:          -6.120
REMARK INTER:                  -5.023
REMARK INTRA:                  -1.097
REMARK UNBOUND:                -1.712
REMARK SMILES CCCCCCCCCCCC(=O)[O-]
REMARK SMILES IDX 7 1 8 2 9 3 10 4 11 5 12 6 13 7 14 8 6 9 5 10 4 11 3 12 2 13
REMARK SMILES IDX 1 14
REMARK H PARENT
REMARK Flexibility Score: inf
ROOT
ATOM      1  C   UNL     1      86.534  29.067  28.734  1.00  0.00     0.000 C 
ENDROOT
BRANCH   1   2
ATOM      2  C   UNL     1      86.811  30.569  28.915  1.00  0.00     0.000 C 
BRANCH   2   3
ATOM      3  C   UNL     1      85.682  31.450  28.358  1.00  0.00     0.000 C 
BRANCH   3   4
ATOM      4  C   UNL     1      84.930  32.220  29.457  1.00  0.00     0.006 C 
BRANCH   4   5
ATOM      5  C   UNL     1      85.590  32.056  30.834  1.00  0.00     0.053 C 
BRANCH   5   6
ATOM      6  C   UNL     1      85.644  33.353  31.581  1.00  0.00     0.041 C 
ATOM      7  O   UNL     1      85.101  34.383  31.103  1.00  0.00    -0.550 OA
ATOM      8  O   UNL     1      86.263  33.416  32.824  1.00  0.00    -0.550 OA
ENDBRANCH   5   6
ENDBRANCH   4   5
ENDBRANCH   3   4
ENDBRANCH   2   3
ENDBRANCH   1   2
BRANCH   1   9
ATOM      9  C   UNL     1      87.800  28.208  28.885  1.00  0.00     0.000 C 
BRANCH   9  10
ATOM     10  C   UNL     1      89.092  29.026  28.710  1.00  0.00    -0.000 C 
BRANCH  10  11
ATOM     11  C   UNL     1      89.771  28.773  27.353  1.00  0.00    -0.000 C 
BRANCH  11  12
ATOM     12  C   UNL     1      89.653  29.975  26.399  1.00  0.00    -0.000 C 
BRANCH  12  13
ATOM     13  C   UNL     1      88.405  29.898  25.506  1.00  0.00    -0.003 C 
ATOM     14  C   UNL     1      88.010  28.461  25.165  1.00  0.00     0.004 C 
ENDBRANCH  12  13
ENDBRANCH  11  12
ENDBRANCH  10  11
ENDBRANCH   9  10
ENDBRANCH   1   9
TORSDOF 10
ENDMDL
MODEL 6
REMARK VINA RESULT:    -2.752      2.985      4.739
REMARK INTER + INTRA:          -6.072
REMARK INTER:                  -4.389
REMARK INTRA:                  -1.683
REMARK UNBOUND:                -1.712
REMARK SMILES CCCCCCCCCCCC(=O)[O-]
REMARK SMILES IDX 7 1 8 2 9 3 10 4 11 5 12 6 13 7 14 8 6 9 5 10 4 11 3 12 2 13
REMARK SMILES IDX 1 14
REMARK H PARENT
REMARK Flexibility Score: inf
ROOT
ATOM      1  C   UNL     1      88.918  29.721  28.789  1.00  0.00     0.000 C 
ENDROOT
BRANCH   1   2
ATOM      2  C   UNL     1      87.531  29.155  29.144  1.00  0.00     0.000 C 
BRANCH   2   3
ATOM      3  C   UNL     1      87.502  27.619  29.139  1.00  0.00     0.000 C 
BRANCH   3   4
ATOM      4  C   UNL     1      86.378  27.048  28.257  1.00  0.00     0.006 C 
BRANCH   4   5
ATOM      5  C   UNL     1      85.387  28.131  27.809  1.00  0.00     0.053 C 
BRANCH   5   6
ATOM      6  C   UNL     1      84.044  27.952  28.446  1.00  0.00     0.041 C 
ATOM      7  O   UNL     1      83.191  27.189  27.924  1.00  0.00    -0.550 OA
ATOM      8  O   UNL     1      83.747  28.601  29.639  1.00  0.00    -0.550 OA
ENDBRANCH   5   6
ENDBRANCH   4   5
ENDBRANCH   3   4
ENDBRANCH   2   3
ENDBRANCH   1   2
BRANCH   1   9
ATOM      9  C   UNL     1      89.706  28.803  27.840  1.00  0.00     0.000 C 
BRANCH   9  10
ATOM     10  C   UNL     1      89.612  29.252  26.371  1.00  0.00    -0.000 C 
BRANCH  10  11
ATOM     11  C   UNL     1      88.483  28.539  25.608  1.00  0.00    -0.000 C 
BRANCH  11  12
ATOM     12  C   UNL     1      87.471  29.523  24.995  1.00  0.00    -0.000 C 
BRANCH  12  13
ATOM     13  C   UNL     1      87.674  30.962  25.492  1.00  0.00    -0.003 C 
ATOM     14  C   UNL     1      86.540  31.441  26.399  1.00  0.00     0.004 C 
ENDBRANCH  12  13
ENDBRANCH  11  12
ENDBRANCH  10  11
ENDBRANCH   9  10
ENDBRANCH   1   9
TORSDOF 10
ENDMDL
MODEL 7
REMARK VINA RESULT:    -2.724      2.897      5.034
REMARK INTER + INTRA:          -6.028
REMARK INTER:                  -4.345
REMARK INTRA:                  -1.683
REMARK UNBOUND:                -1.712
REMARK SMILES CCCCCCCCCCCC(=O)[O-]
REMARK SMILES IDX 7 1 8 2 9 3 10 4 11 5 12 6 13 7 14 8 6 9 5 10 4 11 3 12 2 13
REMARK SMILES IDX 1 14
REMARK H PARENT
REMARK Flexibility Score: inf
ROOT
ATOM      1  C   UNL     1      86.148  28.017  26.741  1.00  0.00     0.000 C 
ENDROOT
BRANCH   1   2
ATOM      2  C   UNL     1      85.282  29.239  26.388  1.00  0.00     0.000 C 
BRANCH   2   3
ATOM      3  C   UNL     1      86.108  30.526  26.244  1.00  0.00     0.000 C 
BRANCH   3   4
ATOM      4  C   UNL     1      85.895  31.503  27.413  1.00  0.00     0.006 C 
BRANCH   4   5
ATOM      5  C   UNL     1      84.691  31.113  28.282  1.00  0.00     0.053 C 
BRANCH   5   6
ATOM      6  C   UNL     1      84.958  31.347  29.737  1.00  0.00     0.041 C 
ATOM      7  O   UNL     1      86.000  31.950  30.101  1.00  0.00    -0.550 OA
ATOM      8  O   UNL     1      84.036  30.930  30.690  1.00  0.00    -0.550 OA
ENDBRANCH   5   6
ENDBRANCH   4   5
ENDBRANCH   3   4
ENDBRANCH   2   3
ENDBRANCH   1   2
BRANCH   1   9
ATOM      9  C   UNL     1      86.143  27.703  28.246  1.00  0.00     0.000 C 
BRANCH   9  10
ATOM     10  C   UNL     1      87.553  27.737  28.861  1.00  0.00    -0.000 C 
BRANCH  10  11
ATOM     11  C   UNL     1      87.935  29.132  29.383  1.00  0.00    -0.000 C 
BRANCH  11  12
ATOM     12  C   UNL     1      89.005  29.817  28.514  1.00  0.00    -0.000 C 
BRANCH  12  13
ATOM     13  C   UNL     1      89.732  28.829  27.589  1.00  0.00    -0.003 C 
ATOM     14  C   UNL     1      89.723  29.272  26.126  1.00  0.00     0.004 C 
ENDBRANCH  12  13
ENDBRANCH  11  12
ENDBRANCH  10  11
ENDBRANCH   9  10
ENDBRANCH   1   9
TORSDOF 10
ENDMDL
MODEL 8
REMARK VINA RESULT:    -2.709      2.879      4.715
REMARK INTER + INTRA:          -6.005
REMARK INTER:                  -4.629
REMARK INTRA:                  -1.376
REMARK UNBOUND:                -1.712
REMARK SMILES CCCCCCCCCCCC(=O)[O-]
REMARK SMILES IDX 7 1 8 2 9 3 10 4 11 5 12 6 13 7 14 8 6 9 5 10 4 11 3 12 2 13
REMARK SMILES IDX 1 14
REMARK H PARENT
REMARK Flexibility Score: inf
ROOT
ATOM      1  C   UNL     1      89.200  29.775  28.575  1.00  0.00     0.000 C 
ENDROOT
BRANCH   1   2
ATOM      2  C   UNL     1      87.865  29.314  29.185  1.00  0.00     0.000 C 
BRANCH   2   3
ATOM      3  C   UNL     1      87.695  27.787  29.146  1.00  0.00     0.000 C 
BRANCH   3   4
ATOM      4  C   UNL     1      86.276  27.357  28.734  1.00  0.00     0.006 C 
BRANCH   4   5
ATOM      5  C   UNL     1      86.271  26.565  27.418  1.00  0.00     0.053 C 
BRANCH   5   6
ATOM      6  C   UNL     1      85.839  25.147  27.626  1.00  0.00     0.041 C 
ATOM      7  O   UNL     1      85.457  24.760  28.762  1.00  0.00    -0.550 OA
ATOM      8  O   UNL     1      85.821  24.260  26.557  1.00  0.00    -0.550 OA
ENDBRANCH   5   6
ENDBRANCH   4   5
ENDBRANCH   3   4
ENDBRANCH   2   3
ENDBRANCH   1   2
BRANCH   1   9
ATOM      9  C   UNL     1      89.579  28.984  27.312  1.00  0.00     0.000 C 
BRANCH   9  10
ATOM     10  C   UNL     1      89.974  29.899  26.139  1.00  0.00    -0.000 C 
BRANCH  10  11
ATOM     11  C   UNL     1      88.947  29.867  24.995  1.00  0.00    -0.000 C 
BRANCH  11  12
ATOM     12  C   UNL     1      87.687  29.060  25.353  1.00  0.00    -0.000 C 
BRANCH  12  13
ATOM     13  C   UNL     1      86.411  29.916  25.320  1.00  0.00    -0.003 C 
ATOM     14  C   UNL     1      86.474  31.109  26.275  1.00  0.00     0.004 C 
ENDBRANCH  12  13
ENDBRANCH  11  12
ENDBRANCH  10  11
ENDBRANCH   9  10
ENDBRANCH   1   9
TORSDOF 10
ENDMDL
MODEL 9
REMARK VINA RESULT:    -2.701      2.094      4.381
REMARK INTER + INTRA:          -5.992
REMARK INTER:                  -4.305
REMARK INTRA:                  -1.687
REMARK UNBOUND:                -1.712
REMARK SMILES CCCCCCCCCCCC(=O)[O-]
REMARK SMILES IDX 7 1 8 2 9 3 10 4 11 5 12 6 13 7 14 8 6 9 5 10 4 11 3 12 2 13
REMARK SMILES IDX 1 14
REMARK H PARENT
REMARK Flexibility Score: inf
ROOT
ATOM      1  C   UNL     1      86.298  26.356  27.589  1.00  0.00     0.000 C 
ENDROOT
BRANCH   1   2
ATOM      2  C   UNL     1      85.666  26.989  26.337  1.00  0.00     0.000 C 
BRANCH   2   3
ATOM      3  C   UNL     1      86.672  27.815  25.521  1.00  0.00     0.000 C 
BRANCH   3   4
ATOM      4  C   UNL     1      86.401  29.328  25.597  1.00  0.00     0.006 C 
BRANCH   4   5
ATOM      5  C   UNL     1      84.994  29.638  26.127  1.00  0.00     0.053 C 
BRANCH   5   6
ATOM      6  C   UNL     1      85.030  30.620  27.257  1.00  0.00     0.041 C 
ATOM      7  O   UNL     1      84.513  30.328  28.367  1.00  0.00    -0.550 OA
ATOM      8  O   UNL     1      85.668  31.844  27.096  1.00  0.00    -0.550 OA
ENDBRANCH   5   6
ENDBRANCH   4   5
ENDBRANCH   3   4
ENDBRANCH   2   3
ENDBRANCH   1   2
BRANCH   1   9
ATOM      9  C   UNL     1      86.303  27.308  28.796  1.00  0.00     0.000 C 
BRANCH   9  10
ATOM     10  C   UNL     1      87.715  27.813  29.143  1.00  0.00    -0.000 C 
BRANCH  10  11
ATOM     11  C   UNL     1      87.788  29.347  29.230  1.00  0.00    -0.000 C 
BRANCH  11  12
ATOM     12  C   UNL     1      88.881  29.939  28.323  1.00  0.00    -0.000 C 
BRANCH  12  13
ATOM     13  C   UNL     1      89.676  28.857  27.575  1.00  0.00    -0.003 C 
ATOM     14  C   UNL     1      90.019  29.260  26.141  1.00  0.00     0.004 C 
ENDBRANCH  12  13
ENDBRANCH  11  12
ENDBRANCH  10  11
ENDBRANCH   9  10
ENDBRANCH   1   9
TORSDOF 10
ENDMDL
