MODEL 1
REMARK VINA RESULT:    -3.818      0.000      0.000
REMARK INTER + INTRA:          -4.776
REMARK INTER:                  -4.488
REMARK INTRA:                  -0.288
REMARK UNBOUND:                -0.288
REMARK SMILES O=c1cc(-c2ccc(O)c(O)c2)oc2cc(O)cc(O)c12
REMARK SMILES IDX 4 1 3 2 2 3 1 4 21 5 19 6 18 7 16 8 15 9 14 10 13 11 5 12
REMARK SMILES IDX 6 13 7 14 8 15 12 16 10 17 9 18 11 20 20 22 17 24
REMARK H PARENT 9 19 11 21 20 23 17 25
REMARK Flexibility Score: inf
ROOT
ATOM      1  C   UNL     1      52.921  83.567  30.662  1.00  0.00     0.138 A 
ATOM      2  C   UNL     1      52.110  82.905  29.729  1.00  0.00     0.100 A 
ATOM      3  C   UNL     1      50.743  82.772  29.974  1.00  0.00     0.197 A 
ATOM      4  O   UNL     1      50.032  82.230  29.089  1.00  0.00    -0.289 OA
ATOM      5  C   UNL     1      50.192  83.276  31.175  1.00  0.00     0.107 A 
ATOM      6  C   UNL     1      48.820  83.162  31.550  1.00  0.00     0.134 A 
ATOM      7  C   UNL     1      48.366  83.802  32.710  1.00  0.00     0.093 A 
ATOM      8  C   UNL     1      49.247  84.500  33.540  1.00  0.00     0.123 A 
ATOM      9  C   UNL     1      50.597  84.573  33.210  1.00  0.00     0.094 A 
ATOM     10  C   UNL     1      51.075  83.974  32.042  1.00  0.00     0.146 A 
ATOM     11  O   UNL     1      52.369  84.079  31.756  1.00  0.00    -0.456 OA
ENDROOT
BRANCH   1  12
ATOM     12  C   UNL     1      54.381  83.736  30.452  1.00  0.00     0.021 A 
ATOM     13  C   UNL     1      55.032  84.859  30.991  1.00  0.00     0.016 A 
ATOM     14  C   UNL     1      56.406  85.037  30.814  1.00  0.00     0.051 A 
ATOM     15  C   UNL     1      57.156  84.095  30.105  1.00  0.00     0.157 A 
ATOM     16  C   UNL     1      55.144  82.781  29.750  1.00  0.00     0.062 A 
ATOM     17  C   UNL     1      56.524  82.959  29.573  1.00  0.00     0.158 A 
BRANCH  15  18
ATOM     18  O   UNL     1      58.526  84.301  29.944  1.00  0.00    -0.504 OA
ATOM     19  H   UNL     1      58.929  84.562  29.052  1.00  0.00     0.293 HD
ENDBRANCH  15  18
BRANCH  17  20
ATOM     20  O   UNL     1      57.269  82.010  28.875  1.00  0.00    -0.504 OA
ATOM     21  H   UNL     1      57.353  81.054  29.203  1.00  0.00     0.293 HD
ENDBRANCH  17  20
ENDBRANCH   1  12
BRANCH   6  22
ATOM     22  O   UNL     1      47.875  82.416  30.839  1.00  0.00    -0.507 OA
ATOM     23  H   UNL     1      47.673  82.527  29.857  1.00  0.00     0.293 HD
ENDBRANCH   6  22
BRANCH   8  24
ATOM     24  O   UNL     1      48.788  85.121  34.700  1.00  0.00    -0.508 OA
ATOM     25  H   UNL     1      47.831  85.017  35.014  1.00  0.00     0.293 HD
ENDBRANCH   8  24
TORSDOF 5
ENDMDL
