MODEL 1
REMARK VINA RESULT:    -3.210      0.000      0.000
REMARK INTER + INTRA:          -3.205
REMARK INTER:                  -3.960
REMARK INTRA:                   0.755
REMARK UNBOUND:                 0.755
REMARK SMILES CC1=CC=CC(C)(C)CC1=O
REMARK SMILES IDX 1 1 2 2 3 3 10 4 11 5 9 6 4 8 5 9 6 10 7 11 8 12
REMARK H PARENT
REMARK Flexibility Score: 80.00
ROOT
ATOM      1  C   UNL     1      16.475  33.254  29.205  1.00  0.00     0.048 C 
ATOM      2  C   UNL     1      17.898  32.753  29.302  1.00  0.00    -0.008 C 
ATOM      3  C   UNL     1      18.093  31.417  29.291  1.00  0.00     0.007 C 
ENDROOT
BRANCH   2   4
ATOM      4  C   UNL     1      18.962  33.773  29.478  1.00  0.00     0.159 C 
ATOM      5  O   UNL     1      18.627  34.965  29.725  1.00  0.00    -0.295 OA
BRANCH   4   6
ATOM      6  C   UNL     1      20.424  33.469  29.366  1.00  0.00     0.091 CG0
ATOM      7  G   UNL     1      20.901  32.392  30.366  1.00  0.00     0.000 G0
ENDBRANCH   4   6
ENDBRANCH   2   4
BRANCH   3   8
ATOM      8  C   UNL     1      19.350  30.639  29.395  1.00  0.00    -0.003 C 
ATOM      9  C   UNL     1      20.545  31.024  29.860  1.00  0.00    -0.020 C 
BRANCH   9  10
ATOM     10  C   UNL     1      20.908  32.397  30.375  1.00  0.00    -0.010 CG0
ATOM     11  C   UNL     1      22.448  32.490  30.463  1.00  0.00     0.016 C 
ATOM     12  C   UNL     1      20.336  32.595  31.797  1.00  0.00     0.016 C 
ATOM     13  G   UNL     1      20.418  33.473  29.380  1.00  0.00     0.000 G0
ENDBRANCH   9  10
ENDBRANCH   3   8
TORSDOF 0
ENDMDL
MODEL 2
REMARK VINA RESULT:    -3.180      2.144      3.661
REMARK INTER + INTRA:          -3.169
REMARK INTER:                  -3.914
REMARK INTRA:                   0.745
REMARK UNBOUND:                 0.755
REMARK SMILES CC1=CC=CC(C)(C)CC1=O
REMARK SMILES IDX 1 1 2 2 3 3 10 4 11 5 9 6 4 8 5 9 6 10 7 11 8 12
REMARK H PARENT
REMARK Flexibility Score: 80.00
ROOT
ATOM      1  C   UNL     1      19.773  34.637  29.814  1.00  0.00     0.048 C 
ATOM      2  C   UNL     1      18.823  33.484  29.586  1.00  0.00    -0.008 C 
ATOM      3  C   UNL     1      17.527  33.779  29.348  1.00  0.00     0.007 C 
ENDROOT
BRANCH   2   4
ATOM      4  C   UNL     1      19.380  32.114  29.717  1.00  0.00     0.159 C 
ATOM      5  O   UNL     1      20.522  31.969  30.232  1.00  0.00    -0.295 OA
BRANCH   4   6
ATOM      6  C   UNL     1      18.661  30.883  29.256  1.00  0.00     0.091 CG0
ATOM      7  G   UNL     1      17.314  30.658  29.977  1.00  0.00     0.000 G0
ENDBRANCH   4   6
ENDBRANCH   2   4
BRANCH   3   8
ATOM      8  C   UNL     1      16.373  32.878  29.117  1.00  0.00    -0.003 C 
ATOM      9  C   UNL     1      16.256  31.571  29.386  1.00  0.00    -0.020 C 
BRANCH   9  10
ATOM     10  C   UNL     1      17.318  30.678  29.981  1.00  0.00    -0.010 CG0
ATOM     11  C   UNL     1      16.899  29.208  29.754  1.00  0.00     0.016 C 
ATOM     12  C   UNL     1      17.414  30.916  31.505  1.00  0.00     0.016 C 
ATOM     13  G   UNL     1      18.662  30.912  29.256  1.00  0.00     0.000 G0
ENDBRANCH   9  10
ENDBRANCH   3   8
TORSDOF 0
ENDMDL
MODEL 3
REMARK VINA RESULT:    -3.099     10.366     12.662
REMARK INTER + INTRA:          -3.069
REMARK INTER:                  -3.829
REMARK INTRA:                   0.760
REMARK UNBOUND:                 0.755
REMARK SMILES CC1=CC=CC(C)(C)CC1=O
REMARK SMILES IDX 1 1 2 2 3 3 10 4 11 5 9 6 4 8 5 9 6 10 7 11 8 12
REMARK H PARENT
REMARK Flexibility Score: 80.00
ROOT
ATOM      1  C   UNL     1      34.355  30.692  28.577  1.00  0.00     0.048 C 
ATOM      2  C   UNL     1      33.257  31.699  28.321  1.00  0.00    -0.008 C 
ATOM      3  C   UNL     1      33.625  32.964  28.024  1.00  0.00     0.007 C 
ENDROOT
BRANCH   2   4
ATOM      4  C   UNL     1      31.858  31.231  28.491  1.00  0.00     0.159 C 
ATOM      5  O   UNL     1      31.655  30.095  29.001  1.00  0.00    -0.295 OA
BRANCH   4   6
ATOM      6  C   UNL     1      30.663  32.033  28.075  1.00  0.00     0.091 CG0
ATOM      7  G   UNL     1      30.587  33.414  28.763  1.00  0.00     0.000 G0
ENDBRANCH   4   6
ENDBRANCH   2   4
BRANCH   3   8
ATOM      8  C   UNL     1      32.791  34.158  27.754  1.00  0.00    -0.003 C 
ATOM      9  C   UNL     1      31.506  34.378  28.061  1.00  0.00    -0.020 C 
BRANCH   9  10
ATOM     10  C   UNL     1      30.572  33.415  28.753  1.00  0.00    -0.010 CG0
ATOM     11  C   UNL     1      29.126  33.932  28.580  1.00  0.00     0.016 C 
ATOM     12  C   UNL     1      30.884  33.372  30.267  1.00  0.00     0.016 C 
ATOM     13  G   UNL     1      30.668  32.025  28.086  1.00  0.00     0.000 G0
ENDBRANCH   9  10
ENDBRANCH   3   8
TORSDOF 0
ENDMDL
MODEL 4
REMARK VINA RESULT:    -3.094      2.395      3.150
REMARK INTER + INTRA:          -3.063
REMARK INTER:                  -3.809
REMARK INTRA:                   0.747
REMARK UNBOUND:                 0.755
REMARK SMILES CC1=CC=CC(C)(C)CC1=O
REMARK SMILES IDX 1 1 2 2 3 3 10 4 11 5 9 6 4 8 5 9 6 10 7 11 8 12
REMARK H PARENT
REMARK Flexibility Score: 80.00
ROOT
ATOM      1  C   UNL     1      15.043  30.317  29.763  1.00  0.00     0.048 C 
ATOM      2  C   UNL     1      16.215  31.248  29.967  1.00  0.00    -0.008 C 
ATOM      3  C   UNL     1      16.384  32.246  29.073  1.00  0.00     0.007 C 
ENDROOT
BRANCH   2   4
ATOM      4  C   UNL     1      17.132  30.943  31.094  1.00  0.00     0.159 C 
ATOM      5  O   UNL     1      17.009  29.841  31.697  1.00  0.00    -0.295 OA
BRANCH   4   6
ATOM      6  C   UNL     1      18.196  31.883  31.570  1.00  0.00     0.091 CG0
ATOM      7  G   UNL     1      19.222  32.247  30.474  1.00  0.00     0.000 G0
ENDBRANCH   4   6
ENDBRANCH   2   4
BRANCH   3   8
ATOM      8  C   UNL     1      17.439  33.284  28.995  1.00  0.00    -0.003 C 
ATOM      9  C   UNL     1      18.649  33.303  29.568  1.00  0.00    -0.020 C 
BRANCH   9  10
ATOM     10  C   UNL     1      19.226  32.247  30.481  1.00  0.00    -0.010 CG0
ATOM     11  C   UNL     1      20.463  32.844  31.191  1.00  0.00     0.016 C 
ATOM     12  C   UNL     1      19.695  31.031  29.650  1.00  0.00     0.016 C 
ATOM     13  G   UNL     1      18.189  31.867  31.560  1.00  0.00     0.000 G0
ENDBRANCH   9  10
ENDBRANCH   3   8
TORSDOF 0
ENDMDL
MODEL 5
REMARK VINA RESULT:    -3.044     13.030     14.235
REMARK INTER + INTRA:          -3.001
REMARK INTER:                  -3.769
REMARK INTRA:                   0.767
REMARK UNBOUND:                 0.755
REMARK SMILES CC1=CC=CC(C)(C)CC1=O
REMARK SMILES IDX 1 1 2 2 3 3 10 4 11 5 9 6 4 8 5 9 6 10 7 11 8 12
REMARK H PARENT
REMARK Flexibility Score: 80.00
ROOT
ATOM      1  C   UNL     1      32.913  29.693  26.201  1.00  0.00     0.048 C 
ATOM      2  C   UNL     1      33.230  31.077  26.718  1.00  0.00    -0.008 C 
ATOM      3  C   UNL     1      34.246  31.746  26.132  1.00  0.00     0.007 C 
ENDROOT
BRANCH   2   4
ATOM      4  C   UNL     1      32.446  31.560  27.882  1.00  0.00     0.159 C 
ATOM      5  O   UNL     1      31.704  30.743  28.496  1.00  0.00    -0.295 OA
BRANCH   4   6
ATOM      6  C   UNL     1      32.473  32.977  28.367  1.00  0.00     0.091 CG0
ATOM      7  G   UNL     1      33.883  33.448  28.788  1.00  0.00     0.000 G0
ENDBRANCH   4   6
ENDBRANCH   2   4
BRANCH   3   8
ATOM      8  C   UNL     1      34.800  33.087  26.433  1.00  0.00    -0.003 C 
ATOM      9  C   UNL     1      34.676  33.822  27.545  1.00  0.00    -0.020 C 
BRANCH   9  10
ATOM     10  C   UNL     1      33.890  33.453  28.781  1.00  0.00    -0.010 CG0
ATOM     11  C   UNL     1      33.738  34.719  29.655  1.00  0.00     0.016 C 
ATOM     12  C   UNL     1      34.665  32.397  29.603  1.00  0.00     0.016 C 
ATOM     13  G   UNL     1      32.478  32.975  28.378  1.00  0.00     0.000 G0
ENDBRANCH   9  10
ENDBRANCH   3   8
TORSDOF 0
ENDMDL
MODEL 6
REMARK VINA RESULT:    -3.042      8.953     10.954
REMARK INTER + INTRA:          -2.999
REMARK INTER:                  -3.757
REMARK INTRA:                   0.758
REMARK UNBOUND:                 0.755
REMARK SMILES CC1=CC=CC(C)(C)CC1=O
REMARK SMILES IDX 1 1 2 2 3 3 10 4 11 5 9 6 4 8 5 9 6 10 7 11 8 12
REMARK H PARENT
REMARK Flexibility Score: 80.00
ROOT
ATOM      1  C   UNL     1      27.631  31.432  29.741  1.00  0.00     0.048 C 
ATOM      2  C   UNL     1      28.906  31.864  29.056  1.00  0.00    -0.008 C 
ATOM      3  C   UNL     1      29.683  30.901  28.514  1.00  0.00     0.007 C 
ENDROOT
BRANCH   2   4
ATOM      4  C   UNL     1      29.240  33.310  29.099  1.00  0.00     0.159 C 
ATOM      5  O   UNL     1      28.562  34.068  29.846  1.00  0.00    -0.295 OA
BRANCH   4   6
ATOM      6  C   UNL     1      30.337  33.929  28.289  1.00  0.00     0.091 CG0
ATOM      7  G   UNL     1      31.728  33.327  28.588  1.00  0.00     0.000 G0
ENDBRANCH   4   6
ENDBRANCH   2   4
BRANCH   3   8
ATOM      8  C   UNL     1      30.983  31.011  27.812  1.00  0.00    -0.003 C 
ATOM      9  C   UNL     1      31.871  32.013  27.831  1.00  0.00    -0.020 C 
BRANCH   9  10
ATOM     10  C   UNL     1      31.733  33.320  28.576  1.00  0.00    -0.010 CG0
ATOM     11  C   UNL     1      32.801  34.299  28.038  1.00  0.00     0.016 C 
ATOM     12  C   UNL     1      32.004  33.099  30.082  1.00  0.00     0.016 C 
ATOM     13  G   UNL     1      30.341  33.930  28.303  1.00  0.00     0.000 G0
ENDBRANCH   9  10
ENDBRANCH   3   8
TORSDOF 0
ENDMDL
MODEL 7
REMARK VINA RESULT:    -3.036      8.272     10.653
REMARK INTER + INTRA:          -2.992
REMARK INTER:                  -3.746
REMARK INTRA:                   0.754
REMARK UNBOUND:                 0.755
REMARK SMILES CC1=CC=CC(C)(C)CC1=O
REMARK SMILES IDX 1 1 2 2 3 3 10 4 11 5 9 6 4 8 5 9 6 10 7 11 8 12
REMARK H PARENT
REMARK Flexibility Score: 80.00
ROOT
ATOM      1  C   UNL     1      32.683  31.841  28.252  1.00  0.00     0.048 C 
ATOM      2  C   UNL     1      31.227  32.163  28.493  1.00  0.00    -0.008 C 
ATOM      3  C   UNL     1      30.791  33.392  28.141  1.00  0.00     0.007 C 
ENDROOT
BRANCH   2   4
ATOM      4  C   UNL     1      30.408  31.125  29.168  1.00  0.00     0.159 C 
ATOM      5  O   UNL     1      30.992  30.136  29.691  1.00  0.00    -0.295 OA
BRANCH   4   6
ATOM      6  C   UNL     1      28.914  31.178  29.254  1.00  0.00     0.091 CG0
ATOM      7  G   UNL     1      28.390  32.434  29.984  1.00  0.00     0.000 G0
ENDBRANCH   4   6
ENDBRANCH   2   4
BRANCH   3   8
ATOM      8  C   UNL     1      29.446  33.998  28.276  1.00  0.00    -0.003 C 
ATOM      9  C   UNL     1      28.424  33.622  29.055  1.00  0.00    -0.020 C 
BRANCH   9  10
ATOM     10  C   UNL     1      28.397  32.434  29.988  1.00  0.00    -0.010 CG0
ATOM     11  C   UNL     1      26.929  32.170  30.394  1.00  0.00     0.016 C 
ATOM     12  C   UNL     1      29.197  32.753  31.271  1.00  0.00     0.016 C 
ATOM     13  G   UNL     1      28.924  31.182  29.252  1.00  0.00     0.000 G0
ENDBRANCH   9  10
ENDBRANCH   3   8
TORSDOF 0
ENDMDL
MODEL 8
REMARK VINA RESULT:    -2.993     11.158     13.160
REMARK INTER + INTRA:          -2.938
REMARK INTER:                  -3.702
REMARK INTRA:                   0.763
REMARK UNBOUND:                 0.755
REMARK SMILES CC1=CC=CC(C)(C)CC1=O
REMARK SMILES IDX 1 1 2 2 3 3 10 4 11 5 9 6 4 8 5 9 6 10 7 11 8 12
REMARK H PARENT
REMARK Flexibility Score: 80.00
ROOT
ATOM      1  C   UNL     1      29.690  30.950  28.221  1.00  0.00     0.048 C 
ATOM      2  C   UNL     1      31.045  31.520  27.871  1.00  0.00    -0.008 C 
ATOM      3  C   UNL     1      31.891  30.735  27.169  1.00  0.00     0.007 C 
ENDROOT
BRANCH   2   4
ATOM      4  C   UNL     1      31.365  32.872  28.394  1.00  0.00     0.159 C 
ATOM      5  O   UNL     1      30.598  33.389  29.252  1.00  0.00    -0.295 OA
BRANCH   4   6
ATOM      6  C   UNL     1      32.550  33.671  27.946  1.00  0.00     0.091 CG0
ATOM      7  G   UNL     1      33.898  32.968  28.221  1.00  0.00     0.000 G0
ENDBRANCH   4   6
ENDBRANCH   2   4
BRANCH   3   8
ATOM      8  C   UNL     1      33.274  31.001  26.708  1.00  0.00    -0.003 C 
ATOM      9  C   UNL     1      34.143  31.925  27.138  1.00  0.00    -0.020 C 
BRANCH   9  10
ATOM     10  C   UNL     1      33.896  32.962  28.207  1.00  0.00    -0.010 CG0
ATOM     11  C   UNL     1      35.019  34.022  28.124  1.00  0.00     0.016 C 
ATOM     12  C   UNL     1      33.965  32.305  29.605  1.00  0.00     0.016 C 
ATOM     13  G   UNL     1      32.548  33.669  27.946  1.00  0.00     0.000 G0
ENDBRANCH   9  10
ENDBRANCH   3   8
TORSDOF 0
ENDMDL
MODEL 9
REMARK VINA RESULT:    -2.978     12.149     13.556
REMARK INTER + INTRA:          -2.920
REMARK INTER:                  -3.677
REMARK INTRA:                   0.757
REMARK UNBOUND:                 0.755
REMARK SMILES CC1=CC=CC(C)(C)CC1=O
REMARK SMILES IDX 1 1 2 2 3 3 10 4 11 5 9 6 4 8 5 9 6 10 7 11 8 12
REMARK H PARENT
REMARK Flexibility Score: 80.00
ROOT
ATOM      1  C   UNL     1      32.882  30.008  26.011  1.00  0.00     0.048 C 
ATOM      2  C   UNL     1      32.659  30.909  27.204  1.00  0.00    -0.008 C 
ATOM      3  C   UNL     1      31.422  30.939  27.742  1.00  0.00     0.007 C 
ENDROOT
BRANCH   2   4
ATOM      4  C   UNL     1      33.805  31.746  27.641  1.00  0.00     0.159 C 
ATOM      5  O   UNL     1      34.823  31.818  26.899  1.00  0.00    -0.295 OA
BRANCH   4   6
ATOM      6  C   UNL     1      33.827  32.506  28.932  1.00  0.00     0.091 CG0
ATOM      7  G   UNL     1      32.682  33.536  29.050  1.00  0.00     0.000 G0
ENDBRANCH   4   6
ENDBRANCH   2   4
BRANCH   3   8
ATOM      8  C   UNL     1      30.899  31.730  28.881  1.00  0.00    -0.003 C 
ATOM      9  C   UNL     1      31.406  32.833  29.445  1.00  0.00    -0.020 C 
BRANCH   9  10
ATOM     10  C   UNL     1      32.686  33.534  29.056  1.00  0.00    -0.010 CG0
ATOM     11  C   UNL     1      33.061  34.522  30.184  1.00  0.00     0.016 C 
ATOM     12  C   UNL     1      32.468  34.349  27.761  1.00  0.00     0.016 C 
ATOM     13  G   UNL     1      33.826  32.500  28.925  1.00  0.00     0.000 G0
ENDBRANCH   9  10
ENDBRANCH   3   8
TORSDOF 0
ENDMDL
