MODEL 1
REMARK VINA RESULT:    -5.607      0.000      0.000
REMARK INTER + INTRA:         -10.734
REMARK INTER:                  -9.540
REMARK INTRA:                  -1.193
REMARK UNBOUND:                -1.193
REMARK SMILES CCCCCCCCCCCCCC(=O)[O-]
REMARK SMILES IDX 8 1 9 2 10 3 11 4 12 5 13 6 14 7 15 8 16 9 7 10 6 11 5 12
REMARK SMILES IDX 4 13 3 14 2 15 1 16
REMARK H PARENT
REMARK Flexibility Score: inf
ROOT
ATOM      1  C   UNL     1     101.502 306.063 194.640  1.00  0.00     0.000 C 
ENDROOT
BRANCH   1   2
ATOM      2  C   UNL     1     102.542 306.322 195.745  1.00  0.00     0.000 C 
BRANCH   2   3
ATOM      3  C   UNL     1     101.901 306.757 197.073  1.00  0.00     0.000 C 
BRANCH   3   4
ATOM      4  C   UNL     1     101.876 305.627 198.117  1.00  0.00     0.000 C 
BRANCH   4   5
ATOM      5  C   UNL     1     101.341 306.096 199.480  1.00  0.00     0.006 C 
BRANCH   5   6
ATOM      6  C   UNL     1     102.412 306.069 200.578  1.00  0.00     0.053 C 
BRANCH   6   7
ATOM      7  C   UNL     1     101.792 305.762 201.905  1.00  0.00     0.041 C 
ATOM      8  O   UNL     1     102.436 305.963 202.968  1.00  0.00    -0.550 OA
ATOM      9  O   UNL     1     100.484 305.301 201.969  1.00  0.00    -0.550 OA
ENDBRANCH   6   7
ENDBRANCH   5   6
ENDBRANCH   4   5
ENDBRANCH   3   4
ENDBRANCH   2   3
ENDBRANCH   1   2
BRANCH   1  10
ATOM     10  C   UNL     1     102.158 305.742 193.288  1.00  0.00     0.000 C 
BRANCH  10  11
ATOM     11  C   UNL     1     103.647 306.130 193.246  1.00  0.00    -0.000 C 
BRANCH  11  12
ATOM     12  C   UNL     1     103.899 307.367 192.358  1.00  0.00    -0.000 C 
BRANCH  12  13
ATOM     13  C   UNL     1     102.653 307.836 191.586  1.00  0.00    -0.000 C 
BRANCH  13  14
ATOM     14  C   UNL     1     102.139 309.206 192.056  1.00  0.00    -0.000 C 
BRANCH  14  15
ATOM     15  C   UNL     1     102.707 309.610 193.424  1.00  0.00    -0.003 C 
ATOM     16  C   UNL     1     101.624 309.779 194.490  1.00  0.00     0.004 C 
ENDBRANCH  14  15
ENDBRANCH  13  14
ENDBRANCH  12  13
ENDBRANCH  11  12
ENDBRANCH  10  11
ENDBRANCH   1  10
TORSDOF 12
ENDMDL
MODEL 2
REMARK VINA RESULT:    -5.423      1.196      2.241
REMARK INTER + INTRA:         -10.421
REMARK INTER:                  -9.526
REMARK INTRA:                  -0.895
REMARK UNBOUND:                -1.193
REMARK SMILES CCCCCCCCCCCCCC(=O)[O-]
REMARK SMILES IDX 8 1 9 2 10 3 11 4 12 5 13 6 14 7 15 8 16 9 7 10 6 11 5 12
REMARK SMILES IDX 4 13 3 14 2 15 1 16
REMARK H PARENT
REMARK Flexibility Score: inf
ROOT
ATOM      1  C   UNL     1     101.821 307.310 196.798  1.00  0.00     0.000 C 
ENDROOT
BRANCH   1   2
ATOM      2  C   UNL     1     101.896 305.877 197.357  1.00  0.00     0.000 C 
BRANCH   2   3
ATOM      3  C   UNL     1     101.511 305.802 198.844  1.00  0.00     0.000 C 
BRANCH   3   4
ATOM      4  C   UNL     1     101.369 307.191 199.490  1.00  0.00     0.000 C 
BRANCH   4   5
ATOM      5  C   UNL     1     101.965 307.245 200.907  1.00  0.00     0.006 C 
BRANCH   5   6
ATOM      6  C   UNL     1     102.516 305.891 201.371  1.00  0.00     0.053 C 
BRANCH   6   7
ATOM      7  C   UNL     1     101.734 305.384 202.542  1.00  0.00     0.041 C 
ATOM      8  O   UNL     1     102.330 304.969 203.571  1.00  0.00    -0.550 OA
ATOM      9  O   UNL     1     100.346 305.416 202.517  1.00  0.00    -0.550 OA
ENDBRANCH   6   7
ENDBRANCH   5   6
ENDBRANCH   4   5
ENDBRANCH   3   4
ENDBRANCH   2   3
ENDBRANCH   1   2
BRANCH   1  10
ATOM     10  C   UNL     1     101.634 307.329 195.272  1.00  0.00     0.000 C 
BRANCH  10  11
ATOM     11  C   UNL     1     101.533 305.915 194.671  1.00  0.00    -0.000 C 
BRANCH  11  12
ATOM     12  C   UNL     1     102.007 305.874 193.203  1.00  0.00    -0.000 C 
BRANCH  12  13
ATOM     13  C   UNL     1     103.448 306.376 193.006  1.00  0.00    -0.000 C 
BRANCH  13  14
ATOM     14  C   UNL     1     103.541 307.555 192.024  1.00  0.00    -0.000 C 
BRANCH  14  15
ATOM     15  C   UNL     1     102.181 307.916 191.408  1.00  0.00    -0.003 C 
ATOM     16  C   UNL     1     102.296 308.943 190.281  1.00  0.00     0.004 C 
ENDBRANCH  14  15
ENDBRANCH  13  14
ENDBRANCH  12  13
ENDBRANCH  11  12
ENDBRANCH  10  11
ENDBRANCH   1  10
TORSDOF 12
ENDMDL
MODEL 3
REMARK VINA RESULT:    -5.423      1.443      2.822
REMARK INTER + INTRA:         -10.420
REMARK INTER:                  -9.933
REMARK INTRA:                  -0.487
REMARK UNBOUND:                -1.193
REMARK SMILES CCCCCCCCCCCCCC(=O)[O-]
REMARK SMILES IDX 8 1 9 2 10 3 11 4 12 5 13 6 14 7 15 8 16 9 7 10 6 11 5 12
REMARK SMILES IDX 4 13 3 14 2 15 1 16
REMARK H PARENT
REMARK Flexibility Score: inf
ROOT
ATOM      1  C   UNL     1     101.875 305.676 197.147  1.00  0.00     0.000 C 
ENDROOT
BRANCH   1   2
ATOM      2  C   UNL     1     101.815 306.626 198.358  1.00  0.00     0.000 C 
BRANCH   2   3
ATOM      3  C   UNL     1     101.690 305.875 199.694  1.00  0.00     0.000 C 
BRANCH   3   4
ATOM      4  C   UNL     1     102.674 306.392 200.757  1.00  0.00     0.000 C 
BRANCH   4   5
ATOM      5  C   UNL     1     102.039 306.481 202.155  1.00  0.00     0.006 C 
BRANCH   5   6
ATOM      6  C   UNL     1     102.031 305.134 202.890  1.00  0.00     0.053 C 
BRANCH   6   7
ATOM      7  C   UNL     1     102.324 305.331 204.344  1.00  0.00     0.041 C 
ATOM      8  O   UNL     1     101.556 304.849 205.217  1.00  0.00    -0.550 OA
ATOM      9  O   UNL     1     103.473 306.006 204.734  1.00  0.00    -0.550 OA
ENDBRANCH   6   7
ENDBRANCH   5   6
ENDBRANCH   4   5
ENDBRANCH   3   4
ENDBRANCH   2   3
ENDBRANCH   1   2
BRANCH   1  10
ATOM     10  C   UNL     1     102.423 306.370 195.890  1.00  0.00     0.000 C 
BRANCH  10  11
ATOM     11  C   UNL     1     101.491 306.215 194.675  1.00  0.00    -0.000 C 
BRANCH  11  12
ATOM     12  C   UNL     1     102.265 305.825 193.397  1.00  0.00    -0.000 C 
BRANCH  12  13
ATOM     13  C   UNL     1     103.692 306.395 193.343  1.00  0.00    -0.000 C 
BRANCH  13  14
ATOM     14  C   UNL     1     103.886 307.413 192.207  1.00  0.00    -0.000 C 
BRANCH  14  15
ATOM     15  C   UNL     1     102.698 308.377 192.072  1.00  0.00    -0.003 C 
ATOM     16  C   UNL     1     102.191 308.496 190.635  1.00  0.00     0.004 C 
ENDBRANCH  14  15
ENDBRANCH  13  14
ENDBRANCH  12  13
ENDBRANCH  11  12
ENDBRANCH  10  11
ENDBRANCH   1  10
TORSDOF 12
ENDMDL
MODEL 4
REMARK VINA RESULT:    -5.383      4.708      8.386
REMARK INTER + INTRA:         -10.353
REMARK INTER:                  -9.631
REMARK INTRA:                  -0.722
REMARK UNBOUND:                -1.193
REMARK SMILES CCCCCCCCCCCCCC(=O)[O-]
REMARK SMILES IDX 8 1 9 2 10 3 11 4 12 5 13 6 14 7 15 8 16 9 7 10 6 11 5 12
REMARK SMILES IDX 4 13 3 14 2 15 1 16
REMARK H PARENT
REMARK Flexibility Score: inf
ROOT
ATOM      1  C   UNL     1     101.469 307.326 195.532  1.00  0.00     0.000 C 
ENDROOT
BRANCH   1   2
ATOM      2  C   UNL     1     101.408 305.926 194.895  1.00  0.00     0.000 C 
BRANCH   2   3
ATOM      3  C   UNL     1     101.861 305.923 193.425  1.00  0.00     0.000 C 
BRANCH   3   4
ATOM      4  C   UNL     1     103.362 306.220 193.269  1.00  0.00     0.000 C 
BRANCH   4   5
ATOM      5  C   UNL     1     103.636 307.374 192.290  1.00  0.00     0.006 C 
BRANCH   5   6
ATOM      6  C   UNL     1     102.367 307.865 191.582  1.00  0.00     0.053 C 
BRANCH   6   7
ATOM      7  C   UNL     1     102.719 308.809 190.475  1.00  0.00     0.041 C 
ATOM      8  O   UNL     1     103.886 309.271 190.383  1.00  0.00    -0.550 OA
ATOM      9  O   UNL     1     101.769 309.139 189.517  1.00  0.00    -0.550 OA
ENDBRANCH   6   7
ENDBRANCH   5   6
ENDBRANCH   4   5
ENDBRANCH   3   4
ENDBRANCH   2   3
ENDBRANCH   1   2
BRANCH   1  10
ATOM     10  C   UNL     1     102.073 307.296 196.945  1.00  0.00     0.000 C 
BRANCH  10  11
ATOM     11  C   UNL     1     101.879 305.937 197.641  1.00  0.00    -0.000 C 
BRANCH  11  12
ATOM     12  C   UNL     1     101.988 306.052 199.177  1.00  0.00    -0.000 C 
BRANCH  12  13
ATOM     13  C   UNL     1     100.629 306.210 199.881  1.00  0.00    -0.000 C 
BRANCH  13  14
ATOM     14  C   UNL     1     100.659 305.749 201.347  1.00  0.00    -0.000 C 
BRANCH  14  15
ATOM     15  C   UNL     1     102.085 305.686 201.916  1.00  0.00    -0.003 C 
ATOM     16  C   UNL     1     102.133 305.119 203.334  1.00  0.00     0.004 C 
ENDBRANCH  14  15
ENDBRANCH  13  14
ENDBRANCH  12  13
ENDBRANCH  11  12
ENDBRANCH  10  11
ENDBRANCH   1  10
TORSDOF 12
ENDMDL
MODEL 5
REMARK VINA RESULT:    -5.365     19.449     20.320
REMARK INTER + INTRA:         -10.321
REMARK INTER:                  -9.483
REMARK INTRA:                  -0.838
REMARK UNBOUND:                -1.193
REMARK SMILES CCCCCCCCCCCCCC(=O)[O-]
REMARK SMILES IDX 8 1 9 2 10 3 11 4 12 5 13 6 14 7 15 8 16 9 7 10 6 11 5 12
REMARK SMILES IDX 4 13 3 14 2 15 1 16
REMARK H PARENT
REMARK Flexibility Score: inf
ROOT
ATOM      1  C   UNL     1      87.294 319.363 196.280  1.00  0.00     0.000 C 
ENDROOT
BRANCH   1   2
ATOM      2  C   UNL     1      87.092 319.361 197.807  1.00  0.00     0.000 C 
BRANCH   2   3
ATOM      3  C   UNL     1      87.093 320.777 198.406  1.00  0.00     0.000 C 
BRANCH   3   4
ATOM      4  C   UNL     1      87.799 320.841 199.771  1.00  0.00     0.000 C 
BRANCH   4   5
ATOM      5  C   UNL     1      87.495 319.617 200.651  1.00  0.00     0.006 C 
BRANCH   5   6
ATOM      6  C   UNL     1      88.514 319.433 201.783  1.00  0.00     0.053 C 
BRANCH   6   7
ATOM      7  C   UNL     1      88.706 320.717 202.526  1.00  0.00     0.041 C 
ATOM      8  O   UNL     1      87.819 321.131 203.317  1.00  0.00    -0.550 OA
ATOM      9  O   UNL     1      89.888 321.432 202.382  1.00  0.00    -0.550 OA
ENDBRANCH   6   7
ENDBRANCH   5   6
ENDBRANCH   4   5
ENDBRANCH   3   4
ENDBRANCH   2   3
ENDBRANCH   1   2
BRANCH   1  10
ATOM     10  C   UNL     1      87.354 320.787 195.703  1.00  0.00     0.000 C 
BRANCH  10  11
ATOM     11  C   UNL     1      86.579 320.922 194.380  1.00  0.00    -0.000 C 
BRANCH  11  12
ATOM     12  C   UNL     1      85.173 320.291 194.465  1.00  0.00    -0.000 C 
BRANCH  12  13
ATOM     13  C   UNL     1      84.872 319.301 193.326  1.00  0.00    -0.000 C 
BRANCH  13  14
ATOM     14  C   UNL     1      86.132 318.875 192.556  1.00  0.00    -0.000 C 
BRANCH  14  15
ATOM     15  C   UNL     1      85.822 317.894 191.416  1.00  0.00    -0.003 C 
ATOM     16  C   UNL     1      84.465 317.208 191.577  1.00  0.00     0.004 C 
ENDBRANCH  14  15
ENDBRANCH  13  14
ENDBRANCH  12  13
ENDBRANCH  11  12
ENDBRANCH  10  11
ENDBRANCH   1  10
TORSDOF 12
ENDMDL
MODEL 6
REMARK VINA RESULT:    -5.311     19.413     20.480
REMARK INTER + INTRA:         -10.230
REMARK INTER:                  -9.253
REMARK INTRA:                  -0.977
REMARK UNBOUND:                -1.193
REMARK SMILES CCCCCCCCCCCCCC(=O)[O-]
REMARK SMILES IDX 8 1 9 2 10 3 11 4 12 5 13 6 14 7 15 8 16 9 7 10 6 11 5 12
REMARK SMILES IDX 4 13 3 14 2 15 1 16
REMARK H PARENT
REMARK Flexibility Score: inf
ROOT
ATOM      1  C   UNL     1      87.194 319.413 198.017  1.00  0.00     0.000 C 
ENDROOT
BRANCH   1   2
ATOM      2  C   UNL     1      87.241 320.869 198.514  1.00  0.00     0.000 C 
BRANCH   2   3
ATOM      3  C   UNL     1      87.692 320.981 199.980  1.00  0.00     0.000 C 
BRANCH   3   4
ATOM      4  C   UNL     1      87.490 319.671 200.762  1.00  0.00     0.000 C 
BRANCH   4   5
ATOM      5  C   UNL     1      86.819 319.896 202.127  1.00  0.00     0.006 C 
BRANCH   5   6
ATOM      6  C   UNL     1      87.775 319.662 203.304  1.00  0.00     0.053 C 
BRANCH   6   7
ATOM      7  C   UNL     1      88.214 320.969 203.887  1.00  0.00     0.041 C 
ATOM      8  O   UNL     1      89.186 321.592 203.387  1.00  0.00    -0.550 OA
ATOM      9  O   UNL     1      87.516 321.522 204.953  1.00  0.00    -0.550 OA
ENDBRANCH   6   7
ENDBRANCH   5   6
ENDBRANCH   4   5
ENDBRANCH   3   4
ENDBRANCH   2   3
ENDBRANCH   1   2
BRANCH   1  10
ATOM     10  C   UNL     1      86.916 319.322 196.508  1.00  0.00     0.000 C 
BRANCH  10  11
ATOM     11  C   UNL     1      87.312 320.605 195.756  1.00  0.00    -0.000 C 
BRANCH  11  12
ATOM     12  C   UNL     1      86.361 320.903 194.577  1.00  0.00    -0.000 C 
BRANCH  12  13
ATOM     13  C   UNL     1      85.023 320.149 194.659  1.00  0.00    -0.000 C 
BRANCH  13  14
ATOM     14  C   UNL     1      84.699 319.367 193.376  1.00  0.00    -0.000 C 
BRANCH  14  15
ATOM     15  C   UNL     1      85.958 318.821 192.685  1.00  0.00    -0.003 C 
ATOM     16  C   UNL     1      86.417 317.483 193.262  1.00  0.00     0.004 C 
ENDBRANCH  14  15
ENDBRANCH  13  14
ENDBRANCH  12  13
ENDBRANCH  11  12
ENDBRANCH  10  11
ENDBRANCH   1  10
TORSDOF 12
ENDMDL
MODEL 7
REMARK VINA RESULT:    -5.303      5.844      8.677
REMARK INTER + INTRA:         -10.217
REMARK INTER:                  -8.843
REMARK INTRA:                  -1.373
REMARK UNBOUND:                -1.193
REMARK SMILES CCCCCCCCCCCCCC(=O)[O-]
REMARK SMILES IDX 8 1 9 2 10 3 11 4 12 5 13 6 14 7 15 8 16 9 7 10 6 11 5 12
REMARK SMILES IDX 4 13 3 14 2 15 1 16
REMARK H PARENT
REMARK Flexibility Score: inf
ROOT
ATOM      1  C   UNL     1     102.243 307.343 191.826  1.00  0.00     0.000 C 
ENDROOT
BRANCH   1   2
ATOM      2  C   UNL     1     103.576 308.109 191.758  1.00  0.00     0.000 C 
BRANCH   2   3
ATOM      3  C   UNL     1     103.511 309.330 190.825  1.00  0.00     0.000 C 
BRANCH   3   4
ATOM      4  C   UNL     1     102.076 309.655 190.376  1.00  0.00     0.000 C 
BRANCH   4   5
ATOM      5  C   UNL     1     101.918 309.636 188.846  1.00  0.00     0.006 C 
BRANCH   5   6
ATOM      6  C   UNL     1     100.583 309.029 188.395  1.00  0.00     0.053 C 
BRANCH   6   7
ATOM      7  C   UNL     1      99.623 310.110 188.010  1.00  0.00     0.041 C 
ATOM      8  O   UNL     1     100.033 311.140 187.413  1.00  0.00    -0.550 OA
ATOM      9  O   UNL     1      98.267 309.957 188.265  1.00  0.00    -0.550 OA
ENDBRANCH   6   7
ENDBRANCH   5   6
ENDBRANCH   4   5
ENDBRANCH   3   4
ENDBRANCH   2   3
ENDBRANCH   1   2
BRANCH   1  10
ATOM     10  C   UNL     1     102.273 306.215 192.869  1.00  0.00     0.000 C 
BRANCH  10  11
ATOM     11  C   UNL     1     103.595 306.174 193.657  1.00  0.00    -0.000 C 
BRANCH  11  12
ATOM     12  C   UNL     1     103.363 306.218 195.182  1.00  0.00    -0.000 C 
BRANCH  12  13
ATOM     13  C   UNL     1     101.885 306.387 195.576  1.00  0.00    -0.000 C 
BRANCH  13  14
ATOM     14  C   UNL     1     101.640 307.622 196.458  1.00  0.00    -0.000 C 
BRANCH  14  15
ATOM     15  C   UNL     1     102.309 308.887 195.900  1.00  0.00    -0.003 C 
ATOM     16  C   UNL     1     101.554 309.481 194.711  1.00  0.00     0.004 C 
ENDBRANCH  14  15
ENDBRANCH  13  14
ENDBRANCH  12  13
ENDBRANCH  11  12
ENDBRANCH  10  11
ENDBRANCH   1  10
TORSDOF 12
ENDMDL
MODEL 8
REMARK VINA RESULT:    -5.297      1.667      2.565
REMARK INTER + INTRA:         -10.207
REMARK INTER:                  -9.618
REMARK INTRA:                  -0.589
REMARK UNBOUND:                -1.193
REMARK SMILES CCCCCCCCCCCCCC(=O)[O-]
REMARK SMILES IDX 8 1 9 2 10 3 11 4 12 5 13 6 14 7 15 8 16 9 7 10 6 11 5 12
REMARK SMILES IDX 4 13 3 14 2 15 1 16
REMARK H PARENT
REMARK Flexibility Score: inf
ROOT
ATOM      1  C   UNL     1     102.114 305.834 193.424  1.00  0.00     0.000 C 
ENDROOT
BRANCH   1   2
ATOM      2  C   UNL     1     101.478 306.136 194.793  1.00  0.00     0.000 C 
BRANCH   2   3
ATOM      3  C   UNL     1     102.523 306.465 195.872  1.00  0.00     0.000 C 
BRANCH   3   4
ATOM      4  C   UNL     1     101.884 306.909 197.199  1.00  0.00     0.000 C 
BRANCH   4   5
ATOM      5  C   UNL     1     101.932 305.810 198.273  1.00  0.00     0.006 C 
BRANCH   5   6
ATOM      6  C   UNL     1     101.201 306.208 199.562  1.00  0.00     0.053 C 
BRANCH   6   7
ATOM      7  C   UNL     1     102.178 306.393 200.680  1.00  0.00     0.041 C 
ATOM      8  O   UNL     1     102.215 305.571 201.633  1.00  0.00    -0.550 OA
ATOM      9  O   UNL     1     103.082 307.446 200.643  1.00  0.00    -0.550 OA
ENDBRANCH   6   7
ENDBRANCH   5   6
ENDBRANCH   4   5
ENDBRANCH   3   4
ENDBRANCH   2   3
ENDBRANCH   1   2
BRANCH   1  10
ATOM     10  C   UNL     1     103.587 306.271 193.358  1.00  0.00     0.000 C 
BRANCH  10  11
ATOM     11  C   UNL     1     103.829 307.377 192.315  1.00  0.00    -0.000 C 
BRANCH  11  12
ATOM     12  C   UNL     1     102.571 308.243 192.086  1.00  0.00    -0.000 C 
BRANCH  12  13
ATOM     13  C   UNL     1     102.248 308.479 190.600  1.00  0.00    -0.000 C 
BRANCH  13  14
ATOM     14  C   UNL     1     101.765 309.910 190.314  1.00  0.00    -0.000 C 
BRANCH  14  15
ATOM     15  C   UNL     1     101.321 310.101 188.856  1.00  0.00    -0.003 C 
ATOM     16  C   UNL     1     100.428 308.966 188.355  1.00  0.00     0.004 C 
ENDBRANCH  14  15
ENDBRANCH  13  14
ENDBRANCH  12  13
ENDBRANCH  11  12
ENDBRANCH  10  11
ENDBRANCH   1  10
TORSDOF 12
ENDMDL
