MODEL 1
REMARK VINA RESULT:    -4.115      0.000      0.000
REMARK INTER + INTRA:         -15.459
REMARK INTER:                 -10.370
REMARK INTRA:                  -5.089
REMARK UNBOUND:                -5.089
REMARK SMILES CCCCCCCCCCCCCCCCCCCCCCCCCCCC(=O)[O-]
REMARK SMILES IDX 15 1 16 2 17 3 18 4 19 5 20 6 21 7 22 8 23 9 24 10 25 11
REMARK SMILES IDX 26 12 27 13 28 14 29 15 30 16 14 17 13 18 12 19 11 20 10 21
REMARK SMILES IDX 9 22 8 23 7 24 6 25 5 26 4 27 3 28 2 29 1 30
REMARK H PARENT
REMARK Flexibility Score: inf
ROOT
ATOM      1  C   UNL     1     -29.810 -48.795  34.129  1.00  0.00     0.000 C 
ENDROOT
BRANCH   1   2
ATOM      2  C   UNL     1     -29.670 -48.638  32.604  1.00  0.00     0.000 C 
BRANCH   2   3
ATOM      3  C   UNL     1     -28.345 -49.198  32.059  1.00  0.00     0.000 C 
BRANCH   3   4
ATOM      4  C   UNL     1     -27.348 -48.091  31.670  1.00  0.00     0.000 C 
BRANCH   4   5
ATOM      5  C   UNL     1     -27.897 -46.651  31.757  1.00  0.00     0.000 C 
BRANCH   5   6
ATOM      6  C   UNL     1     -27.417 -45.841  32.975  1.00  0.00     0.000 C 
BRANCH   6   7
ATOM      7  C   UNL     1     -28.375 -44.696  33.339  1.00  0.00     0.000 C 
BRANCH   7   8
ATOM      8  C   UNL     1     -29.662 -45.233  33.981  1.00  0.00     0.000 C 
BRANCH   8   9
ATOM      9  C   UNL     1     -30.665 -44.122  34.331  1.00  0.00     0.000 C 
BRANCH   9  10
ATOM     10  C   UNL     1     -32.141 -44.562  34.215  1.00  0.00     0.000 C 
BRANCH  10  11
ATOM     11  C   UNL     1     -32.341 -46.033  34.621  1.00  0.00     0.000 C 
BRANCH  11  12
ATOM     12  C   UNL     1     -33.381 -46.759  33.747  1.00  0.00     0.006 C 
BRANCH  12  13
ATOM     13  C   UNL     1     -33.308 -48.292  33.822  1.00  0.00     0.053 C 
BRANCH  13  14
ATOM     14  C   UNL     1     -33.817 -48.816  35.131  1.00  0.00     0.041 C 
ATOM     15  O   UNL     1     -35.035 -48.693  35.432  1.00  0.00    -0.550 OA
ATOM     16  O   UNL     1     -32.944 -49.413  36.031  1.00  0.00    -0.550 OA
ENDBRANCH  13  14
ENDBRANCH  12  13
ENDBRANCH  11  12
ENDBRANCH  10  11
ENDBRANCH   9  10
ENDBRANCH   8   9
ENDBRANCH   7   8
ENDBRANCH   6   7
ENDBRANCH   5   6
ENDBRANCH   4   5
ENDBRANCH   3   4
ENDBRANCH   2   3
ENDBRANCH   1   2
BRANCH   1  17
ATOM     17  C   UNL     1     -28.647 -49.527  34.828  1.00  0.00     0.000 C 
BRANCH  17  18
ATOM     18  C   UNL     1     -27.769 -48.646  35.738  1.00  0.00     0.000 C 
BRANCH  18  19
ATOM     19  C   UNL     1     -26.337 -48.401  35.223  1.00  0.00     0.000 C 
BRANCH  19  20
ATOM     20  C   UNL     1     -25.429 -49.643  35.202  1.00  0.00     0.000 C 
BRANCH  20  21
ATOM     21  C   UNL     1     -25.150 -50.159  33.777  1.00  0.00     0.000 C 
BRANCH  21  22
ATOM     22  C   UNL     1     -25.512 -51.650  33.612  1.00  0.00    -0.000 C 
BRANCH  22  23
ATOM     23  C   UNL     1     -26.153 -51.992  32.256  1.00  0.00    -0.000 C 
BRANCH  23  24
ATOM     24  C   UNL     1     -27.473 -52.767  32.397  1.00  0.00    -0.000 C 
BRANCH  24  25
ATOM     25  C   UNL     1     -27.643 -53.428  33.778  1.00  0.00    -0.000 C 
BRANCH  25  26
ATOM     26  C   UNL     1     -28.942 -53.067  34.525  1.00  0.00    -0.000 C 
BRANCH  26  27
ATOM     27  C   UNL     1     -30.130 -52.816  33.578  1.00  0.00    -0.000 C 
BRANCH  27  28
ATOM     28  C   UNL     1     -31.315 -52.138  34.282  1.00  0.00    -0.000 C 
BRANCH  28  29
ATOM     29  C   UNL     1     -32.520 -51.942  33.349  1.00  0.00    -0.003 C 
ATOM     30  C   UNL     1     -33.062 -53.283  32.858  1.00  0.00     0.004 C 
ENDBRANCH  28  29
ENDBRANCH  27  28
ENDBRANCH  26  27
ENDBRANCH  25  26
ENDBRANCH  24  25
ENDBRANCH  23  24
ENDBRANCH  22  23
ENDBRANCH  21  22
ENDBRANCH  20  21
ENDBRANCH  19  20
ENDBRANCH  18  19
ENDBRANCH  17  18
ENDBRANCH   1  17
TORSDOF 26
ENDMDL
MODEL 2
REMARK VINA RESULT:    -4.115      8.231     10.640
REMARK INTER + INTRA:         -15.458
REMARK INTER:                 -10.648
REMARK INTRA:                  -4.811
REMARK UNBOUND:                -5.089
REMARK SMILES CCCCCCCCCCCCCCCCCCCCCCCCCCCC(=O)[O-]
REMARK SMILES IDX 15 1 16 2 17 3 18 4 19 5 20 6 21 7 22 8 23 9 24 10 25 11
REMARK SMILES IDX 26 12 27 13 28 14 29 15 30 16 14 17 13 18 12 19 11 20 10 21
REMARK SMILES IDX 9 22 8 23 7 24 6 25 5 26 4 27 3 28 2 29 1 30
REMARK H PARENT
REMARK Flexibility Score: inf
ROOT
ATOM      1  C   UNL     1     -26.096 -51.997  24.947  1.00  0.00     0.000 C 
ENDROOT
BRANCH   1   2
ATOM      2  C   UNL     1     -27.487 -52.635  24.770  1.00  0.00     0.000 C 
BRANCH   2   3
ATOM      3  C   UNL     1     -27.601 -53.488  23.496  1.00  0.00     0.000 C 
BRANCH   3   4
ATOM      4  C   UNL     1     -28.858 -54.379  23.488  1.00  0.00     0.000 C 
BRANCH   4   5
ATOM      5  C   UNL     1     -30.023 -53.866  22.617  1.00  0.00     0.000 C 
BRANCH   5   6
ATOM      6  C   UNL     1     -29.977 -52.363  22.282  1.00  0.00     0.000 C 
BRANCH   6   7
ATOM      7  C   UNL     1     -31.110 -51.572  22.951  1.00  0.00     0.000 C 
BRANCH   7   8
ATOM      8  C   UNL     1     -30.583 -50.278  23.587  1.00  0.00     0.000 C 
BRANCH   8   9
ATOM      9  C   UNL     1     -30.254 -49.192  22.550  1.00  0.00     0.000 C 
BRANCH   9  10
ATOM     10  C   UNL     1     -30.803 -47.797  22.920  1.00  0.00     0.000 C 
BRANCH  10  11
ATOM     11  C   UNL     1     -30.022 -46.665  22.230  1.00  0.00     0.000 C 
BRANCH  11  12
ATOM     12  C   UNL     1     -29.959 -45.379  23.077  1.00  0.00     0.006 C 
BRANCH  12  13
ATOM     13  C   UNL     1     -30.936 -44.281  22.628  1.00  0.00     0.053 C 
BRANCH  13  14
ATOM     14  C   UNL     1     -32.063 -44.099  23.600  1.00  0.00     0.041 C 
ATOM     15  O   UNL     1     -33.168 -43.638  23.208  1.00  0.00    -0.550 OA
ATOM     16  O   UNL     1     -31.884 -44.410  24.942  1.00  0.00    -0.550 OA
ENDBRANCH  13  14
ENDBRANCH  12  13
ENDBRANCH  11  12
ENDBRANCH  10  11
ENDBRANCH   9  10
ENDBRANCH   8   9
ENDBRANCH   7   8
ENDBRANCH   6   7
ENDBRANCH   5   6
ENDBRANCH   4   5
ENDBRANCH   3   4
ENDBRANCH   2   3
ENDBRANCH   1   2
BRANCH   1  17
ATOM     17  C   UNL     1     -26.024 -50.482  24.668  1.00  0.00     0.000 C 
BRANCH  17  18
ATOM     18  C   UNL     1     -26.940 -49.980  23.535  1.00  0.00     0.000 C 
BRANCH  18  19
ATOM     19  C   UNL     1     -26.592 -48.582  22.987  1.00  0.00     0.000 C 
BRANCH  19  20
ATOM     20  C   UNL     1     -25.942 -47.626  24.003  1.00  0.00     0.000 C 
BRANCH  20  21
ATOM     21  C   UNL     1     -26.944 -46.630  24.616  1.00  0.00     0.000 C 
BRANCH  21  22
ATOM     22  C   UNL     1     -27.451 -47.084  26.001  1.00  0.00    -0.000 C 
BRANCH  22  23
ATOM     23  C   UNL     1     -28.803 -47.818  25.965  1.00  0.00    -0.000 C 
BRANCH  23  24
ATOM     24  C   UNL     1     -28.765 -49.176  26.685  1.00  0.00    -0.000 C 
BRANCH  24  25
ATOM     25  C   UNL     1     -27.935 -49.151  27.982  1.00  0.00    -0.000 C 
BRANCH  25  26
ATOM     26  C   UNL     1     -27.113 -50.425  28.262  1.00  0.00    -0.000 C 
BRANCH  26  27
ATOM     27  C   UNL     1     -27.978 -51.697  28.323  1.00  0.00    -0.000 C 
BRANCH  27  28
ATOM     28  C   UNL     1     -27.140 -52.977  28.458  1.00  0.00    -0.000 C 
BRANCH  28  29
ATOM     29  C   UNL     1     -25.758 -52.714  29.076  1.00  0.00    -0.003 C 
ATOM     30  C   UNL     1     -24.639 -53.125  28.121  1.00  0.00     0.004 C 
ENDBRANCH  28  29
ENDBRANCH  27  28
ENDBRANCH  26  27
ENDBRANCH  25  26
ENDBRANCH  24  25
ENDBRANCH  23  24
ENDBRANCH  22  23
ENDBRANCH  21  22
ENDBRANCH  20  21
ENDBRANCH  19  20
ENDBRANCH  18  19
ENDBRANCH  17  18
ENDBRANCH   1  17
TORSDOF 26
ENDMDL
MODEL 3
REMARK VINA RESULT:    -4.063      1.667      3.403
REMARK INTER + INTRA:         -15.328
REMARK INTER:                 -10.435
REMARK INTRA:                  -4.893
REMARK UNBOUND:                -5.089
REMARK SMILES CCCCCCCCCCCCCCCCCCCCCCCCCCCC(=O)[O-]
REMARK SMILES IDX 15 1 16 2 17 3 18 4 19 5 20 6 21 7 22 8 23 9 24 10 25 11
REMARK SMILES IDX 26 12 27 13 28 14 29 15 30 16 14 17 13 18 12 19 11 20 10 21
REMARK SMILES IDX 9 22 8 23 7 24 6 25 5 26 4 27 3 28 2 29 1 30
REMARK H PARENT
REMARK Flexibility Score: inf
ROOT
ATOM      1  C   UNL     1     -29.838 -48.733  32.379  1.00  0.00     0.000 C 
ENDROOT
BRANCH   1   2
ATOM      2  C   UNL     1     -29.429 -48.308  30.956  1.00  0.00     0.000 C 
BRANCH   2   3
ATOM      3  C   UNL     1     -27.927 -48.493  30.681  1.00  0.00     0.000 C 
BRANCH   3   4
ATOM      4  C   UNL     1     -27.104 -47.233  31.007  1.00  0.00     0.000 C 
BRANCH   4   5
ATOM      5  C   UNL     1     -27.877 -45.900  30.916  1.00  0.00     0.000 C 
BRANCH   5   6
ATOM      6  C   UNL     1     -27.683 -44.949  32.112  1.00  0.00     0.000 C 
BRANCH   6   7
ATOM      7  C   UNL     1     -28.324 -45.481  33.402  1.00  0.00     0.000 C 
BRANCH   7   8
ATOM      8  C   UNL     1     -29.360 -44.492  33.955  1.00  0.00     0.000 C 
BRANCH   8   9
ATOM      9  C   UNL     1     -30.692 -45.164  34.327  1.00  0.00     0.000 C 
BRANCH   9  10
ATOM     10  C   UNL     1     -31.930 -44.287  34.035  1.00  0.00     0.000 C 
BRANCH  10  11
ATOM     11  C   UNL     1     -33.118 -45.116  33.516  1.00  0.00     0.000 C 
BRANCH  11  12
ATOM     12  C   UNL     1     -33.849 -45.879  34.637  1.00  0.00     0.006 C 
BRANCH  12  13
ATOM     13  C   UNL     1     -34.403 -47.248  34.210  1.00  0.00     0.053 C 
BRANCH  13  14
ATOM     14  C   UNL     1     -35.844 -47.169  33.802  1.00  0.00     0.041 C 
ATOM     15  O   UNL     1     -36.153 -47.066  32.585  1.00  0.00    -0.550 OA
ATOM     16  O   UNL     1     -36.843 -47.179  34.768  1.00  0.00    -0.550 OA
ENDBRANCH  13  14
ENDBRANCH  12  13
ENDBRANCH  11  12
ENDBRANCH  10  11
ENDBRANCH   9  10
ENDBRANCH   8   9
ENDBRANCH   7   8
ENDBRANCH   6   7
ENDBRANCH   5   6
ENDBRANCH   4   5
ENDBRANCH   3   4
ENDBRANCH   2   3
ENDBRANCH   1   2
BRANCH   1  17
ATOM     17  C   UNL     1     -31.072 -49.655  32.463  1.00  0.00     0.000 C 
BRANCH  17  18
ATOM     18  C   UNL     1     -30.761 -51.145  32.704  1.00  0.00     0.000 C 
BRANCH  18  19
ATOM     19  C   UNL     1     -31.120 -51.666  34.110  1.00  0.00     0.000 C 
BRANCH  19  20
ATOM     20  C   UNL     1     -29.963 -52.334  34.874  1.00  0.00     0.000 C 
BRANCH  20  21
ATOM     21  C   UNL     1     -29.350 -53.526  34.114  1.00  0.00     0.000 C 
BRANCH  21  22
ATOM     22  C   UNL     1     -27.815 -53.420  33.998  1.00  0.00    -0.000 C 
BRANCH  22  23
ATOM     23  C   UNL     1     -27.229 -52.123  34.582  1.00  0.00    -0.000 C 
BRANCH  23  24
ATOM     24  C   UNL     1     -26.952 -51.056  33.509  1.00  0.00    -0.000 C 
BRANCH  24  25
ATOM     25  C   UNL     1     -26.954 -49.621  34.067  1.00  0.00    -0.000 C 
BRANCH  25  26
ATOM     26  C   UNL     1     -27.382 -49.488  35.542  1.00  0.00    -0.000 C 
BRANCH  26  27
ATOM     27  C   UNL     1     -28.468 -48.419  35.759  1.00  0.00    -0.000 C 
BRANCH  27  28
ATOM     28  C   UNL     1     -29.734 -48.985  36.419  1.00  0.00    -0.000 C 
BRANCH  28  29
ATOM     29  C   UNL     1     -31.020 -48.357  35.860  1.00  0.00    -0.003 C 
ATOM     30  C   UNL     1     -32.188 -48.537  36.827  1.00  0.00     0.004 C 
ENDBRANCH  28  29
ENDBRANCH  27  28
ENDBRANCH  26  27
ENDBRANCH  25  26
ENDBRANCH  24  25
ENDBRANCH  23  24
ENDBRANCH  22  23
ENDBRANCH  21  22
ENDBRANCH  20  21
ENDBRANCH  19  20
ENDBRANCH  18  19
ENDBRANCH  17  18
ENDBRANCH   1  17
TORSDOF 26
ENDMDL
MODEL 4
REMARK VINA RESULT:    -4.062      3.025      5.892
REMARK INTER + INTRA:         -15.325
REMARK INTER:                  -9.805
REMARK INTRA:                  -5.520
REMARK UNBOUND:                -5.089
REMARK SMILES CCCCCCCCCCCCCCCCCCCCCCCCCCCC(=O)[O-]
REMARK SMILES IDX 15 1 16 2 17 3 18 4 19 5 20 6 21 7 22 8 23 9 24 10 25 11
REMARK SMILES IDX 26 12 27 13 28 14 29 15 30 16 14 17 13 18 12 19 11 20 10 21
REMARK SMILES IDX 9 22 8 23 7 24 6 25 5 26 4 27 3 28 2 29 1 30
REMARK H PARENT
REMARK Flexibility Score: inf
ROOT
ATOM      1  C   UNL     1     -35.204 -48.642  33.884  1.00  0.00     0.000 C 
ENDROOT
BRANCH   1   2
ATOM      2  C   UNL     1     -35.768 -47.209  33.886  1.00  0.00     0.000 C 
BRANCH   2   3
ATOM      3  C   UNL     1     -35.111 -46.301  32.832  1.00  0.00     0.000 C 
BRANCH   3   4
ATOM      4  C   UNL     1     -33.612 -46.069  33.099  1.00  0.00     0.000 C 
BRANCH   4   5
ATOM      5  C   UNL     1     -33.276 -45.462  34.477  1.00  0.00     0.000 C 
BRANCH   5   6
ATOM      6  C   UNL     1     -31.900 -45.856  35.048  1.00  0.00     0.000 C 
BRANCH   6   7
ATOM      7  C   UNL     1     -31.037 -46.623  34.034  1.00  0.00     0.000 C 
BRANCH   7   8
ATOM      8  C   UNL     1     -29.569 -46.672  34.481  1.00  0.00     0.000 C 
BRANCH   8   9
ATOM      9  C   UNL     1     -28.587 -46.773  33.302  1.00  0.00     0.000 C 
BRANCH   9  10
ATOM     10  C   UNL     1     -27.607 -47.961  33.413  1.00  0.00     0.000 C 
BRANCH  10  11
ATOM     11  C   UNL     1     -26.832 -47.950  34.743  1.00  0.00     0.000 C 
BRANCH  11  12
ATOM     12  C   UNL     1     -26.590 -49.364  35.304  1.00  0.00     0.006 C 
BRANCH  12  13
ATOM     13  C   UNL     1     -26.486 -50.459  34.231  1.00  0.00     0.053 C 
BRANCH  13  14
ATOM     14  C   UNL     1     -25.061 -50.811  33.923  1.00  0.00     0.041 C 
ATOM     15  O   UNL     1     -24.710 -51.051  32.736  1.00  0.00    -0.550 OA
ATOM     16  O   UNL     1     -24.129 -50.905  34.948  1.00  0.00    -0.550 OA
ENDBRANCH  13  14
ENDBRANCH  12  13
ENDBRANCH  11  12
ENDBRANCH  10  11
ENDBRANCH   9  10
ENDBRANCH   8   9
ENDBRANCH   7   8
ENDBRANCH   6   7
ENDBRANCH   5   6
ENDBRANCH   4   5
ENDBRANCH   3   4
ENDBRANCH   2   3
ENDBRANCH   1   2
BRANCH   1  17
ATOM     17  C   UNL     1     -35.008 -49.276  35.276  1.00  0.00     0.000 C 
BRANCH  17  18
ATOM     18  C   UNL     1     -33.690 -48.909  35.984  1.00  0.00     0.000 C 
BRANCH  18  19
ATOM     19  C   UNL     1     -32.508 -49.856  35.696  1.00  0.00     0.000 C 
BRANCH  19  20
ATOM     20  C   UNL     1     -31.153 -49.402  36.265  1.00  0.00     0.000 C 
BRANCH  20  21
ATOM     21  C   UNL     1     -29.955 -50.095  35.589  1.00  0.00     0.000 C 
BRANCH  21  22
ATOM     22  C   UNL     1     -29.985 -51.628  35.772  1.00  0.00    -0.000 C 
BRANCH  22  23
ATOM     23  C   UNL     1     -29.970 -52.417  34.451  1.00  0.00    -0.000 C 
BRANCH  23  24
ATOM     24  C   UNL     1     -31.117 -53.437  34.352  1.00  0.00    -0.000 C 
BRANCH  24  25
ATOM     25  C   UNL     1     -31.918 -53.322  33.041  1.00  0.00    -0.000 C 
BRANCH  25  26
ATOM     26  C   UNL     1     -32.907 -52.143  32.974  1.00  0.00    -0.000 C 
BRANCH  26  27
ATOM     27  C   UNL     1     -32.585 -51.151  31.842  1.00  0.00    -0.000 C 
BRANCH  27  28
ATOM     28  C   UNL     1     -31.968 -49.842  32.358  1.00  0.00    -0.000 C 
BRANCH  28  29
ATOM     29  C   UNL     1     -30.486 -49.701  31.980  1.00  0.00    -0.003 C 
ATOM     30  C   UNL     1     -30.051 -50.809  31.023  1.00  0.00     0.004 C 
ENDBRANCH  28  29
ENDBRANCH  27  28
ENDBRANCH  26  27
ENDBRANCH  25  26
ENDBRANCH  24  25
ENDBRANCH  23  24
ENDBRANCH  22  23
ENDBRANCH  21  22
ENDBRANCH  20  21
ENDBRANCH  19  20
ENDBRANCH  18  19
ENDBRANCH  17  18
ENDBRANCH   1  17
TORSDOF 26
ENDMDL
MODEL 5
REMARK VINA RESULT:    -4.052      2.638      7.827
REMARK INTER + INTRA:         -15.299
REMARK INTER:                 -10.318
REMARK INTRA:                  -4.980
REMARK UNBOUND:                -5.089
REMARK SMILES CCCCCCCCCCCCCCCCCCCCCCCCCCCC(=O)[O-]
REMARK SMILES IDX 15 1 16 2 17 3 18 4 19 5 20 6 21 7 22 8 23 9 24 10 25 11
REMARK SMILES IDX 26 12 27 13 28 14 29 15 30 16 14 17 13 18 12 19 11 20 10 21
REMARK SMILES IDX 9 22 8 23 7 24 6 25 5 26 4 27 3 28 2 29 1 30
REMARK H PARENT
REMARK Flexibility Score: inf
ROOT
ATOM      1  C   UNL     1     -29.483 -48.379  33.015  1.00  0.00     0.000 C 
ENDROOT
BRANCH   1   2
ATOM      2  C   UNL     1     -29.315 -48.186  34.533  1.00  0.00     0.000 C 
BRANCH   2   3
ATOM      3  C   UNL     1     -27.849 -48.263  34.993  1.00  0.00     0.000 C 
BRANCH   3   4
ATOM      4  C   UNL     1     -27.650 -49.221  36.183  1.00  0.00     0.000 C 
BRANCH   4   5
ATOM      5  C   UNL     1     -28.948 -49.713  36.855  1.00  0.00     0.000 C 
BRANCH   5   6
ATOM      6  C   UNL     1     -29.254 -51.211  36.668  1.00  0.00     0.000 C 
BRANCH   6   7
ATOM      7  C   UNL     1     -30.305 -51.469  35.577  1.00  0.00     0.000 C 
BRANCH   7   8
ATOM      8  C   UNL     1     -30.204 -52.903  35.038  1.00  0.00     0.000 C 
BRANCH   8   9
ATOM      9  C   UNL     1     -29.391 -52.997  33.736  1.00  0.00     0.000 C 
BRANCH   9  10
ATOM     10  C   UNL     1     -27.962 -53.548  33.937  1.00  0.00     0.000 C 
BRANCH  10  11
ATOM     11  C   UNL     1     -26.907 -52.706  33.198  1.00  0.00     0.000 C 
BRANCH  11  12
ATOM     12  C   UNL     1     -26.253 -51.641  34.098  1.00  0.00     0.006 C 
BRANCH  12  13
ATOM     13  C   UNL     1     -24.923 -51.091  33.559  1.00  0.00     0.053 C 
BRANCH  13  14
ATOM     14  C   UNL     1     -25.103 -50.351  32.268  1.00  0.00     0.041 C 
ATOM     15  O   UNL     1     -24.250 -50.467  31.347  1.00  0.00    -0.550 OA
ATOM     16  O   UNL     1     -26.194 -49.510  32.092  1.00  0.00    -0.550 OA
ENDBRANCH  13  14
ENDBRANCH  12  13
ENDBRANCH  11  12
ENDBRANCH  10  11
ENDBRANCH   9  10
ENDBRANCH   8   9
ENDBRANCH   7   8
ENDBRANCH   6   7
ENDBRANCH   5   6
ENDBRANCH   4   5
ENDBRANCH   3   4
ENDBRANCH   2   3
ENDBRANCH   1   2
BRANCH   1  17
ATOM     17  C   UNL     1     -30.407 -49.540  32.595  1.00  0.00     0.000 C 
BRANCH  17  18
ATOM     18  C   UNL     1     -31.677 -49.123  31.827  1.00  0.00     0.000 C 
BRANCH  18  19
ATOM     19  C   UNL     1     -32.982 -49.778  32.321  1.00  0.00     0.000 C 
BRANCH  19  20
ATOM     20  C   UNL     1     -32.933 -50.331  33.756  1.00  0.00     0.000 C 
BRANCH  20  21
ATOM     21  C   UNL     1     -33.601 -49.397  34.783  1.00  0.00     0.000 C 
BRANCH  21  22
ATOM     22  C   UNL     1     -32.594 -48.427  35.436  1.00  0.00    -0.000 C 
BRANCH  22  23
ATOM     23  C   UNL     1     -32.990 -46.944  35.327  1.00  0.00    -0.000 C 
BRANCH  23  24
ATOM     24  C   UNL     1     -33.132 -46.469  33.872  1.00  0.00    -0.000 C 
BRANCH  24  25
ATOM     25  C   UNL     1     -32.034 -45.474  33.449  1.00  0.00    -0.000 C 
BRANCH  25  26
ATOM     26  C   UNL     1     -31.032 -45.092  34.555  1.00  0.00    -0.000 C 
BRANCH  26  27
ATOM     27  C   UNL     1     -29.998 -44.048  34.095  1.00  0.00    -0.000 C 
BRANCH  27  28
ATOM     28  C   UNL     1     -28.636 -44.674  33.757  1.00  0.00    -0.000 C 
BRANCH  28  29
ATOM     29  C   UNL     1     -28.517 -45.060  32.274  1.00  0.00    -0.003 C 
ATOM     30  C   UNL     1     -27.210 -44.548  31.673  1.00  0.00     0.004 C 
ENDBRANCH  28  29
ENDBRANCH  27  28
ENDBRANCH  26  27
ENDBRANCH  25  26
ENDBRANCH  24  25
ENDBRANCH  23  24
ENDBRANCH  22  23
ENDBRANCH  21  22
ENDBRANCH  20  21
ENDBRANCH  19  20
ENDBRANCH  18  19
ENDBRANCH  17  18
ENDBRANCH   1  17
TORSDOF 26
ENDMDL
MODEL 6
REMARK VINA RESULT:    -4.014      3.688      7.722
REMARK INTER + INTRA:         -15.203
REMARK INTER:                 -10.120
REMARK INTRA:                  -5.083
REMARK UNBOUND:                -5.089
REMARK SMILES CCCCCCCCCCCCCCCCCCCCCCCCCCCC(=O)[O-]
REMARK SMILES IDX 15 1 16 2 17 3 18 4 19 5 20 6 21 7 22 8 23 9 24 10 25 11
REMARK SMILES IDX 26 12 27 13 28 14 29 15 30 16 14 17 13 18 12 19 11 20 10 21
REMARK SMILES IDX 9 22 8 23 7 24 6 25 5 26 4 27 3 28 2 29 1 30
REMARK H PARENT
REMARK Flexibility Score: inf
ROOT
ATOM      1  C   UNL     1     -29.870 -51.536  31.810  1.00  0.00     0.000 C 
ENDROOT
BRANCH   1   2
ATOM      2  C   UNL     1     -31.295 -51.638  32.384  1.00  0.00     0.000 C 
BRANCH   2   3
ATOM      3  C   UNL     1     -31.455 -52.781  33.401  1.00  0.00     0.000 C 
BRANCH   3   4
ATOM      4  C   UNL     1     -30.132 -53.141  34.103  1.00  0.00     0.000 C 
BRANCH   4   5
ATOM      5  C   UNL     1     -29.823 -52.330  35.378  1.00  0.00     0.000 C 
BRANCH   5   6
ATOM      6  C   UNL     1     -28.433 -51.667  35.411  1.00  0.00     0.000 C 
BRANCH   6   7
ATOM      7  C   UNL     1     -27.386 -52.448  34.604  1.00  0.00     0.000 C 
BRANCH   7   8
ATOM      8  C   UNL     1     -26.369 -51.501  33.951  1.00  0.00     0.000 C 
BRANCH   8   9
ATOM      9  C   UNL     1     -25.658 -52.127  32.740  1.00  0.00     0.000 C 
BRANCH   9  10
ATOM     10  C   UNL     1     -26.546 -53.104  31.938  1.00  0.00     0.000 C 
BRANCH  10  11
ATOM     11  C   UNL     1     -25.931 -53.460  30.574  1.00  0.00     0.000 C 
BRANCH  11  12
ATOM     12  C   UNL     1     -25.404 -52.227  29.815  1.00  0.00     0.006 C 
BRANCH  12  13
ATOM     13  C   UNL     1     -26.061 -52.003  28.444  1.00  0.00     0.053 C 
BRANCH  13  14
ATOM     14  C   UNL     1     -25.736 -53.102  27.478  1.00  0.00     0.041 C 
ATOM     15  O   UNL     1     -24.566 -53.221  27.025  1.00  0.00    -0.550 OA
ATOM     16  O   UNL     1     -26.730 -53.976  27.054  1.00  0.00    -0.550 OA
ENDBRANCH  13  14
ENDBRANCH  12  13
ENDBRANCH  11  12
ENDBRANCH  10  11
ENDBRANCH   9  10
ENDBRANCH   8   9
ENDBRANCH   7   8
ENDBRANCH   6   7
ENDBRANCH   5   6
ENDBRANCH   4   5
ENDBRANCH   3   4
ENDBRANCH   2   3
ENDBRANCH   1   2
BRANCH   1  17
ATOM     17  C   UNL     1     -29.179 -50.170  31.996  1.00  0.00     0.000 C 
BRANCH  17  18
ATOM     18  C   UNL     1     -28.205 -49.768  30.871  1.00  0.00     0.000 C 
BRANCH  18  19
ATOM     19  C   UNL     1     -26.958 -48.990  31.336  1.00  0.00     0.000 C 
BRANCH  19  20
ATOM     20  C   UNL     1     -26.645 -47.717  30.529  1.00  0.00     0.000 C 
BRANCH  20  21
ATOM     21  C   UNL     1     -27.912 -46.987  30.045  1.00  0.00     0.000 C 
BRANCH  21  22
ATOM     22  C   UNL     1     -28.077 -45.600  30.702  1.00  0.00    -0.000 C 
BRANCH  22  23
ATOM     23  C   UNL     1     -26.935 -45.221  31.661  1.00  0.00    -0.000 C 
BRANCH  23  24
ATOM     24  C   UNL     1     -27.368 -45.225  33.136  1.00  0.00    -0.000 C 
BRANCH  24  25
ATOM     25  C   UNL     1     -28.887 -45.058  33.323  1.00  0.00    -0.000 C 
BRANCH  25  26
ATOM     26  C   UNL     1     -29.625 -46.300  33.860  1.00  0.00    -0.000 C 
BRANCH  26  27
ATOM     27  C   UNL     1     -28.669 -47.411  34.330  1.00  0.00    -0.000 C 
BRANCH  27  28
ATOM     28  C   UNL     1     -29.171 -48.131  35.591  1.00  0.00    -0.000 C 
BRANCH  28  29
ATOM     29  C   UNL     1     -30.596 -48.681  35.426  1.00  0.00    -0.003 C 
ATOM     30  C   UNL     1     -31.475 -48.304  36.616  1.00  0.00     0.004 C 
ENDBRANCH  28  29
ENDBRANCH  27  28
ENDBRANCH  26  27
ENDBRANCH  25  26
ENDBRANCH  24  25
ENDBRANCH  23  24
ENDBRANCH  22  23
ENDBRANCH  21  22
ENDBRANCH  20  21
ENDBRANCH  19  20
ENDBRANCH  18  19
ENDBRANCH  17  18
ENDBRANCH   1  17
TORSDOF 26
ENDMDL
MODEL 7
REMARK VINA RESULT:    -4.009      4.830      7.441
REMARK INTER + INTRA:         -15.190
REMARK INTER:                  -9.798
REMARK INTRA:                  -5.393
REMARK UNBOUND:                -5.089
REMARK SMILES CCCCCCCCCCCCCCCCCCCCCCCCCCCC(=O)[O-]
REMARK SMILES IDX 15 1 16 2 17 3 18 4 19 5 20 6 21 7 22 8 23 9 24 10 25 11
REMARK SMILES IDX 26 12 27 13 28 14 29 15 30 16 14 17 13 18 12 19 11 20 10 21
REMARK SMILES IDX 9 22 8 23 7 24 6 25 5 26 4 27 3 28 2 29 1 30
REMARK H PARENT
REMARK Flexibility Score: inf
ROOT
ATOM      1  C   UNL     1     -26.064 -53.783  30.116  1.00  0.00     0.000 C 
ENDROOT
BRANCH   1   2
ATOM      2  C   UNL     1     -26.161 -53.888  31.650  1.00  0.00     0.000 C 
BRANCH   2   3
ATOM      3  C   UNL     1     -27.436 -53.242  32.219  1.00  0.00     0.000 C 
BRANCH   3   4
ATOM      4  C   UNL     1     -28.237 -52.470  31.154  1.00  0.00     0.000 C 
BRANCH   4   5
ATOM      5  C   UNL     1     -28.891 -51.162  31.644  1.00  0.00     0.000 C 
BRANCH   5   6
ATOM      6  C   UNL     1     -28.475 -49.894  30.875  1.00  0.00     0.000 C 
BRANCH   6   7
ATOM      7  C   UNL     1     -28.314 -50.141  29.368  1.00  0.00     0.000 C 
BRANCH   7   8
ATOM      8  C   UNL     1     -29.676 -50.146  28.659  1.00  0.00     0.000 C 
BRANCH   8   9
ATOM      9  C   UNL     1     -29.829 -51.309  27.664  1.00  0.00     0.000 C 
BRANCH   9  10
ATOM     10  C   UNL     1     -28.566 -52.190  27.543  1.00  0.00     0.000 C 
BRANCH  10  11
ATOM     11  C   UNL     1     -28.885 -53.686  27.708  1.00  0.00     0.000 C 
BRANCH  11  12
ATOM     12  C   UNL     1     -28.092 -54.578  26.734  1.00  0.00     0.006 C 
BRANCH  12  13
ATOM     13  C   UNL     1     -27.034 -53.825  25.911  1.00  0.00     0.053 C 
BRANCH  13  14
ATOM     14  C   UNL     1     -27.368 -53.804  24.450  1.00  0.00     0.041 C 
ATOM     15  O   UNL     1     -27.351 -52.717  23.812  1.00  0.00    -0.550 OA
ATOM     16  O   UNL     1     -27.727 -54.978  23.799  1.00  0.00    -0.550 OA
ENDBRANCH  13  14
ENDBRANCH  12  13
ENDBRANCH  11  12
ENDBRANCH  10  11
ENDBRANCH   9  10
ENDBRANCH   8   9
ENDBRANCH   7   8
ENDBRANCH   6   7
ENDBRANCH   5   6
ENDBRANCH   4   5
ENDBRANCH   3   4
ENDBRANCH   2   3
ENDBRANCH   1   2
BRANCH   1  17
ATOM     17  C   UNL     1     -24.898 -52.925  29.585  1.00  0.00     0.000 C 
BRANCH  17  18
ATOM     18  C   UNL     1     -25.006 -51.417  29.881  1.00  0.00     0.000 C 
BRANCH  18  19
ATOM     19  C   UNL     1     -24.226 -50.938  31.122  1.00  0.00     0.000 C 
BRANCH  19  20
ATOM     20  C   UNL     1     -25.090 -50.336  32.244  1.00  0.00     0.000 C 
BRANCH  20  21
ATOM     21  C   UNL     1     -24.815 -50.972  33.620  1.00  0.00     0.000 C 
BRANCH  21  22
ATOM     22  C   UNL     1     -25.575 -50.258  34.758  1.00  0.00    -0.000 C 
BRANCH  22  23
ATOM     23  C   UNL     1     -26.813 -49.473  34.289  1.00  0.00    -0.000 C 
BRANCH  23  24
ATOM     24  C   UNL     1     -28.103 -49.913  35.000  1.00  0.00    -0.000 C 
BRANCH  24  25
ATOM     25  C   UNL     1     -28.080 -51.389  35.441  1.00  0.00    -0.000 C 
BRANCH  25  26
ATOM     26  C   UNL     1     -29.377 -52.176  35.172  1.00  0.00    -0.000 C 
BRANCH  26  27
ATOM     27  C   UNL     1     -30.644 -51.313  35.311  1.00  0.00    -0.000 C 
BRANCH  27  28
ATOM     28  C   UNL     1     -31.670 -51.582  34.200  1.00  0.00    -0.000 C 
BRANCH  28  29
ATOM     29  C   UNL     1     -31.561 -53.005  33.630  1.00  0.00    -0.003 C 
ATOM     30  C   UNL     1     -32.905 -53.488  33.089  1.00  0.00     0.004 C 
ENDBRANCH  28  29
ENDBRANCH  27  28
ENDBRANCH  26  27
ENDBRANCH  25  26
ENDBRANCH  24  25
ENDBRANCH  23  24
ENDBRANCH  22  23
ENDBRANCH  21  22
ENDBRANCH  20  21
ENDBRANCH  19  20
ENDBRANCH  18  19
ENDBRANCH  17  18
ENDBRANCH   1  17
TORSDOF 26
ENDMDL
MODEL 8
REMARK VINA RESULT:    -4.003      1.442      5.134
REMARK INTER + INTRA:         -15.175
REMARK INTER:                  -9.449
REMARK INTRA:                  -5.726
REMARK UNBOUND:                -5.089
REMARK SMILES CCCCCCCCCCCCCCCCCCCCCCCCCCCC(=O)[O-]
REMARK SMILES IDX 15 1 16 2 17 3 18 4 19 5 20 6 21 7 22 8 23 9 24 10 25 11
REMARK SMILES IDX 26 12 27 13 28 14 29 15 30 16 14 17 13 18 12 19 11 20 10 21
REMARK SMILES IDX 9 22 8 23 7 24 6 25 5 26 4 27 3 28 2 29 1 30
REMARK H PARENT
REMARK Flexibility Score: inf
ROOT
ATOM      1  C   UNL     1     -27.176 -48.463  34.513  1.00  0.00     0.000 C 
ENDROOT
BRANCH   1   2
ATOM      2  C   UNL     1     -28.583 -48.967  34.883  1.00  0.00     0.000 C 
BRANCH   2   3
ATOM      3  C   UNL     1     -28.616 -49.744  36.211  1.00  0.00     0.000 C 
BRANCH   3   4
ATOM      4  C   UNL     1     -29.034 -51.215  36.027  1.00  0.00     0.000 C 
BRANCH   4   5
ATOM      5  C   UNL     1     -28.223 -52.004  34.979  1.00  0.00     0.000 C 
BRANCH   5   6
ATOM      6  C   UNL     1     -28.987 -53.148  34.286  1.00  0.00     0.000 C 
BRANCH   6   7
ATOM      7  C   UNL     1     -30.488 -53.142  34.615  1.00  0.00     0.000 C 
BRANCH   7   8
ATOM      8  C   UNL     1     -31.323 -52.738  33.392  1.00  0.00     0.000 C 
BRANCH   8   9
ATOM      9  C   UNL     1     -31.615 -51.229  33.339  1.00  0.00     0.000 C 
BRANCH   9  10
ATOM     10  C   UNL     1     -32.839 -50.806  34.180  1.00  0.00     0.000 C 
BRANCH  10  11
ATOM     11  C   UNL     1     -32.475 -49.761  35.249  1.00  0.00     0.000 C 
BRANCH  11  12
ATOM     12  C   UNL     1     -32.184 -48.371  34.652  1.00  0.00     0.006 C 
BRANCH  12  13
ATOM     13  C   UNL     1     -33.126 -47.967  33.508  1.00  0.00     0.053 C 
BRANCH  13  14
ATOM     14  C   UNL     1     -34.142 -46.956  33.946  1.00  0.00     0.041 C 
ATOM     15  O   UNL     1     -35.005 -47.259  34.814  1.00  0.00    -0.550 OA
ATOM     16  O   UNL     1     -34.156 -45.689  33.376  1.00  0.00    -0.550 OA
ENDBRANCH  13  14
ENDBRANCH  12  13
ENDBRANCH  11  12
ENDBRANCH  10  11
ENDBRANCH   9  10
ENDBRANCH   8   9
ENDBRANCH   7   8
ENDBRANCH   6   7
ENDBRANCH   5   6
ENDBRANCH   4   5
ENDBRANCH   3   4
ENDBRANCH   2   3
ENDBRANCH   1   2
BRANCH   1  17
ATOM     17  C   UNL     1     -26.036 -48.960  35.425  1.00  0.00     0.000 C 
BRANCH  17  18
ATOM     18  C   UNL     1     -25.100 -50.009  34.792  1.00  0.00     0.000 C 
BRANCH  18  19
ATOM     19  C   UNL     1     -25.250 -50.180  33.267  1.00  0.00     0.000 C 
BRANCH  19  20
ATOM     20  C   UNL     1     -25.239 -51.636  32.769  1.00  0.00     0.000 C 
BRANCH  20  21
ATOM     21  C   UNL     1     -25.728 -51.777  31.315  1.00  0.00     0.000 C 
BRANCH  21  22
ATOM     22  C   UNL     1     -27.013 -52.626  31.208  1.00  0.00    -0.000 C 
BRANCH  22  23
ATOM     23  C   UNL     1     -28.232 -51.853  30.677  1.00  0.00    -0.000 C 
BRANCH  23  24
ATOM     24  C   UNL     1     -28.631 -50.672  31.579  1.00  0.00    -0.000 C 
BRANCH  24  25
ATOM     25  C   UNL     1     -28.661 -49.324  30.834  1.00  0.00    -0.000 C 
BRANCH  25  26
ATOM     26  C   UNL     1     -29.733 -48.329  31.319  1.00  0.00    -0.000 C 
BRANCH  26  27
ATOM     27  C   UNL     1     -29.145 -46.967  31.732  1.00  0.00    -0.000 C 
BRANCH  27  28
ATOM     28  C   UNL     1     -30.165 -46.077  32.459  1.00  0.00    -0.000 C 
BRANCH  28  29
ATOM     29  C   UNL     1     -29.638 -45.556  33.805  1.00  0.00    -0.003 C 
ATOM     30  C   UNL     1     -28.503 -44.555  33.603  1.00  0.00     0.004 C 
ENDBRANCH  28  29
ENDBRANCH  27  28
ENDBRANCH  26  27
ENDBRANCH  25  26
ENDBRANCH  24  25
ENDBRANCH  23  24
ENDBRANCH  22  23
ENDBRANCH  21  22
ENDBRANCH  20  21
ENDBRANCH  19  20
ENDBRANCH  18  19
ENDBRANCH  17  18
ENDBRANCH   1  17
TORSDOF 26
ENDMDL
MODEL 9
REMARK VINA RESULT:    -3.992      8.580     10.835
REMARK INTER + INTRA:         -15.147
REMARK INTER:                  -9.879
REMARK INTRA:                  -5.268
REMARK UNBOUND:                -5.089
REMARK SMILES CCCCCCCCCCCCCCCCCCCCCCCCCCCC(=O)[O-]
REMARK SMILES IDX 15 1 16 2 17 3 18 4 19 5 20 6 21 7 22 8 23 9 24 10 25 11
REMARK SMILES IDX 26 12 27 13 28 14 29 15 30 16 14 17 13 18 12 19 11 20 10 21
REMARK SMILES IDX 9 22 8 23 7 24 6 25 5 26 4 27 3 28 2 29 1 30
REMARK H PARENT
REMARK Flexibility Score: inf
ROOT
ATOM      1  C   UNL     1     -29.075 -51.030  26.023  1.00  0.00     0.000 C 
ENDROOT
BRANCH   1   2
ATOM      2  C   UNL     1     -30.012 -49.811  26.111  1.00  0.00     0.000 C 
BRANCH   2   3
ATOM      3  C   UNL     1     -30.983 -49.881  27.302  1.00  0.00     0.000 C 
BRANCH   3   4
ATOM      4  C   UNL     1     -32.441 -50.116  26.866  1.00  0.00     0.000 C 
BRANCH   4   5
ATOM      5  C   UNL     1     -32.743 -51.524  26.312  1.00  0.00     0.000 C 
BRANCH   5   6
ATOM      6  C   UNL     1     -34.218 -51.783  25.951  1.00  0.00     0.000 C 
BRANCH   6   7
ATOM      7  C   UNL     1     -34.491 -51.649  24.445  1.00  0.00     0.000 C 
BRANCH   7   8
ATOM      8  C   UNL     1     -34.912 -50.218  24.083  1.00  0.00     0.000 C 
BRANCH   8   9
ATOM      9  C   UNL     1     -33.842 -49.465  23.274  1.00  0.00     0.000 C 
BRANCH   9  10
ATOM     10  C   UNL     1     -33.680 -47.986  23.688  1.00  0.00     0.000 C 
BRANCH  10  11
ATOM     11  C   UNL     1     -32.241 -47.661  24.125  1.00  0.00     0.000 C 
BRANCH  11  12
ATOM     12  C   UNL     1     -31.884 -46.173  23.944  1.00  0.00     0.006 C 
BRANCH  12  13
ATOM     13  C   UNL     1     -31.664 -45.414  25.262  1.00  0.00     0.053 C 
BRANCH  13  14
ATOM     14  C   UNL     1     -32.810 -44.501  25.583  1.00  0.00     0.041 C 
ATOM     15  O   UNL     1     -32.595 -43.294  25.875  1.00  0.00    -0.550 OA
ATOM     16  O   UNL     1     -34.110 -44.990  25.589  1.00  0.00    -0.550 OA
ENDBRANCH  13  14
ENDBRANCH  12  13
ENDBRANCH  11  12
ENDBRANCH  10  11
ENDBRANCH   9  10
ENDBRANCH   8   9
ENDBRANCH   7   8
ENDBRANCH   6   7
ENDBRANCH   5   6
ENDBRANCH   4   5
ENDBRANCH   3   4
ENDBRANCH   2   3
ENDBRANCH   1   2
BRANCH   1  17
ATOM     17  C   UNL     1     -27.574 -50.723  26.196  1.00  0.00     0.000 C 
BRANCH  17  18
ATOM     18  C   UNL     1     -26.619 -51.685  25.461  1.00  0.00     0.000 C 
BRANCH  18  19
ATOM     19  C   UNL     1     -27.219 -53.063  25.117  1.00  0.00     0.000 C 
BRANCH  19  20
ATOM     20  C   UNL     1     -27.414 -53.333  23.615  1.00  0.00     0.000 C 
BRANCH  20  21
ATOM     21  C   UNL     1     -28.598 -54.274  23.323  1.00  0.00     0.000 C 
BRANCH  21  22
ATOM     22  C   UNL     1     -29.712 -53.581  22.511  1.00  0.00    -0.000 C 
BRANCH  22  23
ATOM     23  C   UNL     1     -30.709 -52.781  23.368  1.00  0.00    -0.000 C 
BRANCH  23  24
ATOM     24  C   UNL     1     -31.043 -51.406  22.768  1.00  0.00    -0.000 C 
BRANCH  24  25
ATOM     25  C   UNL     1     -29.961 -50.885  21.803  1.00  0.00    -0.000 C 
BRANCH  25  26
ATOM     26  C   UNL     1     -29.240 -49.600  22.254  1.00  0.00    -0.000 C 
BRANCH  26  27
ATOM     27  C   UNL     1     -27.736 -49.811  22.504  1.00  0.00    -0.000 C 
BRANCH  27  28
ATOM     28  C   UNL     1     -27.037 -48.542  23.017  1.00  0.00    -0.000 C 
BRANCH  28  29
ATOM     29  C   UNL     1     -27.929 -47.720  23.960  1.00  0.00    -0.003 C 
ATOM     30  C   UNL     1     -27.206 -46.468  24.453  1.00  0.00     0.004 C 
ENDBRANCH  28  29
ENDBRANCH  27  28
ENDBRANCH  26  27
ENDBRANCH  25  26
ENDBRANCH  24  25
ENDBRANCH  23  24
ENDBRANCH  22  23
ENDBRANCH  21  22
ENDBRANCH  20  21
ENDBRANCH  19  20
ENDBRANCH  18  19
ENDBRANCH  17  18
ENDBRANCH   1  17
TORSDOF 26
ENDMDL
