MODEL 1
REMARK VINA RESULT:    -4.055      0.000      0.000
REMARK INTER + INTRA:          -4.575
REMARK INTER:                  -4.529
REMARK INTRA:                  -0.045
REMARK UNBOUND:                -0.045
REMARK SMILES CCCC(=O)[O-]
REMARK SMILES IDX 3 1 4 2 5 3 6 4 2 5 1 6
REMARK H PARENT
REMARK Flexibility Score: inf
ROOT
ATOM      1  C   UNL     1      -0.346   2.595  -0.991  1.00  0.00     0.052 C 
ENDROOT
BRANCH   1   2
ATOM      2  C   UNL     1      -0.070   3.267  -2.299  1.00  0.00     0.041 C 
ATOM      3  O   UNL     1      -0.647   2.873  -3.347  1.00  0.00    -0.550 OA
ATOM      4  O   UNL     1       0.860   4.296  -2.369  1.00  0.00    -0.550 OA
ENDBRANCH   1   2
BRANCH   1   5
ATOM      5  C   UNL     1      -1.801   2.124  -0.927  1.00  0.00     0.003 C 
ATOM      6  C   UNL     1      -2.724   3.245  -0.459  1.00  0.00     0.004 C 
ENDBRANCH   1   5
TORSDOF 2
ENDMDL
MODEL 2
REMARK VINA RESULT:    -3.994      1.288      1.793
REMARK INTER + INTRA:          -4.506
REMARK INTER:                  -4.468
REMARK INTRA:                  -0.038
REMARK UNBOUND:                -0.045
REMARK SMILES CCCC(=O)[O-]
REMARK SMILES IDX 3 1 4 2 5 3 6 4 2 5 1 6
REMARK H PARENT
REMARK Flexibility Score: inf
ROOT
ATOM      1  C   UNL     1      -0.841   2.479  -2.630  1.00  0.00     0.052 C 
ENDROOT
BRANCH   1   2
ATOM      2  C   UNL     1       0.456   3.126  -3.003  1.00  0.00     0.041 C 
ATOM      3  O   UNL     1       0.812   4.199  -2.447  1.00  0.00    -0.550 OA
ATOM      4  O   UNL     1       1.247   2.571  -4.000  1.00  0.00    -0.550 OA
ENDBRANCH   1   2
BRANCH   1   5
ATOM      5  C   UNL     1      -1.381   3.075  -1.327  1.00  0.00     0.003 C 
ATOM      6  C   UNL     1      -1.142   2.135  -0.149  1.00  0.00     0.004 C 
ENDBRANCH   1   5
TORSDOF 2
ENDMDL
MODEL 3
REMARK VINA RESULT:    -3.974      1.306      1.501
REMARK INTER + INTRA:          -4.484
REMARK INTER:                  -4.444
REMARK INTRA:                  -0.040
REMARK UNBOUND:                -0.045
REMARK SMILES CCCC(=O)[O-]
REMARK SMILES IDX 3 1 4 2 5 3 6 4 2 5 1 6
REMARK H PARENT
REMARK Flexibility Score: inf
ROOT
ATOM      1  C   UNL     1      -0.794   2.458  -2.714  1.00  0.00     0.052 C 
ENDROOT
BRANCH   1   2
ATOM      2  C   UNL     1       0.489   3.097  -3.143  1.00  0.00     0.041 C 
ATOM      3  O   UNL     1       1.168   2.591  -4.075  1.00  0.00    -0.550 OA
ATOM      4  O   UNL     1       0.958   4.225  -2.482  1.00  0.00    -0.550 OA
ENDBRANCH   1   2
BRANCH   1   5
ATOM      5  C   UNL     1      -1.325   3.124  -1.441  1.00  0.00     0.003 C 
ATOM      6  C   UNL     1      -1.043   2.266  -0.211  1.00  0.00     0.004 C 
ENDBRANCH   1   5
TORSDOF 2
ENDMDL
MODEL 4
REMARK VINA RESULT:    -3.932      2.363      3.406
REMARK INTER + INTRA:          -4.437
REMARK INTER:                  -4.430
REMARK INTRA:                  -0.007
REMARK UNBOUND:                -0.045
REMARK SMILES CCCC(=O)[O-]
REMARK SMILES IDX 3 1 4 2 5 3 6 4 2 5 1 6
REMARK H PARENT
REMARK Flexibility Score: inf
ROOT
ATOM      1  C   UNL     1      -1.409   2.247  -2.301  1.00  0.00     0.052 C 
ENDROOT
BRANCH   1   2
ATOM      2  C   UNL     1      -1.895   2.470  -0.904  1.00  0.00     0.041 C 
ATOM      3  O   UNL     1      -1.328   1.895   0.063  1.00  0.00    -0.550 OA
ATOM      4  O   UNL     1      -3.004   3.273  -0.674  1.00  0.00    -0.550 OA
ENDBRANCH   1   2
BRANCH   1   5
ATOM      5  C   UNL     1      -0.238   3.181  -2.617  1.00  0.00     0.003 C 
ATOM      6  C   UNL     1       0.580   2.661  -3.796  1.00  0.00     0.004 C 
ENDBRANCH   1   5
TORSDOF 2
ENDMDL
MODEL 5
REMARK VINA RESULT:    -3.240     12.660     13.233
REMARK INTER + INTRA:          -3.664
REMARK INTER:                  -3.626
REMARK INTRA:                  -0.039
REMARK UNBOUND:                -0.045
REMARK SMILES CCCC(=O)[O-]
REMARK SMILES IDX 3 1 4 2 5 3 6 4 2 5 1 6
REMARK H PARENT
REMARK Flexibility Score: inf
ROOT
ATOM      1  C   UNL     1       0.398 -10.125   0.402  1.00  0.00     0.052 C 
ENDROOT
BRANCH   1   2
ATOM      2  C   UNL     1      -1.074  -9.864   0.463  1.00  0.00     0.041 C 
ATOM      3  O   UNL     1      -1.661  -9.804   1.576  1.00  0.00    -0.550 OA
ATOM      4  O   UNL     1      -1.807  -9.734  -0.710  1.00  0.00    -0.550 OA
ENDBRANCH   1   2
BRANCH   1   5
ATOM      5  C   UNL     1       1.118  -8.972  -0.304  1.00  0.00     0.003 C 
ATOM      6  C   UNL     1       1.643  -9.404  -1.670  1.00  0.00     0.004 C 
ENDBRANCH   1   5
TORSDOF 2
ENDMDL
MODEL 6
REMARK VINA RESULT:    -3.188     11.191     11.832
REMARK INTER + INTRA:          -3.607
REMARK INTER:                  -3.595
REMARK INTRA:                  -0.012
REMARK UNBOUND:                -0.045
REMARK SMILES CCCC(=O)[O-]
REMARK SMILES IDX 3 1 4 2 5 3 6 4 2 5 1 6
REMARK H PARENT
REMARK Flexibility Score: inf
ROOT
ATOM      1  C   UNL     1      -1.775  -8.321  -0.436  1.00  0.00     0.052 C 
ENDROOT
BRANCH   1   2
ATOM      2  C   UNL     1      -0.501  -8.104  -1.192  1.00  0.00     0.041 C 
ATOM      3  O   UNL     1       0.065  -9.070  -1.768  1.00  0.00    -0.550 OA
ATOM      4  O   UNL     1       0.085  -6.846  -1.219  1.00  0.00    -0.550 OA
ENDBRANCH   1   2
BRANCH   1   5
ATOM      5  C   UNL     1      -1.844  -9.754   0.099  1.00  0.00     0.003 C 
ATOM      6  C   UNL     1      -2.518  -9.800   1.467  1.00  0.00     0.004 C 
ENDBRANCH   1   5
TORSDOF 2
ENDMDL
MODEL 7
REMARK VINA RESULT:    -3.100     14.331     15.112
REMARK INTER + INTRA:          -3.508
REMARK INTER:                  -3.494
REMARK INTRA:                  -0.015
REMARK UNBOUND:                -0.045
REMARK SMILES CCCC(=O)[O-]
REMARK SMILES IDX 3 1 4 2 5 3 6 4 2 5 1 6
REMARK H PARENT
REMARK Flexibility Score: inf
ROOT
ATOM      1  C   UNL     1      -9.374  -5.102   7.881  1.00  0.00     0.052 C 
ENDROOT
BRANCH   1   2
ATOM      2  C   UNL     1      -8.995  -3.745   7.377  1.00  0.00     0.041 C 
ATOM      3  O   UNL     1      -8.959  -3.515   6.140  1.00  0.00    -0.550 OA
ATOM      4  O   UNL     1      -8.633  -2.748   8.274  1.00  0.00    -0.550 OA
ENDBRANCH   1   2
BRANCH   1   5
ATOM      5  C   UNL     1     -10.125  -4.991   9.210  1.00  0.00     0.003 C 
ATOM      6  C   UNL     1      -9.948  -6.251  10.051  1.00  0.00     0.004 C 
ENDBRANCH   1   5
TORSDOF 2
ENDMDL
MODEL 8
REMARK VINA RESULT:    -3.037     12.050     12.688
REMARK INTER + INTRA:          -3.438
REMARK INTER:                  -3.402
REMARK INTRA:                  -0.036
REMARK UNBOUND:                -0.045
REMARK SMILES CCCC(=O)[O-]
REMARK SMILES IDX 3 1 4 2 5 3 6 4 2 5 1 6
REMARK H PARENT
REMARK Flexibility Score: inf
ROOT
ATOM      1  C   UNL     1       7.496   1.535   8.052  1.00  0.00     0.052 C 
ENDROOT
BRANCH   1   2
ATOM      2  C   UNL     1       7.876   2.280   6.812  1.00  0.00     0.041 C 
ATOM      3  O   UNL     1       8.858   1.899   6.120  1.00  0.00    -0.550 OA
ATOM      4  O   UNL     1       7.177   3.423   6.446  1.00  0.00    -0.550 OA
ENDBRANCH   1   2
BRANCH   1   5
ATOM      5  C   UNL     1       8.285   0.226   8.155  1.00  0.00     0.003 C 
ATOM      6  C   UNL     1       7.454  -0.958   7.669  1.00  0.00     0.004 C 
ENDBRANCH   1   5
TORSDOF 2
ENDMDL
MODEL 9
REMARK VINA RESULT:    -3.013     11.873     12.413
REMARK INTER + INTRA:          -3.411
REMARK INTER:                  -3.372
REMARK INTRA:                  -0.039
REMARK UNBOUND:                -0.045
REMARK SMILES CCCC(=O)[O-]
REMARK SMILES IDX 3 1 4 2 5 3 6 4 2 5 1 6
REMARK H PARENT
REMARK Flexibility Score: inf
ROOT
ATOM      1  C   UNL     1      -1.074  -8.772  -0.720  1.00  0.00     0.052 C 
ENDROOT
BRANCH   1   2
ATOM      2  C   UNL     1       0.416  -8.873  -0.814  1.00  0.00     0.041 C 
ATOM      3  O   UNL     1       1.094  -9.196   0.196  1.00  0.00    -0.550 OA
ATOM      4  O   UNL     1       1.059  -8.562  -2.005  1.00  0.00    -0.550 OA
ENDBRANCH   1   2
BRANCH   1   5
ATOM      5  C   UNL     1      -1.654 -10.020  -0.047  1.00  0.00     0.003 C 
ATOM      6  C   UNL     1      -2.336  -9.667   1.272  1.00  0.00     0.004 C 
ENDBRANCH   1   5
TORSDOF 2
ENDMDL
