MODEL 1
REMARK VINA RESULT:    -5.300      0.000      0.000
REMARK INTER + INTRA:         -11.405
REMARK INTER:                  -9.329
REMARK INTRA:                  -2.076
REMARK UNBOUND:                -2.076
REMARK SMILES CCCCCCCCCCCCCCC(=O)[O-]
REMARK SMILES IDX 9 1 10 2 11 3 12 4 13 5 14 6 15 7 16 8 17 9 8 10 7 11 6 12
REMARK SMILES IDX 5 13 4 14 3 15 2 16 1 17
REMARK H PARENT
REMARK Flexibility Score: inf
ROOT
ATOM      1  C   UNL     1      18.116  -6.612  36.193  1.00  0.00     0.000 C 
ENDROOT
BRANCH   1   2
ATOM      2  C   UNL     1      17.379  -5.274  36.036  1.00  0.00     0.000 C 
BRANCH   2   3
ATOM      3  C   UNL     1      16.028  -5.423  35.316  1.00  0.00     0.000 C 
BRANCH   3   4
ATOM      4  C   UNL     1      16.058  -4.878  33.881  1.00  0.00     0.000 C 
BRANCH   4   5
ATOM      5  C   UNL     1      16.173  -6.019  32.863  1.00  0.00     0.006 C 
BRANCH   5   6
ATOM      6  C   UNL     1      15.661  -7.336  33.452  1.00  0.00     0.053 C 
BRANCH   6   7
ATOM      7  C   UNL     1      15.919  -8.468  32.508  1.00  0.00     0.041 C 
ATOM      8  O   UNL     1      17.009  -8.533  31.880  1.00  0.00    -0.550 OA
ATOM      9  O   UNL     1      14.938  -9.424  32.284  1.00  0.00    -0.550 OA
ENDBRANCH   6   7
ENDBRANCH   5   6
ENDBRANCH   4   5
ENDBRANCH   3   4
ENDBRANCH   2   3
ENDBRANCH   1   2
BRANCH   1  10
ATOM     10  C   UNL     1      19.460  -6.587  35.455  1.00  0.00     0.000 C 
BRANCH  10  11
ATOM     11  C   UNL     1      19.306  -7.097  34.013  1.00  0.00    -0.000 C 
BRANCH  11  12
ATOM     12  C   UNL     1      19.966  -6.170  32.975  1.00  0.00    -0.000 C 
BRANCH  12  13
ATOM     13  C   UNL     1      19.538  -4.692  33.058  1.00  0.00    -0.000 C 
BRANCH  13  14
ATOM     14  C   UNL     1      20.635  -3.722  33.537  1.00  0.00    -0.000 C 
BRANCH  14  15
ATOM     15  C   UNL     1      20.297  -3.007  34.862  1.00  0.00    -0.000 C 
BRANCH  15  16
ATOM     16  C   UNL     1      18.931  -2.306  34.820  1.00  0.00    -0.003 C 
ATOM     17  C   UNL     1      18.959  -0.998  35.605  1.00  0.00     0.004 C 
ENDBRANCH  15  16
ENDBRANCH  14  15
ENDBRANCH  13  14
ENDBRANCH  12  13
ENDBRANCH  11  12
ENDBRANCH  10  11
ENDBRANCH   1  10
TORSDOF 13
ENDMDL
MODEL 2
REMARK VINA RESULT:    -5.241      0.993      1.658
REMARK INTER + INTRA:         -11.301
REMARK INTER:                  -9.125
REMARK INTRA:                  -2.176
REMARK UNBOUND:                -2.076
REMARK SMILES CCCCCCCCCCCCCCC(=O)[O-]
REMARK SMILES IDX 9 1 10 2 11 3 12 4 13 5 14 6 15 7 16 8 17 9 8 10 7 11 6 12
REMARK SMILES IDX 5 13 4 14 3 15 2 16 1 17
REMARK H PARENT
REMARK Flexibility Score: inf
ROOT
ATOM      1  C   UNL     1      19.652  -6.498  35.767  1.00  0.00     0.000 C 
ENDROOT
BRANCH   1   2
ATOM      2  C   UNL     1      18.522  -5.913  36.627  1.00  0.00     0.000 C 
BRANCH   2   3
ATOM      3  C   UNL     1      17.134  -6.119  36.000  1.00  0.00     0.000 C 
BRANCH   3   4
ATOM      4  C   UNL     1      16.444  -4.795  35.639  1.00  0.00     0.000 C 
BRANCH   4   5
ATOM      5  C   UNL     1      15.870  -4.845  34.218  1.00  0.00     0.006 C 
BRANCH   5   6
ATOM      6  C   UNL     1      15.564  -6.285  33.797  1.00  0.00     0.053 C 
BRANCH   6   7
ATOM      7  C   UNL     1      16.100  -6.556  32.427  1.00  0.00     0.041 C 
ATOM      8  O   UNL     1      16.208  -5.619  31.593  1.00  0.00    -0.550 OA
ATOM      9  O   UNL     1      16.434  -7.851  32.055  1.00  0.00    -0.550 OA
ENDBRANCH   6   7
ENDBRANCH   5   6
ENDBRANCH   4   5
ENDBRANCH   3   4
ENDBRANCH   2   3
ENDBRANCH   1   2
BRANCH   1  10
ATOM     10  C   UNL     1      19.102  -7.078  34.459  1.00  0.00     0.000 C 
BRANCH  10  11
ATOM     11  C   UNL     1      19.707  -6.362  33.242  1.00  0.00    -0.000 C 
BRANCH  11  12
ATOM     12  C   UNL     1      19.350  -4.865  33.187  1.00  0.00    -0.000 C 
BRANCH  12  13
ATOM     13  C   UNL     1      20.528  -3.906  33.447  1.00  0.00    -0.000 C 
BRANCH  13  14
ATOM     14  C   UNL     1      20.347  -2.963  34.652  1.00  0.00    -0.000 C 
BRANCH  14  15
ATOM     15  C   UNL     1      18.957  -2.293  34.714  1.00  0.00    -0.000 C 
BRANCH  15  16
ATOM     16  C   UNL     1      18.821  -1.333  35.905  1.00  0.00    -0.003 C 
ATOM     17  C   UNL     1      19.988  -0.351  35.956  1.00  0.00     0.004 C 
ENDBRANCH  15  16
ENDBRANCH  14  15
ENDBRANCH  13  14
ENDBRANCH  12  13
ENDBRANCH  11  12
ENDBRANCH  10  11
ENDBRANCH   1  10
TORSDOF 13
ENDMDL
MODEL 3
REMARK VINA RESULT:    -5.195      3.647      6.410
REMARK INTER + INTRA:         -11.219
REMARK INTER:                  -9.303
REMARK INTRA:                  -1.916
REMARK UNBOUND:                -2.076
REMARK SMILES CCCCCCCCCCCCCCC(=O)[O-]
REMARK SMILES IDX 9 1 10 2 11 3 12 4 13 5 14 6 15 7 16 8 17 9 8 10 7 11 6 12
REMARK SMILES IDX 5 13 4 14 3 15 2 16 1 17
REMARK H PARENT
REMARK Flexibility Score: inf
ROOT
ATOM      1  C   UNL     1      19.538  -6.658  33.342  1.00  0.00     0.000 C 
ENDROOT
BRANCH   1   2
ATOM      2  C   UNL     1      19.815  -5.285  32.711  1.00  0.00     0.000 C 
BRANCH   2   3
ATOM      3  C   UNL     1      19.964  -4.171  33.760  1.00  0.00     0.000 C 
BRANCH   3   4
ATOM      4  C   UNL     1      18.806  -3.163  33.723  1.00  0.00     0.000 C 
BRANCH   4   5
ATOM      5  C   UNL     1      18.658  -2.446  35.070  1.00  0.00     0.006 C 
BRANCH   5   6
ATOM      6  C   UNL     1      19.990  -1.839  35.519  1.00  0.00     0.053 C 
BRANCH   6   7
ATOM      7  C   UNL     1      19.804  -0.411  35.927  1.00  0.00     0.041 C 
ATOM      8  O   UNL     1      20.432   0.052  36.916  1.00  0.00    -0.550 OA
ATOM      9  O   UNL     1      18.902   0.394  35.246  1.00  0.00    -0.550 OA
ENDBRANCH   6   7
ENDBRANCH   5   6
ENDBRANCH   4   5
ENDBRANCH   3   4
ENDBRANCH   2   3
ENDBRANCH   1   2
BRANCH   1  10
ATOM     10  C   UNL     1      19.428  -6.548  34.868  1.00  0.00     0.000 C 
BRANCH  10  11
ATOM     11  C   UNL     1      18.040  -6.994  35.352  1.00  0.00    -0.000 C 
BRANCH  11  12
ATOM     12  C   UNL     1      17.133  -5.814  35.748  1.00  0.00    -0.000 C 
BRANCH  12  13
ATOM     13  C   UNL     1      16.083  -5.418  34.693  1.00  0.00    -0.000 C 
BRANCH  13  14
ATOM     14  C   UNL     1      15.511  -6.589  33.871  1.00  0.00    -0.000 C 
BRANCH  14  15
ATOM     15  C   UNL     1      16.003  -6.620  32.408  1.00  0.00    -0.000 C 
BRANCH  15  16
ATOM     16  C   UNL     1      16.470  -8.018  31.974  1.00  0.00    -0.003 C 
ATOM     17  C   UNL     1      15.500  -9.094  32.454  1.00  0.00     0.004 C 
ENDBRANCH  15  16
ENDBRANCH  14  15
ENDBRANCH  13  14
ENDBRANCH  12  13
ENDBRANCH  11  12
ENDBRANCH  10  11
ENDBRANCH   1  10
TORSDOF 13
ENDMDL
MODEL 4
REMARK VINA RESULT:    -5.176      1.179      2.643
REMARK INTER + INTRA:         -11.185
REMARK INTER:                  -8.993
REMARK INTRA:                  -2.192
REMARK UNBOUND:                -2.076
REMARK SMILES CCCCCCCCCCCCCCC(=O)[O-]
REMARK SMILES IDX 9 1 10 2 11 3 12 4 13 5 14 6 15 7 16 8 17 9 8 10 7 11 6 12
REMARK SMILES IDX 5 13 4 14 3 15 2 16 1 17
REMARK H PARENT
REMARK Flexibility Score: inf
ROOT
ATOM      1  C   UNL     1      18.653  -5.983  36.679  1.00  0.00     0.000 C 
ENDROOT
BRANCH   1   2
ATOM      2  C   UNL     1      19.672  -6.675  35.761  1.00  0.00     0.000 C 
BRANCH   2   3
ATOM      3  C   UNL     1      19.027  -7.736  34.854  1.00  0.00     0.000 C 
BRANCH   3   4
ATOM      4  C   UNL     1      19.037  -7.333  33.372  1.00  0.00     0.000 C 
BRANCH   4   5
ATOM      5  C   UNL     1      18.250  -8.339  32.524  1.00  0.00     0.006 C 
BRANCH   5   6
ATOM      6  C   UNL     1      16.769  -7.955  32.447  1.00  0.00     0.053 C 
BRANCH   6   7
ATOM      7  C   UNL     1      16.019  -8.929  31.595  1.00  0.00     0.041 C 
ATOM      8  O   UNL     1      15.832  -8.688  30.373  1.00  0.00    -0.550 OA
ATOM      9  O   UNL     1      15.485 -10.080  32.159  1.00  0.00    -0.550 OA
ENDBRANCH   6   7
ENDBRANCH   5   6
ENDBRANCH   4   5
ENDBRANCH   3   4
ENDBRANCH   2   3
ENDBRANCH   1   2
BRANCH   1  10
ATOM     10  C   UNL     1      17.227  -6.147  36.137  1.00  0.00     0.000 C 
BRANCH  10  11
ATOM     11  C   UNL     1      16.612  -4.784  35.787  1.00  0.00    -0.000 C 
BRANCH  11  12
ATOM     12  C   UNL     1      15.915  -4.775  34.413  1.00  0.00    -0.000 C 
BRANCH  12  13
ATOM     13  C   UNL     1      16.834  -4.452  33.219  1.00  0.00    -0.000 C 
BRANCH  13  14
ATOM     14  C   UNL     1      17.779  -3.255  33.430  1.00  0.00    -0.000 C 
BRANCH  14  15
ATOM     15  C   UNL     1      19.259  -3.655  33.611  1.00  0.00    -0.000 C 
BRANCH  15  16
ATOM     16  C   UNL     1      19.910  -2.971  34.823  1.00  0.00    -0.003 C 
ATOM     17  C   UNL     1      19.018  -1.862  35.371  1.00  0.00     0.004 C 
ENDBRANCH  15  16
ENDBRANCH  14  15
ENDBRANCH  13  14
ENDBRANCH  12  13
ENDBRANCH  11  12
ENDBRANCH  10  11
ENDBRANCH   1  10
TORSDOF 13
ENDMDL
MODEL 5
REMARK VINA RESULT:    -5.154      0.993      2.070
REMARK INTER + INTRA:         -11.147
REMARK INTER:                  -9.140
REMARK INTRA:                  -2.007
REMARK UNBOUND:                -2.076
REMARK SMILES CCCCCCCCCCCCCCC(=O)[O-]
REMARK SMILES IDX 9 1 10 2 11 3 12 4 13 5 14 6 15 7 16 8 17 9 8 10 7 11 6 12
REMARK SMILES IDX 5 13 4 14 3 15 2 16 1 17
REMARK H PARENT
REMARK Flexibility Score: inf
ROOT
ATOM      1  C   UNL     1      17.300  -4.322  36.063  1.00  0.00     0.000 C 
ENDROOT
BRANCH   1   2
ATOM      2  C   UNL     1      15.988  -4.986  35.621  1.00  0.00     0.000 C 
BRANCH   2   3
ATOM      3  C   UNL     1      15.877  -5.119  34.094  1.00  0.00     0.000 C 
BRANCH   3   4
ATOM      4  C   UNL     1      15.686  -6.573  33.638  1.00  0.00     0.000 C 
BRANCH   4   5
ATOM      5  C   UNL     1      16.266  -6.789  32.235  1.00  0.00     0.006 C 
BRANCH   5   6
ATOM      6  C   UNL     1      16.833  -8.204  32.085  1.00  0.00     0.053 C 
BRANCH   6   7
ATOM      7  C   UNL     1      15.853  -9.089  31.382  1.00  0.00     0.041 C 
ATOM      8  O   UNL     1      15.650  -8.953  30.147  1.00  0.00    -0.550 OA
ATOM      9  O   UNL     1      15.129 -10.032  32.099  1.00  0.00    -0.550 OA
ENDBRANCH   6   7
ENDBRANCH   5   6
ENDBRANCH   4   5
ENDBRANCH   3   4
ENDBRANCH   2   3
ENDBRANCH   1   2
BRANCH   1  10
ATOM     10  C   UNL     1      18.120  -5.265  36.951  1.00  0.00     0.000 C 
BRANCH  10  11
ATOM     11  C   UNL     1      18.338  -6.620  36.260  1.00  0.00    -0.000 C 
BRANCH  11  12
ATOM     12  C   UNL     1      19.642  -6.675  35.442  1.00  0.00    -0.000 C 
BRANCH  12  13
ATOM     13  C   UNL     1      19.467  -7.091  33.968  1.00  0.00    -0.000 C 
BRANCH  13  14
ATOM     14  C   UNL     1      19.859  -6.017  32.937  1.00  0.00    -0.000 C 
BRANCH  14  15
ATOM     15  C   UNL     1      19.400  -4.593  33.317  1.00  0.00    -0.000 C 
BRANCH  15  16
ATOM     16  C   UNL     1      20.576  -3.672  33.675  1.00  0.00    -0.003 C 
ATOM     17  C   UNL     1      20.199  -2.711  34.799  1.00  0.00     0.004 C 
ENDBRANCH  15  16
ENDBRANCH  14  15
ENDBRANCH  13  14
ENDBRANCH  12  13
ENDBRANCH  11  12
ENDBRANCH  10  11
ENDBRANCH   1  10
TORSDOF 13
ENDMDL
MODEL 6
REMARK VINA RESULT:    -5.144      3.584      5.944
REMARK INTER + INTRA:         -11.129
REMARK INTER:                  -8.849
REMARK INTRA:                  -2.281
REMARK UNBOUND:                -2.076
REMARK SMILES CCCCCCCCCCCCCCC(=O)[O-]
REMARK SMILES IDX 9 1 10 2 11 3 12 4 13 5 14 6 15 7 16 8 17 9 8 10 7 11 6 12
REMARK SMILES IDX 5 13 4 14 3 15 2 16 1 17
REMARK H PARENT
REMARK Flexibility Score: inf
ROOT
ATOM      1  C   UNL     1      19.634  -6.743  33.059  1.00  0.00     0.000 C 
ENDROOT
BRANCH   1   2
ATOM      2  C   UNL     1      19.288  -5.252  32.940  1.00  0.00     0.000 C 
BRANCH   2   3
ATOM      3  C   UNL     1      20.524  -4.346  33.059  1.00  0.00     0.000 C 
BRANCH   3   4
ATOM      4  C   UNL     1      20.430  -3.366  34.238  1.00  0.00     0.000 C 
BRANCH   4   5
ATOM      5  C   UNL     1      19.115  -2.579  34.194  1.00  0.00     0.006 C 
BRANCH   5   6
ATOM      6  C   UNL     1      18.757  -2.028  35.577  1.00  0.00     0.053 C 
BRANCH   6   7
ATOM      7  C   UNL     1      19.196  -0.603  35.702  1.00  0.00     0.041 C 
ATOM      8  O   UNL     1      18.527   0.316  35.160  1.00  0.00    -0.550 OA
ATOM      9  O   UNL     1      20.369  -0.293  36.377  1.00  0.00    -0.550 OA
ENDBRANCH   6   7
ENDBRANCH   5   6
ENDBRANCH   4   5
ENDBRANCH   3   4
ENDBRANCH   2   3
ENDBRANCH   1   2
BRANCH   1  10
ATOM     10  C   UNL     1      18.983  -7.360  34.302  1.00  0.00     0.000 C 
BRANCH  10  11
ATOM     11  C   UNL     1      19.668  -6.866  35.585  1.00  0.00    -0.000 C 
BRANCH  11  12
ATOM     12  C   UNL     1      18.749  -5.992  36.459  1.00  0.00    -0.000 C 
BRANCH  12  13
ATOM     13  C   UNL     1      17.247  -6.104  36.137  1.00  0.00    -0.000 C 
BRANCH  13  14
ATOM     14  C   UNL     1      16.578  -4.793  35.682  1.00  0.00    -0.000 C 
BRANCH  14  15
ATOM     15  C   UNL     1      15.933  -4.877  34.281  1.00  0.00    -0.000 C 
BRANCH  15  16
ATOM     16  C   UNL     1      15.571  -6.317  33.887  1.00  0.00    -0.003 C 
ATOM     17  C   UNL     1      15.975  -6.610  32.445  1.00  0.00     0.004 C 
ENDBRANCH  15  16
ENDBRANCH  14  15
ENDBRANCH  13  14
ENDBRANCH  12  13
ENDBRANCH  11  12
ENDBRANCH  10  11
ENDBRANCH   1  10
TORSDOF 13
ENDMDL
MODEL 7
REMARK VINA RESULT:    -5.140      3.701      6.203
REMARK INTER + INTRA:         -11.123
REMARK INTER:                  -9.085
REMARK INTRA:                  -2.038
REMARK UNBOUND:                -2.076
REMARK SMILES CCCCCCCCCCCCCCC(=O)[O-]
REMARK SMILES IDX 9 1 10 2 11 3 12 4 13 5 14 6 15 7 16 8 17 9 8 10 7 11 6 12
REMARK SMILES IDX 5 13 4 14 3 15 2 16 1 17
REMARK H PARENT
REMARK Flexibility Score: inf
ROOT
ATOM      1  C   UNL     1      15.953  -4.413  34.481  1.00  0.00     0.000 C 
ENDROOT
BRANCH   1   2
ATOM      2  C   UNL     1      16.989  -4.261  33.358  1.00  0.00     0.000 C 
BRANCH   2   3
ATOM      3  C   UNL     1      17.893  -3.032  33.550  1.00  0.00     0.000 C 
BRANCH   3   4
ATOM      4  C   UNL     1      19.376  -3.403  33.694  1.00  0.00     0.000 C 
BRANCH   4   5
ATOM      5  C   UNL     1      20.012  -2.673  34.883  1.00  0.00     0.006 C 
BRANCH   5   6
ATOM      6  C   UNL     1      18.958  -1.901  35.683  1.00  0.00     0.053 C 
BRANCH   6   7
ATOM      7  C   UNL     1      19.364  -0.470  35.841  1.00  0.00     0.041 C 
ATOM      8  O   UNL     1      18.852   0.418  35.111  1.00  0.00    -0.550 OA
ATOM      9  O   UNL     1      20.345  -0.124  36.761  1.00  0.00    -0.550 OA
ENDBRANCH   6   7
ENDBRANCH   5   6
ENDBRANCH   4   5
ENDBRANCH   3   4
ENDBRANCH   2   3
ENDBRANCH   1   2
BRANCH   1  10
ATOM     10  C   UNL     1      16.321  -5.574  35.413  1.00  0.00     0.000 C 
BRANCH  10  11
ATOM     11  C   UNL     1      17.457  -5.174  36.368  1.00  0.00    -0.000 C 
BRANCH  11  12
ATOM     12  C   UNL     1      18.718  -6.042  36.199  1.00  0.00    -0.000 C 
BRANCH  12  13
ATOM     13  C   UNL     1      18.551  -7.257  35.266  1.00  0.00    -0.000 C 
BRANCH  13  14
ATOM     14  C   UNL     1      19.169  -7.091  33.865  1.00  0.00    -0.000 C 
BRANCH  14  15
ATOM     15  C   UNL     1      18.561  -8.033  32.803  1.00  0.00    -0.000 C 
BRANCH  15  16
ATOM     16  C   UNL     1      17.049  -7.827  32.630  1.00  0.00    -0.003 C 
ATOM     17  C   UNL     1      16.483  -8.772  31.575  1.00  0.00     0.004 C 
ENDBRANCH  15  16
ENDBRANCH  14  15
ENDBRANCH  13  14
ENDBRANCH  12  13
ENDBRANCH  11  12
ENDBRANCH  10  11
ENDBRANCH   1  10
TORSDOF 13
ENDMDL
MODEL 8
REMARK VINA RESULT:    -5.041     19.205     20.957
REMARK INTER + INTRA:         -10.948
REMARK INTER:                  -9.111
REMARK INTRA:                  -1.837
REMARK UNBOUND:                -2.076
REMARK SMILES CCCCCCCCCCCCCCC(=O)[O-]
REMARK SMILES IDX 9 1 10 2 11 3 12 4 13 5 14 6 15 7 16 8 17 9 8 10 7 11 6 12
REMARK SMILES IDX 5 13 4 14 3 15 2 16 1 17
REMARK H PARENT
REMARK Flexibility Score: inf
ROOT
ATOM      1  C   UNL     1       8.578   6.060  17.696  1.00  0.00     0.000 C 
ENDROOT
BRANCH   1   2
ATOM      2  C   UNL     1       9.907   6.257  16.953  1.00  0.00     0.000 C 
BRANCH   2   3
ATOM      3  C   UNL     1      10.790   7.339  17.595  1.00  0.00     0.000 C 
BRANCH   3   4
ATOM      4  C   UNL     1      11.976   6.751  18.375  1.00  0.00     0.000 C 
BRANCH   4   5
ATOM      5  C   UNL     1      12.623   7.812  19.273  1.00  0.00     0.006 C 
BRANCH   5   6
ATOM      6  C   UNL     1      12.096   7.715  20.707  1.00  0.00     0.053 C 
BRANCH   6   7
ATOM      7  C   UNL     1      12.779   8.716  21.584  1.00  0.00     0.041 C 
ATOM      8  O   UNL     1      12.143   9.707  22.029  1.00  0.00    -0.550 OA
ATOM      9  O   UNL     1      14.131   8.580  21.872  1.00  0.00    -0.550 OA
ENDBRANCH   6   7
ENDBRANCH   5   6
ENDBRANCH   4   5
ENDBRANCH   3   4
ENDBRANCH   2   3
ENDBRANCH   1   2
BRANCH   1  10
ATOM     10  C   UNL     1       8.737   6.356  19.193  1.00  0.00     0.000 C 
BRANCH  10  11
ATOM     11  C   UNL     1       8.603   5.071  20.025  1.00  0.00    -0.000 C 
BRANCH  11  12
ATOM     12  C   UNL     1       9.949   4.573  20.583  1.00  0.00    -0.000 C 
BRANCH  12  13
ATOM     13  C   UNL     1      10.410   3.204  20.046  1.00  0.00    -0.000 C 
BRANCH  13  14
ATOM     14  C   UNL     1      10.944   3.217  18.602  1.00  0.00    -0.000 C 
BRANCH  14  15
ATOM     15  C   UNL     1       9.982   2.576  17.578  1.00  0.00    -0.000 C 
BRANCH  15  16
ATOM     16  C   UNL     1       8.880   1.742  18.249  1.00  0.00    -0.003 C 
ATOM     17  C   UNL     1       8.603   0.464  17.464  1.00  0.00     0.004 C 
ENDBRANCH  15  16
ENDBRANCH  14  15
ENDBRANCH  13  14
ENDBRANCH  12  13
ENDBRANCH  11  12
ENDBRANCH  10  11
ENDBRANCH   1  10
TORSDOF 13
ENDMDL
MODEL 9
REMARK VINA RESULT:    -5.023     18.946     20.193
REMARK INTER + INTRA:         -10.917
REMARK INTER:                  -8.987
REMARK INTRA:                  -1.930
REMARK UNBOUND:                -2.076
REMARK SMILES CCCCCCCCCCCCCCC(=O)[O-]
REMARK SMILES IDX 9 1 10 2 11 3 12 4 13 5 14 6 15 7 16 8 17 9 8 10 7 11 6 12
REMARK SMILES IDX 5 13 4 14 3 15 2 16 1 17
REMARK H PARENT
REMARK Flexibility Score: inf
ROOT
ATOM      1  C   UNL     1      11.750   5.168  20.972  1.00  0.00     0.000 C 
ENDROOT
BRANCH   1   2
ATOM      2  C   UNL     1      10.406   4.427  20.917  1.00  0.00     0.000 C 
BRANCH   2   3
ATOM      3  C   UNL     1      10.477   3.132  20.091  1.00  0.00     0.000 C 
BRANCH   3   4
ATOM      4  C   UNL     1      10.964   3.372  18.654  1.00  0.00     0.000 C 
BRANCH   4   5
ATOM      5  C   UNL     1      10.027   2.706  17.639  1.00  0.00     0.006 C 
BRANCH   5   6
ATOM      6  C   UNL     1       8.737   2.228  18.312  1.00  0.00     0.053 C 
BRANCH   6   7
ATOM      7  C   UNL     1       8.525   0.768  18.059  1.00  0.00     0.041 C 
ATOM      8  O   UNL     1       8.042   0.379  16.963  1.00  0.00    -0.550 OA
ATOM      9  O   UNL     1       8.816  -0.158  19.051  1.00  0.00    -0.550 OA
ENDBRANCH   6   7
ENDBRANCH   5   6
ENDBRANCH   4   5
ENDBRANCH   3   4
ENDBRANCH   2   3
ENDBRANCH   1   2
BRANCH   1  10
ATOM     10  C   UNL     1      11.556   6.623  21.416  1.00  0.00     0.000 C 
BRANCH  10  11
ATOM     11  C   UNL     1      11.815   7.593  20.254  1.00  0.00    -0.000 C 
BRANCH  11  12
ATOM     12  C   UNL     1      12.249   6.879  18.960  1.00  0.00    -0.000 C 
BRANCH  12  13
ATOM     13  C   UNL     1      11.360   7.158  17.733  1.00  0.00    -0.000 C 
BRANCH  13  14
ATOM     14  C   UNL     1       9.991   7.789  18.050  1.00  0.00    -0.000 C 
BRANCH  14  15
ATOM     15  C   UNL     1       8.890   7.429  17.029  1.00  0.00    -0.000 C 
BRANCH  15  16
ATOM     16  C   UNL     1       8.283   6.041  17.285  1.00  0.00    -0.003 C 
ATOM     17  C   UNL     1       8.103   5.786  18.778  1.00  0.00     0.004 C 
ENDBRANCH  15  16
ENDBRANCH  14  15
ENDBRANCH  13  14
ENDBRANCH  12  13
ENDBRANCH  11  12
ENDBRANCH  10  11
ENDBRANCH   1  10
TORSDOF 13
ENDMDL
