MODEL 1
REMARK VINA RESULT:    -4.349      0.000      0.000
REMARK INTER + INTRA:          -4.693
REMARK INTER:                  -4.603
REMARK INTRA:                  -0.089
REMARK UNBOUND:                -0.089
REMARK SMILES C=C(C)[C@@H]1CC=C(C)C(=O)C1
REMARK SMILES IDX 8 1 7 2 6 3 5 4 4 5 11 6 9 7 10 8 2 9 1 10 3 11
REMARK H PARENT
REMARK Flexibility Score: inf
ROOT
ATOM      1  C   UNL     1      -5.868   5.367  57.381  1.00  0.00     0.048 C 
ATOM      2  C   UNL     1      -6.354   4.926  56.028  1.00  0.00    -0.012 C 
ATOM      3  C   UNL     1      -5.776   3.876  55.420  1.00  0.00    -0.019 C 
ATOM      4  C   UNL     1      -6.234   3.382  54.074  1.00  0.00     0.036 C 
ATOM      5  C   UNL     1      -6.749   4.542  53.202  1.00  0.00     0.025 C 
ATOM      6  C   UNL     1      -7.852   5.320  53.944  1.00  0.00     0.089 C 
ATOM      7  C   UNL     1      -7.382   5.724  55.315  1.00  0.00     0.158 C 
ATOM      8  O   UNL     1      -7.900   6.730  55.870  1.00  0.00    -0.295 OA
ENDROOT
BRANCH   5   9
ATOM      9  C   UNL     1      -7.233   4.050  51.845  1.00  0.00    -0.077 C 
ATOM     10  C   UNL     1      -6.987   4.770  50.740  1.00  0.00     0.008 C 
ATOM     11  C   UNL     1      -7.995   2.754  51.706  1.00  0.00     0.039 C 
ENDBRANCH   5   9
TORSDOF 1
ENDMDL
MODEL 2
REMARK VINA RESULT:    -4.275      1.433      4.245
REMARK INTER + INTRA:          -4.614
REMARK INTER:                  -4.515
REMARK INTRA:                  -0.098
REMARK UNBOUND:                -0.089
REMARK SMILES C=C(C)[C@@H]1CC=C(C)C(=O)C1
REMARK SMILES IDX 8 1 7 2 6 3 5 4 4 5 11 6 9 7 10 8 2 9 1 10 3 11
REMARK H PARENT
REMARK Flexibility Score: inf
ROOT
ATOM      1  C   UNL     1      -7.704   3.827  50.975  1.00  0.00     0.048 C 
ATOM      2  C   UNL     1      -7.282   4.226  52.362  1.00  0.00    -0.012 C 
ATOM      3  C   UNL     1      -6.286   3.563  52.975  1.00  0.00    -0.019 C 
ATOM      4  C   UNL     1      -5.812   3.932  54.355  1.00  0.00     0.036 C 
ATOM      5  C   UNL     1      -6.971   4.472  55.214  1.00  0.00     0.025 C 
ATOM      6  C   UNL     1      -7.662   5.650  54.500  1.00  0.00     0.089 C 
ATOM      7  C   UNL     1      -8.045   5.265  53.098  1.00  0.00     0.158 C 
ATOM      8  O   UNL     1      -9.003   5.863  52.537  1.00  0.00    -0.295 OA
ENDROOT
BRANCH   5   9
ATOM      9  C   UNL     1      -6.498   4.867  56.606  1.00  0.00    -0.077 C 
ATOM     10  C   UNL     1      -6.925   6.011  57.164  1.00  0.00     0.008 C 
ATOM     11  C   UNL     1      -5.547   3.994  57.389  1.00  0.00     0.039 C 
ENDBRANCH   5   9
TORSDOF 1
ENDMDL
MODEL 3
REMARK VINA RESULT:    -4.218      9.305     11.006
REMARK INTER + INTRA:          -4.554
REMARK INTER:                  -4.455
REMARK INTRA:                  -0.099
REMARK UNBOUND:                -0.089
REMARK SMILES C=C(C)[C@@H]1CC=C(C)C(=O)C1
REMARK SMILES IDX 8 1 7 2 6 3 5 4 4 5 11 6 9 7 10 8 2 9 1 10 3 11
REMARK H PARENT
REMARK Flexibility Score: inf
ROOT
ATOM      1  C   UNL     1       2.307   0.929  54.728  1.00  0.00     0.048 C 
ATOM      2  C   UNL     1       1.744   0.848  56.120  1.00  0.00    -0.012 C 
ATOM      3  C   UNL     1       0.893   1.794  56.554  1.00  0.00    -0.019 C 
ATOM      4  C   UNL     1       0.288   1.752  57.932  1.00  0.00     0.036 C 
ATOM      5  C   UNL     1       1.259   1.118  58.945  1.00  0.00     0.025 C 
ATOM      6  C   UNL     1       1.703  -0.275  58.461  1.00  0.00     0.089 C 
ATOM      7  C   UNL     1       2.224  -0.202  57.052  1.00  0.00     0.158 C 
ATOM      8  O   UNL     1       3.050  -1.070  56.657  1.00  0.00    -0.295 OA
ENDROOT
BRANCH   5   9
ATOM      9  C   UNL     1       0.648   1.053  60.338  1.00  0.00    -0.077 C 
ATOM     10  C   UNL     1       0.338  -0.133  60.884  1.00  0.00     0.008 C 
ATOM     11  C   UNL     1       0.376   2.306  61.135  1.00  0.00     0.039 C 
ENDBRANCH   5   9
TORSDOF 1
ENDMDL
MODEL 4
REMARK VINA RESULT:    -4.213      1.408      2.301
REMARK INTER + INTRA:          -4.549
REMARK INTER:                  -4.461
REMARK INTRA:                  -0.088
REMARK UNBOUND:                -0.089
REMARK SMILES C=C(C)[C@@H]1CC=C(C)C(=O)C1
REMARK SMILES IDX 8 1 7 2 6 3 5 4 4 5 11 6 9 7 10 8 2 9 1 10 3 11
REMARK H PARENT
REMARK Flexibility Score: inf
ROOT
ATOM      1  C   UNL     1      -6.525   5.338  57.443  1.00  0.00     0.048 C 
ATOM      2  C   UNL     1      -6.680   5.088  55.968  1.00  0.00    -0.012 C 
ATOM      3  C   UNL     1      -7.573   5.801  55.260  1.00  0.00    -0.019 C 
ATOM      4  C   UNL     1      -7.755   5.603  53.778  1.00  0.00     0.036 C 
ATOM      5  C   UNL     1      -7.502   4.138  53.378  1.00  0.00     0.025 C 
ATOM      6  C   UNL     1      -6.111   3.685  53.859  1.00  0.00     0.089 C 
ATOM      7  C   UNL     1      -5.939   3.975  55.325  1.00  0.00     0.158 C 
ATOM      8  O   UNL     1      -5.128   3.282  55.996  1.00  0.00    -0.295 OA
ENDROOT
BRANCH   5   9
ATOM      9  C   UNL     1      -7.666   3.933  51.878  1.00  0.00    -0.077 C 
ATOM     10  C   UNL     1      -8.422   2.925  51.415  1.00  0.00     0.008 C 
ATOM     11  C   UNL     1      -6.991   4.844  50.882  1.00  0.00     0.039 C 
ENDBRANCH   5   9
TORSDOF 1
ENDMDL
MODEL 5
REMARK VINA RESULT:    -4.211     10.549     11.845
REMARK INTER + INTRA:          -4.546
REMARK INTER:                  -4.450
REMARK INTRA:                  -0.096
REMARK UNBOUND:                -0.089
REMARK SMILES C=C(C)[C@@H]1CC=C(C)C(=O)C1
REMARK SMILES IDX 8 1 7 2 6 3 5 4 4 5 11 6 9 7 10 8 2 9 1 10 3 11
REMARK H PARENT
REMARK Flexibility Score: inf
ROOT
ATOM      1  C   UNL     1       3.890  -4.517  54.985  1.00  0.00     0.048 C 
ATOM      2  C   UNL     1       3.480  -3.082  54.796  1.00  0.00    -0.012 C 
ATOM      3  C   UNL     1       4.241  -2.097  55.303  1.00  0.00    -0.019 C 
ATOM      4  C   UNL     1       3.886  -0.644  55.129  1.00  0.00     0.036 C 
ATOM      5  C   UNL     1       2.359  -0.446  55.089  1.00  0.00     0.025 C 
ATOM      6  C   UNL     1       1.732  -1.335  53.998  1.00  0.00     0.089 C 
ATOM      7  C   UNL     1       2.177  -2.762  54.161  1.00  0.00     0.158 C 
ATOM      8  O   UNL     1       1.446  -3.687  53.716  1.00  0.00    -0.295 OA
ENDROOT
BRANCH   5   9
ATOM      9  C   UNL     1       1.991   1.018  54.894  1.00  0.00    -0.077 C 
ATOM     10  C   UNL     1       2.302   1.644  53.748  1.00  0.00     0.008 C 
ATOM     11  C   UNL     1       1.275   1.798  55.970  1.00  0.00     0.039 C 
ENDBRANCH   5   9
TORSDOF 1
ENDMDL
MODEL 6
REMARK VINA RESULT:    -4.200      2.291      4.724
REMARK INTER + INTRA:          -4.535
REMARK INTER:                  -4.437
REMARK INTRA:                  -0.098
REMARK UNBOUND:                -0.089
REMARK SMILES C=C(C)[C@@H]1CC=C(C)C(=O)C1
REMARK SMILES IDX 8 1 7 2 6 3 5 4 4 5 11 6 9 7 10 8 2 9 1 10 3 11
REMARK H PARENT
REMARK Flexibility Score: inf
ROOT
ATOM      1  C   UNL     1     -10.711   3.435  50.141  1.00  0.00     0.048 C 
ATOM      2  C   UNL     1      -9.622   3.758  51.127  1.00  0.00    -0.012 C 
ATOM      3  C   UNL     1      -9.012   2.767  51.799  1.00  0.00    -0.019 C 
ATOM      4  C   UNL     1      -7.905   3.034  52.784  1.00  0.00     0.036 C 
ATOM      5  C   UNL     1      -8.107   4.385  53.494  1.00  0.00     0.025 C 
ATOM      6  C   UNL     1      -8.252   5.517  52.459  1.00  0.00     0.089 C 
ATOM      7  C   UNL     1      -9.311   5.174  51.447  1.00  0.00     0.158 C 
ATOM      8  O   UNL     1      -9.907   6.106  50.843  1.00  0.00    -0.295 OA
ENDROOT
BRANCH   5   9
ATOM      9  C   UNL     1      -6.982   4.673  54.479  1.00  0.00    -0.077 C 
ATOM     10  C   UNL     1      -5.852   3.949  54.440  1.00  0.00     0.008 C 
ATOM     11  C   UNL     1      -7.104   5.765  55.514  1.00  0.00     0.039 C 
ENDBRANCH   5   9
TORSDOF 1
ENDMDL
MODEL 7
REMARK VINA RESULT:    -4.123      2.247      4.709
REMARK INTER + INTRA:          -4.453
REMARK INTER:                  -4.354
REMARK INTRA:                  -0.099
REMARK UNBOUND:                -0.089
REMARK SMILES C=C(C)[C@@H]1CC=C(C)C(=O)C1
REMARK SMILES IDX 8 1 7 2 6 3 5 4 4 5 11 6 9 7 10 8 2 9 1 10 3 11
REMARK H PARENT
REMARK Flexibility Score: inf
ROOT
ATOM      1  C   UNL     1     -10.091   5.969  50.965  1.00  0.00     0.048 C 
ATOM      2  C   UNL     1      -9.274   5.560  52.161  1.00  0.00    -0.012 C 
ATOM      3  C   UNL     1      -9.670   5.917  53.394  1.00  0.00    -0.019 C 
ATOM      4  C   UNL     1      -8.898   5.520  54.625  1.00  0.00     0.036 C 
ATOM      5  C   UNL     1      -7.389   5.439  54.333  1.00  0.00     0.025 C 
ATOM      6  C   UNL     1      -7.123   4.491  53.147  1.00  0.00     0.089 C 
ATOM      7  C   UNL     1      -7.973   4.873  51.967  1.00  0.00     0.158 C 
ATOM      8  O   UNL     1      -7.584   4.569  50.807  1.00  0.00    -0.295 OA
ENDROOT
BRANCH   5   9
ATOM      9  C   UNL     1      -6.602   5.019  55.567  1.00  0.00    -0.077 C 
ATOM     10  C   UNL     1      -5.904   3.873  55.563  1.00  0.00     0.008 C 
ATOM     11  C   UNL     1      -6.587   5.868  56.815  1.00  0.00     0.039 C 
ENDBRANCH   5   9
TORSDOF 1
ENDMDL
MODEL 8
REMARK VINA RESULT:    -4.100      2.180      4.331
REMARK INTER + INTRA:          -4.429
REMARK INTER:                  -4.330
REMARK INTRA:                  -0.098
REMARK UNBOUND:                -0.089
REMARK SMILES C=C(C)[C@@H]1CC=C(C)C(=O)C1
REMARK SMILES IDX 8 1 7 2 6 3 5 4 4 5 11 6 9 7 10 8 2 9 1 10 3 11
REMARK H PARENT
REMARK Flexibility Score: inf
ROOT
ATOM      1  C   UNL     1     -10.710   6.130  50.620  1.00  0.00     0.048 C 
ATOM      2  C   UNL     1      -9.621   5.824  51.612  1.00  0.00    -0.012 C 
ATOM      3  C   UNL     1      -8.476   5.259  51.194  1.00  0.00    -0.019 C 
ATOM      4  C   UNL     1      -7.348   4.948  52.142  1.00  0.00     0.036 C 
ATOM      5  C   UNL     1      -7.882   4.578  53.538  1.00  0.00     0.025 C 
ATOM      6  C   UNL     1      -8.802   5.692  54.072  1.00  0.00     0.089 C 
ATOM      7  C   UNL     1      -9.863   6.029  53.062  1.00  0.00     0.158 C 
ATOM      8  O   UNL     1     -10.952   6.526  53.458  1.00  0.00    -0.295 OA
ENDROOT
BRANCH   5   9
ATOM      9  C   UNL     1      -6.748   4.279  54.509  1.00  0.00    -0.077 C 
ATOM     10  C   UNL     1      -6.491   5.120  55.523  1.00  0.00     0.008 C 
ATOM     11  C   UNL     1      -5.891   3.045  54.360  1.00  0.00     0.039 C 
ENDBRANCH   5   9
TORSDOF 1
ENDMDL
MODEL 9
REMARK VINA RESULT:    -4.013      8.575     10.364
REMARK INTER + INTRA:          -4.337
REMARK INTER:                  -4.241
REMARK INTRA:                  -0.096
REMARK UNBOUND:                -0.089
REMARK SMILES C=C(C)[C@@H]1CC=C(C)C(=O)C1
REMARK SMILES IDX 8 1 7 2 6 3 5 4 4 5 11 6 9 7 10 8 2 9 1 10 3 11
REMARK H PARENT
REMARK Flexibility Score: inf
ROOT
ATOM      1  C   UNL     1       3.373  -0.639  54.210  1.00  0.00     0.048 C 
ATOM      2  C   UNL     1       2.699   0.061  55.359  1.00  0.00    -0.012 C 
ATOM      3  C   UNL     1       2.620  -0.545  56.556  1.00  0.00    -0.019 C 
ATOM      4  C   UNL     1       1.971   0.117  57.743  1.00  0.00     0.036 C 
ATOM      5  C   UNL     1       0.813   1.032  57.304  1.00  0.00     0.025 C 
ATOM      6  C   UNL     1       1.303   2.055  56.263  1.00  0.00     0.089 C 
ATOM      7  C   UNL     1       2.016   1.359  55.136  1.00  0.00     0.158 C 
ATOM      8  O   UNL     1       2.060   1.911  54.003  1.00  0.00    -0.295 OA
ENDROOT
BRANCH   5   9
ATOM      9  C   UNL     1       0.163   1.720  58.497  1.00  0.00    -0.077 C 
ATOM     10  C   UNL     1       0.906   2.457  59.337  1.00  0.00     0.008 C 
ATOM     11  C   UNL     1      -1.318   1.596  58.764  1.00  0.00     0.039 C 
ENDBRANCH   5   9
TORSDOF 1
ENDMDL
