MODEL 1
REMARK VINA RESULT:    -8.682      0.000      0.000
REMARK INTER + INTRA:         -10.579
REMARK INTER:                 -10.204
REMARK INTRA:                  -0.375
REMARK UNBOUND:                -0.375
REMARK SMILES C=C(C)[C@@H]1CC[C@@]2(CO)CC[C@]3(C)[C@@H](CC[C@H]4[C@@]5(C)CC[C@H](O)C(C)(C)[C@H]5CC[C@]43C)[C@H]12
REMARK SMILES IDX 4 1 5 2 6 3 7 4 32 5 14 6 15 7 16 8 17 9 18 10 20 11 21 12
REMARK SMILES IDX 22 13 24 14 27 15 28 16 29 17 30 18 12 19 11 20 10 21 13 22
REMARK SMILES IDX 31 23 25 24 26 25 19 26 2 27 3 28 1 29 8 30 9 31 23 33
REMARK H PARENT 9 32 23 34
REMARK Flexibility Score: inf
ROOT
ATOM      1  C   UNL     1      27.433  50.433  16.114  1.00  0.00     0.018 C 
ATOM      2  C   UNL     1      28.688  50.190  16.989  1.00  0.00     0.009 C 
ATOM      3  C   UNL     1      29.806  51.090  16.439  1.00  0.00     0.010 C 
ATOM      4  C   UNL     1      29.088  52.244  15.701  1.00  0.00    -0.003 C 
ATOM      5  C   UNL     1      27.905  51.505  15.091  1.00  0.00     0.008 C 
ATOM      6  C   UNL     1      26.934  52.321  14.151  1.00  0.00    -0.000 C 
ATOM      7  C   UNL     1      26.184  51.230  13.365  1.00  0.00     0.005 C 
ATOM      8  C   UNL     1      25.388  51.737  12.205  1.00  0.00     0.005 C 
ATOM      9  C   UNL     1      26.312  52.368  11.131  1.00  0.00     0.002 C 
ATOM     10  C   UNL     1      25.591  52.552   9.692  1.00  0.00    -0.026 C 
ATOM     11  C   UNL     1      24.776  51.272   9.264  1.00  0.00     0.010 C 
ATOM     12  C   UNL     1      23.822  51.548   8.104  1.00  0.00     0.033 C 
ATOM     13  C   UNL     1      22.675  52.495   8.519  1.00  0.00     0.120 C 
ATOM     14  C   UNL     1      23.068  53.588   9.607  1.00  0.00    -0.006 C 
ATOM     15  C   UNL     1      24.643  53.834   9.611  1.00  0.00     0.003 C 
ATOM     16  C   UNL     1      25.127  55.042  10.472  1.00  0.00     0.005 C 
ATOM     17  C   UNL     1      25.836  54.743  11.805  1.00  0.00     0.008 C 
ATOM     18  C   UNL     1      26.983  53.670  11.750  1.00  0.00    -0.024 C 
ATOM     19  C   UNL     1      27.681  53.419  13.236  1.00  0.00    -0.024 C 
ATOM     20  C   UNL     1      29.202  52.986  13.150  1.00  0.00     0.008 C 
ATOM     21  C   UNL     1      29.947  52.842  14.526  1.00  0.00     0.010 C 
ATOM     22  C   UNL     1      27.693  54.807  13.972  1.00  0.00     0.012 C 
ATOM     23  C   UNL     1      28.091  54.236  10.803  1.00  0.00     0.012 C 
ATOM     24  C   UNL     1      22.303  54.913   9.283  1.00  0.00     0.014 C 
ATOM     25  C   UNL     1      22.548  53.144  10.996  1.00  0.00     0.014 C 
ATOM     26  C   UNL     1      26.716  52.671   8.589  1.00  0.00     0.012 C 
ENDROOT
BRANCH   1  27
ATOM     27  C   UNL     1      26.184  50.635  16.982  1.00  0.00    -0.077 C 
ATOM     28  C   UNL     1      25.808  51.928  17.661  1.00  0.00     0.039 C 
ATOM     29  C   UNL     1      25.305  49.619  17.053  1.00  0.00     0.008 C 
ENDBRANCH   1  27
BRANCH   4  30
ATOM     30  C   UNL     1      28.653  53.292  16.781  1.00  0.00     0.163 C 
BRANCH  30  31
ATOM     31  O   UNL     1      29.757  53.938  17.359  1.00  0.00    -0.396 OA
ATOM     32  H   UNL     1      30.454  53.247  17.507  1.00  0.00     0.210 HD
ENDBRANCH  30  31
ENDBRANCH   4  30
BRANCH  13  33
ATOM     33  O   UNL     1      22.117  53.059   7.354  1.00  0.00    -0.393 OA
ATOM     34  H   UNL     1      22.657  52.750   6.580  1.00  0.00     0.210 HD
ENDBRANCH  13  33
TORSDOF 4
ENDMDL
MODEL 2
REMARK VINA RESULT:    -8.678      2.787      7.313
REMARK INTER + INTRA:         -10.574
REMARK INTER:                 -10.200
REMARK INTRA:                  -0.374
REMARK UNBOUND:                -0.375
REMARK SMILES C=C(C)[C@@H]1CC[C@@]2(CO)CC[C@]3(C)[C@@H](CC[C@H]4[C@@]5(C)CC[C@H](O)C(C)(C)[C@H]5CC[C@]43C)[C@H]12
REMARK SMILES IDX 4 1 5 2 6 3 7 4 32 5 14 6 15 7 16 8 17 9 18 10 20 11 21 12
REMARK SMILES IDX 22 13 24 14 27 15 28 16 29 17 30 18 12 19 11 20 10 21 13 22
REMARK SMILES IDX 31 23 25 24 26 25 19 26 2 27 3 28 1 29 8 30 9 31 23 33
REMARK H PARENT 9 32 23 34
REMARK Flexibility Score: inf
ROOT
ATOM      1  C   UNL     1      27.444  55.587  11.521  1.00  0.00     0.018 C 
ATOM      2  C   UNL     1      28.682  55.831  10.624  1.00  0.00     0.009 C 
ATOM      3  C   UNL     1      29.810  54.929  11.152  1.00  0.00     0.010 C 
ATOM      4  C   UNL     1      29.105  53.774  11.901  1.00  0.00    -0.003 C 
ATOM      5  C   UNL     1      27.934  54.513  12.533  1.00  0.00     0.008 C 
ATOM      6  C   UNL     1      26.980  53.696  13.490  1.00  0.00    -0.000 C 
ATOM      7  C   UNL     1      26.245  54.786  14.291  1.00  0.00     0.005 C 
ATOM      8  C   UNL     1      25.470  54.278  15.464  1.00  0.00     0.005 C 
ATOM      9  C   UNL     1      26.413  53.644  16.521  1.00  0.00     0.002 C 
ATOM     10  C   UNL     1      25.718  53.458  17.972  1.00  0.00    -0.026 C 
ATOM     11  C   UNL     1      24.911  54.738  18.416  1.00  0.00     0.010 C 
ATOM     12  C   UNL     1      23.978  54.460  19.594  1.00  0.00     0.033 C 
ATOM     13  C   UNL     1      22.823  53.514  19.198  1.00  0.00     0.120 C 
ATOM     14  C   UNL     1      23.197  52.422  18.102  1.00  0.00    -0.006 C 
ATOM     15  C   UNL     1      24.771  52.176  18.068  1.00  0.00     0.003 C 
ATOM     16  C   UNL     1      25.239  50.969  17.197  1.00  0.00     0.005 C 
ATOM     17  C   UNL     1      25.924  51.270  15.852  1.00  0.00     0.008 C 
ATOM     18  C   UNL     1      27.072  52.343  15.887  1.00  0.00    -0.024 C 
ATOM     19  C   UNL     1      27.743  52.596  14.389  1.00  0.00    -0.024 C 
ATOM     20  C   UNL     1      29.265  53.029  14.448  1.00  0.00     0.008 C 
ATOM     21  C   UNL     1      29.985  53.175  13.059  1.00  0.00     0.010 C 
ATOM     22  C   UNL     1      27.741  51.209  13.651  1.00  0.00     0.012 C 
ATOM     23  C   UNL     1      28.197  51.775  16.813  1.00  0.00     0.012 C 
ATOM     24  C   UNL     1      22.437  51.098  18.437  1.00  0.00     0.014 C 
ATOM     25  C   UNL     1      22.652  52.869  16.723  1.00  0.00     0.014 C 
ATOM     26  C   UNL     1      26.863  53.338  19.055  1.00  0.00     0.012 C 
ENDROOT
BRANCH   1  27
ATOM     27  C   UNL     1      26.179  55.386  10.675  1.00  0.00    -0.077 C 
ATOM     28  C   UNL     1      25.789  54.094  10.002  1.00  0.00     0.039 C 
ATOM     29  C   UNL     1      25.300  56.403  10.621  1.00  0.00     0.008 C 
ENDBRANCH   1  27
BRANCH   4  30
ATOM     30  C   UNL     1      28.651  52.728  10.827  1.00  0.00     0.163 C 
BRANCH  30  31
ATOM     31  O   UNL     1      29.744  52.081  10.231  1.00  0.00    -0.396 OA
ATOM     32  H   UNL     1      29.509  51.932   9.278  1.00  0.00     0.210 HD
ENDBRANCH  30  31
ENDBRANCH   4  30
BRANCH  13  33
ATOM     33  O   UNL     1      22.287  52.949  20.372  1.00  0.00    -0.393 OA
ATOM     34  H   UNL     1      22.012  52.018  20.162  1.00  0.00     0.210 HD
ENDBRANCH  13  33
TORSDOF 4
ENDMDL
MODEL 3
REMARK VINA RESULT:    -8.547      2.944      5.213
REMARK INTER + INTRA:         -10.420
REMARK INTER:                 -10.073
REMARK INTRA:                  -0.347
REMARK UNBOUND:                -0.375
REMARK SMILES C=C(C)[C@@H]1CC[C@@]2(CO)CC[C@]3(C)[C@@H](CC[C@H]4[C@@]5(C)CC[C@H](O)C(C)(C)[C@H]5CC[C@]43C)[C@H]12
REMARK SMILES IDX 4 1 5 2 6 3 7 4 32 5 14 6 15 7 16 8 17 9 18 10 20 11 21 12
REMARK SMILES IDX 22 13 24 14 27 15 28 16 29 17 30 18 12 19 11 20 10 21 13 22
REMARK SMILES IDX 31 23 25 24 26 25 19 26 2 27 3 28 1 29 8 30 9 31 23 33
REMARK H PARENT 9 32 23 34
REMARK Flexibility Score: inf
ROOT
ATOM      1  C   UNL     1      23.339  52.802  17.957  1.00  0.00     0.018 C 
ATOM      2  C   UNL     1      22.621  51.663  18.720  1.00  0.00     0.009 C 
ATOM      3  C   UNL     1      23.280  50.342  18.290  1.00  0.00     0.010 C 
ATOM      4  C   UNL     1      24.696  50.723  17.799  1.00  0.00    -0.003 C 
ATOM      5  C   UNL     1      24.417  52.056  17.121  1.00  0.00     0.008 C 
ATOM      6  C   UNL     1      25.617  52.770  16.382  1.00  0.00    -0.000 C 
ATOM      7  C   UNL     1      24.923  53.778  15.448  1.00  0.00     0.005 C 
ATOM      8  C   UNL     1      25.823  54.404  14.432  1.00  0.00     0.005 C 
ATOM      9  C   UNL     1      26.374  53.339  13.447  1.00  0.00     0.002 C 
ATOM     10  C   UNL     1      27.000  53.977  12.096  1.00  0.00    -0.026 C 
ATOM     11  C   UNL     1      26.079  55.101  11.484  1.00  0.00     0.010 C 
ATOM     12  C   UNL     1      26.802  55.940  10.433  1.00  0.00     0.033 C 
ATOM     13  C   UNL     1      27.926  56.796  11.058  1.00  0.00     0.120 C 
ATOM     14  C   UNL     1      28.660  56.132  12.304  1.00  0.00    -0.006 C 
ATOM     15  C   UNL     1      28.478  54.549  12.284  1.00  0.00     0.003 C 
ATOM     16  C   UNL     1      29.339  53.765  13.323  1.00  0.00     0.005 C 
ATOM     17  C   UNL     1      28.627  53.169  14.550  1.00  0.00     0.008 C 
ATOM     18  C   UNL     1      27.318  52.349  14.257  1.00  0.00    -0.024 C 
ATOM     19  C   UNL     1      26.627  51.752  15.644  1.00  0.00    -0.024 C 
ATOM     20  C   UNL     1      25.833  50.401  15.418  1.00  0.00     0.008 C 
ATOM     21  C   UNL     1      25.250  49.729  16.713  1.00  0.00     0.010 C 
ATOM     22  C   UNL     1      27.805  51.375  16.613  1.00  0.00     0.012 C 
ATOM     23  C   UNL     1      27.736  51.125  13.379  1.00  0.00     0.012 C 
ATOM     24  C   UNL     1      30.175  56.515  12.253  1.00  0.00     0.014 C 
ATOM     25  C   UNL     1      28.123  56.759  13.614  1.00  0.00     0.014 C 
ATOM     26  C   UNL     1      27.017  52.855  10.983  1.00  0.00     0.012 C 
ENDROOT
BRANCH   1  27
ATOM     27  C   UNL     1      23.702  53.958  18.900  1.00  0.00    -0.077 C 
ATOM     28  C   UNL     1      24.943  54.014  19.755  1.00  0.00     0.039 C 
ATOM     29  C   UNL     1      22.912  55.047  18.881  1.00  0.00     0.008 C 
ENDBRANCH   1  27
BRANCH   4  30
ATOM     30  C   UNL     1      25.606  50.869  19.066  1.00  0.00     0.163 C 
BRANCH  30  31
ATOM     31  O   UNL     1      25.222  49.991  20.092  1.00  0.00    -0.396 OA
ATOM     32  H   UNL     1      24.656  49.290  19.677  1.00  0.00     0.210 HD
ENDBRANCH  30  31
ENDBRANCH   4  30
BRANCH  13  33
ATOM     33  O   UNL     1      28.818  57.177  10.036  1.00  0.00    -0.393 OA
ATOM     34  H   UNL     1      28.916  58.164  10.072  1.00  0.00     0.210 HD
ENDBRANCH  13  33
TORSDOF 4
ENDMDL
MODEL 4
REMARK VINA RESULT:    -8.428      1.804      2.455
REMARK INTER + INTRA:         -10.281
REMARK INTER:                  -9.757
REMARK INTRA:                  -0.525
REMARK UNBOUND:                -0.375
REMARK SMILES C=C(C)[C@@H]1CC[C@@]2(CO)CC[C@]3(C)[C@@H](CC[C@H]4[C@@]5(C)CC[C@H](O)C(C)(C)[C@H]5CC[C@]43C)[C@H]12
REMARK SMILES IDX 4 1 5 2 6 3 7 4 32 5 14 6 15 7 16 8 17 9 18 10 20 11 21 12
REMARK SMILES IDX 22 13 24 14 27 15 28 16 29 17 30 18 12 19 11 20 10 21 13 22
REMARK SMILES IDX 31 23 25 24 26 25 19 26 2 27 3 28 1 29 8 30 9 31 23 33
REMARK H PARENT 9 32 23 34
REMARK Flexibility Score: inf
ROOT
ATOM      1  C   UNL     1      24.218  52.095  16.812  1.00  0.00     0.018 C 
ATOM      2  C   UNL     1      24.797  51.656  18.179  1.00  0.00     0.009 C 
ATOM      3  C   UNL     1      26.329  51.734  18.070  1.00  0.00     0.010 C 
ATOM      4  C   UNL     1      26.615  52.749  16.938  1.00  0.00    -0.003 C 
ATOM      5  C   UNL     1      25.484  52.431  15.972  1.00  0.00     0.008 C 
ATOM      6  C   UNL     1      25.454  53.202  14.595  1.00  0.00    -0.000 C 
ATOM      7  C   UNL     1      24.529  52.343  13.714  1.00  0.00     0.005 C 
ATOM      8  C   UNL     1      24.540  52.705  12.264  1.00  0.00     0.005 C 
ATOM      9  C   UNL     1      25.940  52.462  11.641  1.00  0.00     0.002 C 
ATOM     10  C   UNL     1      25.924  52.426  10.021  1.00  0.00    -0.026 C 
ATOM     11  C   UNL     1      24.734  51.562   9.454  1.00  0.00     0.010 C 
ATOM     12  C   UNL     1      24.499  51.799   7.964  1.00  0.00     0.033 C 
ATOM     13  C   UNL     1      23.976  53.227   7.688  1.00  0.00     0.120 C 
ATOM     14  C   UNL     1      24.528  54.345   8.676  1.00  0.00    -0.006 C 
ATOM     15  C   UNL     1      25.893  53.874   9.350  1.00  0.00     0.003 C 
ATOM     16  C   UNL     1      26.650  54.971  10.162  1.00  0.00     0.005 C 
ATOM     17  C   UNL     1      26.627  54.879  11.698  1.00  0.00     0.008 C 
ATOM     18  C   UNL     1      26.968  53.472  12.310  1.00  0.00    -0.024 C 
ATOM     19  C   UNL     1      26.915  53.478  13.970  1.00  0.00    -0.024 C 
ATOM     20  C   UNL     1      27.902  52.434  14.634  1.00  0.00     0.008 C 
ATOM     21  C   UNL     1      27.977  52.470  16.203  1.00  0.00     0.010 C 
ATOM     22  C   UNL     1      27.437  54.885  14.436  1.00  0.00     0.012 C 
ATOM     23  C   UNL     1      28.438  53.139  11.891  1.00  0.00     0.012 C 
ATOM     24  C   UNL     1      24.739  55.666   7.866  1.00  0.00     0.014 C 
ATOM     25  C   UNL     1      23.447  54.681   9.732  1.00  0.00     0.014 C 
ATOM     26  C   UNL     1      27.216  51.658   9.533  1.00  0.00     0.012 C 
ENDROOT
BRANCH   1  27
ATOM     27  C   UNL     1      23.075  53.102  16.992  1.00  0.00    -0.077 C 
ATOM     28  C   UNL     1      22.031  53.416  15.950  1.00  0.00     0.039 C 
ATOM     29  C   UNL     1      22.928  53.664  18.206  1.00  0.00     0.008 C 
ENDBRANCH   1  27
BRANCH   4  30
ATOM     30  C   UNL     1      26.496  54.184  17.556  1.00  0.00     0.163 C 
BRANCH  30  31
ATOM     31  O   UNL     1      27.340  54.349  18.665  1.00  0.00    -0.396 OA
ATOM     32  H   UNL     1      27.559  55.315  18.722  1.00  0.00     0.210 HD
ENDBRANCH  30  31
ENDBRANCH   4  30
BRANCH  13  33
ATOM     33  O   UNL     1      24.206  53.532   6.332  1.00  0.00    -0.393 OA
ATOM     34  H   UNL     1      24.013  54.497   6.202  1.00  0.00     0.210 HD
ENDBRANCH  13  33
TORSDOF 4
ENDMDL
MODEL 5
REMARK VINA RESULT:    -8.425      1.582      7.607
REMARK INTER + INTRA:         -10.278
REMARK INTER:                  -9.934
REMARK INTRA:                  -0.343
REMARK UNBOUND:                -0.375
REMARK SMILES C=C(C)[C@@H]1CC[C@@]2(CO)CC[C@]3(C)[C@@H](CC[C@H]4[C@@]5(C)CC[C@H](O)C(C)(C)[C@H]5CC[C@]43C)[C@H]12
REMARK SMILES IDX 4 1 5 2 6 3 7 4 32 5 14 6 15 7 16 8 17 9 18 10 20 11 21 12
REMARK SMILES IDX 22 13 24 14 27 15 28 16 29 17 30 18 12 19 11 20 10 21 13 22
REMARK SMILES IDX 31 23 25 24 26 25 19 26 2 27 3 28 1 29 8 30 9 31 23 33
REMARK H PARENT 9 32 23 34
REMARK Flexibility Score: inf
ROOT
ATOM      1  C   UNL     1      22.930  53.262   9.902  1.00  0.00     0.018 C 
ATOM      2  C   UNL     1      22.250  54.408   9.114  1.00  0.00     0.009 C 
ATOM      3  C   UNL     1      23.086  55.677   9.347  1.00  0.00     0.010 C 
ATOM      4  C   UNL     1      24.502  55.182   9.721  1.00  0.00    -0.003 C 
ATOM      5  C   UNL     1      24.167  53.948  10.547  1.00  0.00     0.008 C 
ATOM      6  C   UNL     1      25.363  53.167  11.221  1.00  0.00    -0.000 C 
ATOM      7  C   UNL     1      24.680  52.323  12.312  1.00  0.00     0.005 C 
ATOM      8  C   UNL     1      25.621  51.685  13.283  1.00  0.00     0.005 C 
ATOM      9  C   UNL     1      26.386  52.759  14.101  1.00  0.00     0.002 C 
ATOM     10  C   UNL     1      27.092  52.167  15.434  1.00  0.00    -0.026 C 
ATOM     11  C   UNL     1      26.137  51.207  16.241  1.00  0.00     0.010 C 
ATOM     12  C   UNL     1      26.884  50.381  17.285  1.00  0.00     0.033 C 
ATOM     13  C   UNL     1      27.836  49.356  16.629  1.00  0.00     0.120 C 
ATOM     14  C   UNL     1      28.489  49.830  15.257  1.00  0.00    -0.006 C 
ATOM     15  C   UNL     1      28.473  51.419  15.148  1.00  0.00     0.003 C 
ATOM     16  C   UNL     1      29.287  52.014  13.956  1.00  0.00     0.005 C 
ATOM     17  C   UNL     1      28.505  52.583  12.759  1.00  0.00     0.008 C 
ATOM     18  C   UNL     1      27.329  53.566  13.108  1.00  0.00    -0.024 C 
ATOM     19  C   UNL     1      26.550  54.122  11.751  1.00  0.00    -0.024 C 
ATOM     20  C   UNL     1      25.929  55.568  11.931  1.00  0.00     0.008 C 
ATOM     21  C   UNL     1      25.275  56.192  10.646  1.00  0.00     0.010 C 
ATOM     22  C   UNL     1      27.643  54.284  10.634  1.00  0.00     0.012 C 
ATOM     23  C   UNL     1      27.967  54.804  13.820  1.00  0.00     0.012 C 
ATOM     24  C   UNL     1      29.952  49.284  15.186  1.00  0.00     0.014 C 
ATOM     25  C   UNL     1      27.745  49.161  14.075  1.00  0.00     0.014 C 
ATOM     26  C   UNL     1      27.351  53.367  16.429  1.00  0.00     0.012 C 
ENDROOT
BRANCH   1  27
ATOM     27  C   UNL     1      23.063  52.000   9.038  1.00  0.00    -0.077 C 
ATOM     28  C   UNL     1      24.257  51.665   8.180  1.00  0.00     0.039 C 
ATOM     29  C   UNL     1      22.092  51.073   9.139  1.00  0.00     0.008 C 
ENDBRANCH   1  27
BRANCH   4  30
ATOM     30  C   UNL     1      25.243  54.831   8.386  1.00  0.00     0.163 C 
BRANCH  30  31
ATOM     31  O   UNL     1      24.860  55.679   7.336  1.00  0.00    -0.396 OA
ATOM     32  H   UNL     1      24.126  55.224   6.847  1.00  0.00     0.210 HD
ENDBRANCH  30  31
ENDBRANCH   4  30
BRANCH  13  33
ATOM     33  O   UNL     1      28.795  48.962  17.584  1.00  0.00    -0.393 OA
ATOM     34  H   UNL     1      29.097  49.777  18.063  1.00  0.00     0.210 HD
ENDBRANCH  13  33
TORSDOF 4
ENDMDL
MODEL 6
REMARK VINA RESULT:    -8.371      2.233      7.673
REMARK INTER + INTRA:         -10.213
REMARK INTER:                  -9.688
REMARK INTRA:                  -0.526
REMARK UNBOUND:                -0.375
REMARK SMILES C=C(C)[C@@H]1CC[C@@]2(CO)CC[C@]3(C)[C@@H](CC[C@H]4[C@@]5(C)CC[C@H](O)C(C)(C)[C@H]5CC[C@]43C)[C@H]12
REMARK SMILES IDX 4 1 5 2 6 3 7 4 32 5 14 6 15 7 16 8 17 9 18 10 20 11 21 12
REMARK SMILES IDX 22 13 24 14 27 15 28 16 29 17 30 18 12 19 11 20 10 21 13 22
REMARK SMILES IDX 31 23 25 24 26 25 19 26 2 27 3 28 1 29 8 30 9 31 23 33
REMARK H PARENT 9 32 23 34
REMARK Flexibility Score: inf
ROOT
ATOM      1  C   UNL     1      24.130  53.924  10.822  1.00  0.00     0.018 C 
ATOM      2  C   UNL     1      24.662  54.380   9.442  1.00  0.00     0.009 C 
ATOM      3  C   UNL     1      26.196  54.285   9.493  1.00  0.00     0.010 C 
ATOM      4  C   UNL     1      26.513  53.248  10.596  1.00  0.00    -0.003 C 
ATOM      5  C   UNL     1      25.421  53.561  11.608  1.00  0.00     0.008 C 
ATOM      6  C   UNL     1      25.434  52.766  12.973  1.00  0.00    -0.000 C 
ATOM      7  C   UNL     1      24.552  53.619  13.901  1.00  0.00     0.005 C 
ATOM      8  C   UNL     1      24.612  53.231  15.344  1.00  0.00     0.005 C 
ATOM      9  C   UNL     1      26.037  53.451  15.919  1.00  0.00     0.002 C 
ATOM     10  C   UNL     1      26.081  53.459  17.538  1.00  0.00    -0.026 C 
ATOM     11  C   UNL     1      24.922  54.325  18.163  1.00  0.00     0.010 C 
ATOM     12  C   UNL     1      24.739  54.064  19.657  1.00  0.00     0.033 C 
ATOM     13  C   UNL     1      24.212  52.637  19.928  1.00  0.00     0.120 C 
ATOM     14  C   UNL     1      24.716  51.530  18.902  1.00  0.00    -0.006 C 
ATOM     15  C   UNL     1      26.060  52.000  18.185  1.00  0.00     0.003 C 
ATOM     16  C   UNL     1      26.775  50.910  17.328  1.00  0.00     0.005 C 
ATOM     17  C   UNL     1      26.696  51.028  15.795  1.00  0.00     0.008 C 
ATOM     18  C   UNL     1      27.029  52.442  15.195  1.00  0.00    -0.024 C 
ATOM     19  C   UNL     1      26.914  52.465  13.538  1.00  0.00    -0.024 C 
ATOM     20  C   UNL     1      27.888  53.512  12.856  1.00  0.00     0.008 C 
ATOM     21  C   UNL     1      27.904  53.502  11.285  1.00  0.00     0.010 C 
ATOM     22  C   UNL     1      27.404  51.062  13.030  1.00  0.00     0.012 C 
ATOM     23  C   UNL     1      28.516  52.754  15.565  1.00  0.00     0.012 C 
ATOM     24  C   UNL     1      24.942  50.193  19.681  1.00  0.00     0.014 C 
ATOM     25  C   UNL     1      23.593  51.224  17.881  1.00  0.00     0.014 C 
ATOM     26  C   UNL     1      27.398  54.206  17.991  1.00  0.00     0.012 C 
ENDROOT
BRANCH   1  27
ATOM     27  C   UNL     1      22.970  52.930  10.667  1.00  0.00    -0.077 C 
ATOM     28  C   UNL     1      21.969  52.599  11.745  1.00  0.00     0.039 C 
ATOM     29  C   UNL     1      22.765  52.400   9.447  1.00  0.00     0.008 C 
ENDBRANCH   1  27
BRANCH   4  30
ATOM     30  C   UNL     1      26.357  51.826   9.959  1.00  0.00     0.163 C 
BRANCH  30  31
ATOM     31  O   UNL     1      27.034  51.722   8.734  1.00  0.00    -0.396 OA
ATOM     32  H   UNL     1      28.003  51.677   8.941  1.00  0.00     0.210 HD
ENDBRANCH  30  31
ENDBRANCH   4  30
BRANCH  13  33
ATOM     33  O   UNL     1      24.489  52.306  21.269  1.00  0.00    -0.393 OA
ATOM     34  H   UNL     1      23.948  52.905  21.847  1.00  0.00     0.210 HD
ENDBRANCH  13  33
TORSDOF 4
ENDMDL
MODEL 7
REMARK VINA RESULT:    -7.714      3.317      7.544
REMARK INTER + INTRA:          -9.441
REMARK INTER:                  -8.929
REMARK INTRA:                  -0.512
REMARK UNBOUND:                -0.375
REMARK SMILES C=C(C)[C@@H]1CC[C@@]2(CO)CC[C@]3(C)[C@@H](CC[C@H]4[C@@]5(C)CC[C@H](O)C(C)(C)[C@H]5CC[C@]43C)[C@H]12
REMARK SMILES IDX 4 1 5 2 6 3 7 4 32 5 14 6 15 7 16 8 17 9 18 10 20 11 21 12
REMARK SMILES IDX 22 13 24 14 27 15 28 16 29 17 30 18 12 19 11 20 10 21 13 22
REMARK SMILES IDX 31 23 25 24 26 25 19 26 2 27 3 28 1 29 8 30 9 31 23 33
REMARK H PARENT 9 32 23 34
REMARK Flexibility Score: inf
ROOT
ATOM      1  C   UNL     1      27.644  55.248  10.814  1.00  0.00     0.018 C 
ATOM      2  C   UNL     1      26.713  56.356  10.266  1.00  0.00     0.009 C 
ATOM      3  C   UNL     1      25.516  56.459  11.226  1.00  0.00     0.010 C 
ATOM      4  C   UNL     1      26.017  55.901  12.579  1.00  0.00    -0.003 C 
ATOM      5  C   UNL     1      26.923  54.773  12.107  1.00  0.00     0.008 C 
ATOM      6  C   UNL     1      27.589  53.857  13.207  1.00  0.00    -0.000 C 
ATOM      7  C   UNL     1      28.016  52.600  12.428  1.00  0.00     0.005 C 
ATOM      8  C   UNL     1      28.435  51.449  13.285  1.00  0.00     0.005 C 
ATOM      9  C   UNL     1      27.251  50.940  14.148  1.00  0.00     0.002 C 
ATOM     10  C   UNL     1      27.500  49.465  14.773  1.00  0.00    -0.026 C 
ATOM     11  C   UNL     1      28.091  48.460  13.713  1.00  0.00     0.010 C 
ATOM     12  C   UNL     1      28.651  47.193  14.359  1.00  0.00     0.033 C 
ATOM     13  C   UNL     1      29.908  47.491  15.206  1.00  0.00     0.120 C 
ATOM     14  C   UNL     1      29.913  48.913  15.921  1.00  0.00    -0.006 C 
ATOM     15  C   UNL     1      28.427  49.471  16.072  1.00  0.00     0.003 C 
ATOM     16  C   UNL     1      28.281  50.747  16.957  1.00  0.00     0.005 C 
ATOM     17  C   UNL     1      28.006  52.088  16.253  1.00  0.00     0.008 C 
ATOM     18  C   UNL     1      26.856  52.081  15.181  1.00  0.00    -0.024 C 
ATOM     19  C   UNL     1      26.641  53.571  14.480  1.00  0.00    -0.024 C 
ATOM     20  C   UNL     1      25.152  53.835  14.011  1.00  0.00     0.008 C 
ATOM     21  C   UNL     1      24.863  55.271  13.441  1.00  0.00     0.010 C 
ATOM     22  C   UNL     1      26.912  54.642  15.598  1.00  0.00     0.012 C 
ATOM     23  C   UNL     1      25.534  51.725  15.936  1.00  0.00     0.012 C 
ATOM     24  C   UNL     1      30.594  48.766  17.321  1.00  0.00     0.014 C 
ATOM     25  C   UNL     1      30.817  49.886  15.126  1.00  0.00     0.014 C 
ATOM     26  C   UNL     1      26.095  48.844  15.143  1.00  0.00     0.012 C 
ENDROOT
BRANCH   1  27
ATOM     27  C   UNL     1      29.108  55.711  10.825  1.00  0.00    -0.077 C 
ATOM     28  C   UNL     1      30.299  54.797  10.958  1.00  0.00     0.039 C 
ATOM     29  C   UNL     1      29.349  57.013  10.588  1.00  0.00     0.008 C 
ENDBRANCH   1  27
BRANCH   4  30
ATOM     30  C   UNL     1      26.806  57.050  13.295  1.00  0.00     0.163 C 
BRANCH  30  31
ATOM     31  O   UNL     1      26.070  58.245  13.335  1.00  0.00    -0.396 OA
ATOM     32  H   UNL     1      25.697  58.326  14.251  1.00  0.00     0.210 HD
ENDBRANCH  30  31
ENDBRANCH   4  30
BRANCH  13  33
ATOM     33  O   UNL     1      30.101  46.426  16.108  1.00  0.00    -0.393 OA
ATOM     34  H   UNL     1      29.523  45.673  15.815  1.00  0.00     0.210 HD
ENDBRANCH  13  33
TORSDOF 4
ENDMDL
MODEL 8
REMARK VINA RESULT:    -7.384      1.468      7.876
REMARK INTER + INTRA:          -9.053
REMARK INTER:                  -8.617
REMARK INTRA:                  -0.437
REMARK UNBOUND:                -0.375
REMARK SMILES C=C(C)[C@@H]1CC[C@@]2(CO)CC[C@]3(C)[C@@H](CC[C@H]4[C@@]5(C)CC[C@H](O)C(C)(C)[C@H]5CC[C@]43C)[C@H]12
REMARK SMILES IDX 4 1 5 2 6 3 7 4 32 5 14 6 15 7 16 8 17 9 18 10 20 11 21 12
REMARK SMILES IDX 22 13 24 14 27 15 28 16 29 17 30 18 12 19 11 20 10 21 13 22
REMARK SMILES IDX 31 23 25 24 26 25 19 26 2 27 3 28 1 29 8 30 9 31 23 33
REMARK H PARENT 9 32 23 34
REMARK Flexibility Score: inf
ROOT
ATOM      1  C   UNL     1      24.812  51.479   8.915  1.00  0.00     0.018 C 
ATOM      2  C   UNL     1      23.470  51.395   8.147  1.00  0.00     0.009 C 
ATOM      3  C   UNL     1      22.363  51.835   9.119  1.00  0.00     0.010 C 
ATOM      4  C   UNL     1      23.063  52.720  10.177  1.00  0.00    -0.003 C 
ATOM      5  C   UNL     1      24.395  51.998  10.321  1.00  0.00     0.008 C 
ATOM      6  C   UNL     1      25.410  52.536  11.404  1.00  0.00    -0.000 C 
ATOM      7  C   UNL     1      26.379  51.359  11.614  1.00  0.00     0.005 C 
ATOM      8  C   UNL     1      27.287  51.505  12.793  1.00  0.00     0.005 C 
ATOM      9  C   UNL     1      26.479  51.532  14.117  1.00  0.00     0.002 C 
ATOM     10  C   UNL     1      27.390  51.266  15.430  1.00  0.00    -0.026 C 
ATOM     11  C   UNL     1      28.388  50.062  15.231  1.00  0.00     0.010 C 
ATOM     12  C   UNL     1      29.475  50.021  16.304  1.00  0.00     0.033 C 
ATOM     13  C   UNL     1      30.441  51.221  16.184  1.00  0.00     0.120 C 
ATOM     14  C   UNL     1      29.775  52.569  15.664  1.00  0.00    -0.006 C 
ATOM     15  C   UNL     1      28.202  52.552  15.915  1.00  0.00     0.003 C 
ATOM     16  C   UNL     1      27.469  53.905  15.657  1.00  0.00     0.005 C 
ATOM     17  C   UNL     1      26.599  54.027  14.394  1.00  0.00     0.008 C 
ATOM     18  C   UNL     1      25.591  52.850  14.134  1.00  0.00    -0.024 C 
ATOM     19  C   UNL     1      24.703  53.076  12.749  1.00  0.00    -0.024 C 
ATOM     20  C   UNL     1      23.266  52.413  12.810  1.00  0.00     0.008 C 
ATOM     21  C   UNL     1      22.338  52.688  11.572  1.00  0.00     0.010 C 
ATOM     22  C   UNL     1      24.435  54.619  12.628  1.00  0.00     0.012 C 
ATOM     23  C   UNL     1      24.589  52.837  15.335  1.00  0.00     0.012 C 
ATOM     24  C   UNL     1      30.441  53.773  16.406  1.00  0.00     0.014 C 
ATOM     25  C   UNL     1      30.119  52.770  14.167  1.00  0.00     0.014 C 
ATOM     26  C   UNL     1      26.441  50.782  16.598  1.00  0.00     0.012 C 
ENDROOT
BRANCH   1  27
ATOM     27  C   UNL     1      25.886  52.186   8.077  1.00  0.00    -0.077 C 
ATOM     28  C   UNL     1      25.630  53.351   7.156  1.00  0.00     0.039 C 
ATOM     29  C   UNL     1      27.165  51.810   8.260  1.00  0.00     0.008 C 
ENDBRANCH   1  27
BRANCH   4  30
ATOM     30  C   UNL     1      23.217  54.152   9.561  1.00  0.00     0.163 C 
BRANCH  30  31
ATOM     31  O   UNL     1      21.981  54.807   9.444  1.00  0.00    -0.396 OA
ATOM     32  H   UNL     1      21.283  54.104   9.397  1.00  0.00     0.210 HD
ENDBRANCH  30  31
ENDBRANCH   4  30
BRANCH  13  33
ATOM     33  O   UNL     1      31.110  51.380  17.414  1.00  0.00    -0.393 OA
ATOM     34  H   UNL     1      31.811  52.072  17.290  1.00  0.00     0.210 HD
ENDBRANCH  13  33
TORSDOF 4
ENDMDL
MODEL 9
REMARK VINA RESULT:    -7.257      3.033      7.476
REMARK INTER + INTRA:          -8.904
REMARK INTER:                  -8.347
REMARK INTRA:                  -0.557
REMARK UNBOUND:                -0.375
REMARK SMILES C=C(C)[C@@H]1CC[C@@]2(CO)CC[C@]3(C)[C@@H](CC[C@H]4[C@@]5(C)CC[C@H](O)C(C)(C)[C@H]5CC[C@]43C)[C@H]12
REMARK SMILES IDX 4 1 5 2 6 3 7 4 32 5 14 6 15 7 16 8 17 9 18 10 20 11 21 12
REMARK SMILES IDX 22 13 24 14 27 15 28 16 29 17 30 18 12 19 11 20 10 21 13 22
REMARK SMILES IDX 31 23 25 24 26 25 19 26 2 27 3 28 1 29 8 30 9 31 23 33
REMARK H PARENT 9 32 23 34
REMARK Flexibility Score: inf
ROOT
ATOM      1  C   UNL     1      29.200  55.254  12.429  1.00  0.00     0.018 C 
ATOM      2  C   UNL     1      30.115  54.895  11.232  1.00  0.00     0.009 C 
ATOM      3  C   UNL     1      29.882  53.409  10.912  1.00  0.00     0.010 C 
ATOM      4  C   UNL     1      28.475  53.079  11.462  1.00  0.00    -0.003 C 
ATOM      5  C   UNL     1      28.455  53.922  12.728  1.00  0.00     0.008 C 
ATOM      6  C   UNL     1      27.192  53.806  13.669  1.00  0.00    -0.000 C 
ATOM      7  C   UNL     1      27.682  54.374  15.012  1.00  0.00     0.005 C 
ATOM      8  C   UNL     1      26.758  54.134  16.163  1.00  0.00     0.005 C 
ATOM      9  C   UNL     1      26.618  52.617  16.456  1.00  0.00     0.002 C 
ATOM     10  C   UNL     1      25.988  52.301  17.915  1.00  0.00    -0.026 C 
ATOM     11  C   UNL     1      26.632  53.187  19.048  1.00  0.00     0.010 C 
ATOM     12  C   UNL     1      25.824  53.155  20.344  1.00  0.00     0.033 C 
ATOM     13  C   UNL     1      24.453  53.848  20.179  1.00  0.00     0.120 C 
ATOM     14  C   UNL     1      23.798  53.705  18.736  1.00  0.00    -0.006 C 
ATOM     15  C   UNL     1      24.399  52.444  17.969  1.00  0.00     0.003 C 
ATOM     16  C   UNL     1      23.677  52.065  16.639  1.00  0.00     0.005 C 
ATOM     17  C   UNL     1      24.391  52.380  15.313  1.00  0.00     0.008 C 
ATOM     18  C   UNL     1      25.895  51.933  15.216  1.00  0.00    -0.024 C 
ATOM     19  C   UNL     1      26.573  52.319  13.751  1.00  0.00    -0.024 C 
ATOM     20  C   UNL     1      27.720  51.321  13.307  1.00  0.00     0.008 C 
ATOM     21  C   UNL     1      28.324  51.570  11.878  1.00  0.00     0.010 C 
ATOM     22  C   UNL     1      25.445  52.150  12.670  1.00  0.00     0.012 C 
ATOM     23  C   UNL     1      25.915  50.374  15.345  1.00  0.00     0.012 C 
ATOM     24  C   UNL     1      22.250  53.566  18.902  1.00  0.00     0.014 C 
ATOM     25  C   UNL     1      24.008  55.018  17.942  1.00  0.00     0.014 C 
ATOM     26  C   UNL     1      26.388  50.825  18.314  1.00  0.00     0.012 C 
ENDROOT
BRANCH   1  27
ATOM     27  C   UNL     1      28.445  56.566  12.174  1.00  0.00    -0.077 C 
ATOM     28  C   UNL     1      27.904  57.471  13.252  1.00  0.00     0.039 C 
ATOM     29  C   UNL     1      28.355  56.994  10.902  1.00  0.00     0.008 C 
ENDBRANCH   1  27
BRANCH   4  30
ATOM     30  C   UNL     1      27.432  53.564  10.398  1.00  0.00     0.163 C 
BRANCH  30  31
ATOM     31  O   UNL     1      27.080  52.540   9.505  1.00  0.00    -0.396 OA
ATOM     32  H   UNL     1      27.891  51.984   9.366  1.00  0.00     0.210 HD
ENDBRANCH  30  31
ENDBRANCH   4  30
BRANCH  13  33
ATOM     33  O   UNL     1      23.602  53.406  21.212  1.00  0.00    -0.393 OA
ATOM     34  H   UNL     1      22.781  53.039  20.792  1.00  0.00     0.210 HD
ENDBRANCH  13  33
TORSDOF 4
ENDMDL
