MODEL 1
REMARK VINA RESULT:    -3.373      0.000      0.000
REMARK INTER + INTRA:          -8.242
REMARK INTER:                  -6.331
REMARK INTRA:                  -1.911
REMARK UNBOUND:                -1.911
REMARK SMILES O=C([O-])CCCCCCCCCCCCCCC(=O)[O-]
REMARK SMILES IDX 10 1 9 2 8 3 7 4 6 5 5 6 4 7 2 8 1 9 3 10 11 11 12 12 13 13
REMARK SMILES IDX 14 14 15 15 16 16 17 17 18 18 19 19 20 20
REMARK H PARENT
REMARK Flexibility Score: inf
ROOT
ATOM      1  C   UNL     1     -16.201 -15.180  29.960  1.00  0.00     0.000 C 
ENDROOT
BRANCH   1   2
ATOM      2  C   UNL     1     -16.830 -16.256  29.056  1.00  0.00     0.000 C 
BRANCH   2   3
ATOM      3  C   UNL     1     -15.790 -17.001  28.202  1.00  0.00     0.000 C 
BRANCH   3   4
ATOM      4  C   UNL     1     -15.250 -16.149  27.038  1.00  0.00     0.000 C 
BRANCH   4   5
ATOM      5  C   UNL     1     -16.312 -15.631  26.051  1.00  0.00     0.000 C 
BRANCH   5   6
ATOM      6  C   UNL     1     -16.310 -14.108  25.814  1.00  0.00     0.006 C 
BRANCH   6   7
ATOM      7  C   UNL     1     -17.130 -13.664  24.588  1.00  0.00     0.053 C 
BRANCH   7   8
ATOM      8  C   UNL     1     -18.392 -12.950  24.966  1.00  0.00     0.041 C 
ATOM      9  O   UNL     1     -19.305 -13.558  25.584  1.00  0.00    -0.550 OA
ATOM     10  O   UNL     1     -18.575 -11.620  24.606  1.00  0.00    -0.550 OA
ENDBRANCH   7   8
ENDBRANCH   6   7
ENDBRANCH   5   6
ENDBRANCH   4   5
ENDBRANCH   3   4
ENDBRANCH   2   3
ENDBRANCH   1   2
BRANCH   1  11
ATOM     11  C   UNL     1     -16.554 -13.723  29.595  1.00  0.00     0.000 C 
BRANCH  11  12
ATOM     12  C   UNL     1     -15.391 -12.893  29.024  1.00  0.00     0.000 C 
BRANCH  12  13
ATOM     13  C   UNL     1     -14.628 -12.113  30.104  1.00  0.00     0.000 C 
BRANCH  13  14
ATOM     14  C   UNL     1     -13.238 -12.722  30.340  1.00  0.00     0.000 C 
BRANCH  14  15
ATOM     15  C   UNL     1     -12.665 -13.396  29.083  1.00  0.00     0.000 C 
BRANCH  15  16
ATOM     16  C   UNL     1     -11.732 -14.573  29.414  1.00  0.00     0.006 C 
BRANCH  16  17
ATOM     17  C   UNL     1     -12.293 -15.913  28.922  1.00  0.00     0.053 C 
BRANCH  17  18
ATOM     18  C   UNL     1     -12.450 -16.893  30.044  1.00  0.00     0.041 C 
ATOM     19  O   UNL     1     -13.328 -16.711  30.927  1.00  0.00    -0.550 OA
ATOM     20  O   UNL     1     -11.603 -17.990  30.132  1.00  0.00    -0.550 OA
ENDBRANCH  17  18
ENDBRANCH  16  17
ENDBRANCH  15  16
ENDBRANCH  14  15
ENDBRANCH  13  14
ENDBRANCH  12  13
ENDBRANCH  11  12
ENDBRANCH   1  11
TORSDOF 15
ENDMDL
MODEL 2
REMARK VINA RESULT:    -3.342      1.805      3.281
REMARK INTER + INTRA:          -8.184
REMARK INTER:                  -5.768
REMARK INTRA:                  -2.417
REMARK UNBOUND:                -1.911
REMARK SMILES O=C([O-])CCCCCCCCCCCCCCC(=O)[O-]
REMARK SMILES IDX 10 1 9 2 8 3 7 4 6 5 5 6 4 7 2 8 1 9 3 10 11 11 12 12 13 13
REMARK SMILES IDX 14 14 15 15 16 16 17 17 18 18 19 19 20 20
REMARK H PARENT
REMARK Flexibility Score: inf
ROOT
ATOM      1  C   UNL     1     -18.516 -15.618  28.753  1.00  0.00     0.000 C 
ENDROOT
BRANCH   1   2
ATOM      2  C   UNL     1     -18.216 -14.509  29.780  1.00  0.00     0.000 C 
BRANCH   2   3
ATOM      3  C   UNL     1     -17.797 -13.184  29.122  1.00  0.00     0.000 C 
BRANCH   3   4
ATOM      4  C   UNL     1     -18.276 -13.061  27.663  1.00  0.00     0.000 C 
BRANCH   4   5
ATOM      5  C   UNL     1     -17.412 -12.163  26.759  1.00  0.00     0.000 C 
BRANCH   5   6
ATOM      6  C   UNL     1     -17.725 -12.244  25.252  1.00  0.00     0.006 C 
BRANCH   6   7
ATOM      7  C   UNL     1     -17.184 -13.514  24.568  1.00  0.00     0.053 C 
BRANCH   7   8
ATOM      8  C   UNL     1     -18.277 -14.430  24.106  1.00  0.00     0.041 C 
ATOM      9  O   UNL     1     -18.002 -15.583  23.680  1.00  0.00    -0.550 OA
ATOM     10  O   UNL     1     -19.598 -13.999  24.112  1.00  0.00    -0.550 OA
ENDBRANCH   7   8
ENDBRANCH   6   7
ENDBRANCH   5   6
ENDBRANCH   4   5
ENDBRANCH   3   4
ENDBRANCH   2   3
ENDBRANCH   1   2
BRANCH   1  11
ATOM     11  C   UNL     1     -17.940 -17.008  29.096  1.00  0.00     0.000 C 
BRANCH  11  12
ATOM     12  C   UNL     1     -16.970 -17.588  28.052  1.00  0.00     0.000 C 
BRANCH  12  13
ATOM     13  C   UNL     1     -16.770 -16.662  26.844  1.00  0.00     0.000 C 
BRANCH  13  14
ATOM     14  C   UNL     1     -15.305 -16.212  26.734  1.00  0.00     0.000 C 
BRANCH  14  15
ATOM     15  C   UNL     1     -15.032 -14.900  27.485  1.00  0.00     0.000 C 
BRANCH  15  16
ATOM     16  C   UNL     1     -14.329 -15.124  28.835  1.00  0.00     0.006 C 
BRANCH  16  17
ATOM     17  C   UNL     1     -13.108 -16.043  28.706  1.00  0.00     0.053 C 
BRANCH  17  18
ATOM     18  C   UNL     1     -13.166 -17.180  29.681  1.00  0.00     0.041 C 
ATOM     19  O   UNL     1     -14.267 -17.533  30.179  1.00  0.00    -0.550 OA
ATOM     20  O   UNL     1     -11.999 -17.826  30.065  1.00  0.00    -0.550 OA
ENDBRANCH  17  18
ENDBRANCH  16  17
ENDBRANCH  15  16
ENDBRANCH  14  15
ENDBRANCH  13  14
ENDBRANCH  12  13
ENDBRANCH  11  12
ENDBRANCH   1  11
TORSDOF 15
ENDMDL
MODEL 3
REMARK VINA RESULT:    -3.329      2.243      4.781
REMARK INTER + INTRA:          -8.159
REMARK INTER:                  -6.274
REMARK INTRA:                  -1.885
REMARK UNBOUND:                -1.911
REMARK SMILES O=C([O-])CCCCCCCCCCCCCCC(=O)[O-]
REMARK SMILES IDX 10 1 9 2 8 3 7 4 6 5 5 6 4 7 2 8 1 9 3 10 11 11 12 12 13 13
REMARK SMILES IDX 14 14 15 15 16 16 17 17 18 18 19 19 20 20
REMARK H PARENT
REMARK Flexibility Score: inf
ROOT
ATOM      1  C   UNL     1     -18.799 -16.343  23.298  1.00  0.00     0.000 C 
ENDROOT
BRANCH   1   2
ATOM      2  C   UNL     1     -19.045 -15.234  22.258  1.00  0.00     0.000 C 
BRANCH   2   3
ATOM      3  C   UNL     1     -18.215 -13.968  22.528  1.00  0.00     0.000 C 
BRANCH   3   4
ATOM      4  C   UNL     1     -19.085 -12.741  22.861  1.00  0.00     0.000 C 
BRANCH   4   5
ATOM      5  C   UNL     1     -18.602 -11.893  24.052  1.00  0.00     0.000 C 
BRANCH   5   6
ATOM      6  C   UNL     1     -17.600 -12.586  24.995  1.00  0.00     0.006 C 
BRANCH   6   7
ATOM      7  C   UNL     1     -18.031 -12.590  26.474  1.00  0.00     0.053 C 
BRANCH   7   8
ATOM      8  C   UNL     1     -17.733 -11.294  27.165  1.00  0.00     0.041 C 
ATOM      9  O   UNL     1     -16.723 -10.617  26.837  1.00  0.00    -0.550 OA
ATOM     10  O   UNL     1     -18.550 -10.849  28.197  1.00  0.00    -0.550 OA
ENDBRANCH   7   8
ENDBRANCH   6   7
ENDBRANCH   5   6
ENDBRANCH   4   5
ENDBRANCH   3   4
ENDBRANCH   2   3
ENDBRANCH   1   2
BRANCH   1  11
ATOM     11  C   UNL     1     -19.266 -16.017  24.733  1.00  0.00     0.000 C 
BRANCH  11  12
ATOM     12  C   UNL     1     -18.189 -16.168  25.820  1.00  0.00     0.000 C 
BRANCH  12  13
ATOM     13  C   UNL     1     -16.767 -16.241  25.246  1.00  0.00     0.000 C 
BRANCH  13  14
ATOM     14  C   UNL     1     -15.733 -16.438  26.365  1.00  0.00     0.000 C 
BRANCH  14  15
ATOM     15  C   UNL     1     -15.390 -15.127  27.090  1.00  0.00     0.000 C 
BRANCH  15  16
ATOM     16  C   UNL     1     -15.238 -15.313  28.610  1.00  0.00     0.006 C 
BRANCH  16  17
ATOM     17  C   UNL     1     -13.790 -15.617  29.013  1.00  0.00     0.053 C 
BRANCH  17  18
ATOM     18  C   UNL     1     -13.650 -17.001  29.572  1.00  0.00     0.041 C 
ATOM     19  O   UNL     1     -12.583 -17.350  30.142  1.00  0.00    -0.550 OA
ATOM     20  O   UNL     1     -14.686 -17.914  29.431  1.00  0.00    -0.550 OA
ENDBRANCH  17  18
ENDBRANCH  16  17
ENDBRANCH  15  16
ENDBRANCH  14  15
ENDBRANCH  13  14
ENDBRANCH  12  13
ENDBRANCH  11  12
ENDBRANCH   1  11
TORSDOF 15
ENDMDL
MODEL 4
REMARK VINA RESULT:    -3.248      1.773      3.271
REMARK INTER + INTRA:          -8.007
REMARK INTER:                  -5.896
REMARK INTRA:                  -2.111
REMARK UNBOUND:                -1.911
REMARK SMILES O=C([O-])CCCCCCCCCCCCCCC(=O)[O-]
REMARK SMILES IDX 10 1 9 2 8 3 7 4 6 5 5 6 4 7 2 8 1 9 3 10 11 11 12 12 13 13
REMARK SMILES IDX 14 14 15 15 16 16 17 17 18 18 19 19 20 20
REMARK H PARENT
REMARK Flexibility Score: inf
ROOT
ATOM      1  C   UNL     1     -15.942 -16.261  26.537  1.00  0.00     0.000 C 
ENDROOT
BRANCH   1   2
ATOM      2  C   UNL     1     -15.777 -14.733  26.645  1.00  0.00     0.000 C 
BRANCH   2   3
ATOM      3  C   UNL     1     -16.613 -14.121  27.781  1.00  0.00     0.000 C 
BRANCH   3   4
ATOM      4  C   UNL     1     -17.679 -13.131  27.274  1.00  0.00     0.000 C 
BRANCH   4   5
ATOM      5  C   UNL     1     -17.236 -12.223  26.112  1.00  0.00     0.000 C 
BRANCH   5   6
ATOM      6  C   UNL     1     -18.123 -12.277  24.853  1.00  0.00     0.006 C 
BRANCH   6   7
ATOM      7  C   UNL     1     -17.731 -13.386  23.859  1.00  0.00     0.053 C 
BRANCH   7   8
ATOM      8  C   UNL     1     -18.595 -14.604  23.983  1.00  0.00     0.041 C 
ATOM      9  O   UNL     1     -19.706 -14.538  24.573  1.00  0.00    -0.550 OA
ATOM     10  O   UNL     1     -18.159 -15.823  23.478  1.00  0.00    -0.550 OA
ENDBRANCH   7   8
ENDBRANCH   6   7
ENDBRANCH   5   6
ENDBRANCH   4   5
ENDBRANCH   3   4
ENDBRANCH   2   3
ENDBRANCH   1   2
BRANCH   1  11
ATOM     11  C   UNL     1     -17.088 -16.862  27.378  1.00  0.00     0.000 C 
BRANCH  11  12
ATOM     12  C   UNL     1     -16.645 -17.817  28.500  1.00  0.00     0.000 C 
BRANCH  12  13
ATOM     13  C   UNL     1     -16.325 -17.087  29.812  1.00  0.00     0.000 C 
BRANCH  13  14
ATOM     14  C   UNL     1     -14.821 -17.146  30.120  1.00  0.00     0.000 C 
BRANCH  14  15
ATOM     15  C   UNL     1     -14.259 -15.795  30.588  1.00  0.00     0.000 C 
BRANCH  15  16
ATOM     16  C   UNL     1     -13.474 -15.064  29.485  1.00  0.00     0.006 C 
BRANCH  16  17
ATOM     17  C   UNL     1     -12.493 -15.995  28.760  1.00  0.00     0.053 C 
BRANCH  17  18
ATOM     18  C   UNL     1     -11.300 -16.311  29.610  1.00  0.00     0.041 C 
ATOM     19  O   UNL     1     -11.139 -17.472  30.070  1.00  0.00    -0.550 OA
ATOM     20  O   UNL     1     -10.384 -15.315  29.920  1.00  0.00    -0.550 OA
ENDBRANCH  17  18
ENDBRANCH  16  17
ENDBRANCH  15  16
ENDBRANCH  14  15
ENDBRANCH  13  14
ENDBRANCH  12  13
ENDBRANCH  11  12
ENDBRANCH   1  11
TORSDOF 15
ENDMDL
MODEL 5
REMARK VINA RESULT:    -3.246      2.395      6.432
REMARK INTER + INTRA:          -8.004
REMARK INTER:                  -6.054
REMARK INTRA:                  -1.950
REMARK UNBOUND:                -1.911
REMARK SMILES O=C([O-])CCCCCCCCCCCCCCC(=O)[O-]
REMARK SMILES IDX 10 1 9 2 8 3 7 4 6 5 5 6 4 7 2 8 1 9 3 10 11 11 12 12 13 13
REMARK SMILES IDX 14 14 15 15 16 16 17 17 18 18 19 19 20 20
REMARK H PARENT
REMARK Flexibility Score: inf
ROOT
ATOM      1  C   UNL     1     -18.386 -16.259  23.679  1.00  0.00     0.000 C 
ENDROOT
BRANCH   1   2
ATOM      2  C   UNL     1     -18.886 -15.978  25.108  1.00  0.00     0.000 C 
BRANCH   2   3
ATOM      3  C   UNL     1     -17.820 -16.259  26.180  1.00  0.00     0.000 C 
BRANCH   3   4
ATOM      4  C   UNL     1     -16.384 -16.203  25.626  1.00  0.00     0.000 C 
BRANCH   4   5
ATOM      5  C   UNL     1     -15.274 -16.054  26.684  1.00  0.00     0.000 C 
BRANCH   5   6
ATOM      6  C   UNL     1     -15.564 -16.714  28.045  1.00  0.00     0.006 C 
BRANCH   6   7
ATOM      7  C   UNL     1     -14.684 -16.188  29.196  1.00  0.00     0.053 C 
BRANCH   7   8
ATOM      8  C   UNL     1     -13.299 -16.760  29.171  1.00  0.00     0.041 C 
ATOM      9  O   UNL     1     -13.046 -17.837  29.772  1.00  0.00    -0.550 OA
ATOM     10  O   UNL     1     -12.279 -16.086  28.512  1.00  0.00    -0.550 OA
ENDBRANCH   7   8
ENDBRANCH   6   7
ENDBRANCH   5   6
ENDBRANCH   4   5
ENDBRANCH   3   4
ENDBRANCH   2   3
ENDBRANCH   1   2
BRANCH   1  11
ATOM     11  C   UNL     1     -18.659 -15.140  22.652  1.00  0.00     0.000 C 
BRANCH  11  12
ATOM     12  C   UNL     1     -17.807 -13.872  22.827  1.00  0.00     0.000 C 
BRANCH  12  13
ATOM     13  C   UNL     1     -18.647 -12.587  22.850  1.00  0.00     0.000 C 
BRANCH  13  14
ATOM     14  C   UNL     1     -18.499 -11.859  24.195  1.00  0.00     0.000 C 
BRANCH  14  15
ATOM     15  C   UNL     1     -17.664 -12.656  25.210  1.00  0.00     0.000 C 
BRANCH  15  16
ATOM     16  C   UNL     1     -17.557 -11.951  26.573  1.00  0.00     0.006 C 
BRANCH  16  17
ATOM     17  C   UNL     1     -16.733 -12.761  27.581  1.00  0.00     0.053 C 
BRANCH  17  18
ATOM     18  C   UNL     1     -17.513 -13.054  28.826  1.00  0.00     0.041 C 
ATOM     19  O   UNL     1     -17.747 -12.138  29.658  1.00  0.00    -0.550 OA
ATOM     20  O   UNL     1     -17.954 -14.345  29.082  1.00  0.00    -0.550 OA
ENDBRANCH  17  18
ENDBRANCH  16  17
ENDBRANCH  15  16
ENDBRANCH  14  15
ENDBRANCH  13  14
ENDBRANCH  12  13
ENDBRANCH  11  12
ENDBRANCH   1  11
TORSDOF 15
ENDMDL
MODEL 6
REMARK VINA RESULT:    -3.209      0.813      6.880
REMARK INTER + INTRA:          -7.934
REMARK INTER:                  -6.256
REMARK INTRA:                  -1.678
REMARK UNBOUND:                -1.911
REMARK SMILES O=C([O-])CCCCCCCCCCCCCCC(=O)[O-]
REMARK SMILES IDX 10 1 9 2 8 3 7 4 6 5 5 6 4 7 2 8 1 9 3 10 11 11 12 12 13 13
REMARK SMILES IDX 14 14 15 15 16 16 17 17 18 18 19 19 20 20
REMARK H PARENT
REMARK Flexibility Score: inf
ROOT
ATOM      1  C   UNL     1     -16.317 -14.519  29.987  1.00  0.00     0.000 C 
ENDROOT
BRANCH   1   2
ATOM      2  C   UNL     1     -16.257 -13.007  29.700  1.00  0.00     0.000 C 
BRANCH   2   3
ATOM      3  C   UNL     1     -14.839 -12.519  29.360  1.00  0.00     0.000 C 
BRANCH   3   4
ATOM      4  C   UNL     1     -13.835 -13.674  29.182  1.00  0.00     0.000 C 
BRANCH   4   5
ATOM      5  C   UNL     1     -12.410 -13.394  29.693  1.00  0.00     0.000 C 
BRANCH   5   6
ATOM      6  C   UNL     1     -11.447 -14.597  29.665  1.00  0.00     0.006 C 
BRANCH   6   7
ATOM      7  C   UNL     1     -12.016 -15.837  28.949  1.00  0.00     0.053 C 
BRANCH   7   8
ATOM      8  C   UNL     1     -12.317 -16.961  29.893  1.00  0.00     0.041 C 
ATOM      9  O   UNL     1     -11.472 -17.874  30.084  1.00  0.00    -0.550 OA
ATOM     10  O   UNL     1     -13.547 -17.020  30.537  1.00  0.00    -0.550 OA
ENDBRANCH   7   8
ENDBRANCH   6   7
ENDBRANCH   5   6
ENDBRANCH   4   5
ENDBRANCH   3   4
ENDBRANCH   2   3
ENDBRANCH   1   2
BRANCH   1  11
ATOM     11  C   UNL     1     -17.130 -15.351  28.973  1.00  0.00     0.000 C 
BRANCH  11  12
ATOM     12  C   UNL     1     -16.420 -16.609  28.444  1.00  0.00     0.000 C 
BRANCH  12  13
ATOM     13  C   UNL     1     -15.368 -16.294  27.371  1.00  0.00     0.000 C 
BRANCH  13  14
ATOM     14  C   UNL     1     -15.939 -15.346  26.306  1.00  0.00     0.000 C 
BRANCH  14  15
ATOM     15  C   UNL     1     -16.853 -16.065  25.302  1.00  0.00     0.000 C 
BRANCH  15  16
ATOM     16  C   UNL     1     -17.560 -15.093  24.342  1.00  0.00     0.006 C 
BRANCH  16  17
ATOM     17  C   UNL     1     -17.155 -13.635  24.592  1.00  0.00     0.053 C 
BRANCH  17  18
ATOM     18  C   UNL     1     -18.347 -12.727  24.621  1.00  0.00     0.041 C 
ATOM     19  O   UNL     1     -19.306 -12.914  23.827  1.00  0.00    -0.550 OA
ATOM     20  O   UNL     1     -18.382 -11.655  25.502  1.00  0.00    -0.550 OA
ENDBRANCH  17  18
ENDBRANCH  16  17
ENDBRANCH  15  16
ENDBRANCH  14  15
ENDBRANCH  13  14
ENDBRANCH  12  13
ENDBRANCH  11  12
ENDBRANCH   1  11
TORSDOF 15
ENDMDL
MODEL 7
REMARK VINA RESULT:    -3.155      1.603      2.442
REMARK INTER + INTRA:          -7.832
REMARK INTER:                  -6.150
REMARK INTRA:                  -1.682
REMARK UNBOUND:                -1.911
REMARK SMILES O=C([O-])CCCCCCCCCCCCCCC(=O)[O-]
REMARK SMILES IDX 10 1 9 2 8 3 7 4 6 5 5 6 4 7 2 8 1 9 3 10 11 11 12 12 13 13
REMARK SMILES IDX 14 14 15 15 16 16 17 17 18 18 19 19 20 20
REMARK H PARENT
REMARK Flexibility Score: inf
ROOT
ATOM      1  C   UNL     1     -15.833 -16.044  26.374  1.00  0.00     0.000 C 
ENDROOT
BRANCH   1   2
ATOM      2  C   UNL     1     -16.941 -16.918  26.991  1.00  0.00     0.000 C 
BRANCH   2   3
ATOM      3  C   UNL     1     -18.001 -17.351  25.965  1.00  0.00     0.000 C 
BRANCH   3   4
ATOM      4  C   UNL     1     -17.516 -17.216  24.509  1.00  0.00     0.000 C 
BRANCH   4   5
ATOM      5  C   UNL     1     -18.441 -16.412  23.577  1.00  0.00     0.000 C 
BRANCH   5   6
ATOM      6  C   UNL     1     -18.138 -14.905  23.480  1.00  0.00     0.006 C 
BRANCH   6   7
ATOM      7  C   UNL     1     -18.937 -14.040  24.473  1.00  0.00     0.053 C 
BRANCH   7   8
ATOM      8  C   UNL     1     -18.569 -12.589  24.401  1.00  0.00     0.041 C 
ATOM      9  O   UNL     1     -18.471 -12.013  23.286  1.00  0.00    -0.550 OA
ATOM     10  O   UNL     1     -18.298 -11.880  25.565  1.00  0.00    -0.550 OA
ENDBRANCH   7   8
ENDBRANCH   6   7
ENDBRANCH   5   6
ENDBRANCH   4   5
ENDBRANCH   3   4
ENDBRANCH   2   3
ENDBRANCH   1   2
BRANCH   1  11
ATOM     11  C   UNL     1     -15.949 -14.532  26.659  1.00  0.00     0.000 C 
BRANCH  11  12
ATOM     12  C   UNL     1     -16.453 -14.169  28.067  1.00  0.00     0.000 C 
BRANCH  12  13
ATOM     13  C   UNL     1     -15.722 -12.961  28.669  1.00  0.00     0.000 C 
BRANCH  13  14
ATOM     14  C   UNL     1     -14.362 -13.377  29.250  1.00  0.00     0.000 C 
BRANCH  14  15
ATOM     15  C   UNL     1     -14.352 -14.830  29.751  1.00  0.00     0.000 C 
BRANCH  15  16
ATOM     16  C   UNL     1     -13.255 -15.679  29.086  1.00  0.00     0.006 C 
BRANCH  16  17
ATOM     17  C   UNL     1     -11.879 -15.449  29.723  1.00  0.00     0.053 C 
BRANCH  17  18
ATOM     18  C   UNL     1     -11.175 -16.742  30.003  1.00  0.00     0.041 C 
ATOM     19  O   UNL     1      -9.926 -16.764  30.157  1.00  0.00    -0.550 OA
ATOM     20  O   UNL     1     -11.897 -17.927  30.062  1.00  0.00    -0.550 OA
ENDBRANCH  17  18
ENDBRANCH  16  17
ENDBRANCH  15  16
ENDBRANCH  14  15
ENDBRANCH  13  14
ENDBRANCH  12  13
ENDBRANCH  11  12
ENDBRANCH   1  11
TORSDOF 15
ENDMDL
MODEL 8
REMARK VINA RESULT:    -3.142      3.008      4.329
REMARK INTER + INTRA:          -7.808
REMARK INTER:                  -5.402
REMARK INTRA:                  -2.406
REMARK UNBOUND:                -1.911
REMARK SMILES O=C([O-])CCCCCCCCCCCCCCC(=O)[O-]
REMARK SMILES IDX 10 1 9 2 8 3 7 4 6 5 5 6 4 7 2 8 1 9 3 10 11 11 12 12 13 13
REMARK SMILES IDX 14 14 15 15 16 16 17 17 18 18 19 19 20 20
REMARK H PARENT
REMARK Flexibility Score: inf
ROOT
ATOM      1  C   UNL     1     -16.747 -13.460  25.411  1.00  0.00     0.000 C 
ENDROOT
BRANCH   1   2
ATOM      2  C   UNL     1     -17.547 -14.637  24.823  1.00  0.00     0.000 C 
BRANCH   2   3
ATOM      3  C   UNL     1     -17.090 -16.001  25.367  1.00  0.00     0.000 C 
BRANCH   3   4
ATOM      4  C   UNL     1     -15.735 -15.931  26.096  1.00  0.00     0.000 C 
BRANCH   4   5
ATOM      5  C   UNL     1     -15.676 -16.662  27.451  1.00  0.00     0.000 C 
BRANCH   5   6
ATOM      6  C   UNL     1     -17.030 -17.153  27.997  1.00  0.00     0.006 C 
BRANCH   6   7
ATOM      7  C   UNL     1     -17.156 -17.065  29.530  1.00  0.00     0.053 C 
BRANCH   7   8
ATOM      8  C   UNL     1     -16.652 -18.295  30.222  1.00  0.00     0.041 C 
ATOM      9  O   UNL     1     -16.622 -19.398  29.615  1.00  0.00    -0.550 OA
ATOM     10  O   UNL     1     -16.246 -18.232  31.549  1.00  0.00    -0.550 OA
ENDBRANCH   7   8
ENDBRANCH   6   7
ENDBRANCH   5   6
ENDBRANCH   4   5
ENDBRANCH   3   4
ENDBRANCH   2   3
ENDBRANCH   1   2
BRANCH   1  11
ATOM     11  C   UNL     1     -17.491 -12.621  26.471  1.00  0.00     0.000 C 
BRANCH  11  12
ATOM     12  C   UNL     1     -17.319 -13.102  27.922  1.00  0.00     0.000 C 
BRANCH  12  13
ATOM     13  C   UNL     1     -16.140 -12.428  28.639  1.00  0.00     0.000 C 
BRANCH  13  14
ATOM     14  C   UNL     1     -15.051 -13.455  28.987  1.00  0.00     0.000 C 
BRANCH  14  15
ATOM     15  C   UNL     1     -15.201 -14.018  30.409  1.00  0.00     0.000 C 
BRANCH  15  16
ATOM     16  C   UNL     1     -14.190 -15.136  30.714  1.00  0.00     0.006 C 
BRANCH  16  17
ATOM     17  C   UNL     1     -13.131 -15.275  29.613  1.00  0.00     0.053 C 
BRANCH  17  18
ATOM     18  C   UNL     1     -12.523 -16.645  29.599  1.00  0.00     0.041 C 
ATOM     19  O   UNL     1     -13.245 -17.660  29.783  1.00  0.00    -0.550 OA
ATOM     20  O   UNL     1     -11.155 -16.796  29.417  1.00  0.00    -0.550 OA
ENDBRANCH  17  18
ENDBRANCH  16  17
ENDBRANCH  15  16
ENDBRANCH  14  15
ENDBRANCH  13  14
ENDBRANCH  12  13
ENDBRANCH  11  12
ENDBRANCH   1  11
TORSDOF 15
ENDMDL
MODEL 9
REMARK VINA RESULT:    -3.130      9.014     11.723
REMARK INTER + INTRA:          -7.786
REMARK INTER:                  -5.292
REMARK INTRA:                  -2.494
REMARK UNBOUND:                -1.911
REMARK SMILES O=C([O-])CCCCCCCCCCCCCCC(=O)[O-]
REMARK SMILES IDX 10 1 9 2 8 3 7 4 6 5 5 6 4 7 2 8 1 9 3 10 11 11 12 12 13 13
REMARK SMILES IDX 14 14 15 15 16 16 17 17 18 18 19 19 20 20
REMARK H PARENT
REMARK Flexibility Score: inf
ROOT
ATOM      1  C   UNL     1     -13.123 -22.269  19.204  1.00  0.00     0.000 C 
ENDROOT
BRANCH   1   2
ATOM      2  C   UNL     1     -14.264 -23.041  19.891  1.00  0.00     0.000 C 
BRANCH   2   3
ATOM      3  C   UNL     1     -15.111 -22.155  20.819  1.00  0.00     0.000 C 
BRANCH   3   4
ATOM      4  C   UNL     1     -14.320 -20.969  21.402  1.00  0.00     0.000 C 
BRANCH   4   5
ATOM      5  C   UNL     1     -14.097 -21.009  22.925  1.00  0.00     0.000 C 
BRANCH   5   6
ATOM      6  C   UNL     1     -12.657 -21.318  23.376  1.00  0.00     0.006 C 
BRANCH   6   7
ATOM      7  C   UNL     1     -12.327 -22.822  23.431  1.00  0.00     0.053 C 
BRANCH   7   8
ATOM      8  C   UNL     1     -13.445 -23.637  24.007  1.00  0.00     0.041 C 
ATOM      9  O   UNL     1     -13.753 -23.525  25.222  1.00  0.00    -0.550 OA
ATOM     10  O   UNL     1     -14.126 -24.548  23.208  1.00  0.00    -0.550 OA
ENDBRANCH   7   8
ENDBRANCH   6   7
ENDBRANCH   5   6
ENDBRANCH   4   5
ENDBRANCH   3   4
ENDBRANCH   2   3
ENDBRANCH   1   2
BRANCH   1  11
ATOM     11  C   UNL     1     -11.715 -22.875  19.381  1.00  0.00     0.000 C 
BRANCH  11  12
ATOM     12  C   UNL     1     -10.752 -22.045  20.248  1.00  0.00     0.000 C 
BRANCH  12  13
ATOM     13  C   UNL     1      -9.748 -21.235  19.416  1.00  0.00     0.000 C 
BRANCH  13  14
ATOM     14  C   UNL     1     -10.158 -19.755  19.351  1.00  0.00     0.000 C 
BRANCH  14  15
ATOM     15  C   UNL     1     -11.120 -19.358  20.482  1.00  0.00     0.000 C 
BRANCH  15  16
ATOM     16  C   UNL     1     -12.328 -18.551  19.976  1.00  0.00     0.006 C 
BRANCH  16  17
ATOM     17  C   UNL     1     -12.478 -18.628  18.452  1.00  0.00     0.053 C 
BRANCH  17  18
ATOM     18  C   UNL     1     -13.845 -18.203  18.008  1.00  0.00     0.041 C 
ATOM     19  O   UNL     1     -14.716 -19.065  17.721  1.00  0.00    -0.550 OA
ATOM     20  O   UNL     1     -14.144 -16.853  17.879  1.00  0.00    -0.550 OA
ENDBRANCH  17  18
ENDBRANCH  16  17
ENDBRANCH  15  16
ENDBRANCH  14  15
ENDBRANCH  13  14
ENDBRANCH  12  13
ENDBRANCH  11  12
ENDBRANCH   1  11
TORSDOF 15
ENDMDL
