MODEL 1
REMARK VINA RESULT:    -6.198      0.000      0.000
REMARK INTER + INTRA:         -12.868
REMARK INTER:                 -10.908
REMARK INTRA:                  -1.960
REMARK UNBOUND:                -1.960
REMARK SMILES CCCCCCC=CCCCCCCCC(=O)[O-]
REMARK SMILES IDX 10 1 11 2 12 3 13 4 14 5 15 6 16 7 17 8 18 9 9 10 8 11 7 12
REMARK SMILES IDX 6 13 5 14 4 15 3 16 2 17 1 18
REMARK H PARENT
REMARK Flexibility Score: inf
ROOT
ATOM      1  C   UNL     1      22.861   0.283  -0.035  1.00  0.00     0.004 C 
ENDROOT
BRANCH   1   2
ATOM      2  C   UNL     1      23.255   0.526  -1.499  1.00  0.00     0.000 C 
BRANCH   2   3
ATOM      3  C   UNL     1      22.173   0.061  -2.487  1.00  0.00     0.000 C 
BRANCH   3   4
ATOM      4  C   UNL     1      22.572  -1.259  -3.157  1.00  0.00     0.000 C 
BRANCH   4   5
ATOM      5  C   UNL     1      21.372  -2.215  -3.248  1.00  0.00     0.006 C 
BRANCH   5   6
ATOM      6  C   UNL     1      21.782  -3.615  -3.724  1.00  0.00     0.053 C 
BRANCH   6   7
ATOM      7  C   UNL     1      22.073  -4.529  -2.573  1.00  0.00     0.041 C 
ATOM      8  O   UNL     1      23.223  -5.018  -2.429  1.00  0.00    -0.550 OA
ATOM      9  O   UNL     1      21.065  -4.864  -1.678  1.00  0.00    -0.550 OA
ENDBRANCH   6   7
ENDBRANCH   5   6
ENDBRANCH   4   5
ENDBRANCH   3   4
ENDBRANCH   2   3
ENDBRANCH   1   2
BRANCH   1  10
ATOM     10  C   UNL     1      23.583  -0.925   0.580  1.00  0.00     0.027 C 
BRANCH  10  11
ATOM     11  C   UNL     1      22.702  -2.147   0.534  1.00  0.00    -0.031 C 
ATOM     12  C   UNL     1      22.989  -3.307   1.152  1.00  0.00    -0.031 C 
BRANCH  12  13
ATOM     13  C   UNL     1      24.272  -3.552   1.911  1.00  0.00     0.027 C 
BRANCH  13  14
ATOM     14  C   UNL     1      25.234  -4.476   1.146  1.00  0.00     0.004 C 
BRANCH  14  15
ATOM     15  C   UNL     1      26.698  -3.996   1.159  1.00  0.00     0.000 C 
BRANCH  15  16
ATOM     16  C   UNL     1      26.964  -2.887   0.126  1.00  0.00    -0.000 C 
BRANCH  16  17
ATOM     17  C   UNL     1      26.652  -3.334  -1.311  1.00  0.00    -0.003 C 
ATOM     18  C   UNL     1      25.490  -2.560  -1.935  1.00  0.00     0.004 C 
ENDBRANCH  16  17
ENDBRANCH  15  16
ENDBRANCH  14  15
ENDBRANCH  13  14
ENDBRANCH  12  13
ENDBRANCH  10  11
ENDBRANCH   1  10
TORSDOF 13
ENDMDL
MODEL 2
REMARK VINA RESULT:    -6.161      1.775      3.338
REMARK INTER + INTRA:         -12.803
REMARK INTER:                 -10.814
REMARK INTRA:                  -1.989
REMARK UNBOUND:                -1.960
REMARK SMILES CCCCCCC=CCCCCCCCC(=O)[O-]
REMARK SMILES IDX 10 1 11 2 12 3 13 4 14 5 15 6 16 7 17 8 18 9 9 10 8 11 7 12
REMARK SMILES IDX 6 13 5 14 4 15 3 16 2 17 1 18
REMARK H PARENT
REMARK Flexibility Score: inf
ROOT
ATOM      1  C   UNL     1      22.875  -1.158  -3.259  1.00  0.00     0.004 C 
ENDROOT
BRANCH   1   2
ATOM      2  C   UNL     1      22.280  -2.532  -3.597  1.00  0.00     0.000 C 
BRANCH   2   3
ATOM      3  C   UNL     1      21.408  -3.092  -2.462  1.00  0.00     0.000 C 
BRANCH   3   4
ATOM      4  C   UNL     1      21.984  -4.406  -1.922  1.00  0.00     0.000 C 
BRANCH   4   5
ATOM      5  C   UNL     1      22.755  -5.159  -3.018  1.00  0.00     0.006 C 
BRANCH   5   6
ATOM      6  C   UNL     1      21.970  -6.362  -3.555  1.00  0.00     0.053 C 
BRANCH   6   7
ATOM      7  C   UNL     1      22.093  -6.487  -5.043  1.00  0.00     0.041 C 
ATOM      8  O   UNL     1      22.321  -5.468  -5.746  1.00  0.00    -0.550 OA
ATOM      9  O   UNL     1      21.927  -7.723  -5.654  1.00  0.00    -0.550 OA
ENDBRANCH   6   7
ENDBRANCH   5   6
ENDBRANCH   4   5
ENDBRANCH   3   4
ENDBRANCH   2   3
ENDBRANCH   1   2
BRANCH   1  10
ATOM     10  C   UNL     1      21.896  -0.262  -2.485  1.00  0.00     0.027 C 
BRANCH  10  11
ATOM     11  C   UNL     1      22.641   0.625  -1.521  1.00  0.00    -0.031 C 
ATOM     12  C   UNL     1      22.931   0.283  -0.253  1.00  0.00    -0.031 C 
BRANCH  12  13
ATOM     13  C   UNL     1      22.482  -1.010   0.386  1.00  0.00     0.027 C 
BRANCH  13  14
ATOM     14  C   UNL     1      23.611  -2.050   0.453  1.00  0.00     0.004 C 
BRANCH  14  15
ATOM     15  C   UNL     1      24.894  -1.623  -0.286  1.00  0.00     0.000 C 
BRANCH  15  16
ATOM     16  C   UNL     1      25.466  -2.744  -1.171  1.00  0.00    -0.000 C 
BRANCH  16  17
ATOM     17  C   UNL     1      26.839  -3.235  -0.685  1.00  0.00    -0.003 C 
ATOM     18  C   UNL     1      26.797  -3.817   0.728  1.00  0.00     0.004 C 
ENDBRANCH  16  17
ENDBRANCH  15  16
ENDBRANCH  14  15
ENDBRANCH  13  14
ENDBRANCH  12  13
ENDBRANCH  10  11
ENDBRANCH   1  10
TORSDOF 13
ENDMDL
MODEL 3
REMARK VINA RESULT:    -6.150      2.197      5.043
REMARK INTER + INTRA:         -12.783
REMARK INTER:                 -10.988
REMARK INTRA:                  -1.795
REMARK UNBOUND:                -1.960
REMARK SMILES CCCCCCC=CCCCCCCCC(=O)[O-]
REMARK SMILES IDX 10 1 11 2 12 3 13 4 14 5 15 6 16 7 17 8 18 9 9 10 8 11 7 12
REMARK SMILES IDX 6 13 5 14 4 15 3 16 2 17 1 18
REMARK H PARENT
REMARK Flexibility Score: inf
ROOT
ATOM      1  C   UNL     1      22.267   0.454  -1.386  1.00  0.00     0.004 C 
ENDROOT
BRANCH   1   2
ATOM      2  C   UNL     1      22.275  -0.217  -0.005  1.00  0.00     0.000 C 
BRANCH   2   3
ATOM      3  C   UNL     1      23.689  -0.608   0.452  1.00  0.00     0.000 C 
BRANCH   3   4
ATOM      4  C   UNL     1      24.062  -2.007  -0.052  1.00  0.00     0.000 C 
BRANCH   4   5
ATOM      5  C   UNL     1      25.383  -1.974  -0.838  1.00  0.00     0.006 C 
BRANCH   5   6
ATOM      6  C   UNL     1      25.739  -3.344  -1.429  1.00  0.00     0.053 C 
BRANCH   6   7
ATOM      7  C   UNL     1      25.896  -4.385  -0.363  1.00  0.00     0.041 C 
ATOM      8  O   UNL     1      25.186  -5.425  -0.384  1.00  0.00    -0.550 OA
ATOM      9  O   UNL     1      26.803  -4.192   0.672  1.00  0.00    -0.550 OA
ENDBRANCH   6   7
ENDBRANCH   5   6
ENDBRANCH   4   5
ENDBRANCH   3   4
ENDBRANCH   2   3
ENDBRANCH   1   2
BRANCH   1  10
ATOM     10  C   UNL     1      21.710  -0.461  -2.487  1.00  0.00     0.027 C 
BRANCH  10  11
ATOM     11  C   UNL     1      22.830  -1.021  -3.325  1.00  0.00    -0.031 C 
ATOM     12  C   UNL     1      22.885  -2.295  -3.756  1.00  0.00    -0.031 C 
BRANCH  12  13
ATOM     13  C   UNL     1      21.860  -3.343  -3.391  1.00  0.00     0.027 C 
BRANCH  13  14
ATOM     14  C   UNL     1      22.476  -4.507  -2.598  1.00  0.00     0.004 C 
BRANCH  14  15
ATOM     15  C   UNL     1      22.562  -5.824  -3.394  1.00  0.00     0.000 C 
BRANCH  15  16
ATOM     16  C   UNL     1      22.136  -5.654  -4.863  1.00  0.00    -0.000 C 
BRANCH  16  17
ATOM     17  C   UNL     1      22.328  -6.939  -5.685  1.00  0.00    -0.003 C 
ATOM     18  C   UNL     1      21.143  -7.898  -5.573  1.00  0.00     0.004 C 
ENDBRANCH  16  17
ENDBRANCH  15  16
ENDBRANCH  14  15
ENDBRANCH  13  14
ENDBRANCH  12  13
ENDBRANCH  10  11
ENDBRANCH   1  10
TORSDOF 13
ENDMDL
MODEL 4
REMARK VINA RESULT:    -6.124      1.602      3.843
REMARK INTER + INTRA:         -12.738
REMARK INTER:                 -10.502
REMARK INTRA:                  -2.236
REMARK UNBOUND:                -1.960
REMARK SMILES CCCCCCC=CCCCCCCCC(=O)[O-]
REMARK SMILES IDX 10 1 11 2 12 3 13 4 14 5 15 6 16 7 17 8 18 9 9 10 8 11 7 12
REMARK SMILES IDX 6 13 5 14 4 15 3 16 2 17 1 18
REMARK H PARENT
REMARK Flexibility Score: inf
ROOT
ATOM      1  C   UNL     1      26.318  -3.377  -1.169  1.00  0.00     0.004 C 
ENDROOT
BRANCH   1   2
ATOM      2  C   UNL     1      25.325  -2.386  -1.793  1.00  0.00     0.000 C 
BRANCH   2   3
ATOM      3  C   UNL     1      24.038  -3.071  -2.282  1.00  0.00     0.000 C 
BRANCH   3   4
ATOM      4  C   UNL     1      24.014  -4.549  -1.877  1.00  0.00     0.000 C 
BRANCH   4   5
ATOM      5  C   UNL     1      22.671  -5.198  -2.245  1.00  0.00     0.006 C 
BRANCH   5   6
ATOM      6  C   UNL     1      22.835  -6.319  -3.280  1.00  0.00     0.053 C 
BRANCH   6   7
ATOM      7  C   UNL     1      22.192  -5.966  -4.587  1.00  0.00     0.041 C 
ATOM      8  O   UNL     1      22.006  -4.760  -4.895  1.00  0.00    -0.550 OA
ATOM      9  O   UNL     1      21.771  -6.971  -5.449  1.00  0.00    -0.550 OA
ENDBRANCH   6   7
ENDBRANCH   5   6
ENDBRANCH   4   5
ENDBRANCH   3   4
ENDBRANCH   2   3
ENDBRANCH   1   2
BRANCH   1  10
ATOM     10  C   UNL     1      26.627  -3.060   0.302  1.00  0.00     0.027 C 
BRANCH  10  11
ATOM     11  C   UNL     1      25.870  -3.991   1.213  1.00  0.00    -0.031 C 
ATOM     12  C   UNL     1      24.665  -3.713   1.744  1.00  0.00    -0.031 C 
BRANCH  12  13
ATOM     13  C   UNL     1      23.952  -2.395   1.549  1.00  0.00     0.027 C 
BRANCH  13  14
ATOM     14  C   UNL     1      22.579  -2.569   0.881  1.00  0.00     0.004 C 
BRANCH  14  15
ATOM     15  C   UNL     1      22.072  -1.302   0.165  1.00  0.00     0.000 C 
BRANCH  15  16
ATOM     16  C   UNL     1      23.116  -0.173   0.155  1.00  0.00    -0.000 C 
BRANCH  16  17
ATOM     17  C   UNL     1      22.839   0.877  -0.933  1.00  0.00    -0.003 C 
ATOM     18  C   UNL     1      22.396   0.256  -2.258  1.00  0.00     0.004 C 
ENDBRANCH  16  17
ENDBRANCH  15  16
ENDBRANCH  14  15
ENDBRANCH  13  14
ENDBRANCH  12  13
ENDBRANCH  10  11
ENDBRANCH   1  10
TORSDOF 13
ENDMDL
MODEL 5
REMARK VINA RESULT:    -6.041      2.910      5.355
REMARK INTER + INTRA:         -12.592
REMARK INTER:                 -10.960
REMARK INTRA:                  -1.632
REMARK UNBOUND:                -1.960
REMARK SMILES CCCCCCC=CCCCCCCCC(=O)[O-]
REMARK SMILES IDX 10 1 11 2 12 3 13 4 14 5 15 6 16 7 17 8 18 9 9 10 8 11 7 12
REMARK SMILES IDX 6 13 5 14 4 15 3 16 2 17 1 18
REMARK H PARENT
REMARK Flexibility Score: inf
ROOT
ATOM      1  C   UNL     1      24.613  -3.359   2.033  1.00  0.00     0.004 C 
ENDROOT
BRANCH   1   2
ATOM      2  C   UNL     1      23.191  -3.926   2.146  1.00  0.00     0.000 C 
BRANCH   2   3
ATOM      3  C   UNL     1      22.402  -3.805   0.832  1.00  0.00     0.000 C 
BRANCH   3   4
ATOM      4  C   UNL     1      20.990  -3.265   1.087  1.00  0.00     0.000 C 
BRANCH   4   5
ATOM      5  C   UNL     1      20.158  -4.265   1.906  1.00  0.00     0.006 C 
BRANCH   5   6
ATOM      6  C   UNL     1      19.511  -3.612   3.134  1.00  0.00     0.053 C 
BRANCH   6   7
ATOM      7  C   UNL     1      20.042  -4.185   4.413  1.00  0.00     0.041 C 
ATOM      8  O   UNL     1      20.209  -3.444   5.417  1.00  0.00    -0.550 OA
ATOM      9  O   UNL     1      20.381  -5.530   4.485  1.00  0.00    -0.550 OA
ENDBRANCH   6   7
ENDBRANCH   5   6
ENDBRANCH   4   5
ENDBRANCH   3   4
ENDBRANCH   2   3
ENDBRANCH   1   2
BRANCH   1  10
ATOM     10  C   UNL     1      25.569  -4.302   1.287  1.00  0.00     0.027 C 
BRANCH  10  11
ATOM     11  C   UNL     1      26.638  -3.516   0.575  1.00  0.00    -0.031 C 
ATOM     12  C   UNL     1      26.556  -3.121  -0.709  1.00  0.00    -0.031 C 
BRANCH  12  13
ATOM     13  C   UNL     1      25.405  -3.482  -1.620  1.00  0.00     0.027 C 
BRANCH  13  14
ATOM     14  C   UNL     1      24.445  -2.302  -1.841  1.00  0.00     0.004 C 
BRANCH  14  15
ATOM     15  C   UNL     1      24.726  -1.092  -0.928  1.00  0.00     0.000 C 
BRANCH  15  16
ATOM     16  C   UNL     1      23.451  -0.550  -0.259  1.00  0.00    -0.000 C 
BRANCH  16  17
ATOM     17  C   UNL     1      22.953   0.751  -0.907  1.00  0.00    -0.003 C 
ATOM     18  C   UNL     1      22.297   0.524  -2.269  1.00  0.00     0.004 C 
ENDBRANCH  16  17
ENDBRANCH  15  16
ENDBRANCH  14  15
ENDBRANCH  13  14
ENDBRANCH  12  13
ENDBRANCH  10  11
ENDBRANCH   1  10
TORSDOF 13
ENDMDL
MODEL 6
REMARK VINA RESULT:    -6.037      2.266      4.367
REMARK INTER + INTRA:         -12.584
REMARK INTER:                  -9.910
REMARK INTRA:                  -2.674
REMARK UNBOUND:                -1.960
REMARK SMILES CCCCCCC=CCCCCCCCC(=O)[O-]
REMARK SMILES IDX 10 1 11 2 12 3 13 4 14 5 15 6 16 7 17 8 18 9 9 10 8 11 7 12
REMARK SMILES IDX 6 13 5 14 4 15 3 16 2 17 1 18
REMARK H PARENT
REMARK Flexibility Score: inf
ROOT
ATOM      1  C   UNL     1      22.736  -2.026  -3.436  1.00  0.00     0.004 C 
ENDROOT
BRANCH   1   2
ATOM      2  C   UNL     1      22.614  -3.405  -2.773  1.00  0.00     0.000 C 
BRANCH   2   3
ATOM      3  C   UNL     1      21.453  -3.476  -1.768  1.00  0.00     0.000 C 
BRANCH   3   4
ATOM      4  C   UNL     1      21.905  -4.116  -0.450  1.00  0.00     0.000 C 
BRANCH   4   5
ATOM      5  C   UNL     1      21.151  -3.508   0.743  1.00  0.00     0.006 C 
BRANCH   5   6
ATOM      6  C   UNL     1      21.708  -3.994   2.088  1.00  0.00     0.053 C 
BRANCH   6   7
ATOM      7  C   UNL     1      20.631  -4.560   2.963  1.00  0.00     0.041 C 
ATOM      8  O   UNL     1      19.466  -4.085   2.919  1.00  0.00    -0.550 OA
ATOM      9  O   UNL     1      20.923  -5.590   3.848  1.00  0.00    -0.550 OA
ENDBRANCH   6   7
ENDBRANCH   5   6
ENDBRANCH   4   5
ENDBRANCH   3   4
ENDBRANCH   2   3
ENDBRANCH   1   2
BRANCH   1  10
ATOM     10  C   UNL     1      21.729  -1.009  -2.877  1.00  0.00     0.027 C 
BRANCH  10  11
ATOM     11  C   UNL     1      22.430   0.265  -2.481  1.00  0.00    -0.031 C 
ATOM     12  C   UNL     1      22.850   0.537  -1.232  1.00  0.00    -0.031 C 
BRANCH  12  13
ATOM     13  C   UNL     1      22.606  -0.374  -0.052  1.00  0.00     0.027 C 
BRANCH  13  14
ATOM     14  C   UNL     1      23.911  -0.954   0.516  1.00  0.00     0.004 C 
BRANCH  14  15
ATOM     15  C   UNL     1      24.924  -1.381  -0.565  1.00  0.00     0.000 C 
BRANCH  15  16
ATOM     16  C   UNL     1      25.469  -2.801  -0.334  1.00  0.00    -0.000 C 
BRANCH  16  17
ATOM     17  C   UNL     1      25.265  -3.282   1.112  1.00  0.00    -0.003 C 
ATOM     18  C   UNL     1      25.206  -4.806   1.227  1.00  0.00     0.004 C 
ENDBRANCH  16  17
ENDBRANCH  15  16
ENDBRANCH  14  15
ENDBRANCH  13  14
ENDBRANCH  12  13
ENDBRANCH  10  11
ENDBRANCH   1  10
TORSDOF 13
ENDMDL
MODEL 7
REMARK VINA RESULT:    -6.015      2.126      5.215
REMARK INTER + INTRA:         -12.546
REMARK INTER:                 -10.404
REMARK INTRA:                  -2.141
REMARK UNBOUND:                -1.960
REMARK SMILES CCCCCCC=CCCCCCCCC(=O)[O-]
REMARK SMILES IDX 10 1 11 2 12 3 13 4 14 5 15 6 16 7 17 8 18 9 9 10 8 11 7 12
REMARK SMILES IDX 6 13 5 14 4 15 3 16 2 17 1 18
REMARK H PARENT
REMARK Flexibility Score: inf
ROOT
ATOM      1  C   UNL     1      26.505  -4.224   0.613  1.00  0.00     0.004 C 
ENDROOT
BRANCH   1   2
ATOM      2  C   UNL     1      25.465  -3.729   1.629  1.00  0.00     0.000 C 
BRANCH   2   3
ATOM      3  C   UNL     1      24.229  -4.641   1.697  1.00  0.00     0.000 C 
BRANCH   3   4
ATOM      4  C   UNL     1      22.992  -3.856   2.149  1.00  0.00     0.000 C 
BRANCH   4   5
ATOM      5  C   UNL     1      21.963  -3.748   1.012  1.00  0.00     0.006 C 
BRANCH   5   6
ATOM      6  C   UNL     1      20.589  -3.288   1.516  1.00  0.00     0.053 C 
BRANCH   6   7
ATOM      7  C   UNL     1      19.958  -4.306   2.415  1.00  0.00     0.041 C 
ATOM      8  O   UNL     1      19.770  -4.046   3.632  1.00  0.00    -0.550 OA
ATOM      9  O   UNL     1      19.605  -5.553   1.915  1.00  0.00    -0.550 OA
ENDBRANCH   6   7
ENDBRANCH   5   6
ENDBRANCH   4   5
ENDBRANCH   3   4
ENDBRANCH   2   3
ENDBRANCH   1   2
BRANCH   1  10
ATOM     10  C   UNL     1      26.674  -3.266  -0.575  1.00  0.00     0.027 C 
BRANCH  10  11
ATOM     11  C   UNL     1      25.454  -3.299  -1.458  1.00  0.00    -0.031 C 
ATOM     12  C   UNL     1      24.620  -2.257  -1.633  1.00  0.00    -0.031 C 
BRANCH  12  13
ATOM     13  C   UNL     1      24.766  -0.941  -0.904  1.00  0.00     0.027 C 
BRANCH  13  14
ATOM     14  C   UNL     1      23.846  -0.850   0.324  1.00  0.00     0.004 C 
BRANCH  14  15
ATOM     15  C   UNL     1      22.866   0.338   0.279  1.00  0.00     0.000 C 
BRANCH  15  16
ATOM     16  C   UNL     1      22.051   0.380  -1.026  1.00  0.00    -0.000 C 
BRANCH  16  17
ATOM     17  C   UNL     1      21.113  -0.827  -1.174  1.00  0.00    -0.003 C 
ATOM     18  C   UNL     1      21.133  -1.426  -2.581  1.00  0.00     0.004 C 
ENDBRANCH  16  17
ENDBRANCH  15  16
ENDBRANCH  14  15
ENDBRANCH  13  14
ENDBRANCH  12  13
ENDBRANCH  10  11
ENDBRANCH   1  10
TORSDOF 13
ENDMDL
MODEL 8
REMARK VINA RESULT:    -6.006      2.042      3.349
REMARK INTER + INTRA:         -12.530
REMARK INTER:                  -9.973
REMARK INTRA:                  -2.557
REMARK UNBOUND:                -1.960
REMARK SMILES CCCCCCC=CCCCCCCCC(=O)[O-]
REMARK SMILES IDX 10 1 11 2 12 3 13 4 14 5 15 6 16 7 17 8 18 9 9 10 8 11 7 12
REMARK SMILES IDX 6 13 5 14 4 15 3 16 2 17 1 18
REMARK H PARENT
REMARK Flexibility Score: inf
ROOT
ATOM      1  C   UNL     1      21.730  -1.593  -0.615  1.00  0.00     0.004 C 
ENDROOT
BRANCH   1   2
ATOM      2  C   UNL     1      21.161  -2.719  -1.490  1.00  0.00     0.000 C 
BRANCH   2   3
ATOM      3  C   UNL     1      21.330  -2.440  -2.992  1.00  0.00     0.000 C 
BRANCH   3   4
ATOM      4  C   UNL     1      22.152  -3.545  -3.667  1.00  0.00     0.000 C 
BRANCH   4   5
ATOM      5  C   UNL     1      21.500  -4.921  -3.457  1.00  0.00     0.006 C 
BRANCH   5   6
ATOM      6  C   UNL     1      22.442  -6.072  -3.834  1.00  0.00     0.053 C 
BRANCH   6   7
ATOM      7  C   UNL     1      22.175  -6.577  -5.218  1.00  0.00     0.041 C 
ATOM      8  O   UNL     1      21.721  -7.738  -5.392  1.00  0.00    -0.550 OA
ATOM      9  O   UNL     1      22.458  -5.777  -6.318  1.00  0.00    -0.550 OA
ENDBRANCH   6   7
ENDBRANCH   5   6
ENDBRANCH   4   5
ENDBRANCH   3   4
ENDBRANCH   2   3
ENDBRANCH   1   2
BRANCH   1  10
ATOM     10  C   UNL     1      22.775  -0.741  -1.350  1.00  0.00     0.027 C 
BRANCH  10  11
ATOM     11  C   UNL     1      24.056  -0.677  -0.559  1.00  0.00    -0.031 C 
ATOM     12  C   UNL     1      25.120  -1.470  -0.780  1.00  0.00    -0.031 C 
BRANCH  12  13
ATOM     13  C   UNL     1      25.135  -2.578  -1.808  1.00  0.00     0.027 C 
BRANCH  13  14
ATOM     14  C   UNL     1      25.567  -3.925  -1.206  1.00  0.00     0.004 C 
BRANCH  14  15
ATOM     15  C   UNL     1      24.421  -4.948  -1.086  1.00  0.00     0.000 C 
BRANCH  15  16
ATOM     16  C   UNL     1      23.695  -4.864   0.267  1.00  0.00    -0.000 C 
BRANCH  16  17
ATOM     17  C   UNL     1      24.628  -4.440   1.412  1.00  0.00    -0.003 C 
ATOM     18  C   UNL     1      24.066  -3.284   2.240  1.00  0.00     0.004 C 
ENDBRANCH  16  17
ENDBRANCH  15  16
ENDBRANCH  14  15
ENDBRANCH  13  14
ENDBRANCH  12  13
ENDBRANCH  10  11
ENDBRANCH   1  10
TORSDOF 13
ENDMDL
MODEL 9
REMARK VINA RESULT:    -5.987      1.671      2.415
REMARK INTER + INTRA:         -12.496
REMARK INTER:                 -10.111
REMARK INTRA:                  -2.386
REMARK UNBOUND:                -1.960
REMARK SMILES CCCCCCC=CCCCCCCCC(=O)[O-]
REMARK SMILES IDX 10 1 11 2 12 3 13 4 14 5 15 6 16 7 17 8 18 9 9 10 8 11 7 12
REMARK SMILES IDX 6 13 5 14 4 15 3 16 2 17 1 18
REMARK H PARENT
REMARK Flexibility Score: inf
ROOT
ATOM      1  C   UNL     1      23.281   0.095  -1.506  1.00  0.00     0.004 C 
ENDROOT
BRANCH   1   2
ATOM      2  C   UNL     1      22.412  -0.335  -2.697  1.00  0.00     0.000 C 
BRANCH   2   3
ATOM      3  C   UNL     1      22.867  -1.671  -3.306  1.00  0.00     0.000 C 
BRANCH   3   4
ATOM      4  C   UNL     1      21.685  -2.635  -3.462  1.00  0.00     0.000 C 
BRANCH   4   5
ATOM      5  C   UNL     1      22.122  -3.932  -4.160  1.00  0.00     0.006 C 
BRANCH   5   6
ATOM      6  C   UNL     1      21.149  -5.088  -3.894  1.00  0.00     0.053 C 
BRANCH   6   7
ATOM      7  C   UNL     1      21.755  -6.414  -4.238  1.00  0.00     0.041 C 
ATOM      8  O   UNL     1      22.856  -6.758  -3.733  1.00  0.00    -0.550 OA
ATOM      9  O   UNL     1      21.119  -7.257  -5.141  1.00  0.00    -0.550 OA
ENDBRANCH   6   7
ENDBRANCH   5   6
ENDBRANCH   4   5
ENDBRANCH   3   4
ENDBRANCH   2   3
ENDBRANCH   1   2
BRANCH   1  10
ATOM     10  C   UNL     1      24.202  -1.029  -1.008  1.00  0.00     0.027 C 
BRANCH  10  11
ATOM     11  C   UNL     1      23.973  -1.288   0.458  1.00  0.00    -0.031 C 
ATOM     12  C   UNL     1      23.128  -2.221   0.937  1.00  0.00    -0.031 C 
BRANCH  12  13
ATOM     13  C   UNL     1      22.247  -3.077   0.057  1.00  0.00     0.027 C 
BRANCH  13  14
ATOM     14  C   UNL     1      22.752  -4.526  -0.037  1.00  0.00     0.004 C 
BRANCH  14  15
ATOM     15  C   UNL     1      23.885  -4.724  -1.063  1.00  0.00     0.000 C 
BRANCH  15  16
ATOM     16  C   UNL     1      25.186  -5.226  -0.414  1.00  0.00    -0.000 C 
BRANCH  16  17
ATOM     17  C   UNL     1      26.304  -4.172  -0.442  1.00  0.00    -0.003 C 
ATOM     18  C   UNL     1      26.701  -3.689   0.953  1.00  0.00     0.004 C 
ENDBRANCH  16  17
ENDBRANCH  15  16
ENDBRANCH  14  15
ENDBRANCH  13  14
ENDBRANCH  12  13
ENDBRANCH  10  11
ENDBRANCH   1  10
TORSDOF 13
ENDMDL
