MODEL 1
REMARK VINA RESULT:    -4.610      0.000      0.000
REMARK INTER + INTRA:         -13.333
REMARK INTER:                 -10.540
REMARK INTRA:                  -2.794
REMARK UNBOUND:                -2.794
REMARK SMILES CCCCCCCCCCCCCCCCCCCCCCCC(=O)[O-]
REMARK SMILES IDX 13 1 14 2 15 3 16 4 17 5 18 6 19 7 20 8 21 9 22 10 23 11
REMARK SMILES IDX 24 12 25 13 26 14 12 15 11 16 10 17 9 18 8 19 7 20 6 21 5 22
REMARK SMILES IDX 4 23 3 24 2 25 1 26
REMARK H PARENT
REMARK Flexibility Score: inf
ROOT
ATOM      1  C   UNL     1     -11.139   3.962   7.271  1.00  0.00     0.000 C 
ENDROOT
BRANCH   1   2
ATOM      2  C   UNL     1     -12.562   4.426   6.935  1.00  0.00     0.000 C 
BRANCH   2   3
ATOM      3  C   UNL     1     -12.611   5.099   5.556  1.00  0.00     0.000 C 
BRANCH   3   4
ATOM      4  C   UNL     1     -13.785   6.082   5.422  1.00  0.00     0.000 C 
BRANCH   4   5
ATOM      5  C   UNL     1     -13.323   7.515   5.100  1.00  0.00     0.000 C 
BRANCH   5   6
ATOM      6  C   UNL     1     -12.395   8.093   6.181  1.00  0.00     0.000 C 
BRANCH   6   7
ATOM      7  C   UNL     1     -12.582   9.609   6.368  1.00  0.00     0.000 C 
BRANCH   7   8
ATOM      8  C   UNL     1     -13.548  10.214   5.336  1.00  0.00     0.000 C 
BRANCH   8   9
ATOM      9  C   UNL     1     -13.323  11.720   5.121  1.00  0.00     0.000 C 
BRANCH   9  10
ATOM     10  C   UNL     1     -13.297  12.118   3.634  1.00  0.00     0.006 C 
BRANCH  10  11
ATOM     11  C   UNL     1     -12.030  11.662   2.888  1.00  0.00     0.053 C 
BRANCH  11  12
ATOM     12  C   UNL     1     -12.328  11.126   1.520  1.00  0.00     0.041 C 
ATOM     13  O   UNL     1     -11.729  11.587   0.512  1.00  0.00    -0.550 OA
ATOM     14  O   UNL     1     -13.287  10.135   1.354  1.00  0.00    -0.550 OA
ENDBRANCH  11  12
ENDBRANCH  10  11
ENDBRANCH   9  10
ENDBRANCH   8   9
ENDBRANCH   7   8
ENDBRANCH   6   7
ENDBRANCH   5   6
ENDBRANCH   4   5
ENDBRANCH   3   4
ENDBRANCH   2   3
ENDBRANCH   1   2
BRANCH   1  15
ATOM     15  C   UNL     1     -10.583   4.725   8.478  1.00  0.00     0.000 C 
BRANCH  15  16
ATOM     16  C   UNL     1      -9.835   5.990   8.031  1.00  0.00     0.000 C 
BRANCH  16  17
ATOM     17  C   UNL     1      -9.104   5.809   6.691  1.00  0.00     0.000 C 
BRANCH  17  18
ATOM     18  C   UNL     1      -9.221   6.998   5.718  1.00  0.00    -0.000 C 
BRANCH  18  19
ATOM     19  C   UNL     1      -8.266   8.167   6.039  1.00  0.00    -0.000 C 
BRANCH  19  20
ATOM     20  C   UNL     1      -8.321   9.279   4.975  1.00  0.00    -0.000 C 
BRANCH  20  21
ATOM     21  C   UNL     1      -9.300  10.404   5.346  1.00  0.00    -0.000 C 
BRANCH  21  22
ATOM     22  C   UNL     1      -8.595  11.626   5.956  1.00  0.00    -0.000 C 
BRANCH  22  23
ATOM     23  C   UNL     1      -7.128  11.689   5.516  1.00  0.00    -0.000 C 
BRANCH  23  24
ATOM     24  C   UNL     1      -6.191  11.731   6.732  1.00  0.00    -0.000 C 
BRANCH  24  25
ATOM     25  C   UNL     1      -5.154  10.596   6.719  1.00  0.00    -0.003 C 
ATOM     26  C   UNL     1      -3.850  10.993   6.026  1.00  0.00     0.004 C 
ENDBRANCH  24  25
ENDBRANCH  23  24
ENDBRANCH  22  23
ENDBRANCH  21  22
ENDBRANCH  20  21
ENDBRANCH  19  20
ENDBRANCH  18  19
ENDBRANCH  17  18
ENDBRANCH  16  17
ENDBRANCH  15  16
ENDBRANCH   1  15
TORSDOF 22
ENDMDL
MODEL 2
REMARK VINA RESULT:    -4.522      2.973      5.999
REMARK INTER + INTRA:         -13.132
REMARK INTER:                  -9.699
REMARK INTRA:                  -3.433
REMARK UNBOUND:                -2.794
REMARK SMILES CCCCCCCCCCCCCCCCCCCCCCCC(=O)[O-]
REMARK SMILES IDX 13 1 14 2 15 3 16 4 17 5 18 6 19 7 20 8 21 9 22 10 23 11
REMARK SMILES IDX 24 12 25 13 26 14 12 15 11 16 10 17 9 18 8 19 7 20 6 21 5 22
REMARK SMILES IDX 4 23 3 24 2 25 1 26
REMARK H PARENT
REMARK Flexibility Score: inf
ROOT
ATOM      1  C   UNL     1     -13.334   5.650   6.006  1.00  0.00     0.000 C 
ENDROOT
BRANCH   1   2
ATOM      2  C   UNL     1     -12.393   4.545   6.501  1.00  0.00     0.000 C 
BRANCH   2   3
ATOM      3  C   UNL     1     -11.756   4.925   7.846  1.00  0.00     0.000 C 
BRANCH   3   4
ATOM      4  C   UNL     1     -10.613   5.939   7.691  1.00  0.00     0.000 C 
BRANCH   4   5
ATOM      5  C   UNL     1      -9.423   5.374   6.895  1.00  0.00     0.000 C 
BRANCH   5   6
ATOM      6  C   UNL     1      -9.155   6.156   5.599  1.00  0.00     0.000 C 
BRANCH   6   7
ATOM      7  C   UNL     1      -9.425   7.663   5.755  1.00  0.00     0.000 C 
BRANCH   7   8
ATOM      8  C   UNL     1      -8.130   8.479   5.909  1.00  0.00     0.000 C 
BRANCH   8   9
ATOM      9  C   UNL     1      -7.947   9.521   4.793  1.00  0.00     0.000 C 
BRANCH   9  10
ATOM     10  C   UNL     1      -7.343  10.844   5.299  1.00  0.00     0.006 C 
BRANCH  10  11
ATOM     11  C   UNL     1      -7.652  11.147   6.775  1.00  0.00     0.053 C 
BRANCH  11  12
ATOM     12  C   UNL     1      -6.422  11.160   7.632  1.00  0.00     0.041 C 
ATOM     13  O   UNL     1      -5.316  10.781   7.163  1.00  0.00    -0.550 OA
ATOM     14  O   UNL     1      -6.503  11.563   8.959  1.00  0.00    -0.550 OA
ENDBRANCH  11  12
ENDBRANCH  10  11
ENDBRANCH   9  10
ENDBRANCH   8   9
ENDBRANCH   7   8
ENDBRANCH   6   7
ENDBRANCH   5   6
ENDBRANCH   4   5
ENDBRANCH   3   4
ENDBRANCH   2   3
ENDBRANCH   1   2
BRANCH   1  15
ATOM     15  C   UNL     1     -12.818   6.269   4.702  1.00  0.00     0.000 C 
BRANCH  15  16
ATOM     16  C   UNL     1     -13.583   5.715   3.491  1.00  0.00     0.000 C 
BRANCH  16  17
ATOM     17  C   UNL     1     -14.068   6.819   2.537  1.00  0.00     0.000 C 
BRANCH  17  18
ATOM     18  C   UNL     1     -13.808   8.259   3.019  1.00  0.00    -0.000 C 
BRANCH  18  19
ATOM     19  C   UNL     1     -13.630   9.281   1.876  1.00  0.00    -0.000 C 
BRANCH  19  20
ATOM     20  C   UNL     1     -13.687  10.736   2.375  1.00  0.00    -0.000 C 
BRANCH  20  21
ATOM     21  C   UNL     1     -12.296  11.382   2.474  1.00  0.00    -0.000 C 
BRANCH  21  22
ATOM     22  C   UNL     1     -12.078  12.119   3.804  1.00  0.00    -0.000 C 
BRANCH  22  23
ATOM     23  C   UNL     1     -11.010  11.417   4.652  1.00  0.00    -0.000 C 
BRANCH  23  24
ATOM     24  C   UNL     1     -11.544  11.096   6.055  1.00  0.00    -0.000 C 
BRANCH  24  25
ATOM     25  C   UNL     1     -12.324   9.773   6.102  1.00  0.00    -0.003 C 
ATOM     26  C   UNL     1     -13.835   9.979   6.207  1.00  0.00     0.004 C 
ENDBRANCH  24  25
ENDBRANCH  23  24
ENDBRANCH  22  23
ENDBRANCH  21  22
ENDBRANCH  20  21
ENDBRANCH  19  20
ENDBRANCH  18  19
ENDBRANCH  17  18
ENDBRANCH  16  17
ENDBRANCH  15  16
ENDBRANCH   1  15
TORSDOF 22
ENDMDL
MODEL 3
REMARK VINA RESULT:    -4.517      0.964      2.104
REMARK INTER + INTRA:         -13.121
REMARK INTER:                 -10.164
REMARK INTRA:                  -2.958
REMARK UNBOUND:                -2.794
REMARK SMILES CCCCCCCCCCCCCCCCCCCCCCCC(=O)[O-]
REMARK SMILES IDX 13 1 14 2 15 3 16 4 17 5 18 6 19 7 20 8 21 9 22 10 23 11
REMARK SMILES IDX 24 12 25 13 26 14 12 15 11 16 10 17 9 18 8 19 7 20 6 21 5 22
REMARK SMILES IDX 4 23 3 24 2 25 1 26
REMARK H PARENT
REMARK Flexibility Score: inf
ROOT
ATOM      1  C   UNL     1     -12.944   5.378   6.334  1.00  0.00     0.000 C 
ENDROOT
BRANCH   1   2
ATOM      2  C   UNL     1     -12.928   5.586   4.815  1.00  0.00     0.000 C 
BRANCH   2   3
ATOM      3  C   UNL     1     -14.184   6.337   4.347  1.00  0.00     0.000 C 
BRANCH   3   4
ATOM      4  C   UNL     1     -13.902   7.812   4.025  1.00  0.00     0.000 C 
BRANCH   4   5
ATOM      5  C   UNL     1     -13.963   8.713   5.271  1.00  0.00     0.000 C 
BRANCH   5   6
ATOM      6  C   UNL     1     -12.584   8.922   5.916  1.00  0.00     0.000 C 
BRANCH   6   7
ATOM      7  C   UNL     1     -12.530  10.187   6.792  1.00  0.00     0.000 C 
BRANCH   7   8
ATOM      8  C   UNL     1     -11.470  11.192   6.310  1.00  0.00     0.000 C 
BRANCH   8   9
ATOM      9  C   UNL     1     -11.993  12.123   5.203  1.00  0.00     0.000 C 
BRANCH   9  10
ATOM     10  C   UNL     1     -11.710  11.590   3.787  1.00  0.00     0.006 C 
BRANCH  10  11
ATOM     11  C   UNL     1     -12.923  11.654   2.842  1.00  0.00     0.053 C 
BRANCH  11  12
ATOM     12  C   UNL     1     -12.686  10.936   1.548  1.00  0.00     0.041 C 
ATOM     13  O   UNL     1     -13.396   9.946   1.230  1.00  0.00    -0.550 OA
ATOM     14  O   UNL     1     -11.661  11.344   0.704  1.00  0.00    -0.550 OA
ENDBRANCH  11  12
ENDBRANCH  10  11
ENDBRANCH   9  10
ENDBRANCH   8   9
ENDBRANCH   7   8
ENDBRANCH   6   7
ENDBRANCH   5   6
ENDBRANCH   4   5
ENDBRANCH   3   4
ENDBRANCH   2   3
ENDBRANCH   1   2
BRANCH   1  15
ATOM     15  C   UNL     1     -12.452   3.975   6.703  1.00  0.00     0.000 C 
BRANCH  15  16
ATOM     16  C   UNL     1     -11.404   4.037   7.825  1.00  0.00     0.000 C 
BRANCH  16  17
ATOM     17  C   UNL     1     -10.998   5.475   8.182  1.00  0.00     0.000 C 
BRANCH  17  18
ATOM     18  C   UNL     1      -9.525   5.827   7.899  1.00  0.00    -0.000 C 
BRANCH  18  19
ATOM     19  C   UNL     1      -9.155   5.821   6.401  1.00  0.00    -0.000 C 
BRANCH  19  20
ATOM     20  C   UNL     1      -9.451   7.169   5.717  1.00  0.00    -0.000 C 
BRANCH  20  21
ATOM     21  C   UNL     1      -8.395   8.238   6.038  1.00  0.00    -0.000 C 
BRANCH  21  22
ATOM     22  C   UNL     1      -8.321   9.337   4.966  1.00  0.00    -0.000 C 
BRANCH  22  23
ATOM     23  C   UNL     1      -7.741  10.633   5.548  1.00  0.00    -0.000 C 
BRANCH  23  24
ATOM     24  C   UNL     1      -6.206  10.599   5.541  1.00  0.00    -0.000 C 
BRANCH  24  25
ATOM     25  C   UNL     1      -5.600  10.932   6.913  1.00  0.00    -0.003 C 
ATOM     26  C   UNL     1      -6.660  11.265   7.963  1.00  0.00     0.004 C 
ENDBRANCH  24  25
ENDBRANCH  23  24
ENDBRANCH  22  23
ENDBRANCH  21  22
ENDBRANCH  20  21
ENDBRANCH  19  20
ENDBRANCH  18  19
ENDBRANCH  17  18
ENDBRANCH  16  17
ENDBRANCH  15  16
ENDBRANCH   1  15
TORSDOF 22
ENDMDL
MODEL 4
REMARK VINA RESULT:    -4.479      1.984      3.013
REMARK INTER + INTRA:         -13.034
REMARK INTER:                 -10.633
REMARK INTRA:                  -2.401
REMARK UNBOUND:                -2.794
REMARK SMILES CCCCCCCCCCCCCCCCCCCCCCCC(=O)[O-]
REMARK SMILES IDX 13 1 14 2 15 3 16 4 17 5 18 6 19 7 20 8 21 9 22 10 23 11
REMARK SMILES IDX 24 12 25 13 26 14 12 15 11 16 10 17 9 18 8 19 7 20 6 21 5 22
REMARK SMILES IDX 4 23 3 24 2 25 1 26
REMARK H PARENT
REMARK Flexibility Score: inf
ROOT
ATOM      1  C   UNL     1     -12.578   4.963   5.748  1.00  0.00     0.000 C 
ENDROOT
BRANCH   1   2
ATOM      2  C   UNL     1     -13.087   6.409   5.696  1.00  0.00     0.000 C 
BRANCH   2   3
ATOM      3  C   UNL     1     -14.418   6.498   4.937  1.00  0.00     0.000 C 
BRANCH   3   4
ATOM      4  C   UNL     1     -14.371   5.779   3.579  1.00  0.00     0.000 C 
BRANCH   4   5
ATOM      5  C   UNL     1     -13.948   6.712   2.430  1.00  0.00     0.000 C 
BRANCH   5   6
ATOM      6  C   UNL     1     -14.035   8.198   2.813  1.00  0.00     0.000 C 
BRANCH   6   7
ATOM      7  C   UNL     1     -13.747   9.130   1.624  1.00  0.00     0.000 C 
BRANCH   7   8
ATOM      8  C   UNL     1     -13.584  10.598   2.052  1.00  0.00     0.000 C 
BRANCH   8   9
ATOM      9  C   UNL     1     -14.145  10.874   3.458  1.00  0.00     0.000 C 
BRANCH   9  10
ATOM     10  C   UNL     1     -13.303  11.889   4.252  1.00  0.00     0.006 C 
BRANCH  10  11
ATOM     11  C   UNL     1     -11.866  11.419   4.540  1.00  0.00     0.053 C 
BRANCH  11  12
ATOM     12  C   UNL     1     -11.726  10.782   5.890  1.00  0.00     0.041 C 
ATOM     13  O   UNL     1     -11.795   9.530   6.012  1.00  0.00    -0.550 OA
ATOM     14  O   UNL     1     -11.548  11.573   7.017  1.00  0.00    -0.550 OA
ENDBRANCH  11  12
ENDBRANCH  10  11
ENDBRANCH   9  10
ENDBRANCH   8   9
ENDBRANCH   7   8
ENDBRANCH   6   7
ENDBRANCH   5   6
ENDBRANCH   4   5
ENDBRANCH   3   4
ENDBRANCH   2   3
ENDBRANCH   1   2
BRANCH   1  15
ATOM     15  C   UNL     1     -12.584   4.429   7.185  1.00  0.00     0.000 C 
BRANCH  15  16
ATOM     16  C   UNL     1     -11.203   3.879   7.573  1.00  0.00     0.000 C 
BRANCH  16  17
ATOM     17  C   UNL     1     -10.482   4.756   8.609  1.00  0.00     0.000 C 
BRANCH  17  18
ATOM     18  C   UNL     1      -9.703   5.950   8.025  1.00  0.00    -0.000 C 
BRANCH  18  19
ATOM     19  C   UNL     1      -9.161   5.709   6.600  1.00  0.00    -0.000 C 
BRANCH  19  20
ATOM     20  C   UNL     1      -9.320   6.946   5.695  1.00  0.00    -0.000 C 
BRANCH  20  21
ATOM     21  C   UNL     1      -8.304   8.051   6.022  1.00  0.00    -0.000 C 
BRANCH  21  22
ATOM     22  C   UNL     1      -8.348   9.212   5.017  1.00  0.00    -0.000 C 
BRANCH  22  23
ATOM     23  C   UNL     1      -8.149  10.559   5.724  1.00  0.00    -0.000 C 
BRANCH  23  24
ATOM     24  C   UNL     1      -6.904  10.528   6.623  1.00  0.00    -0.000 C 
BRANCH  24  25
ATOM     25  C   UNL     1      -5.682  11.186   5.963  1.00  0.00    -0.003 C 
ATOM     26  C   UNL     1      -4.357  10.635   6.489  1.00  0.00     0.004 C 
ENDBRANCH  24  25
ENDBRANCH  23  24
ENDBRANCH  22  23
ENDBRANCH  21  22
ENDBRANCH  20  21
ENDBRANCH  19  20
ENDBRANCH  18  19
ENDBRANCH  17  18
ENDBRANCH  16  17
ENDBRANCH  15  16
ENDBRANCH   1  15
TORSDOF 22
ENDMDL
MODEL 5
REMARK VINA RESULT:    -4.256      2.763      6.112
REMARK INTER + INTRA:         -12.524
REMARK INTER:                  -9.813
REMARK INTRA:                  -2.711
REMARK UNBOUND:                -2.794
REMARK SMILES CCCCCCCCCCCCCCCCCCCCCCCC(=O)[O-]
REMARK SMILES IDX 13 1 14 2 15 3 16 4 17 5 18 6 19 7 20 8 21 9 22 10 23 11
REMARK SMILES IDX 24 12 25 13 26 14 12 15 11 16 10 17 9 18 8 19 7 20 6 21 5 22
REMARK SMILES IDX 4 23 3 24 2 25 1 26
REMARK H PARENT
REMARK Flexibility Score: inf
ROOT
ATOM      1  C   UNL     1     -12.160   4.235   6.333  1.00  0.00     0.000 C 
ENDROOT
BRANCH   1   2
ATOM      2  C   UNL     1     -11.459   4.200   7.697  1.00  0.00     0.000 C 
BRANCH   2   3
ATOM      3  C   UNL     1     -11.158   5.619   8.199  1.00  0.00     0.000 C 
BRANCH   3   4
ATOM      4  C   UNL     1      -9.685   6.012   8.006  1.00  0.00     0.000 C 
BRANCH   4   5
ATOM      5  C   UNL     1      -9.168   5.696   6.591  1.00  0.00     0.000 C 
BRANCH   5   6
ATOM      6  C   UNL     1      -9.250   6.907   5.649  1.00  0.00     0.000 C 
BRANCH   6   7
ATOM      7  C   UNL     1      -8.365   8.077   6.116  1.00  0.00     0.000 C 
BRANCH   7   8
ATOM      8  C   UNL     1      -8.228   9.175   5.048  1.00  0.00     0.000 C 
BRANCH   8   9
ATOM      9  C   UNL     1      -8.895  10.497   5.464  1.00  0.00     0.000 C 
BRANCH   9  10
ATOM     10  C   UNL     1      -7.879  11.609   5.781  1.00  0.00     0.006 C 
BRANCH  10  11
ATOM     11  C   UNL     1      -6.442  11.288   5.334  1.00  0.00     0.053 C 
BRANCH  11  12
ATOM     12  C   UNL     1      -5.545  10.936   6.482  1.00  0.00     0.041 C 
ATOM     13  O   UNL     1      -6.004  10.877   7.653  1.00  0.00    -0.550 OA
ATOM     14  O   UNL     1      -4.194  10.700   6.261  1.00  0.00    -0.550 OA
ENDBRANCH  11  12
ENDBRANCH  10  11
ENDBRANCH   9  10
ENDBRANCH   8   9
ENDBRANCH   7   8
ENDBRANCH   6   7
ENDBRANCH   5   6
ENDBRANCH   4   5
ENDBRANCH   3   4
ENDBRANCH   2   3
ENDBRANCH   1   2
BRANCH   1  15
ATOM     15  C   UNL     1     -13.172   5.384   6.264  1.00  0.00     0.000 C 
BRANCH  15  16
ATOM     16  C   UNL     1     -12.866   6.316   5.082  1.00  0.00     0.000 C 
BRANCH  16  17
ATOM     17  C   UNL     1     -13.329   7.761   5.325  1.00  0.00     0.000 C 
BRANCH  17  18
ATOM     18  C   UNL     1     -12.213   8.747   5.717  1.00  0.00    -0.000 C 
BRANCH  18  19
ATOM     19  C   UNL     1     -12.553   9.628   6.938  1.00  0.00    -0.000 C 
BRANCH  19  20
ATOM     20  C   UNL     1     -12.720  11.113   6.562  1.00  0.00    -0.000 C 
BRANCH  20  21
ATOM     21  C   UNL     1     -14.161  11.463   6.162  1.00  0.00    -0.000 C 
BRANCH  21  22
ATOM     22  C   UNL     1     -14.259  12.027   4.736  1.00  0.00    -0.000 C 
BRANCH  22  23
ATOM     23  C   UNL     1     -14.432  10.900   3.710  1.00  0.00    -0.000 C 
BRANCH  23  24
ATOM     24  C   UNL     1     -14.185  11.412   2.284  1.00  0.00    -0.000 C 
BRANCH  24  25
ATOM     25  C   UNL     1     -13.250  10.496   1.480  1.00  0.00    -0.003 C 
ATOM     26  C   UNL     1     -11.960  11.196   1.050  1.00  0.00     0.004 C 
ENDBRANCH  24  25
ENDBRANCH  23  24
ENDBRANCH  22  23
ENDBRANCH  21  22
ENDBRANCH  20  21
ENDBRANCH  19  20
ENDBRANCH  18  19
ENDBRANCH  17  18
ENDBRANCH  16  17
ENDBRANCH  15  16
ENDBRANCH   1  15
TORSDOF 22
ENDMDL
MODEL 6
REMARK VINA RESULT:    -4.192      1.476      3.700
REMARK INTER + INTRA:         -12.378
REMARK INTER:                  -9.684
REMARK INTRA:                  -2.694
REMARK UNBOUND:                -2.794
REMARK SMILES CCCCCCCCCCCCCCCCCCCCCCCC(=O)[O-]
REMARK SMILES IDX 13 1 14 2 15 3 16 4 17 5 18 6 19 7 20 8 21 9 22 10 23 11
REMARK SMILES IDX 24 12 25 13 26 14 12 15 11 16 10 17 9 18 8 19 7 20 6 21 5 22
REMARK SMILES IDX 4 23 3 24 2 25 1 26
REMARK H PARENT
REMARK Flexibility Score: inf
ROOT
ATOM      1  C   UNL     1      -9.186   5.880   6.493  1.00  0.00     0.000 C 
ENDROOT
BRANCH   1   2
ATOM      2  C   UNL     1     -10.517   5.530   7.170  1.00  0.00     0.000 C 
BRANCH   2   3
ATOM      3  C   UNL     1     -11.374   4.629   6.269  1.00  0.00     0.000 C 
BRANCH   3   4
ATOM      4  C   UNL     1     -12.872   4.959   6.360  1.00  0.00     0.000 C 
BRANCH   4   5
ATOM      5  C   UNL     1     -13.301   6.047   5.361  1.00  0.00     0.000 C 
BRANCH   5   6
ATOM      6  C   UNL     1     -13.042   5.643   3.901  1.00  0.00     0.000 C 
BRANCH   6   7
ATOM      7  C   UNL     1     -14.130   6.161   2.944  1.00  0.00     0.000 C 
BRANCH   7   8
ATOM      8  C   UNL     1     -13.860   7.599   2.469  1.00  0.00     0.000 C 
BRANCH   8   9
ATOM      9  C   UNL     1     -14.207   8.653   3.533  1.00  0.00     0.000 C 
BRANCH   9  10
ATOM     10  C   UNL     1     -13.719  10.065   3.162  1.00  0.00     0.006 C 
BRANCH  10  11
ATOM     11  C   UNL     1     -13.370  10.234   1.673  1.00  0.00     0.053 C 
BRANCH  11  12
ATOM     12  C   UNL     1     -12.303  11.261   1.442  1.00  0.00     0.041 C 
ATOM     13  O   UNL     1     -12.009  12.087   2.346  1.00  0.00    -0.550 OA
ATOM     14  O   UNL     1     -11.652  11.324   0.217  1.00  0.00    -0.550 OA
ENDBRANCH  11  12
ENDBRANCH  10  11
ENDBRANCH   9  10
ENDBRANCH   8   9
ENDBRANCH   7   8
ENDBRANCH   6   7
ENDBRANCH   5   6
ENDBRANCH   4   5
ENDBRANCH   3   4
ENDBRANCH   2   3
ENDBRANCH   1   2
BRANCH   1  15
ATOM     15  C   UNL     1      -9.328   7.128   5.614  1.00  0.00     0.000 C 
BRANCH  15  16
ATOM     16  C   UNL     1      -8.420   8.260   6.116  1.00  0.00     0.000 C 
BRANCH  16  17
ATOM     17  C   UNL     1      -8.002   9.229   4.999  1.00  0.00     0.000 C 
BRANCH  17  18
ATOM     18  C   UNL     1      -6.645   9.927   5.215  1.00  0.00    -0.000 C 
BRANCH  18  19
ATOM     19  C   UNL     1      -6.538  10.693   6.550  1.00  0.00    -0.000 C 
BRANCH  19  20
ATOM     20  C   UNL     1      -7.379  11.984   6.556  1.00  0.00    -0.000 C 
BRANCH  20  21
ATOM     21  C   UNL     1      -8.299  12.085   7.782  1.00  0.00    -0.000 C 
BRANCH  21  22
ATOM     22  C   UNL     1      -9.788  12.125   7.404  1.00  0.00    -0.000 C 
BRANCH  22  23
ATOM     23  C   UNL     1      -9.985  11.808   5.917  1.00  0.00    -0.000 C 
BRANCH  23  24
ATOM     24  C   UNL     1     -11.397  11.266   5.653  1.00  0.00    -0.000 C 
BRANCH  24  25
ATOM     25  C   UNL     1     -11.955  10.466   6.839  1.00  0.00    -0.003 C 
ATOM     26  C   UNL     1     -12.320   9.029   6.465  1.00  0.00     0.004 C 
ENDBRANCH  24  25
ENDBRANCH  23  24
ENDBRANCH  22  23
ENDBRANCH  21  22
ENDBRANCH  20  21
ENDBRANCH  19  20
ENDBRANCH  18  19
ENDBRANCH  17  18
ENDBRANCH  16  17
ENDBRANCH  15  16
ENDBRANCH   1  15
TORSDOF 22
ENDMDL
MODEL 7
REMARK VINA RESULT:    -4.093      1.664      2.327
REMARK INTER + INTRA:         -12.150
REMARK INTER:                 -10.316
REMARK INTRA:                  -1.834
REMARK UNBOUND:                -2.794
REMARK SMILES CCCCCCCCCCCCCCCCCCCCCCCC(=O)[O-]
REMARK SMILES IDX 13 1 14 2 15 3 16 4 17 5 18 6 19 7 20 8 21 9 22 10 23 11
REMARK SMILES IDX 24 12 25 13 26 14 12 15 11 16 10 17 9 18 8 19 7 20 6 21 5 22
REMARK SMILES IDX 4 23 3 24 2 25 1 26
REMARK H PARENT
REMARK Flexibility Score: inf
ROOT
ATOM      1  C   UNL     1     -10.700   3.801   7.613  1.00  0.00     0.000 C 
ENDROOT
BRANCH   1   2
ATOM      2  C   UNL     1     -11.757   3.886   6.504  1.00  0.00     0.000 C 
BRANCH   2   3
ATOM      3  C   UNL     1     -12.894   4.840   6.898  1.00  0.00     0.000 C 
BRANCH   3   4
ATOM      4  C   UNL     1     -13.057   6.003   5.907  1.00  0.00     0.000 C 
BRANCH   4   5
ATOM      5  C   UNL     1     -12.860   5.567   4.444  1.00  0.00     0.000 C 
BRANCH   5   6
ATOM      6  C   UNL     1     -14.125   5.767   3.593  1.00  0.00     0.000 C 
BRANCH   6   7
ATOM      7  C   UNL     1     -13.910   6.772   2.448  1.00  0.00     0.000 C 
BRANCH   7   8
ATOM      8  C   UNL     1     -14.014   8.233   2.919  1.00  0.00     0.000 C 
BRANCH   8   9
ATOM      9  C   UNL     1     -13.620   9.240   1.826  1.00  0.00     0.000 C 
BRANCH   9  10
ATOM     10  C   UNL     1     -13.525  10.686   2.347  1.00  0.00     0.006 C 
BRANCH  10  11
ATOM     11  C   UNL     1     -13.976  10.853   3.808  1.00  0.00     0.053 C 
BRANCH  11  12
ATOM     12  C   UNL     1     -12.825  10.882   4.768  1.00  0.00     0.041 C 
ATOM     13  O   UNL     1     -12.232  11.965   5.017  1.00  0.00    -0.550 OA
ATOM     14  O   UNL     1     -12.390   9.708   5.368  1.00  0.00    -0.550 OA
ENDBRANCH  11  12
ENDBRANCH  10  11
ENDBRANCH   9  10
ENDBRANCH   8   9
ENDBRANCH   7   8
ENDBRANCH   6   7
ENDBRANCH   5   6
ENDBRANCH   4   5
ENDBRANCH   3   4
ENDBRANCH   2   3
ENDBRANCH   1   2
BRANCH   1  15
ATOM     15  C   UNL     1     -10.836   4.973   8.592  1.00  0.00     0.000 C 
BRANCH  15  16
ATOM     16  C   UNL     1      -9.891   6.121   8.208  1.00  0.00     0.000 C 
BRANCH  16  17
ATOM     17  C   UNL     1      -9.146   5.866   6.888  1.00  0.00     0.000 C 
BRANCH  17  18
ATOM     18  C   UNL     1      -9.495   6.836   5.743  1.00  0.00    -0.000 C 
BRANCH  18  19
ATOM     19  C   UNL     1      -8.366   7.829   5.396  1.00  0.00    -0.000 C 
BRANCH  19  20
ATOM     20  C   UNL     1      -8.856   9.290   5.373  1.00  0.00    -0.000 C 
BRANCH  20  21
ATOM     21  C   UNL     1      -7.725  10.288   5.081  1.00  0.00    -0.000 C 
BRANCH  21  22
ATOM     22  C   UNL     1      -7.919  11.631   5.802  1.00  0.00    -0.000 C 
BRANCH  22  23
ATOM     23  C   UNL     1      -6.599  12.125   6.407  1.00  0.00    -0.000 C 
BRANCH  23  24
ATOM     24  C   UNL     1      -5.988  11.064   7.334  1.00  0.00    -0.000 C 
BRANCH  24  25
ATOM     25  C   UNL     1      -4.595  10.608   6.873  1.00  0.00    -0.003 C 
ATOM     26  C   UNL     1      -4.084  11.393   5.665  1.00  0.00     0.004 C 
ENDBRANCH  24  25
ENDBRANCH  23  24
ENDBRANCH  22  23
ENDBRANCH  21  22
ENDBRANCH  20  21
ENDBRANCH  19  20
ENDBRANCH  18  19
ENDBRANCH  17  18
ENDBRANCH  16  17
ENDBRANCH  15  16
ENDBRANCH   1  15
TORSDOF 22
ENDMDL
MODEL 8
REMARK VINA RESULT:    -4.055      1.580      2.971
REMARK INTER + INTRA:         -12.063
REMARK INTER:                  -9.350
REMARK INTRA:                  -2.713
REMARK UNBOUND:                -2.794
REMARK SMILES CCCCCCCCCCCCCCCCCCCCCCCC(=O)[O-]
REMARK SMILES IDX 13 1 14 2 15 3 16 4 17 5 18 6 19 7 20 8 21 9 22 10 23 11
REMARK SMILES IDX 24 12 25 13 26 14 12 15 11 16 10 17 9 18 8 19 7 20 6 21 5 22
REMARK SMILES IDX 4 23 3 24 2 25 1 26
REMARK H PARENT
REMARK Flexibility Score: inf
ROOT
ATOM      1  C   UNL     1     -10.908   4.251   7.736  1.00  0.00     0.000 C 
ENDROOT
BRANCH   1   2
ATOM      2  C   UNL     1     -12.329   4.312   7.161  1.00  0.00     0.000 C 
BRANCH   2   3
ATOM      3  C   UNL     1     -12.308   4.736   5.685  1.00  0.00     0.000 C 
BRANCH   3   4
ATOM      4  C   UNL     1     -13.485   5.655   5.320  1.00  0.00     0.000 C 
BRANCH   4   5
ATOM      5  C   UNL     1     -13.588   5.911   3.806  1.00  0.00     0.000 C 
BRANCH   5   6
ATOM      6  C   UNL     1     -14.212   7.278   3.480  1.00  0.00     0.000 C 
BRANCH   6   7
ATOM      7  C   UNL     1     -14.476   8.120   4.741  1.00  0.00     0.000 C 
BRANCH   7   8
ATOM      8  C   UNL     1     -13.627   9.402   4.780  1.00  0.00     0.000 C 
BRANCH   8   9
ATOM      9  C   UNL     1     -14.474  10.681   4.673  1.00  0.00     0.000 C 
BRANCH   9  10
ATOM     10  C   UNL     1     -14.401  11.335   3.281  1.00  0.00     0.006 C 
BRANCH  10  11
ATOM     11  C   UNL     1     -12.967  11.594   2.787  1.00  0.00     0.053 C 
BRANCH  11  12
ATOM     12  C   UNL     1     -12.667  10.901   1.492  1.00  0.00     0.041 C 
ATOM     13  O   UNL     1     -13.292   9.856   1.171  1.00  0.00    -0.550 OA
ATOM     14  O   UNL     1     -11.678  11.395   0.652  1.00  0.00    -0.550 OA
ENDBRANCH  11  12
ENDBRANCH  10  11
ENDBRANCH   9  10
ENDBRANCH   8   9
ENDBRANCH   7   8
ENDBRANCH   6   7
ENDBRANCH   5   6
ENDBRANCH   4   5
ENDBRANCH   3   4
ENDBRANCH   2   3
ENDBRANCH   1   2
BRANCH   1  15
ATOM     15  C   UNL     1     -10.575   5.528   8.516  1.00  0.00     0.000 C 
BRANCH  15  16
ATOM     16  C   UNL     1      -9.417   6.290   7.854  1.00  0.00     0.000 C 
BRANCH  16  17
ATOM     17  C   UNL     1      -9.248   5.941   6.366  1.00  0.00     0.000 C 
BRANCH  17  18
ATOM     18  C   UNL     1      -9.020   7.148   5.435  1.00  0.00    -0.000 C 
BRANCH  18  19
ATOM     19  C   UNL     1      -8.314   8.340   6.114  1.00  0.00    -0.000 C 
BRANCH  19  20
ATOM     20  C   UNL     1      -7.951   9.455   5.115  1.00  0.00    -0.000 C 
BRANCH  20  21
ATOM     21  C   UNL     1      -8.718  10.759   5.380  1.00  0.00    -0.000 C 
BRANCH  21  22
ATOM     22  C   UNL     1     -10.236  10.543   5.483  1.00  0.00    -0.000 C 
BRANCH  22  23
ATOM     23  C   UNL     1     -10.954  11.852   5.835  1.00  0.00    -0.000 C 
BRANCH  23  24
ATOM     24  C   UNL     1     -10.960  12.084   7.353  1.00  0.00    -0.000 C 
BRANCH  24  25
ATOM     25  C   UNL     1     -12.377  12.086   7.946  1.00  0.00    -0.003 C 
ATOM     26  C   UNL     1     -12.961  10.681   8.090  1.00  0.00     0.004 C 
ENDBRANCH  24  25
ENDBRANCH  23  24
ENDBRANCH  22  23
ENDBRANCH  21  22
ENDBRANCH  20  21
ENDBRANCH  19  20
ENDBRANCH  18  19
ENDBRANCH  17  18
ENDBRANCH  16  17
ENDBRANCH  15  16
ENDBRANCH   1  15
TORSDOF 22
ENDMDL
