MODEL 1
REMARK VINA RESULT:    -3.327      0.000      0.000
REMARK INTER + INTRA:          -5.859
REMARK INTER:                  -5.078
REMARK INTRA:                  -0.781
REMARK UNBOUND:                -0.781
REMARK SMILES O=C([O-])CCCCCCCCC(=O)[O-]
REMARK SMILES IDX 7 1 6 2 5 3 4 4 2 5 1 6 3 7 8 8 9 9 10 10 11 11 12 12 13 13
REMARK SMILES IDX 14 14
REMARK H PARENT
REMARK Flexibility Score: inf
ROOT
ATOM      1  C   UNL     1      -6.121  35.010  24.937  1.00  0.00     0.000 C 
ENDROOT
BRANCH   1   2
ATOM      2  C   UNL     1      -5.744  36.492  25.129  1.00  0.00     0.000 C 
BRANCH   2   3
ATOM      3  C   UNL     1      -6.040  37.373  23.896  1.00  0.00     0.006 C 
BRANCH   3   4
ATOM      4  C   UNL     1      -5.124  38.602  23.819  1.00  0.00     0.053 C 
BRANCH   4   5
ATOM      5  C   UNL     1      -5.017  39.087  22.408  1.00  0.00     0.041 C 
ATOM      6  O   UNL     1      -4.275  38.487  21.587  1.00  0.00    -0.550 OA
ATOM      7  O   UNL     1      -5.697  40.232  22.013  1.00  0.00    -0.550 OA
ENDBRANCH   4   5
ENDBRANCH   3   4
ENDBRANCH   2   3
ENDBRANCH   1   2
BRANCH   1   8
ATOM      8  C   UNL     1      -6.096  34.514  23.479  1.00  0.00     0.000 C 
BRANCH   8   9
ATOM      9  C   UNL     1      -4.697  34.176  22.930  1.00  0.00     0.000 C 
BRANCH   9  10
ATOM     10  C   UNL     1      -4.361  34.936  21.638  1.00  0.00     0.006 C 
BRANCH  10  11
ATOM     11  C   UNL     1      -5.637  35.379  20.915  1.00  0.00     0.053 C 
BRANCH  11  12
ATOM     12  C   UNL     1      -5.443  35.331  19.433  1.00  0.00     0.041 C 
ATOM     13  O   UNL     1      -5.957  34.402  18.756  1.00  0.00    -0.550 OA
ATOM     14  O   UNL     1      -4.734  36.339  18.792  1.00  0.00    -0.550 OA
ENDBRANCH  11  12
ENDBRANCH  10  11
ENDBRANCH   9  10
ENDBRANCH   8   9
ENDBRANCH   1   8
TORSDOF 9
ENDMDL
MODEL 2
REMARK VINA RESULT:    -3.267      2.592      3.887
REMARK INTER + INTRA:          -5.767
REMARK INTER:                  -5.451
REMARK INTRA:                  -0.316
REMARK UNBOUND:                -0.781
REMARK SMILES O=C([O-])CCCCCCCCC(=O)[O-]
REMARK SMILES IDX 7 1 6 2 5 3 4 4 2 5 1 6 3 7 8 8 9 9 10 10 11 11 12 12 13 13
REMARK SMILES IDX 14 14
REMARK H PARENT
REMARK Flexibility Score: inf
ROOT
ATOM      1  C   UNL     1      -4.486  38.583  21.237  1.00  0.00     0.000 C 
ENDROOT
BRANCH   1   2
ATOM      2  C   UNL     1      -5.140  39.438  22.339  1.00  0.00     0.000 C 
BRANCH   2   3
ATOM      3  C   UNL     1      -4.961  38.863  23.761  1.00  0.00     0.006 C 
BRANCH   3   4
ATOM      4  C   UNL     1      -5.685  37.523  23.948  1.00  0.00     0.053 C 
BRANCH   4   5
ATOM      5  C   UNL     1      -5.431  36.978  25.318  1.00  0.00     0.041 C 
ATOM      6  O   UNL     1      -4.559  37.505  26.058  1.00  0.00    -0.550 OA
ATOM      7  O   UNL     1      -6.122  35.857  25.759  1.00  0.00    -0.550 OA
ENDBRANCH   4   5
ENDBRANCH   3   4
ENDBRANCH   2   3
ENDBRANCH   1   2
BRANCH   1   8
ATOM      8  C   UNL     1      -5.471  37.880  20.285  1.00  0.00     0.000 C 
BRANCH   8   9
ATOM      9  C   UNL     1      -4.880  36.700  19.491  1.00  0.00     0.000 C 
BRANCH   9  10
ATOM     10  C   UNL     1      -5.606  35.373  19.760  1.00  0.00     0.006 C 
BRANCH  10  11
ATOM     11  C   UNL     1      -6.124  35.314  21.199  1.00  0.00     0.053 C 
BRANCH  11  12
ATOM     12  C   UNL     1      -5.081  34.747  22.110  1.00  0.00     0.041 C 
ATOM     13  O   UNL     1      -3.860  34.877  21.834  1.00  0.00    -0.550 OA
ATOM     14  O   UNL     1      -5.458  34.116  23.288  1.00  0.00    -0.550 OA
ENDBRANCH  11  12
ENDBRANCH  10  11
ENDBRANCH   9  10
ENDBRANCH   8   9
ENDBRANCH   1   8
TORSDOF 9
ENDMDL
MODEL 3
REMARK VINA RESULT:    -3.238      0.882      4.163
REMARK INTER + INTRA:          -5.722
REMARK INTER:                  -5.274
REMARK INTRA:                  -0.449
REMARK UNBOUND:                -0.781
REMARK SMILES O=C([O-])CCCCCCCCC(=O)[O-]
REMARK SMILES IDX 7 1 6 2 5 3 4 4 2 5 1 6 3 7 8 8 9 9 10 10 11 11 12 12 13 13
REMARK SMILES IDX 14 14
REMARK H PARENT
REMARK Flexibility Score: inf
ROOT
ATOM      1  C   UNL     1      -5.695  34.868  24.491  1.00  0.00     0.000 C 
ENDROOT
BRANCH   1   2
ATOM      2  C   UNL     1      -6.124  34.472  23.065  1.00  0.00     0.000 C 
BRANCH   2   3
ATOM      3  C   UNL     1      -5.834  35.558  22.005  1.00  0.00     0.006 C 
BRANCH   3   4
ATOM      4  C   UNL     1      -4.651  35.193  21.098  1.00  0.00     0.053 C 
BRANCH   4   5
ATOM      5  C   UNL     1      -5.007  35.411  19.661  1.00  0.00     0.041 C 
ATOM      6  O   UNL     1      -4.752  36.512  19.106  1.00  0.00    -0.550 OA
ATOM      7  O   UNL     1      -5.665  34.417  18.950  1.00  0.00    -0.550 OA
ENDBRANCH   4   5
ENDBRANCH   3   4
ENDBRANCH   2   3
ENDBRANCH   1   2
BRANCH   1   8
ATOM      8  C   UNL     1      -6.125  36.279  24.933  1.00  0.00     0.000 C 
BRANCH   8   9
ATOM      9  C   UNL     1      -5.010  37.341  24.891  1.00  0.00     0.000 C 
BRANCH   9  10
ATOM     10  C   UNL     1      -5.450  38.644  24.207  1.00  0.00     0.006 C 
BRANCH  10  11
ATOM     11  C   UNL     1      -4.588  38.934  22.974  1.00  0.00     0.053 C 
BRANCH  11  12
ATOM     12  C   UNL     1      -5.440  39.406  21.839  1.00  0.00     0.041 C 
ATOM     13  O   UNL     1      -5.824  38.597  20.954  1.00  0.00    -0.550 OA
ATOM     14  O   UNL     1      -5.850  40.732  21.784  1.00  0.00    -0.550 OA
ENDBRANCH  11  12
ENDBRANCH  10  11
ENDBRANCH   9  10
ENDBRANCH   8   9
ENDBRANCH   1   8
TORSDOF 9
ENDMDL
MODEL 4
REMARK VINA RESULT:    -3.233      1.988      4.196
REMARK INTER + INTRA:          -5.714
REMARK INTER:                  -5.120
REMARK INTRA:                  -0.594
REMARK UNBOUND:                -0.781
REMARK SMILES O=C([O-])CCCCCCCCC(=O)[O-]
REMARK SMILES IDX 7 1 6 2 5 3 4 4 2 5 1 6 3 7 8 8 9 9 10 10 11 11 12 12 13 13
REMARK SMILES IDX 14 14
REMARK H PARENT
REMARK Flexibility Score: inf
ROOT
ATOM      1  C   UNL     1      -4.909  35.248  21.300  1.00  0.00     0.000 C 
ENDROOT
BRANCH   1   2
ATOM      2  C   UNL     1      -5.249  35.788  19.897  1.00  0.00     0.000 C 
BRANCH   2   3
ATOM      3  C   UNL     1      -4.764  37.234  19.654  1.00  0.00     0.006 C 
BRANCH   3   4
ATOM      4  C   UNL     1      -5.753  38.282  20.180  1.00  0.00     0.053 C 
BRANCH   4   5
ATOM      5  C   UNL     1      -5.188  38.981  21.377  1.00  0.00     0.041 C 
ATOM      6  O   UNL     1      -4.077  38.625  21.851  1.00  0.00    -0.550 OA
ATOM      7  O   UNL     1      -5.911  39.990  21.998  1.00  0.00    -0.550 OA
ENDBRANCH   4   5
ENDBRANCH   3   4
ENDBRANCH   2   3
ENDBRANCH   1   2
BRANCH   1   8
ATOM      8  C   UNL     1      -6.124  34.832  22.150  1.00  0.00     0.000 C 
BRANCH   8   9
ATOM      9  C   UNL     1      -5.779  34.235  23.528  1.00  0.00     0.000 C 
BRANCH   9  10
ATOM     10  C   UNL     1      -6.122  35.177  24.691  1.00  0.00     0.006 C 
BRANCH  10  11
ATOM     11  C   UNL     1      -6.123  36.638  24.231  1.00  0.00     0.053 C 
BRANCH  11  12
ATOM     12  C   UNL     1      -5.212  37.458  25.088  1.00  0.00     0.041 C 
ATOM     13  O   UNL     1      -4.549  36.915  26.011  1.00  0.00    -0.550 OA
ATOM     14  O   UNL     1      -5.058  38.816  24.837  1.00  0.00    -0.550 OA
ENDBRANCH  11  12
ENDBRANCH  10  11
ENDBRANCH   9  10
ENDBRANCH   8   9
ENDBRANCH   1   8
TORSDOF 9
ENDMDL
MODEL 5
REMARK VINA RESULT:    -3.012      2.043      3.721
REMARK INTER + INTRA:          -5.377
REMARK INTER:                  -4.775
REMARK INTRA:                  -0.601
REMARK UNBOUND:                -0.781
REMARK SMILES O=C([O-])CCCCCCCCC(=O)[O-]
REMARK SMILES IDX 7 1 6 2 5 3 4 4 2 5 1 6 3 7 8 8 9 9 10 10 11 11 12 12 13 13
REMARK SMILES IDX 14 14
REMARK H PARENT
REMARK Flexibility Score: inf
ROOT
ATOM      1  C   UNL     1      -4.897  34.855  21.876  1.00  0.00     0.000 C 
ENDROOT
BRANCH   1   2
ATOM      2  C   UNL     1      -5.559  34.748  23.263  1.00  0.00     0.000 C 
BRANCH   2   3
ATOM      3  C   UNL     1      -6.125  36.086  23.787  1.00  0.00     0.006 C 
BRANCH   3   4
ATOM      4  C   UNL     1      -5.844  36.298  25.281  1.00  0.00     0.053 C 
BRANCH   4   5
ATOM      5  C   UNL     1      -5.056  37.552  25.492  1.00  0.00     0.041 C 
ATOM      6  O   UNL     1      -5.224  38.541  24.730  1.00  0.00    -0.550 OA
ATOM      7  O   UNL     1      -4.101  37.611  26.498  1.00  0.00    -0.550 OA
ENDBRANCH   4   5
ENDBRANCH   3   4
ENDBRANCH   2   3
ENDBRANCH   1   2
BRANCH   1   8
ATOM      8  C   UNL     1      -5.833  35.306  20.740  1.00  0.00     0.000 C 
BRANCH   8   9
ATOM      9  C   UNL     1      -5.120  35.845  19.485  1.00  0.00     0.000 C 
BRANCH   9  10
ATOM     10  C   UNL     1      -4.712  37.320  19.616  1.00  0.00     0.006 C 
BRANCH  10  11
ATOM     11  C   UNL     1      -5.806  38.132  20.315  1.00  0.00     0.053 C 
BRANCH  11  12
ATOM     12  C   UNL     1      -5.217  38.980  21.399  1.00  0.00     0.041 C 
ATOM     13  O   UNL     1      -4.103  38.682  21.903  1.00  0.00    -0.550 OA
ATOM     14  O   UNL     1      -5.878  40.128  21.817  1.00  0.00    -0.550 OA
ENDBRANCH  11  12
ENDBRANCH  10  11
ENDBRANCH   9  10
ENDBRANCH   8   9
ENDBRANCH   1   8
TORSDOF 9
ENDMDL
MODEL 6
REMARK VINA RESULT:    -2.889      0.788      4.619
REMARK INTER + INTRA:          -5.191
REMARK INTER:                  -4.535
REMARK INTRA:                  -0.656
REMARK UNBOUND:                -0.781
REMARK SMILES O=C([O-])CCCCCCCCC(=O)[O-]
REMARK SMILES IDX 7 1 6 2 5 3 4 4 2 5 1 6 3 7 8 8 9 9 10 10 11 11 12 12 13 13
REMARK SMILES IDX 14 14
REMARK H PARENT
REMARK Flexibility Score: inf
ROOT
ATOM      1  C   UNL     1      -5.594  34.194  23.203  1.00  0.00     0.000 C 
ENDROOT
BRANCH   1   2
ATOM      2  C   UNL     1      -4.950  35.004  22.062  1.00  0.00     0.000 C 
BRANCH   2   3
ATOM      3  C   UNL     1      -5.914  35.309  20.895  1.00  0.00     0.006 C 
BRANCH   3   4
ATOM      4  C   UNL     1      -5.176  35.726  19.616  1.00  0.00     0.053 C 
BRANCH   4   5
ATOM      5  C   UNL     1      -5.339  34.685  18.554  1.00  0.00     0.041 C 
ATOM      6  O   UNL     1      -6.125  33.717  18.732  1.00  0.00    -0.550 OA
ATOM      7  O   UNL     1      -4.585  34.756  17.390  1.00  0.00    -0.550 OA
ENDBRANCH   4   5
ENDBRANCH   3   4
ENDBRANCH   2   3
ENDBRANCH   1   2
BRANCH   1   8
ATOM      8  C   UNL     1      -6.107  35.032  24.389  1.00  0.00     0.000 C 
BRANCH   8   9
ATOM      9  C   UNL     1      -5.268  36.282  24.712  1.00  0.00     0.000 C 
BRANCH   9  10
ATOM     10  C   UNL     1      -5.951  37.589  24.284  1.00  0.00     0.006 C 
BRANCH  10  11
ATOM     11  C   UNL     1      -4.916  38.672  23.968  1.00  0.00     0.053 C 
BRANCH  11  12
ATOM     12  C   UNL     1      -4.904  38.975  22.503  1.00  0.00     0.041 C 
ATOM     13  O   UNL     1      -3.978  38.536  21.772  1.00  0.00    -0.550 OA
ATOM     14  O   UNL     1      -5.942  39.703  21.937  1.00  0.00    -0.550 OA
ENDBRANCH  11  12
ENDBRANCH  10  11
ENDBRANCH   9  10
ENDBRANCH   8   9
ENDBRANCH   1   8
TORSDOF 9
ENDMDL
MODEL 7
REMARK VINA RESULT:    -2.866      2.566      5.411
REMARK INTER + INTRA:          -5.155
REMARK INTER:                  -5.175
REMARK INTRA:                   0.020
REMARK UNBOUND:                -0.781
REMARK SMILES O=C([O-])CCCCCCCCC(=O)[O-]
REMARK SMILES IDX 7 1 6 2 5 3 4 4 2 5 1 6 3 7 8 8 9 9 10 10 11 11 12 12 13 13
REMARK SMILES IDX 14 14
REMARK H PARENT
REMARK Flexibility Score: inf
ROOT
ATOM      1  C   UNL     1      -4.625  37.703  20.755  1.00  0.00     0.000 C 
ENDROOT
BRANCH   1   2
ATOM      2  C   UNL     1      -4.998  36.861  19.520  1.00  0.00     0.000 C 
BRANCH   2   3
ATOM      3  C   UNL     1      -5.449  35.424  19.861  1.00  0.00     0.006 C 
BRANCH   3   4
ATOM      4  C   UNL     1      -6.115  35.329  21.240  1.00  0.00     0.053 C 
BRANCH   4   5
ATOM      5  C   UNL     1      -5.211  34.639  22.212  1.00  0.00     0.041 C 
ATOM      6  O   UNL     1      -3.964  34.650  22.034  1.00  0.00    -0.550 OA
ATOM      7  O   UNL     1      -5.748  33.941  23.286  1.00  0.00    -0.550 OA
ENDBRANCH   4   5
ENDBRANCH   3   4
ENDBRANCH   2   3
ENDBRANCH   1   2
BRANCH   1   8
ATOM      8  C   UNL     1      -5.735  38.641  21.265  1.00  0.00     0.000 C 
BRANCH   8   9
ATOM      9  C   UNL     1      -5.283  39.673  22.315  1.00  0.00     0.000 C 
BRANCH   9  10
ATOM     10  C   UNL     1      -5.001  39.045  23.688  1.00  0.00     0.006 C 
BRANCH  10  11
ATOM     11  C   UNL     1      -5.752  37.720  23.851  1.00  0.00     0.053 C 
BRANCH  11  12
ATOM     12  C   UNL     1      -5.416  37.084  25.162  1.00  0.00     0.041 C 
ATOM     13  O   UNL     1      -4.622  37.652  25.957  1.00  0.00    -0.550 OA
ATOM     14  O   UNL     1      -6.018  35.887  25.527  1.00  0.00    -0.550 OA
ENDBRANCH  11  12
ENDBRANCH  10  11
ENDBRANCH   9  10
ENDBRANCH   8   9
ENDBRANCH   1   8
TORSDOF 9
ENDMDL
MODEL 8
REMARK VINA RESULT:    -2.701      2.361      5.300
REMARK INTER + INTRA:          -4.903
REMARK INTER:                  -4.548
REMARK INTRA:                  -0.355
REMARK UNBOUND:                -0.781
REMARK SMILES O=C([O-])CCCCCCCCC(=O)[O-]
REMARK SMILES IDX 7 1 6 2 5 3 4 4 2 5 1 6 3 7 8 8 9 9 10 10 11 11 12 12 13 13
REMARK SMILES IDX 14 14
REMARK H PARENT
REMARK Flexibility Score: inf
ROOT
ATOM      1  C   UNL     1      -4.371  38.200  21.296  1.00  0.00     0.000 C 
ENDROOT
BRANCH   1   2
ATOM      2  C   UNL     1      -5.011  37.362  20.173  1.00  0.00     0.000 C 
BRANCH   2   3
ATOM      3  C   UNL     1      -4.925  35.838  20.408  1.00  0.00     0.006 C 
BRANCH   3   4
ATOM      4  C   UNL     1      -6.115  35.082  19.803  1.00  0.00     0.053 C 
BRANCH   4   5
ATOM      5  C   UNL     1      -5.686  34.313  18.593  1.00  0.00     0.041 C 
ATOM      6  O   UNL     1      -6.125  33.150  18.393  1.00  0.00    -0.550 OA
ATOM      7  O   UNL     1      -4.762  34.862  17.713  1.00  0.00    -0.550 OA
ENDBRANCH   4   5
ENDBRANCH   3   4
ENDBRANCH   2   3
ENDBRANCH   1   2
BRANCH   1   8
ATOM      8  C   UNL     1      -5.360  39.034  22.132  1.00  0.00     0.000 C 
BRANCH   8   9
ATOM      9  C   UNL     1      -5.034  39.113  23.635  1.00  0.00     0.000 C 
BRANCH   9  10
ATOM     10  C   UNL     1      -5.093  37.747  24.334  1.00  0.00     0.006 C 
BRANCH  10  11
ATOM     11  C   UNL     1      -6.108  36.825  23.651  1.00  0.00     0.053 C 
BRANCH  11  12
ATOM     12  C   UNL     1      -6.008  35.437  24.200  1.00  0.00     0.041 C 
ATOM     13  O   UNL     1      -6.118  35.234  25.437  1.00  0.00    -0.550 OA
ATOM     14  O   UNL     1      -5.839  34.361  23.337  1.00  0.00    -0.550 OA
ENDBRANCH  11  12
ENDBRANCH  10  11
ENDBRANCH   9  10
ENDBRANCH   8   9
ENDBRANCH   1   8
TORSDOF 9
ENDMDL
MODEL 9
REMARK VINA RESULT:    -2.557      2.375      3.596
REMARK INTER + INTRA:          -4.683
REMARK INTER:                  -4.295
REMARK INTRA:                  -0.388
REMARK UNBOUND:                -0.781
REMARK SMILES O=C([O-])CCCCCCCCC(=O)[O-]
REMARK SMILES IDX 7 1 6 2 5 3 4 4 2 5 1 6 3 7 8 8 9 9 10 10 11 11 12 12 13 13
REMARK SMILES IDX 14 14
REMARK H PARENT
REMARK Flexibility Score: inf
ROOT
ATOM      1  C   UNL     1      -4.376  38.553  22.143  1.00  0.00     0.000 C 
ENDROOT
BRANCH   1   2
ATOM      2  C   UNL     1      -4.973  38.953  23.506  1.00  0.00     0.000 C 
BRANCH   2   3
ATOM      3  C   UNL     1      -5.369  37.749  24.388  1.00  0.00     0.006 C 
BRANCH   3   4
ATOM      4  C   UNL     1      -6.125  36.669  23.603  1.00  0.00     0.053 C 
BRANCH   4   5
ATOM      5  C   UNL     1      -6.035  35.351  24.306  1.00  0.00     0.041 C 
ATOM      6  O   UNL     1      -6.121  35.297  25.561  1.00  0.00    -0.550 OA
ATOM      7  O   UNL     1      -5.806  34.190  23.580  1.00  0.00    -0.550 OA
ENDBRANCH   4   5
ENDBRANCH   3   4
ENDBRANCH   2   3
ENDBRANCH   1   2
BRANCH   1   8
ATOM      8  C   UNL     1      -5.276  38.843  20.927  1.00  0.00     0.000 C 
BRANCH   8   9
ATOM      9  C   UNL     1      -5.396  37.687  19.917  1.00  0.00     0.000 C 
BRANCH   9  10
ATOM     10  C   UNL     1      -4.936  36.339  20.492  1.00  0.00     0.006 C 
BRANCH  10  11
ATOM     11  C   UNL     1      -5.903  35.218  20.100  1.00  0.00     0.053 C 
BRANCH  11  12
ATOM     12  C   UNL     1      -5.518  34.632  18.778  1.00  0.00     0.041 C 
ATOM     13  O   UNL     1      -5.964  33.508  18.428  1.00  0.00    -0.550 OA
ATOM     14  O   UNL     1      -4.705  35.351  17.911  1.00  0.00    -0.550 OA
ENDBRANCH  11  12
ENDBRANCH  10  11
ENDBRANCH   9  10
ENDBRANCH   8   9
ENDBRANCH   1   8
TORSDOF 9
ENDMDL
