MODEL 1
REMARK VINA RESULT:    -4.615      0.000      0.000
REMARK INTER + INTRA:          -5.214
REMARK INTER:                  -5.020
REMARK INTRA:                  -0.194
REMARK UNBOUND:                -0.194
REMARK SMILES Cc1ccc(C(C)C)c(O)c1
REMARK SMILES IDX 1 1 2 2 11 3 9 4 5 5 4 6 3 7 10 8 6 10 7 11 8 12
REMARK H PARENT 10 9
REMARK Flexibility Score: inf
ROOT
ATOM      1  C   UNL     1      30.811  -5.704  33.624  1.00  0.00     0.044 C 
ATOM      2  C   UNL     1      29.915  -4.708  34.301  1.00  0.00    -0.047 A 
ATOM      3  C   UNL     1      28.594  -4.538  33.865  1.00  0.00     0.049 A 
ATOM      4  C   UNL     1      27.737  -3.636  34.515  1.00  0.00     0.119 A 
ATOM      5  C   UNL     1      28.201  -2.896  35.629  1.00  0.00    -0.004 A 
ATOM      6  C   UNL     1      29.525  -3.092  36.067  1.00  0.00     0.008 A 
ATOM      7  C   UNL     1      30.369  -3.992  35.415  1.00  0.00     0.004 A 
ENDROOT
BRANCH   4   8
ATOM      8  O   UNL     1      26.431  -3.482  34.051  1.00  0.00    -0.508 OA
ATOM      9  H   UNL     1      26.048  -4.080  33.330  1.00  0.00     0.293 HD
ENDBRANCH   4   8
BRANCH   5  10
ATOM     10  C   UNL     1      27.320  -1.904  36.374  1.00  0.00     0.017 C 
ATOM     11  C   UNL     1      27.346  -2.144  37.890  1.00  0.00     0.012 C 
ATOM     12  C   UNL     1      27.676  -0.452  36.028  1.00  0.00     0.012 C 
ENDBRANCH   5  10
TORSDOF 2
ENDMDL
MODEL 2
REMARK VINA RESULT:    -4.377      4.631      5.812
REMARK INTER + INTRA:          -4.955
REMARK INTER:                  -4.759
REMARK INTRA:                  -0.196
REMARK UNBOUND:                -0.194
REMARK SMILES Cc1ccc(C(C)C)c(O)c1
REMARK SMILES IDX 1 1 2 2 11 3 9 4 5 5 4 6 3 7 10 8 6 10 7 11 8 12
REMARK H PARENT 10 9
REMARK Flexibility Score: inf
ROOT
ATOM      1  C   UNL     1      26.408  -3.095  33.808  1.00  0.00     0.044 C 
ATOM      2  C   UNL     1      25.289  -2.103  33.934  1.00  0.00    -0.047 A 
ATOM      3  C   UNL     1      24.029  -2.515  34.387  1.00  0.00     0.049 A 
ATOM      4  C   UNL     1      22.987  -1.588  34.544  1.00  0.00     0.119 A 
ATOM      5  C   UNL     1      23.207  -0.220  34.254  1.00  0.00    -0.004 A 
ATOM      6  C   UNL     1      24.484   0.182  33.818  1.00  0.00     0.008 A 
ATOM      7  C   UNL     1      25.515  -0.748  33.667  1.00  0.00     0.004 A 
ENDROOT
BRANCH   4   8
ATOM      8  O   UNL     1      21.742  -2.031  34.987  1.00  0.00    -0.508 OA
ATOM      9  H   UNL     1      21.499  -2.042  35.970  1.00  0.00     0.293 HD
ENDBRANCH   4   8
BRANCH   5  10
ATOM     10  C   UNL     1      22.117   0.832  34.403  1.00  0.00     0.017 C 
ATOM     11  C   UNL     1      22.258   1.617  35.714  1.00  0.00     0.012 C 
ATOM     12  C   UNL     1      22.059   1.769  33.190  1.00  0.00     0.012 C 
ENDBRANCH   5  10
TORSDOF 2
ENDMDL
MODEL 3
REMARK VINA RESULT:    -4.374      2.775      4.347
REMARK INTER + INTRA:          -4.952
REMARK INTER:                  -4.891
REMARK INTRA:                  -0.061
REMARK UNBOUND:                -0.194
REMARK SMILES Cc1ccc(C(C)C)c(O)c1
REMARK SMILES IDX 1 1 2 2 11 3 9 4 5 5 4 6 3 7 10 8 6 10 7 11 8 12
REMARK H PARENT 10 9
REMARK Flexibility Score: inf
ROOT
ATOM      1  C   UNL     1      34.298  -2.817  32.128  1.00  0.00     0.044 C 
ATOM      2  C   UNL     1      33.080  -3.378  32.802  1.00  0.00    -0.047 A 
ATOM      3  C   UNL     1      32.329  -2.583  33.677  1.00  0.00     0.049 A 
ATOM      4  C   UNL     1      31.167  -3.086  34.283  1.00  0.00     0.119 A 
ATOM      5  C   UNL     1      30.739  -4.406  34.004  1.00  0.00    -0.004 A 
ATOM      6  C   UNL     1      31.494  -5.187  33.108  1.00  0.00     0.008 A 
ATOM      7  C   UNL     1      32.646  -4.676  32.509  1.00  0.00     0.004 A 
ENDROOT
BRANCH   4   8
ATOM      8  O   UNL     1      30.447  -2.273  35.156  1.00  0.00    -0.508 OA
ATOM      9  H   UNL     1      30.211  -1.317  34.923  1.00  0.00     0.293 HD
ENDBRANCH   4   8
BRANCH   5  10
ATOM     10  C   UNL     1      29.489  -5.009  34.630  1.00  0.00     0.017 C 
ATOM     11  C   UNL     1      28.210  -4.344  34.105  1.00  0.00     0.012 C 
ATOM     12  C   UNL     1      29.443  -6.532  34.458  1.00  0.00     0.012 C 
ENDBRANCH   5  10
TORSDOF 2
ENDMDL
MODEL 4
REMARK VINA RESULT:    -4.348      3.030      5.131
REMARK INTER + INTRA:          -4.924
REMARK INTER:                  -4.748
REMARK INTRA:                  -0.176
REMARK UNBOUND:                -0.194
REMARK SMILES Cc1ccc(C(C)C)c(O)c1
REMARK SMILES IDX 1 1 2 2 11 3 9 4 5 5 4 6 3 7 10 8 6 10 7 11 8 12
REMARK H PARENT 10 9
REMARK Flexibility Score: inf
ROOT
ATOM      1  C   UNL     1      28.117  -4.332  34.192  1.00  0.00     0.044 C 
ATOM      2  C   UNL     1      29.617  -4.292  34.186  1.00  0.00    -0.047 A 
ATOM      3  C   UNL     1      30.329  -4.687  33.047  1.00  0.00     0.049 A 
ATOM      4  C   UNL     1      31.731  -4.617  33.019  1.00  0.00     0.119 A 
ATOM      5  C   UNL     1      32.437  -4.133  34.145  1.00  0.00    -0.004 A 
ATOM      6  C   UNL     1      31.707  -3.721  35.276  1.00  0.00     0.008 A 
ATOM      7  C   UNL     1      30.313  -3.793  35.293  1.00  0.00     0.004 A 
ENDROOT
BRANCH   4   8
ATOM      8  O   UNL     1      32.411  -5.028  31.873  1.00  0.00    -0.508 OA
ATOM      9  H   UNL     1      32.148  -4.701  30.952  1.00  0.00     0.293 HD
ENDBRANCH   4   8
BRANCH   5  10
ATOM     10  C   UNL     1      33.956  -4.034  34.176  1.00  0.00     0.017 C 
ATOM     11  C   UNL     1      34.436  -2.917  35.113  1.00  0.00     0.012 C 
ATOM     12  C   UNL     1      34.609  -5.378  34.522  1.00  0.00     0.012 C 
ENDBRANCH   5  10
TORSDOF 2
ENDMDL
MODEL 5
REMARK VINA RESULT:    -4.342      2.380      3.386
REMARK INTER + INTRA:          -4.917
REMARK INTER:                  -4.721
REMARK INTRA:                  -0.197
REMARK UNBOUND:                -0.194
REMARK SMILES Cc1ccc(C(C)C)c(O)c1
REMARK SMILES IDX 1 1 2 2 11 3 9 4 5 5 4 6 3 7 10 8 6 10 7 11 8 12
REMARK H PARENT 10 9
REMARK Flexibility Score: inf
ROOT
ATOM      1  C   UNL     1      30.019  -4.164  35.415  1.00  0.00     0.044 C 
ATOM      2  C   UNL     1      28.693  -3.490  35.211  1.00  0.00    -0.047 A 
ATOM      3  C   UNL     1      28.329  -2.396  36.006  1.00  0.00     0.049 A 
ATOM      4  C   UNL     1      27.108  -1.735  35.799  1.00  0.00     0.119 A 
ATOM      5  C   UNL     1      26.237  -2.167  34.771  1.00  0.00    -0.004 A 
ATOM      6  C   UNL     1      26.625  -3.257  33.967  1.00  0.00     0.008 A 
ATOM      7  C   UNL     1      27.842  -3.905  34.181  1.00  0.00     0.004 A 
ENDROOT
BRANCH   4   8
ATOM      8  O   UNL     1      26.770  -0.656  36.613  1.00  0.00    -0.508 OA
ATOM      9  H   UNL     1      27.019  -0.629  37.594  1.00  0.00     0.293 HD
ENDBRANCH   4   8
BRANCH   5  10
ATOM     10  C   UNL     1      24.899  -1.493  34.497  1.00  0.00     0.017 C 
ATOM     11  C   UNL     1      25.020  -0.401  33.426  1.00  0.00     0.012 C 
ATOM     12  C   UNL     1      23.809  -2.511  34.142  1.00  0.00     0.012 C 
ENDBRANCH   5  10
TORSDOF 2
ENDMDL
MODEL 6
REMARK VINA RESULT:    -4.102      2.290      5.009
REMARK INTER + INTRA:          -4.656
REMARK INTER:                  -4.464
REMARK INTRA:                  -0.191
REMARK UNBOUND:                -0.194
REMARK SMILES Cc1ccc(C(C)C)c(O)c1
REMARK SMILES IDX 1 1 2 2 11 3 9 4 5 5 4 6 3 7 10 8 6 10 7 11 8 12
REMARK H PARENT 10 9
REMARK Flexibility Score: inf
ROOT
ATOM      1  C   UNL     1      28.237  -2.615  35.943  1.00  0.00     0.044 C 
ATOM      2  C   UNL     1      29.408  -3.309  35.311  1.00  0.00    -0.047 A 
ATOM      3  C   UNL     1      29.291  -4.635  34.877  1.00  0.00     0.049 A 
ATOM      4  C   UNL     1      30.368  -5.281  34.251  1.00  0.00     0.119 A 
ATOM      5  C   UNL     1      31.584  -4.587  34.042  1.00  0.00    -0.004 A 
ATOM      6  C   UNL     1      31.680  -3.248  34.465  1.00  0.00     0.008 A 
ATOM      7  C   UNL     1      30.602  -2.615  35.086  1.00  0.00     0.004 A 
ENDROOT
BRANCH   4   8
ATOM      8  O   UNL     1      30.224  -6.605  33.840  1.00  0.00    -0.508 OA
ATOM      9  H   UNL     1      30.269  -6.868  32.863  1.00  0.00     0.293 HD
ENDBRANCH   4   8
BRANCH   5  10
ATOM     10  C   UNL     1      32.788  -5.233  33.369  1.00  0.00     0.017 C 
ATOM     11  C   UNL     1      33.075  -4.611  31.996  1.00  0.00     0.012 C 
ATOM     12  C   UNL     1      34.028  -5.204  34.270  1.00  0.00     0.012 C 
ENDBRANCH   5  10
TORSDOF 2
ENDMDL
MODEL 7
REMARK VINA RESULT:    -4.057      2.992      5.453
REMARK INTER + INTRA:          -4.607
REMARK INTER:                  -4.411
REMARK INTRA:                  -0.196
REMARK UNBOUND:                -0.194
REMARK SMILES Cc1ccc(C(C)C)c(O)c1
REMARK SMILES IDX 1 1 2 2 11 3 9 4 5 5 4 6 3 7 10 8 6 10 7 11 8 12
REMARK H PARENT 10 9
REMARK Flexibility Score: inf
ROOT
ATOM      1  C   UNL     1      28.114  -4.436  34.232  1.00  0.00     0.044 C 
ATOM      2  C   UNL     1      29.588  -4.306  33.978  1.00  0.00    -0.047 A 
ATOM      3  C   UNL     1      30.366  -3.447  34.764  1.00  0.00     0.049 A 
ATOM      4  C   UNL     1      31.751  -3.346  34.559  1.00  0.00     0.119 A 
ATOM      5  C   UNL     1      32.375  -4.126  33.557  1.00  0.00    -0.004 A 
ATOM      6  C   UNL     1      31.583  -5.000  32.787  1.00  0.00     0.008 A 
ATOM      7  C   UNL     1      30.207  -5.093  33.001  1.00  0.00     0.004 A 
ENDROOT
BRANCH   4   8
ATOM      8  O   UNL     1      32.496  -2.474  35.352  1.00  0.00    -0.508 OA
ATOM      9  H   UNL     1      33.450  -2.228  35.121  1.00  0.00     0.293 HD
ENDBRANCH   4   8
BRANCH   5  10
ATOM     10  C   UNL     1      33.872  -4.061  33.286  1.00  0.00     0.017 C 
ATOM     11  C   UNL     1      34.651  -5.066  34.144  1.00  0.00     0.012 C 
ATOM     12  C   UNL     1      34.190  -4.228  31.795  1.00  0.00     0.012 C 
ENDBRANCH   5  10
TORSDOF 2
ENDMDL
MODEL 8
REMARK VINA RESULT:    -3.956      3.100      4.221
REMARK INTER + INTRA:          -4.496
REMARK INTER:                  -4.302
REMARK INTRA:                  -0.195
REMARK UNBOUND:                -0.194
REMARK SMILES Cc1ccc(C(C)C)c(O)c1
REMARK SMILES IDX 1 1 2 2 11 3 9 4 5 5 4 6 3 7 10 8 6 10 7 11 8 12
REMARK H PARENT 10 9
REMARK Flexibility Score: inf
ROOT
ATOM      1  C   UNL     1      35.435  -2.781  33.886  1.00  0.00     0.044 C 
ATOM      2  C   UNL     1      33.969  -3.053  34.054  1.00  0.00    -0.047 A 
ATOM      3  C   UNL     1      33.132  -3.125  32.933  1.00  0.00     0.049 A 
ATOM      4  C   UNL     1      31.766  -3.416  33.077  1.00  0.00     0.119 A 
ATOM      5  C   UNL     1      31.225  -3.651  34.363  1.00  0.00    -0.004 A 
ATOM      6  C   UNL     1      32.083  -3.594  35.479  1.00  0.00     0.008 A 
ATOM      7  C   UNL     1      33.440  -3.306  35.324  1.00  0.00     0.004 A 
ENDROOT
BRANCH   4   8
ATOM      8  O   UNL     1      30.958  -3.470  31.943  1.00  0.00    -0.508 OA
ATOM      9  H   UNL     1      31.165  -4.089  31.169  1.00  0.00     0.293 HD
ENDBRANCH   4   8
BRANCH   5  10
ATOM     10  C   UNL     1      29.753  -3.970  34.584  1.00  0.00     0.017 C 
ATOM     11  C   UNL     1      29.475  -5.476  34.487  1.00  0.00     0.012 C 
ATOM     12  C   UNL     1      29.234  -3.386  35.904  1.00  0.00     0.012 C 
ENDBRANCH   5  10
TORSDOF 2
ENDMDL
MODEL 9
REMARK VINA RESULT:    -3.827      4.628      6.900
REMARK INTER + INTRA:          -4.356
REMARK INTER:                  -4.165
REMARK INTRA:                  -0.191
REMARK UNBOUND:                -0.194
REMARK SMILES Cc1ccc(C(C)C)c(O)c1
REMARK SMILES IDX 1 1 2 2 11 3 9 4 5 5 4 6 3 7 10 8 6 10 7 11 8 12
REMARK H PARENT 10 9
REMARK Flexibility Score: inf
ROOT
ATOM      1  C   UNL     1      21.740   2.432  32.941  1.00  0.00     0.044 C 
ATOM      2  C   UNL     1      22.644   1.360  33.478  1.00  0.00    -0.047 A 
ATOM      3  C   UNL     1      22.142   0.389  34.353  1.00  0.00     0.049 A 
ATOM      4  C   UNL     1      22.969  -0.640  34.831  1.00  0.00     0.119 A 
ATOM      5  C   UNL     1      24.322  -0.707  34.420  1.00  0.00    -0.004 A 
ATOM      6  C   UNL     1      24.807   0.265  33.525  1.00  0.00     0.008 A 
ATOM      7  C   UNL     1      23.975   1.283  33.054  1.00  0.00     0.004 A 
ENDROOT
BRANCH   4   8
ATOM      8  O   UNL     1      22.443  -1.586  35.709  1.00  0.00    -0.508 OA
ATOM      9  H   UNL     1      22.368  -1.408  36.703  1.00  0.00     0.293 HD
ENDBRANCH   4   8
BRANCH   5  10
ATOM     10  C   UNL     1      25.269  -1.797  34.903  1.00  0.00     0.017 C 
ATOM     11  C   UNL     1      25.724  -2.707  33.756  1.00  0.00     0.012 C 
ATOM     12  C   UNL     1      26.464  -1.216  35.669  1.00  0.00     0.012 C 
ENDBRANCH   5  10
TORSDOF 2
ENDMDL
