MODEL 1
REMARK VINA RESULT:    -8.858      0.000      0.000
REMARK INTER + INTRA:          -9.957
REMARK INTER:                  -9.635
REMARK INTRA:                  -0.322
REMARK UNBOUND:                -0.322
REMARK SMILES C[C@H]1[C@H]2C3=CC[C@H]4[C@@]5(C)CC[C@H](O)C(C)(C)[C@H]5CC[C@]4(C)[C@@]3(C)CC[C@@]2(C(=O)[O-])CC[C@@H]1C
REMARK SMILES IDX 26 1 30 2 25 3 3 4 31 5 24 6 4 7 2 8 32 9 22 10 5 11 1 12
REMARK SMILES IDX 33 13 23 14 20 15 6 16 7 17 19 18 21 19 8 20 18 21 17 22
REMARK SMILES IDX 10 23 9 24 14 25 11 26 12 27 15 28 16 29 27 30 28 31 29 32
REMARK SMILES IDX 13 33
REMARK H PARENT 13 34
REMARK Flexibility Score: inf
ROOT
ATOM      1  C   UNL     1      52.752 -32.351  -7.937  1.00  0.00     0.017 C 
ATOM      2  C   UNL     1      53.059 -31.631  -9.284  1.00  0.00     0.014 C 
ATOM      3  C   UNL     1      52.088 -31.304  -7.016  1.00  0.00     0.014 C 
ATOM      4  C   UNL     1      54.056 -32.915  -7.223  1.00  0.00     0.030 C 
ATOM      5  C   UNL     1      54.085 -32.389 -10.125  1.00  0.00     0.004 C 
ATOM      6  C   UNL     1      51.579 -31.926  -5.718  1.00  0.00     0.013 C 
ATOM      7  C   UNL     1      54.016 -32.819  -5.665  1.00  0.00    -0.063 C 
ATOM      8  C   UNL     1      55.382 -32.354  -7.861  1.00  0.00    -0.003 C 
ATOM      9  C   UNL     1      55.443 -32.578  -9.407  1.00  0.00    -0.011 C 
ATOM     10  C   UNL     1      52.678 -32.704  -4.894  1.00  0.00    -0.006 C 
ATOM     11  C   UNL     1      55.141 -33.121  -4.959  1.00  0.00    -0.027 C 
ATOM     12  C   UNL     1      55.702 -30.890  -7.477  1.00  0.00     0.008 C 
ATOM     13  C   UNL     1      56.010 -33.974  -9.748  1.00  0.00     0.008 C 
ATOM     14  C   UNL     1      52.160 -34.177  -4.779  1.00  0.00     0.017 C 
ATOM     15  C   UNL     1      52.931 -32.005  -3.457  1.00  0.00    -0.020 C 
ATOM     16  C   UNL     1      55.336 -32.856  -3.489  1.00  0.00     0.032 C 
ATOM     17  C   UNL     1      54.024 -32.828  -2.666  1.00  0.00     0.006 C 
ATOM     18  C   UNL     1      51.645 -32.001  -2.591  1.00  0.00     0.008 C 
ATOM     19  C   UNL     1      53.378 -30.522  -3.716  1.00  0.00     0.012 C 
ATOM     20  C   UNL     1      54.229 -32.558  -1.091  1.00  0.00    -0.025 C 
ATOM     21  C   UNL     1      51.866 -31.447  -1.188  1.00  0.00     0.005 C 
ATOM     22  C   UNL     1      52.835 -32.317  -0.347  1.00  0.00     0.003 C 
ATOM     23  C   UNL     1      55.220 -31.375  -0.837  1.00  0.00     0.010 C 
ATOM     24  C   UNL     1      54.877 -33.857  -0.503  1.00  0.00     0.012 C 
ATOM     25  C   UNL     1      52.949 -31.785   1.159  1.00  0.00    -0.006 C 
ATOM     26  C   UNL     1      55.328 -30.927   0.624  1.00  0.00     0.033 C 
ATOM     27  C   UNL     1      53.953 -30.592   1.225  1.00  0.00     0.120 C 
ATOM     28  C   UNL     1      51.576 -31.267   1.687  1.00  0.00     0.014 C 
ATOM     29  C   UNL     1      53.353 -32.936   2.139  1.00  0.00     0.014 C 
ENDROOT
BRANCH   1  30
ATOM     30  C   UNL     1      51.756 -33.467  -8.270  1.00  0.00     0.048 C 
ATOM     31  O   UNL     1      52.081 -34.680  -8.173  1.00  0.00    -0.550 OA
ATOM     32  O   UNL     1      50.519 -33.159  -8.824  1.00  0.00    -0.550 OA
ENDBRANCH   1  30
BRANCH  27  33
ATOM     33  O   UNL     1      54.089 -30.096   2.539  1.00  0.00    -0.393 OA
ATOM     34  H   UNL     1      53.218 -29.712   2.818  1.00  0.00     0.210 HD
ENDBRANCH  27  33
TORSDOF 2
ENDMDL
MODEL 2
REMARK VINA RESULT:    -8.809      2.870      5.123
REMARK INTER + INTRA:          -9.904
REMARK INTER:                  -9.585
REMARK INTRA:                  -0.320
REMARK UNBOUND:                -0.322
REMARK SMILES C[C@H]1[C@H]2C3=CC[C@H]4[C@@]5(C)CC[C@H](O)C(C)(C)[C@H]5CC[C@]4(C)[C@@]3(C)CC[C@@]2(C(=O)[O-])CC[C@@H]1C
REMARK SMILES IDX 26 1 30 2 25 3 3 4 31 5 24 6 4 7 2 8 32 9 22 10 5 11 1 12
REMARK SMILES IDX 33 13 23 14 20 15 6 16 7 17 19 18 21 19 8 20 18 21 17 22
REMARK SMILES IDX 10 23 9 24 14 25 11 26 12 27 15 28 16 29 27 30 28 31 29 32
REMARK SMILES IDX 13 33
REMARK H PARENT 13 34
REMARK Flexibility Score: inf
ROOT
ATOM      1  C   UNL     1      53.455 -35.116  -7.599  1.00  0.00     0.017 C 
ATOM      2  C   UNL     1      53.792 -36.635  -7.534  1.00  0.00     0.014 C 
ATOM      3  C   UNL     1      54.790 -34.357  -7.442  1.00  0.00     0.014 C 
ATOM      4  C   UNL     1      52.458 -34.651  -6.450  1.00  0.00     0.030 C 
ATOM      5  C   UNL     1      52.561 -37.490  -7.242  1.00  0.00     0.004 C 
ATOM      6  C   UNL     1      54.624 -32.856  -7.660  1.00  0.00     0.013 C 
ATOM      7  C   UNL     1      52.750 -33.220  -5.900  1.00  0.00    -0.063 C 
ATOM      8  C   UNL     1      52.286 -35.741  -5.326  1.00  0.00    -0.003 C 
ATOM      9  C   UNL     1      51.874 -37.134  -5.902  1.00  0.00    -0.011 C 
ATOM     10  C   UNL     1      53.543 -32.179  -6.729  1.00  0.00    -0.006 C 
ATOM     11  C   UNL     1      52.065 -32.783  -4.806  1.00  0.00    -0.027 C 
ATOM     12  C   UNL     1      53.488 -35.851  -4.357  1.00  0.00     0.008 C 
ATOM     13  C   UNL     1      50.342 -37.238  -6.070  1.00  0.00     0.008 C 
ATOM     14  C   UNL     1      52.482 -31.552  -7.695  1.00  0.00     0.017 C 
ATOM     15  C   UNL     1      54.223 -31.094  -5.740  1.00  0.00    -0.020 C 
ATOM     16  C   UNL     1      52.391 -31.539  -4.022  1.00  0.00     0.032 C 
ATOM     17  C   UNL     1      53.101 -30.435  -4.844  1.00  0.00     0.006 C 
ATOM     18  C   UNL     1      54.906 -29.950  -6.535  1.00  0.00     0.008 C 
ATOM     19  C   UNL     1      55.307 -31.838  -4.882  1.00  0.00     0.012 C 
ATOM     20  C   UNL     1      53.440 -29.097  -4.013  1.00  0.00    -0.025 C 
ATOM     21  C   UNL     1      55.467 -28.850  -5.641  1.00  0.00     0.005 C 
ATOM     22  C   UNL     1      54.365 -28.099  -4.851  1.00  0.00     0.003 C 
ATOM     23  C   UNL     1      54.077 -29.431  -2.624  1.00  0.00     0.010 C 
ATOM     24  C   UNL     1      52.070 -28.384  -3.749  1.00  0.00     0.012 C 
ATOM     25  C   UNL     1      54.968 -26.869  -4.021  1.00  0.00    -0.006 C 
ATOM     26  C   UNL     1      54.602 -28.220  -1.847  1.00  0.00     0.033 C 
ATOM     27  C   UNL     1      55.586 -27.385  -2.683  1.00  0.00     0.120 C 
ATOM     28  C   UNL     1      56.105 -26.150  -4.810  1.00  0.00     0.014 C 
ATOM     29  C   UNL     1      53.886 -25.767  -3.772  1.00  0.00     0.014 C 
ENDROOT
BRANCH   1  30
ATOM     30  C   UNL     1      52.870 -34.871  -8.994  1.00  0.00     0.048 C 
ATOM     31  O   UNL     1      51.643 -34.630  -9.152  1.00  0.00    -0.550 OA
ATOM     32  O   UNL     1      53.657 -35.052 -10.125  1.00  0.00    -0.550 OA
ENDBRANCH   1  30
BRANCH  27  33
ATOM     33  O   UNL     1      56.123 -26.330  -1.916  1.00  0.00    -0.393 OA
ATOM     34  H   UNL     1      56.904 -26.678  -1.412  1.00  0.00     0.210 HD
ENDBRANCH  27  33
TORSDOF 2
ENDMDL
MODEL 3
REMARK VINA RESULT:    -8.559      3.837     10.111
REMARK INTER + INTRA:          -9.632
REMARK INTER:                  -9.308
REMARK INTRA:                  -0.324
REMARK UNBOUND:                -0.322
REMARK SMILES C[C@H]1[C@H]2C3=CC[C@H]4[C@@]5(C)CC[C@H](O)C(C)(C)[C@H]5CC[C@]4(C)[C@@]3(C)CC[C@@]2(C(=O)[O-])CC[C@@H]1C
REMARK SMILES IDX 26 1 30 2 25 3 3 4 31 5 24 6 4 7 2 8 32 9 22 10 5 11 1 12
REMARK SMILES IDX 33 13 23 14 20 15 6 16 7 17 19 18 21 19 8 20 18 21 17 22
REMARK SMILES IDX 10 23 9 24 14 25 11 26 12 27 15 28 16 29 27 30 28 31 29 32
REMARK SMILES IDX 13 33
REMARK H PARENT 13 34
REMARK Flexibility Score: inf
ROOT
ATOM      1  C   UNL     1      50.798 -26.806   3.680  1.00  0.00     0.017 C 
ATOM      2  C   UNL     1      49.806 -26.767   4.881  1.00  0.00     0.014 C 
ATOM      3  C   UNL     1      50.059 -27.500   2.516  1.00  0.00     0.014 C 
ATOM      4  C   UNL     1      52.130 -27.614   4.001  1.00  0.00     0.030 C 
ATOM      5  C   UNL     1      50.514 -26.512   6.210  1.00  0.00     0.004 C 
ATOM      6  C   UNL     1      50.862 -27.451   1.219  1.00  0.00     0.013 C 
ATOM      7  C   UNL     1      52.687 -28.424   2.789  1.00  0.00    -0.063 C 
ATOM      8  C   UNL     1      52.018 -28.454   5.329  1.00  0.00    -0.003 C 
ATOM      9  C   UNL     1      51.576 -27.586   6.551  1.00  0.00    -0.011 C 
ATOM     10  C   UNL     1      52.316 -28.056   1.330  1.00  0.00    -0.006 C 
ATOM     11  C   UNL     1      53.728 -29.278   2.991  1.00  0.00    -0.027 C 
ATOM     12  C   UNL     1      51.168 -29.741   5.198  1.00  0.00     0.008 C 
ATOM     13  C   UNL     1      52.789 -26.907   7.224  1.00  0.00     0.008 C 
ATOM     14  C   UNL     1      53.292 -26.891   0.955  1.00  0.00     0.017 C 
ATOM     15  C   UNL     1      52.480 -29.356   0.380  1.00  0.00    -0.020 C 
ATOM     16  C   UNL     1      54.221 -30.292   1.991  1.00  0.00     0.032 C 
ATOM     17  C   UNL     1      53.952 -29.913   0.514  1.00  0.00     0.006 C 
ATOM     18  C   UNL     1      52.259 -28.999  -1.114  1.00  0.00     0.008 C 
ATOM     19  C   UNL     1      51.403 -30.412   0.818  1.00  0.00     0.012 C 
ATOM     20  C   UNL     1      54.490 -30.987  -0.559  1.00  0.00    -0.025 C 
ATOM     21  C   UNL     1      52.509 -30.173  -2.054  1.00  0.00     0.005 C 
ATOM     22  C   UNL     1      53.984 -30.651  -2.037  1.00  0.00     0.003 C 
ATOM     23  C   UNL     1      54.110 -32.448  -0.147  1.00  0.00     0.010 C 
ATOM     24  C   UNL     1      56.053 -30.879  -0.544  1.00  0.00     0.012 C 
ATOM     25  C   UNL     1      54.245 -31.796  -3.126  1.00  0.00    -0.006 C 
ATOM     26  C   UNL     1      54.416 -33.515  -1.203  1.00  0.00     0.033 C 
ATOM     27  C   UNL     1      53.784 -33.177  -2.563  1.00  0.00     0.120 C 
ATOM     28  C   UNL     1      53.438 -31.535  -4.434  1.00  0.00     0.014 C 
ATOM     29  C   UNL     1      55.745 -31.824  -3.571  1.00  0.00     0.014 C 
ENDROOT
BRANCH   1  30
ATOM     30  C   UNL     1      51.090 -25.345   3.324  1.00  0.00     0.048 C 
ATOM     31  O   UNL     1      52.222 -24.836   3.539  1.00  0.00    -0.550 OA
ATOM     32  O   UNL     1      50.066 -24.512   2.887  1.00  0.00    -0.550 OA
ENDBRANCH   1  30
BRANCH  27  33
ATOM     33  O   UNL     1      54.004 -34.218  -3.489  1.00  0.00    -0.393 OA
ATOM     34  H   UNL     1      54.412 -33.827  -4.305  1.00  0.00     0.210 HD
ENDBRANCH  27  33
TORSDOF 2
ENDMDL
MODEL 4
REMARK VINA RESULT:    -8.550      1.456      8.283
REMARK INTER + INTRA:          -9.622
REMARK INTER:                  -9.297
REMARK INTRA:                  -0.325
REMARK UNBOUND:                -0.322
REMARK SMILES C[C@H]1[C@H]2C3=CC[C@H]4[C@@]5(C)CC[C@H](O)C(C)(C)[C@H]5CC[C@]4(C)[C@@]3(C)CC[C@@]2(C(=O)[O-])CC[C@@H]1C
REMARK SMILES IDX 26 1 30 2 25 3 3 4 31 5 24 6 4 7 2 8 32 9 22 10 5 11 1 12
REMARK SMILES IDX 33 13 23 14 20 15 6 16 7 17 19 18 21 19 8 20 18 21 17 22
REMARK SMILES IDX 10 23 9 24 14 25 11 26 12 27 15 28 16 29 27 30 28 31 29 32
REMARK SMILES IDX 13 33
REMARK H PARENT 13 34
REMARK Flexibility Score: inf
ROOT
ATOM      1  C   UNL     1      53.119 -30.475   0.657  1.00  0.00     0.017 C 
ATOM      2  C   UNL     1      52.513 -30.839   2.045  1.00  0.00     0.014 C 
ATOM      3  C   UNL     1      51.955 -30.497  -0.356  1.00  0.00     0.014 C 
ATOM      4  C   UNL     1      54.239 -31.499   0.181  1.00  0.00     0.030 C 
ATOM      5  C   UNL     1      53.579 -31.276   3.047  1.00  0.00     0.004 C 
ATOM      6  C   UNL     1      52.383 -29.988  -1.730  1.00  0.00     0.013 C 
ATOM      7  C   UNL     1      54.242 -31.763  -1.358  1.00  0.00    -0.063 C 
ATOM      8  C   UNL     1      54.263 -32.811   1.051  1.00  0.00    -0.003 C 
ATOM      9  C   UNL     1      54.384 -32.513   2.580  1.00  0.00    -0.011 C 
ATOM     10  C   UNL     1      53.614 -30.756  -2.353  1.00  0.00    -0.006 C 
ATOM     11  C   UNL     1      55.048 -32.741  -1.855  1.00  0.00    -0.027 C 
ATOM     12  C   UNL     1      53.110 -33.798   0.746  1.00  0.00     0.008 C 
ATOM     13  C   UNL     1      55.861 -32.349   3.003  1.00  0.00     0.008 C 
ATOM     14  C   UNL     1      54.724 -29.673  -2.574  1.00  0.00     0.017 C 
ATOM     15  C   UNL     1      53.193 -31.522  -3.715  1.00  0.00    -0.020 C 
ATOM     16  C   UNL     1      54.994 -33.272  -3.265  1.00  0.00     0.032 C 
ATOM     17  C   UNL     1      54.459 -32.259  -4.307  1.00  0.00     0.006 C 
ATOM     18  C   UNL     1      52.694 -30.528  -4.796  1.00  0.00     0.008 C 
ATOM     19  C   UNL     1      52.034 -32.523  -3.366  1.00  0.00     0.012 C 
ATOM     20  C   UNL     1      54.413 -32.817  -5.817  1.00  0.00    -0.025 C 
ATOM     21  C   UNL     1      52.388 -31.197  -6.132  1.00  0.00     0.005 C 
ATOM     22  C   UNL     1      53.646 -31.813  -6.796  1.00  0.00     0.003 C 
ATOM     23  C   UNL     1      53.794 -34.253  -5.879  1.00  0.00     0.010 C 
ATOM     24  C   UNL     1      55.902 -32.920  -6.294  1.00  0.00     0.012 C 
ATOM     25  C   UNL     1      53.320 -32.394  -8.252  1.00  0.00    -0.006 C 
ATOM     26  C   UNL     1      53.538 -34.784  -7.292  1.00  0.00     0.033 C 
ATOM     27  C   UNL     1      52.685 -33.814  -8.125  1.00  0.00     0.120 C 
ATOM     28  C   UNL     1      52.298 -31.493  -9.010  1.00  0.00     0.014 C 
ATOM     29  C   UNL     1      54.597 -32.410  -9.156  1.00  0.00     0.014 C 
ENDROOT
BRANCH   1  30
ATOM     30  C   UNL     1      53.671 -29.052   0.797  1.00  0.00     0.048 C 
ATOM     31  O   UNL     1      54.911 -28.831   0.795  1.00  0.00    -0.550 OA
ATOM     32  O   UNL     1      52.814 -27.992   1.070  1.00  0.00    -0.550 OA
ENDBRANCH   1  30
BRANCH  27  33
ATOM     33  O   UNL     1      52.388 -34.367  -9.389  1.00  0.00    -0.393 OA
ATOM     34  H   UNL     1      52.077 -35.300  -9.255  1.00  0.00     0.210 HD
ENDBRANCH  27  33
TORSDOF 2
ENDMDL
MODEL 5
REMARK VINA RESULT:    -8.536      2.258      8.281
REMARK INTER + INTRA:          -9.606
REMARK INTER:                  -9.292
REMARK INTRA:                  -0.314
REMARK UNBOUND:                -0.322
REMARK SMILES C[C@H]1[C@H]2C3=CC[C@H]4[C@@]5(C)CC[C@H](O)C(C)(C)[C@H]5CC[C@]4(C)[C@@]3(C)CC[C@@]2(C(=O)[O-])CC[C@@H]1C
REMARK SMILES IDX 26 1 30 2 25 3 3 4 31 5 24 6 4 7 2 8 32 9 22 10 5 11 1 12
REMARK SMILES IDX 33 13 23 14 20 15 6 16 7 17 19 18 21 19 8 20 18 21 17 22
REMARK SMILES IDX 10 23 9 24 14 25 11 26 12 27 15 28 16 29 27 30 28 31 29 32
REMARK SMILES IDX 13 33
REMARK H PARENT 13 34
REMARK Flexibility Score: inf
ROOT
ATOM      1  C   UNL     1      53.085 -29.825   0.677  1.00  0.00     0.017 C 
ATOM      2  C   UNL     1      53.650 -28.849   1.751  1.00  0.00     0.014 C 
ATOM      3  C   UNL     1      54.273 -30.681   0.186  1.00  0.00     0.014 C 
ATOM      4  C   UNL     1      52.441 -29.074  -0.568  1.00  0.00     0.030 C 
ATOM      5  C   UNL     1      52.715 -27.670   2.011  1.00  0.00     0.004 C 
ATOM      6  C   UNL     1      53.823 -31.800  -0.749  1.00  0.00     0.013 C 
ATOM      7  C   UNL     1      52.672 -29.796  -1.933  1.00  0.00    -0.063 C 
ATOM      8  C   UNL     1      52.795 -27.539  -0.593  1.00  0.00    -0.003 C 
ATOM      9  C   UNL     1      52.436 -26.821   0.747  1.00  0.00    -0.011 C 
ATOM     10  C   UNL     1      53.000 -31.309  -2.003  1.00  0.00    -0.006 C 
ATOM     11  C   UNL     1      52.307 -29.164  -3.082  1.00  0.00    -0.027 C 
ATOM     12  C   UNL     1      54.242 -27.228  -1.046  1.00  0.00     0.008 C 
ATOM     13  C   UNL     1      50.963 -26.358   0.757  1.00  0.00     0.008 C 
ATOM     14  C   UNL     1      51.608 -32.020  -1.904  1.00  0.00     0.017 C 
ATOM     15  C   UNL     1      53.785 -31.636  -3.380  1.00  0.00    -0.020 C 
ATOM     16  C   UNL     1      52.672 -29.617  -4.472  1.00  0.00     0.032 C 
ATOM     17  C   UNL     1      52.914 -31.141  -4.602  1.00  0.00     0.006 C 
ATOM     18  C   UNL     1      54.005 -33.160  -3.561  1.00  0.00     0.008 C 
ATOM     19  C   UNL     1      55.182 -30.921  -3.319  1.00  0.00     0.012 C 
ATOM     20  C   UNL     1      53.292 -31.632  -6.089  1.00  0.00    -0.025 C 
ATOM     21  C   UNL     1      54.646 -33.520  -4.896  1.00  0.00     0.005 C 
ATOM     22  C   UNL     1      53.748 -33.164  -6.108  1.00  0.00     0.003 C 
ATOM     23  C   UNL     1      54.374 -30.709  -6.740  1.00  0.00     0.010 C 
ATOM     24  C   UNL     1      51.982 -31.504  -6.940  1.00  0.00     0.012 C 
ATOM     25  C   UNL     1      54.388 -33.668  -7.486  1.00  0.00    -0.006 C 
ATOM     26  C   UNL     1      54.928 -31.210  -8.078  1.00  0.00     0.033 C 
ATOM     27  C   UNL     1      55.464 -32.647  -7.975  1.00  0.00     0.120 C 
ATOM     28  C   UNL     1      55.099 -35.045  -7.315  1.00  0.00     0.014 C 
ATOM     29  C   UNL     1      53.286 -33.911  -8.570  1.00  0.00     0.014 C 
ENDROOT
BRANCH   1  30
ATOM     30  C   UNL     1      52.063 -30.707   1.402  1.00  0.00     0.048 C 
ATOM     31  O   UNL     1      50.839 -30.663   1.105  1.00  0.00    -0.550 OA
ATOM     32  O   UNL     1      52.448 -31.469   2.498  1.00  0.00    -0.550 OA
ENDBRANCH   1  30
BRANCH  27  33
ATOM     33  O   UNL     1      56.050 -33.051  -9.193  1.00  0.00    -0.393 OA
ATOM     34  H   UNL     1      57.004 -32.777  -9.186  1.00  0.00     0.210 HD
ENDBRANCH  27  33
TORSDOF 2
ENDMDL
MODEL 6
REMARK VINA RESULT:    -8.427      2.062      3.550
REMARK INTER + INTRA:          -9.488
REMARK INTER:                  -9.165
REMARK INTRA:                  -0.323
REMARK UNBOUND:                -0.322
REMARK SMILES C[C@H]1[C@H]2C3=CC[C@H]4[C@@]5(C)CC[C@H](O)C(C)(C)[C@H]5CC[C@]4(C)[C@@]3(C)CC[C@@]2(C(=O)[O-])CC[C@@H]1C
REMARK SMILES IDX 26 1 30 2 25 3 3 4 31 5 24 6 4 7 2 8 32 9 22 10 5 11 1 12
REMARK SMILES IDX 33 13 23 14 20 15 6 16 7 17 19 18 21 19 8 20 18 21 17 22
REMARK SMILES IDX 10 23 9 24 14 25 11 26 12 27 15 28 16 29 27 30 28 31 29 32
REMARK SMILES IDX 13 33
REMARK H PARENT 13 34
REMARK Flexibility Score: inf
ROOT
ATOM      1  C   UNL     1      52.999 -34.312  -6.610  1.00  0.00     0.017 C 
ATOM      2  C   UNL     1      51.968 -35.078  -7.490  1.00  0.00     0.014 C 
ATOM      3  C   UNL     1      52.641 -34.617  -5.139  1.00  0.00     0.014 C 
ATOM      4  C   UNL     1      52.961 -32.738  -6.835  1.00  0.00     0.030 C 
ATOM      5  C   UNL     1      51.917 -34.545  -8.921  1.00  0.00     0.004 C 
ATOM      6  C   UNL     1      53.682 -34.063  -4.170  1.00  0.00     0.013 C 
ATOM      7  C   UNL     1      53.215 -31.907  -5.539  1.00  0.00    -0.063 C 
ATOM      8  C   UNL     1      51.693 -32.278  -7.648  1.00  0.00    -0.003 C 
ATOM      9  C   UNL     1      51.538 -33.046  -9.000  1.00  0.00    -0.011 C 
ATOM     10  C   UNL     1      53.948 -32.515  -4.317  1.00  0.00    -0.006 C 
ATOM     11  C   UNL     1      53.046 -30.556  -5.581  1.00  0.00    -0.027 C 
ATOM     12  C   UNL     1      50.379 -32.278  -6.830  1.00  0.00     0.008 C 
ATOM     13  C   UNL     1      52.355 -32.372 -10.124  1.00  0.00     0.008 C 
ATOM     14  C   UNL     1      55.470 -32.375  -4.661  1.00  0.00     0.017 C 
ATOM     15  C   UNL     1      53.524 -31.720  -2.973  1.00  0.00    -0.020 C 
ATOM     16  C   UNL     1      53.022 -29.650  -4.377  1.00  0.00     0.032 C 
ATOM     17  C   UNL     1      53.826 -30.181  -3.164  1.00  0.00     0.006 C 
ATOM     18  C   UNL     1      54.345 -32.199  -1.747  1.00  0.00     0.008 C 
ATOM     19  C   UNL     1      52.001 -31.998  -2.710  1.00  0.00     0.012 C 
ATOM     20  C   UNL     1      53.814 -29.209  -1.879  1.00  0.00    -0.025 C 
ATOM     21  C   UNL     1      54.052 -31.402  -0.480  1.00  0.00     0.005 C 
ATOM     22  C   UNL     1      54.465 -29.913  -0.600  1.00  0.00     0.003 C 
ATOM     23  C   UNL     1      52.373 -28.687  -1.568  1.00  0.00     0.010 C 
ATOM     24  C   UNL     1      54.698 -27.972  -2.256  1.00  0.00     0.012 C 
ATOM     25  C   UNL     1      54.265 -29.133   0.784  1.00  0.00    -0.006 C 
ATOM     26  C   UNL     1      52.238 -27.910  -0.255  1.00  0.00     0.033 C 
ATOM     27  C   UNL     1      52.770 -28.712   0.944  1.00  0.00     0.120 C 
ATOM     28  C   UNL     1      54.628 -30.032   2.005  1.00  0.00     0.014 C 
ATOM     29  C   UNL     1      55.227 -27.902   0.886  1.00  0.00     0.014 C 
ENDROOT
BRANCH   1  30
ATOM     30  C   UNL     1      54.370 -34.904  -6.952  1.00  0.00     0.048 C 
ATOM     31  O   UNL     1      55.243 -34.222  -7.552  1.00  0.00    -0.550 OA
ATOM     32  O   UNL     1      54.626 -36.253  -6.732  1.00  0.00    -0.550 OA
ENDBRANCH   1  30
BRANCH  27  33
ATOM     33  O   UNL     1      52.552 -28.013   2.150  1.00  0.00    -0.393 OA
ATOM     34  H   UNL     1      53.120 -28.420   2.853  1.00  0.00     0.210 HD
ENDBRANCH  27  33
TORSDOF 2
ENDMDL
MODEL 7
REMARK VINA RESULT:    -8.383      1.743      3.568
REMARK INTER + INTRA:          -9.440
REMARK INTER:                  -9.142
REMARK INTRA:                  -0.299
REMARK UNBOUND:                -0.322
REMARK SMILES C[C@H]1[C@H]2C3=CC[C@H]4[C@@]5(C)CC[C@H](O)C(C)(C)[C@H]5CC[C@]4(C)[C@@]3(C)CC[C@@]2(C(=O)[O-])CC[C@@H]1C
REMARK SMILES IDX 26 1 30 2 25 3 3 4 31 5 24 6 4 7 2 8 32 9 22 10 5 11 1 12
REMARK SMILES IDX 33 13 23 14 20 15 6 16 7 17 19 18 21 19 8 20 18 21 17 22
REMARK SMILES IDX 10 23 9 24 14 25 11 26 12 27 15 28 16 29 27 30 28 31 29 32
REMARK SMILES IDX 13 33
REMARK H PARENT 13 34
REMARK Flexibility Score: inf
ROOT
ATOM      1  C   UNL     1      54.341 -32.973  -7.023  1.00  0.00     0.017 C 
ATOM      2  C   UNL     1      54.300 -34.154  -8.038  1.00  0.00     0.014 C 
ATOM      3  C   UNL     1      55.381 -33.348  -5.945  1.00  0.00     0.014 C 
ATOM      4  C   UNL     1      52.940 -32.709  -6.319  1.00  0.00     0.030 C 
ATOM      5  C   UNL     1      53.040 -34.133  -8.901  1.00  0.00     0.004 C 
ATOM      6  C   UNL     1      55.645 -32.197  -4.979  1.00  0.00     0.013 C 
ATOM      7  C   UNL     1      53.054 -32.268  -4.826  1.00  0.00    -0.063 C 
ATOM      8  C   UNL     1      51.917 -33.882  -6.559  1.00  0.00    -0.003 C 
ATOM      9  C   UNL     1      51.734 -34.216  -8.075  1.00  0.00    -0.011 C 
ATOM     10  C   UNL     1      54.353 -31.638  -4.265  1.00  0.00    -0.006 C 
ATOM     11  C   UNL     1      51.919 -32.172  -4.080  1.00  0.00    -0.027 C 
ATOM     12  C   UNL     1      52.196 -35.151  -5.719  1.00  0.00     0.008 C 
ATOM     13  C   UNL     1      50.663 -33.310  -8.722  1.00  0.00     0.008 C 
ATOM     14  C   UNL     1      54.265 -30.126  -4.666  1.00  0.00     0.017 C 
ATOM     15  C   UNL     1      54.427 -31.868  -2.665  1.00  0.00    -0.020 C 
ATOM     16  C   UNL     1      51.880 -31.991  -2.585  1.00  0.00     0.032 C 
ATOM     17  C   UNL     1      53.122 -31.277  -1.996  1.00  0.00     0.006 C 
ATOM     18  C   UNL     1      55.637 -31.127  -2.039  1.00  0.00     0.008 C 
ATOM     19  C   UNL     1      54.580 -33.409  -2.407  1.00  0.00     0.012 C 
ATOM     20  C   UNL     1      53.079 -31.069  -0.400  1.00  0.00    -0.025 C 
ATOM     21  C   UNL     1      55.683 -31.230  -0.518  1.00  0.00     0.005 C 
ATOM     22  C   UNL     1      54.476 -30.538   0.165  1.00  0.00     0.003 C 
ATOM     23  C   UNL     1      52.627 -32.374   0.336  1.00  0.00     0.010 C 
ATOM     24  C   UNL     1      51.995 -29.971  -0.129  1.00  0.00     0.012 C 
ATOM     25  C   UNL     1      54.616 -30.549   1.760  1.00  0.00    -0.006 C 
ATOM     26  C   UNL     1      52.739 -32.324   1.863  1.00  0.00     0.033 C 
ATOM     27  C   UNL     1      54.152 -31.930   2.323  1.00  0.00     0.120 C 
ATOM     28  C   UNL     1      56.096 -30.340   2.206  1.00  0.00     0.014 C 
ATOM     29  C   UNL     1      53.825 -29.365   2.408  1.00  0.00     0.014 C 
ENDROOT
BRANCH   1  30
ATOM     30  C   UNL     1      54.820 -31.751  -7.815  1.00  0.00     0.048 C 
ATOM     31  O   UNL     1      54.018 -30.841  -8.156  1.00  0.00    -0.550 OA
ATOM     32  O   UNL     1      56.124 -31.693  -8.293  1.00  0.00    -0.550 OA
ENDBRANCH   1  30
BRANCH  27  33
ATOM     33  O   UNL     1      54.252 -31.980   3.729  1.00  0.00    -0.393 OA
ATOM     34  H   UNL     1      55.036 -31.437   4.005  1.00  0.00     0.210 HD
ENDBRANCH  27  33
TORSDOF 2
ENDMDL
MODEL 8
REMARK VINA RESULT:    -8.340      3.379      5.356
REMARK INTER + INTRA:          -9.393
REMARK INTER:                  -9.079
REMARK INTRA:                  -0.314
REMARK UNBOUND:                -0.322
REMARK SMILES C[C@H]1[C@H]2C3=CC[C@H]4[C@@]5(C)CC[C@H](O)C(C)(C)[C@H]5CC[C@]4(C)[C@@]3(C)CC[C@@]2(C(=O)[O-])CC[C@@H]1C
REMARK SMILES IDX 26 1 30 2 25 3 3 4 31 5 24 6 4 7 2 8 32 9 22 10 5 11 1 12
REMARK SMILES IDX 33 13 23 14 20 15 6 16 7 17 19 18 21 19 8 20 18 21 17 22
REMARK SMILES IDX 10 23 9 24 14 25 11 26 12 27 15 28 16 29 27 30 28 31 29 32
REMARK SMILES IDX 13 33
REMARK H PARENT 13 34
REMARK Flexibility Score: inf
ROOT
ATOM      1  C   UNL     1      54.631 -31.159  -4.615  1.00  0.00     0.017 C 
ATOM      2  C   UNL     1      55.668 -32.251  -5.011  1.00  0.00     0.014 C 
ATOM      3  C   UNL     1      55.399 -30.086  -3.815  1.00  0.00     0.014 C 
ATOM      4  C   UNL     1      53.446 -31.724  -3.717  1.00  0.00     0.030 C 
ATOM      5  C   UNL     1      55.001 -33.563  -5.420  1.00  0.00     0.004 C 
ATOM      6  C   UNL     1      54.530 -28.868  -3.511  1.00  0.00     0.013 C 
ATOM      7  C   UNL     1      52.947 -30.725  -2.626  1.00  0.00    -0.063 C 
ATOM      8  C   UNL     1      53.745 -33.169  -3.167  1.00  0.00    -0.003 C 
ATOM      9  C   UNL     1      54.122 -34.175  -4.302  1.00  0.00    -0.011 C 
ATOM     10  C   UNL     1      53.186 -29.200  -2.754  1.00  0.00    -0.006 C 
ATOM     11  C   UNL     1      52.050 -31.160  -1.697  1.00  0.00    -0.027 C 
ATOM     12  C   UNL     1      54.761 -33.208  -2.001  1.00  0.00     0.008 C 
ATOM     13  C   UNL     1      52.861 -34.806  -4.933  1.00  0.00     0.008 C 
ATOM     14  C   UNL     1      52.035 -28.697  -3.689  1.00  0.00     0.017 C 
ATOM     15  C   UNL     1      53.159 -28.517  -1.287  1.00  0.00    -0.020 C 
ATOM     16  C   UNL     1      51.655 -30.402  -0.457  1.00  0.00     0.032 C 
ATOM     17  C   UNL     1      51.790 -28.864  -0.579  1.00  0.00     0.006 C 
ATOM     18  C   UNL     1      53.249 -26.971  -1.378  1.00  0.00     0.008 C 
ATOM     19  C   UNL     1      54.396 -29.055  -0.483  1.00  0.00     0.012 C 
ATOM     20  C   UNL     1      51.355 -28.049   0.741  1.00  0.00    -0.025 C 
ATOM     21  C   UNL     1      53.119 -26.281  -0.025  1.00  0.00     0.005 C 
ATOM     22  C   UNL     1      51.731 -26.500   0.629  1.00  0.00     0.003 C 
ATOM     23  C   UNL     1      51.960 -28.688   2.034  1.00  0.00     0.010 C 
ATOM     24  C   UNL     1      49.796 -28.166   0.836  1.00  0.00     0.012 C 
ATOM     25  C   UNL     1      51.578 -25.661   1.984  1.00  0.00    -0.006 C 
ATOM     26  C   UNL     1      51.754 -27.871   3.314  1.00  0.00     0.033 C 
ATOM     27  C   UNL     1      52.260 -26.428   3.161  1.00  0.00     0.120 C 
ATOM     28  C   UNL     1      52.271 -24.268   1.875  1.00  0.00     0.014 C 
ATOM     29  C   UNL     1      50.077 -25.346   2.292  1.00  0.00     0.014 C 
ENDROOT
BRANCH   1  30
ATOM     30  C   UNL     1      54.115 -30.567  -5.932  1.00  0.00     0.048 C 
ATOM     31  O   UNL     1      52.955 -30.824  -6.351  1.00  0.00    -0.550 OA
ATOM     32  O   UNL     1      54.971 -29.849  -6.759  1.00  0.00    -0.550 OA
ENDBRANCH   1  30
BRANCH  27  33
ATOM     33  O   UNL     1      52.142 -25.725   4.379  1.00  0.00    -0.393 OA
ATOM     34  H   UNL     1      51.587 -24.918   4.220  1.00  0.00     0.210 HD
ENDBRANCH  27  33
TORSDOF 2
ENDMDL
MODEL 9
REMARK VINA RESULT:    -8.100      2.155      7.958
REMARK INTER + INTRA:          -9.132
REMARK INTER:                  -8.807
REMARK INTRA:                  -0.325
REMARK UNBOUND:                -0.322
REMARK SMILES C[C@H]1[C@H]2C3=CC[C@H]4[C@@]5(C)CC[C@H](O)C(C)(C)[C@H]5CC[C@]4(C)[C@@]3(C)CC[C@@]2(C(=O)[O-])CC[C@@H]1C
REMARK SMILES IDX 26 1 30 2 25 3 3 4 31 5 24 6 4 7 2 8 32 9 22 10 5 11 1 12
REMARK SMILES IDX 33 13 23 14 20 15 6 16 7 17 19 18 21 19 8 20 18 21 17 22
REMARK SMILES IDX 10 23 9 24 14 25 11 26 12 27 15 28 16 29 27 30 28 31 29 32
REMARK SMILES IDX 13 33
REMARK H PARENT 13 34
REMARK Flexibility Score: inf
ROOT
ATOM      1  C   UNL     1      53.859 -29.703  -0.837  1.00  0.00     0.017 C 
ATOM      2  C   UNL     1      53.349 -29.227   0.556  1.00  0.00     0.014 C 
ATOM      3  C   UNL     1      52.633 -29.728  -1.775  1.00  0.00     0.014 C 
ATOM      4  C   UNL     1      54.510 -31.153  -0.798  1.00  0.00     0.030 C 
ATOM      5  C   UNL     1      54.331 -29.558   1.677  1.00  0.00     0.004 C 
ATOM      6  C   UNL     1      53.026 -30.014  -3.222  1.00  0.00     0.013 C 
ATOM      7  C   UNL     1      54.230 -32.008  -2.074  1.00  0.00    -0.063 C 
ATOM      8  C   UNL     1      54.212 -31.909   0.552  1.00  0.00    -0.003 C 
ATOM      9  C   UNL     1      54.619 -31.073   1.808  1.00  0.00    -0.011 C 
ATOM     10  C   UNL     1      53.846 -31.348  -3.422  1.00  0.00    -0.006 C 
ATOM     11  C   UNL     1      54.600 -33.319  -2.082  1.00  0.00    -0.027 C 
ATOM     12  C   UNL     1      52.771 -32.460   0.667  1.00  0.00     0.008 C 
ATOM     13  C   UNL     1      56.109 -31.281   2.160  1.00  0.00     0.008 C 
ATOM     14  C   UNL     1      55.212 -30.917  -4.055  1.00  0.00     0.017 C 
ATOM     15  C   UNL     1      53.027 -32.404  -4.334  1.00  0.00    -0.020 C 
ATOM     16  C   UNL     1      54.195 -34.324  -3.128  1.00  0.00     0.032 C 
ATOM     17  C   UNL     1      53.895 -33.712  -4.518  1.00  0.00     0.006 C 
ATOM     18  C   UNL     1      52.748 -31.836  -5.750  1.00  0.00     0.008 C 
ATOM     19  C   UNL     1      51.658 -32.696  -3.622  1.00  0.00     0.012 C 
ATOM     20  C   UNL     1      53.475 -34.785  -5.644  1.00  0.00    -0.025 C 
ATOM     21  C   UNL     1      52.072 -32.839  -6.678  1.00  0.00     0.005 C 
ATOM     22  C   UNL     1      52.963 -34.071  -6.979  1.00  0.00     0.003 C 
ATOM     23  C   UNL     1      52.417 -35.801  -5.101  1.00  0.00     0.010 C 
ATOM     24  C   UNL     1      54.774 -35.590  -5.990  1.00  0.00     0.012 C 
ATOM     25  C   UNL     1      52.282 -35.043  -8.054  1.00  0.00    -0.006 C 
ATOM     26  C   UNL     1      51.822 -36.738  -6.157  1.00  0.00     0.033 C 
ATOM     27  C   UNL     1      51.236 -35.964  -7.348  1.00  0.00     0.120 C 
ATOM     28  C   UNL     1      51.523 -34.238  -9.153  1.00  0.00     0.014 C 
ATOM     29  C   UNL     1      53.356 -35.876  -8.828  1.00  0.00     0.014 C 
ENDROOT
BRANCH   1  30
ATOM     30  C   UNL     1      54.860 -28.642  -1.306  1.00  0.00     0.048 C 
ATOM     31  O   UNL     1      56.091 -28.898  -1.386  1.00  0.00    -0.550 OA
ATOM     32  O   UNL     1      54.445 -27.332  -1.516  1.00  0.00    -0.550 OA
ENDBRANCH   1  30
BRANCH  27  33
ATOM     33  O   UNL     1      50.616 -36.843  -8.260  1.00  0.00    -0.393 OA
ATOM     34  H   UNL     1      49.983 -37.418  -7.757  1.00  0.00     0.210 HD
ENDBRANCH  27  33
TORSDOF 2
ENDMDL
