MODEL 1
REMARK VINA RESULT:    -3.135      0.000      0.000
REMARK INTER + INTRA:          -5.814
REMARK INTER:                  -4.784
REMARK INTRA:                  -1.030
REMARK UNBOUND:                -1.030
REMARK SMILES CCCCCCCCCCC(=O)[O-]
REMARK SMILES IDX 7 1 8 2 9 3 10 4 11 5 12 6 13 7 6 8 5 9 4 10 3 11 2 12 1 13
REMARK H PARENT
REMARK Flexibility Score: inf
ROOT
ATOM      1  C   UNL     1      64.635  30.937  59.282  1.00  0.00     0.000 C 
ENDROOT
BRANCH   1   2
ATOM      2  C   UNL     1      64.131  32.087  60.171  1.00  0.00     0.000 C 
BRANCH   2   3
ATOM      3  C   UNL     1      63.744  33.337  59.354  1.00  0.00     0.006 C 
BRANCH   3   4
ATOM      4  C   UNL     1      63.355  34.543  60.223  1.00  0.00     0.053 C 
BRANCH   4   5
ATOM      5  C   UNL     1      64.461  34.963  61.140  1.00  0.00     0.041 C 
ATOM      6  O   UNL     1      64.245  35.098  62.373  1.00  0.00    -0.550 OA
ATOM      7  O   UNL     1      65.725  35.229  60.630  1.00  0.00    -0.550 OA
ENDBRANCH   4   5
ENDBRANCH   3   4
ENDBRANCH   2   3
ENDBRANCH   1   2
BRANCH   1   8
ATOM      8  C   UNL     1      64.262  29.552  59.836  1.00  0.00     0.000 C 
BRANCH   8   9
ATOM      9  C   UNL     1      63.406  29.634  61.110  1.00  0.00    -0.000 C 
BRANCH   9  10
ATOM     10  C   UNL     1      62.091  28.864  60.937  1.00  0.00    -0.000 C 
BRANCH  10  11
ATOM     11  C   UNL     1      61.591  28.944  59.490  1.00  0.00    -0.000 C 
BRANCH  11  12
ATOM     12  C   UNL     1      60.468  29.977  59.352  1.00  0.00    -0.003 C 
ATOM     13  C   UNL     1      60.857  31.090  58.384  1.00  0.00     0.004 C 
ENDBRANCH  11  12
ENDBRANCH  10  11
ENDBRANCH   9  10
ENDBRANCH   8   9
ENDBRANCH   1   8
TORSDOF 9
ENDMDL
MODEL 2
REMARK VINA RESULT:    -3.077      3.729      6.187
REMARK INTER + INTRA:          -5.726
REMARK INTER:                  -5.208
REMARK INTRA:                  -0.518
REMARK UNBOUND:                -1.030
REMARK SMILES CCCCCCCCCCC(=O)[O-]
REMARK SMILES IDX 7 1 8 2 9 3 10 4 11 5 12 6 13 7 6 8 5 9 4 10 3 11 2 12 1 13
REMARK H PARENT
REMARK Flexibility Score: inf
ROOT
ATOM      1  C   UNL     1      64.081  31.667  59.951  1.00  0.00     0.000 C 
ENDROOT
BRANCH   1   2
ATOM      2  C   UNL     1      63.328  30.353  59.686  1.00  0.00     0.000 C 
BRANCH   2   3
ATOM      3  C   UNL     1      63.227  29.468  60.946  1.00  0.00     0.006 C 
BRANCH   3   4
ATOM      4  C   UNL     1      61.805  28.957  61.224  1.00  0.00     0.053 C 
BRANCH   4   5
ATOM      5  C   UNL     1      61.576  27.584  60.676  1.00  0.00     0.041 C 
ATOM      6  O   UNL     1      61.355  27.419  59.448  1.00  0.00    -0.550 OA
ATOM      7  O   UNL     1      61.583  26.485  61.527  1.00  0.00    -0.550 OA
ENDBRANCH   4   5
ENDBRANCH   3   4
ENDBRANCH   2   3
ENDBRANCH   1   2
BRANCH   1   8
ATOM      8  C   UNL     1      64.009  32.642  58.764  1.00  0.00     0.000 C 
BRANCH   8   9
ATOM      9  C   UNL     1      62.821  33.611  58.864  1.00  0.00    -0.000 C 
BRANCH   9  10
ATOM     10  C   UNL     1      63.281  35.000  59.323  1.00  0.00    -0.000 C 
BRANCH  10  11
ATOM     11  C   UNL     1      62.429  35.504  60.493  1.00  0.00    -0.000 C 
BRANCH  11  12
ATOM     12  C   UNL     1      63.309  35.881  61.691  1.00  0.00    -0.003 C 
ATOM     13  C   UNL     1      64.525  34.966  61.793  1.00  0.00     0.004 C 
ENDBRANCH  11  12
ENDBRANCH  10  11
ENDBRANCH   9  10
ENDBRANCH   8   9
ENDBRANCH   1   8
TORSDOF 9
ENDMDL
MODEL 3
REMARK VINA RESULT:    -3.010     11.623     12.846
REMARK INTER + INTRA:          -5.623
REMARK INTER:                  -4.411
REMARK INTRA:                  -1.212
REMARK UNBOUND:                -1.030
REMARK SMILES CCCCCCCCCCC(=O)[O-]
REMARK SMILES IDX 7 1 8 2 9 3 10 4 11 5 12 6 13 7 6 8 5 9 4 10 3 11 2 12 1 13
REMARK H PARENT
REMARK Flexibility Score: inf
ROOT
ATOM      1  C   UNL     1      59.133  28.647  50.632  1.00  0.00     0.000 C 
ENDROOT
BRANCH   1   2
ATOM      2  C   UNL     1      57.692  29.052  50.987  1.00  0.00     0.000 C 
BRANCH   2   3
ATOM      3  C   UNL     1      56.751  29.009  49.765  1.00  0.00     0.006 C 
BRANCH   3   4
ATOM      4  C   UNL     1      55.268  28.858  50.139  1.00  0.00     0.053 C 
BRANCH   4   5
ATOM      5  C   UNL     1      54.622  30.173  50.444  1.00  0.00     0.041 C 
ATOM      6  O   UNL     1      55.162  31.247  50.072  1.00  0.00    -0.550 OA
ATOM      7  O   UNL     1      53.434  30.214  51.163  1.00  0.00    -0.550 OA
ENDBRANCH   4   5
ENDBRANCH   3   4
ENDBRANCH   2   3
ENDBRANCH   1   2
BRANCH   1   8
ATOM      8  C   UNL     1      59.335  28.435  49.122  1.00  0.00     0.000 C 
BRANCH   8   9
ATOM      9  C   UNL     1      59.883  27.040  48.787  1.00  0.00    -0.000 C 
BRANCH   9  10
ATOM     10  C   UNL     1      59.664  26.069  49.954  1.00  0.00    -0.000 C 
BRANCH  10  11
ATOM     11  C   UNL     1      58.698  24.945  49.561  1.00  0.00    -0.000 C 
BRANCH  11  12
ATOM     12  C   UNL     1      57.241  25.387  49.733  1.00  0.00    -0.003 C 
ATOM     13  C   UNL     1      56.847  25.427  51.206  1.00  0.00     0.004 C 
ENDBRANCH  11  12
ENDBRANCH  10  11
ENDBRANCH   9  10
ENDBRANCH   8   9
ENDBRANCH   1   8
TORSDOF 9
ENDMDL
MODEL 4
REMARK VINA RESULT:    -2.978     12.561     13.906
REMARK INTER + INTRA:          -5.575
REMARK INTER:                  -4.563
REMARK INTRA:                  -1.013
REMARK UNBOUND:                -1.030
REMARK SMILES CCCCCCCCCCC(=O)[O-]
REMARK SMILES IDX 7 1 8 2 9 3 10 4 11 5 12 6 13 7 6 8 5 9 4 10 3 11 2 12 1 13
REMARK H PARENT
REMARK Flexibility Score: inf
ROOT
ATOM      1  C   UNL     1      60.511  27.174  50.002  1.00  0.00     0.000 C 
ENDROOT
BRANCH   1   2
ATOM      2  C   UNL     1      60.870  25.710  50.310  1.00  0.00     0.000 C 
BRANCH   2   3
ATOM      3  C   UNL     1      60.252  24.726  49.296  1.00  0.00     0.006 C 
BRANCH   3   4
ATOM      4  C   UNL     1      60.256  23.266  49.776  1.00  0.00     0.053 C 
BRANCH   4   5
ATOM      5  C   UNL     1      61.230  22.421  49.018  1.00  0.00     0.041 C 
ATOM      6  O   UNL     1      62.465  22.654  49.093  1.00  0.00    -0.550 OA
ATOM      7  O   UNL     1      60.773  21.390  48.207  1.00  0.00    -0.550 OA
ENDBRANCH   4   5
ENDBRANCH   3   4
ENDBRANCH   2   3
ENDBRANCH   1   2
BRANCH   1   8
ATOM      8  C   UNL     1      60.044  27.377  48.552  1.00  0.00     0.000 C 
BRANCH   8   9
ATOM      9  C   UNL     1      58.863  28.353  48.440  1.00  0.00    -0.000 C 
BRANCH   9  10
ATOM     10  C   UNL     1      58.131  28.485  49.781  1.00  0.00    -0.000 C 
BRANCH  10  11
ATOM     11  C   UNL     1      56.727  27.874  49.705  1.00  0.00    -0.000 C 
BRANCH  11  12
ATOM     12  C   UNL     1      56.448  26.985  50.922  1.00  0.00    -0.003 C 
ATOM     13  C   UNL     1      56.919  25.554  50.680  1.00  0.00     0.004 C 
ENDBRANCH  11  12
ENDBRANCH  10  11
ENDBRANCH   9  10
ENDBRANCH   8   9
ENDBRANCH   1   8
TORSDOF 9
ENDMDL
MODEL 5
REMARK VINA RESULT:    -2.927     11.770     13.710
REMARK INTER + INTRA:          -5.496
REMARK INTER:                  -4.167
REMARK INTRA:                  -1.329
REMARK UNBOUND:                -1.030
REMARK SMILES CCCCCCCCCCC(=O)[O-]
REMARK SMILES IDX 7 1 8 2 9 3 10 4 11 5 12 6 13 7 6 8 5 9 4 10 3 11 2 12 1 13
REMARK H PARENT
REMARK Flexibility Score: inf
ROOT
ATOM      1  C   UNL     1      57.463  25.554  51.137  1.00  0.00     0.000 C 
ENDROOT
BRANCH   1   2
ATOM      2  C   UNL     1      58.719  24.667  51.154  1.00  0.00     0.000 C 
BRANCH   2   3
ATOM      3  C   UNL     1      59.320  24.470  49.747  1.00  0.00     0.006 C 
BRANCH   3   4
ATOM      4  C   UNL     1      60.855  24.398  49.741  1.00  0.00     0.053 C 
BRANCH   4   5
ATOM      5  C   UNL     1      61.359  23.041  49.362  1.00  0.00     0.041 C 
ATOM      6  O   UNL     1      60.551  22.096  49.165  1.00  0.00    -0.550 OA
ATOM      7  O   UNL     1      62.725  22.813  49.250  1.00  0.00    -0.550 OA
ENDBRANCH   4   5
ENDBRANCH   3   4
ENDBRANCH   2   3
ENDBRANCH   1   2
BRANCH   1   8
ATOM      8  C   UNL     1      57.183  26.160  49.752  1.00  0.00     0.000 C 
BRANCH   8   9
ATOM      9  C   UNL     1      56.713  27.621  49.827  1.00  0.00    -0.000 C 
BRANCH   9  10
ATOM     10  C   UNL     1      57.887  28.587  49.626  1.00  0.00    -0.000 C 
BRANCH  10  11
ATOM     11  C   UNL     1      58.941  27.985  48.690  1.00  0.00    -0.000 C 
BRANCH  11  12
ATOM     12  C   UNL     1      60.348  28.130  49.280  1.00  0.00    -0.003 C 
ATOM     13  C   UNL     1      60.310  28.126  50.805  1.00  0.00     0.004 C 
ENDBRANCH  11  12
ENDBRANCH  10  11
ENDBRANCH   9  10
ENDBRANCH   8   9
ENDBRANCH   1   8
TORSDOF 9
ENDMDL
MODEL 6
REMARK VINA RESULT:    -2.912     15.764     17.676
REMARK INTER + INTRA:          -5.473
REMARK INTER:                  -4.308
REMARK INTRA:                  -1.165
REMARK UNBOUND:                -1.030
REMARK SMILES CCCCCCCCCCC(=O)[O-]
REMARK SMILES IDX 7 1 8 2 9 3 10 4 11 5 12 6 13 7 6 8 5 9 4 10 3 11 2 12 1 13
REMARK H PARENT
REMARK Flexibility Score: inf
ROOT
ATOM      1  C   UNL     1      57.557  17.163  49.524  1.00  0.00     0.000 C 
ENDROOT
BRANCH   1   2
ATOM      2  C   UNL     1      56.465  18.151  49.968  1.00  0.00     0.000 C 
BRANCH   2   3
ATOM      3  C   UNL     1      56.784  18.810  51.327  1.00  0.00     0.006 C 
BRANCH   3   4
ATOM      4  C   UNL     1      55.748  18.498  52.418  1.00  0.00     0.053 C 
BRANCH   4   5
ATOM      5  C   UNL     1      54.713  19.572  52.543  1.00  0.00     0.041 C 
ATOM      6  O   UNL     1      53.575  19.419  52.028  1.00  0.00    -0.550 OA
ATOM      7  O   UNL     1      55.015  20.754  53.207  1.00  0.00    -0.550 OA
ENDBRANCH   4   5
ENDBRANCH   3   4
ENDBRANCH   2   3
ENDBRANCH   1   2
BRANCH   1   8
ATOM      8  C   UNL     1      58.961  17.788  49.535  1.00  0.00     0.000 C 
BRANCH   8   9
ATOM      9  C   UNL     1      59.895  17.130  50.563  1.00  0.00    -0.000 C 
BRANCH   9  10
ATOM     10  C   UNL     1      59.206  15.945  51.251  1.00  0.00    -0.000 C 
BRANCH  10  11
ATOM     11  C   UNL     1      59.081  16.181  52.760  1.00  0.00    -0.000 C 
BRANCH  11  12
ATOM     12  C   UNL     1      59.837  17.447  53.183  1.00  0.00    -0.003 C 
ATOM     13  C   UNL     1      59.061  18.225  54.241  1.00  0.00     0.004 C 
ENDBRANCH  11  12
ENDBRANCH  10  11
ENDBRANCH   9  10
ENDBRANCH   8   9
ENDBRANCH   1   8
TORSDOF 9
ENDMDL
MODEL 7
REMARK VINA RESULT:    -2.900     11.857     12.615
REMARK INTER + INTRA:          -5.456
REMARK INTER:                  -4.804
REMARK INTRA:                  -0.652
REMARK UNBOUND:                -1.030
REMARK SMILES CCCCCCCCCCC(=O)[O-]
REMARK SMILES IDX 7 1 8 2 9 3 10 4 11 5 12 6 13 7 6 8 5 9 4 10 3 11 2 12 1 13
REMARK H PARENT
REMARK Flexibility Score: inf
ROOT
ATOM      1  C   UNL     1      61.699  26.232  49.871  1.00  0.00     0.000 C 
ENDROOT
BRANCH   1   2
ATOM      2  C   UNL     1      63.022  26.014  49.118  1.00  0.00     0.000 C 
BRANCH   2   3
ATOM      3  C   UNL     1      63.346  27.171  48.150  1.00  0.00     0.006 C 
BRANCH   3   4
ATOM      4  C   UNL     1      63.635  28.503  48.860  1.00  0.00     0.053 C 
BRANCH   4   5
ATOM      5  C   UNL     1      64.342  29.479  47.973  1.00  0.00     0.041 C 
ATOM      6  O   UNL     1      64.939  29.079  46.939  1.00  0.00    -0.550 OA
ATOM      7  O   UNL     1      64.362  30.829  48.301  1.00  0.00    -0.550 OA
ENDBRANCH   4   5
ENDBRANCH   3   4
ENDBRANCH   2   3
ENDBRANCH   1   2
BRANCH   1   8
ATOM      8  C   UNL     1      60.583  25.288  49.394  1.00  0.00     0.000 C 
BRANCH   8   9
ATOM      9  C   UNL     1      59.348  26.043  48.879  1.00  0.00    -0.000 C 
BRANCH   9  10
ATOM     10  C   UNL     1      59.677  27.518  48.615  1.00  0.00    -0.000 C 
BRANCH  10  11
ATOM     11  C   UNL     1      58.433  28.398  48.783  1.00  0.00    -0.000 C 
BRANCH  11  12
ATOM     12  C   UNL     1      57.453  27.779  49.786  1.00  0.00    -0.003 C 
ATOM     13  C   UNL     1      56.212  28.649  49.954  1.00  0.00     0.004 C 
ENDBRANCH  11  12
ENDBRANCH  10  11
ENDBRANCH   9  10
ENDBRANCH   8   9
ENDBRANCH   1   8
TORSDOF 9
ENDMDL
MODEL 8
REMARK VINA RESULT:    -2.845      7.478      9.065
REMARK INTER + INTRA:          -5.371
REMARK INTER:                  -3.976
REMARK INTRA:                  -1.395
REMARK UNBOUND:                -1.030
REMARK SMILES CCCCCCCCCCC(=O)[O-]
REMARK SMILES IDX 7 1 8 2 9 3 10 4 11 5 12 6 13 7 6 8 5 9 4 10 3 11 2 12 1 13
REMARK H PARENT
REMARK Flexibility Score: inf
ROOT
ATOM      1  C   UNL     1      72.758  30.535  60.094  1.00  0.00     0.000 C 
ENDROOT
BRANCH   1   2
ATOM      2  C   UNL     1      71.537  31.471  60.060  1.00  0.00     0.000 C 
BRANCH   2   3
ATOM      3  C   UNL     1      70.843  31.484  58.683  1.00  0.00     0.006 C 
BRANCH   3   4
ATOM      4  C   UNL     1      71.602  30.694  57.605  1.00  0.00     0.053 C 
BRANCH   4   5
ATOM      5  C   UNL     1      70.712  29.750  56.860  1.00  0.00     0.041 C 
ATOM      6  O   UNL     1      71.083  28.567  56.643  1.00  0.00    -0.550 OA
ATOM      7  O   UNL     1      69.483  30.185  56.381  1.00  0.00    -0.550 OA
ENDBRANCH   4   5
ENDBRANCH   3   4
ENDBRANCH   2   3
ENDBRANCH   1   2
BRANCH   1   8
ATOM      8  C   UNL     1      72.924  29.825  61.447  1.00  0.00     0.000 C 
BRANCH   8   9
ATOM      9  C   UNL     1      72.762  28.301  61.341  1.00  0.00    -0.000 C 
BRANCH   9  10
ATOM     10  C   UNL     1      72.412  27.884  59.907  1.00  0.00    -0.000 C 
BRANCH  10  11
ATOM     11  C   UNL     1      71.049  27.184  59.854  1.00  0.00    -0.000 C 
BRANCH  11  12
ATOM     12  C   UNL     1      69.996  27.971  60.643  1.00  0.00    -0.003 C 
ATOM     13  C   UNL     1      68.879  28.466  59.730  1.00  0.00     0.004 C 
ENDBRANCH  11  12
ENDBRANCH  10  11
ENDBRANCH   9  10
ENDBRANCH   8   9
ENDBRANCH   1   8
TORSDOF 9
ENDMDL
MODEL 9
REMARK VINA RESULT:    -2.832     15.950     17.761
REMARK INTER + INTRA:          -5.352
REMARK INTER:                  -4.045
REMARK INTRA:                  -1.307
REMARK UNBOUND:                -1.030
REMARK SMILES CCCCCCCCCCC(=O)[O-]
REMARK SMILES IDX 7 1 8 2 9 3 10 4 11 5 12 6 13 7 6 8 5 9 4 10 3 11 2 12 1 13
REMARK H PARENT
REMARK Flexibility Score: inf
ROOT
ATOM      1  C   UNL     1      57.219  18.072  49.784  1.00  0.00     0.000 C 
ENDROOT
BRANCH   1   2
ATOM      2  C   UNL     1      55.866  18.177  50.508  1.00  0.00     0.000 C 
BRANCH   2   3
ATOM      3  C   UNL     1      55.956  19.001  51.809  1.00  0.00     0.006 C 
BRANCH   3   4
ATOM      4  C   UNL     1      55.969  18.140  53.081  1.00  0.00     0.053 C 
BRANCH   4   5
ATOM      5  C   UNL     1      54.641  18.124  53.770  1.00  0.00     0.041 C 
ATOM      6  O   UNL     1      54.462  17.402  54.786  1.00  0.00    -0.550 OA
ATOM      7  O   UNL     1      53.591  18.888  53.275  1.00  0.00    -0.550 OA
ENDBRANCH   4   5
ENDBRANCH   3   4
ENDBRANCH   2   3
ENDBRANCH   1   2
BRANCH   1   8
ATOM      8  C   UNL     1      57.747  16.630  49.719  1.00  0.00     0.000 C 
BRANCH   8   9
ATOM      9  C   UNL     1      58.557  16.239  50.965  1.00  0.00    -0.000 C 
BRANCH   9  10
ATOM     10  C   UNL     1      59.741  17.192  51.171  1.00  0.00    -0.000 C 
BRANCH  10  11
ATOM     11  C   UNL     1      59.772  17.728  52.607  1.00  0.00    -0.000 C 
BRANCH  11  12
ATOM     12  C   UNL     1      59.558  19.246  52.632  1.00  0.00    -0.003 C 
ATOM     13  C   UNL     1      60.033  19.892  51.334  1.00  0.00     0.004 C 
ENDBRANCH  11  12
ENDBRANCH  10  11
ENDBRANCH   9  10
ENDBRANCH   8   9
ENDBRANCH   1   8
TORSDOF 9
ENDMDL
