MODEL 1
REMARK VINA RESULT:    -3.383      0.000      0.000
REMARK INTER + INTRA:          -6.018
REMARK INTER:                  -5.361
REMARK INTRA:                  -0.657
REMARK UNBOUND:                -0.657
REMARK SMILES C=CCCCCCCCCCCC
REMARK SMILES IDX 7 1 8 2 9 3 10 4 11 5 12 6 13 7 6 8 5 9 4 10 3 11 2 12 1 13
REMARK H PARENT
REMARK Flexibility Score: inf
ROOT
ATOM      1  C   UNL     1     -13.765  -2.440  17.943  1.00  0.00     0.000 C 
ENDROOT
BRANCH   1   2
ATOM      2  C   UNL     1     -15.090  -2.088  18.638  1.00  0.00     0.000 C 
BRANCH   2   3
ATOM      3  C   UNL     1     -15.000  -2.191  20.168  1.00  0.00    -0.000 C 
BRANCH   3   4
ATOM      4  C   UNL     1     -13.540  -2.152  20.637  1.00  0.00    -0.000 C 
BRANCH   4   5
ATOM      5  C   UNL     1     -13.442  -1.676  22.094  1.00  0.00    -0.000 C 
BRANCH   5   6
ATOM      6  C   UNL     1     -14.807  -1.645  22.798  1.00  0.00    -0.003 C 
ATOM      7  C   UNL     1     -14.975  -0.429  23.709  1.00  0.00     0.004 C 
ENDBRANCH   5   6
ENDBRANCH   4   5
ENDBRANCH   3   4
ENDBRANCH   2   3
ENDBRANCH   1   2
BRANCH   1   8
ATOM      8  C   UNL     1     -13.915  -2.582  16.419  1.00  0.00     0.000 C 
BRANCH   8   9
ATOM      9  C   UNL     1     -15.381  -2.523  15.961  1.00  0.00     0.000 C 
BRANCH   9  10
ATOM     10  C   UNL     1     -15.910  -3.889  15.494  1.00  0.00     0.004 C 
BRANCH  10  11
ATOM     11  C   UNL     1     -14.819  -4.970  15.520  1.00  0.00     0.027 C 
BRANCH  11  12
ATOM     12  C   UNL     1     -15.288  -6.273  14.929  1.00  0.00    -0.035 C 
ATOM     13  C   UNL     1     -14.705  -7.436  15.237  1.00  0.00     0.004 C 
ENDBRANCH  11  12
ENDBRANCH  10  11
ENDBRANCH   9  10
ENDBRANCH   8   9
ENDBRANCH   1   8
TORSDOF 10
ENDMDL
MODEL 2
REMARK VINA RESULT:    -3.357      0.942      6.844
REMARK INTER + INTRA:          -5.976
REMARK INTER:                  -5.728
REMARK INTRA:                  -0.248
REMARK UNBOUND:                -0.657
REMARK SMILES C=CCCCCCCCCCCC
REMARK SMILES IDX 7 1 8 2 9 3 10 4 11 5 12 6 13 7 6 8 5 9 4 10 3 11 2 12 1 13
REMARK H PARENT
REMARK Flexibility Score: inf
ROOT
ATOM      1  C   UNL     1     -15.505  -1.058  17.845  1.00  0.00     0.000 C 
ENDROOT
BRANCH   1   2
ATOM      2  C   UNL     1     -16.386  -1.308  16.611  1.00  0.00     0.000 C 
BRANCH   2   3
ATOM      3  C   UNL     1     -15.872  -2.466  15.743  1.00  0.00    -0.000 C 
BRANCH   3   4
ATOM      4  C   UNL     1     -14.403  -2.778  16.055  1.00  0.00    -0.000 C 
BRANCH   4   5
ATOM      5  C   UNL     1     -14.101  -4.270  15.849  1.00  0.00    -0.000 C 
BRANCH   5   6
ATOM      6  C   UNL     1     -15.327  -5.060  15.367  1.00  0.00    -0.003 C 
ATOM      7  C   UNL     1     -15.014  -6.531  15.096  1.00  0.00     0.004 C 
ENDBRANCH   5   6
ENDBRANCH   4   5
ENDBRANCH   3   4
ENDBRANCH   2   3
ENDBRANCH   1   2
BRANCH   1   8
ATOM      8  C   UNL     1     -15.531  -2.232  18.839  1.00  0.00     0.000 C 
BRANCH   8   9
ATOM      9  C   UNL     1     -14.308  -2.247  19.770  1.00  0.00     0.000 C 
BRANCH   9  10
ATOM     10  C   UNL     1     -14.697  -2.353  21.253  1.00  0.00     0.004 C 
BRANCH  10  11
ATOM     11  C   UNL     1     -13.530  -1.992  22.184  1.00  0.00     0.027 C 
BRANCH  11  12
ATOM     12  C   UNL     1     -13.877  -0.876  23.133  1.00  0.00    -0.035 C 
ATOM     13  C   UNL     1     -15.104  -0.745  23.649  1.00  0.00     0.004 C 
ENDBRANCH  11  12
ENDBRANCH  10  11
ENDBRANCH   9  10
ENDBRANCH   8   9
ENDBRANCH   1   8
TORSDOF 10
ENDMDL
MODEL 3
REMARK VINA RESULT:    -3.272      0.372      7.066
REMARK INTER + INTRA:          -5.842
REMARK INTER:                  -5.224
REMARK INTRA:                  -0.619
REMARK UNBOUND:                -0.657
REMARK SMILES C=CCCCCCCCCCCC
REMARK SMILES IDX 7 1 8 2 9 3 10 4 11 5 12 6 13 7 6 8 5 9 4 10 3 11 2 12 1 13
REMARK H PARENT
REMARK Flexibility Score: inf
ROOT
ATOM      1  C   UNL     1     -13.688  -2.334  18.215  1.00  0.00     0.000 C 
ENDROOT
BRANCH   1   2
ATOM      2  C   UNL     1     -13.673  -2.807  16.752  1.00  0.00     0.000 C 
BRANCH   2   3
ATOM      3  C   UNL     1     -15.015  -2.571  16.042  1.00  0.00    -0.000 C 
BRANCH   3   4
ATOM      4  C   UNL     1     -15.678  -3.901  15.664  1.00  0.00    -0.000 C 
BRANCH   4   5
ATOM      5  C   UNL     1     -14.635  -5.024  15.555  1.00  0.00    -0.000 C 
BRANCH   5   6
ATOM      6  C   UNL     1     -15.194  -6.284  14.876  1.00  0.00    -0.003 C 
ATOM      7  C   UNL     1     -14.660  -7.575  15.496  1.00  0.00     0.004 C 
ENDBRANCH   5   6
ENDBRANCH   4   5
ENDBRANCH   3   4
ENDBRANCH   2   3
ENDBRANCH   1   2
BRANCH   1   8
ATOM      8  C   UNL     1     -15.111  -2.220  18.786  1.00  0.00     0.000 C 
BRANCH   8   9
ATOM      9  C   UNL     1     -15.131  -2.182  20.322  1.00  0.00     0.000 C 
BRANCH   9  10
ATOM     10  C   UNL     1     -13.727  -2.308  20.935  1.00  0.00     0.004 C 
BRANCH  10  11
ATOM     11  C   UNL     1     -13.442  -1.200  21.960  1.00  0.00     0.027 C 
BRANCH  11  12
ATOM     12  C   UNL     1     -14.191  -1.406  23.250  1.00  0.00    -0.035 C 
ATOM     13  C   UNL     1     -15.067  -0.505  23.707  1.00  0.00     0.004 C 
ENDBRANCH  11  12
ENDBRANCH  10  11
ENDBRANCH   9  10
ENDBRANCH   8   9
ENDBRANCH   1   8
TORSDOF 10
ENDMDL
MODEL 4
REMARK VINA RESULT:    -3.089      2.004      6.198
REMARK INTER + INTRA:          -5.552
REMARK INTER:                  -4.884
REMARK INTRA:                  -0.668
REMARK UNBOUND:                -0.657
REMARK SMILES C=CCCCCCCCCCCC
REMARK SMILES IDX 7 1 8 2 9 3 10 4 11 5 12 6 13 7 6 8 5 9 4 10 3 11 2 12 1 13
REMARK H PARENT
REMARK Flexibility Score: inf
ROOT
ATOM      1  C   UNL     1     -13.693  -2.536  17.606  1.00  0.00     0.000 C 
ENDROOT
BRANCH   1   2
ATOM      2  C   UNL     1     -15.058  -3.064  17.136  1.00  0.00     0.000 C 
BRANCH   2   3
ATOM      3  C   UNL     1     -15.448  -2.539  15.747  1.00  0.00    -0.000 C 
BRANCH   3   4
ATOM      4  C   UNL     1     -16.611  -1.543  15.842  1.00  0.00    -0.000 C 
BRANCH   4   5
ATOM      5  C   UNL     1     -16.627  -0.845  17.211  1.00  0.00    -0.000 C 
BRANCH   5   6
ATOM      6  C   UNL     1     -16.938   0.656  17.105  1.00  0.00    -0.003 C 
ATOM      7  C   UNL     1     -15.750   1.535  17.495  1.00  0.00     0.004 C 
ENDBRANCH   5   6
ENDBRANCH   4   5
ENDBRANCH   3   4
ENDBRANCH   2   3
ENDBRANCH   1   2
BRANCH   1   8
ATOM      8  C   UNL     1     -13.618  -2.363  19.132  1.00  0.00     0.000 C 
BRANCH   8   9
ATOM      9  C   UNL     1     -15.005  -2.231  19.782  1.00  0.00     0.000 C 
BRANCH   9  10
ATOM     10  C   UNL     1     -14.962  -2.411  21.308  1.00  0.00     0.004 C 
BRANCH  10  11
ATOM     11  C   UNL     1     -13.661  -1.868  21.918  1.00  0.00     0.027 C 
BRANCH  11  12
ATOM     12  C   UNL     1     -13.891  -1.165  23.229  1.00  0.00    -0.035 C 
ATOM     13  C   UNL     1     -15.078  -0.641  23.548  1.00  0.00     0.004 C 
ENDBRANCH  11  12
ENDBRANCH  10  11
ENDBRANCH   9  10
ENDBRANCH   8   9
ENDBRANCH   1   8
TORSDOF 10
ENDMDL
MODEL 5
REMARK VINA RESULT:    -3.032      1.973      3.646
REMARK INTER + INTRA:          -5.462
REMARK INTER:                  -4.414
REMARK INTRA:                  -1.048
REMARK UNBOUND:                -0.657
REMARK SMILES C=CCCCCCCCCCCC
REMARK SMILES IDX 7 1 8 2 9 3 10 4 11 5 12 6 13 7 6 8 5 9 4 10 3 11 2 12 1 13
REMARK H PARENT
REMARK Flexibility Score: inf
ROOT
ATOM      1  C   UNL     1     -13.770  -2.842  17.911  1.00  0.00     0.000 C 
ENDROOT
BRANCH   1   2
ATOM      2  C   UNL     1     -14.046  -1.934  19.120  1.00  0.00     0.000 C 
BRANCH   2   3
ATOM      3  C   UNL     1     -15.282  -2.374  19.919  1.00  0.00    -0.000 C 
BRANCH   3   4
ATOM      4  C   UNL     1     -14.945  -2.536  21.407  1.00  0.00    -0.000 C 
BRANCH   4   5
ATOM      5  C   UNL     1     -13.602  -1.868  21.743  1.00  0.00    -0.000 C 
BRANCH   5   6
ATOM      6  C   UNL     1     -13.600  -1.213  23.133  1.00  0.00    -0.003 C 
ATOM      7  C   UNL     1     -14.972  -0.671  23.533  1.00  0.00     0.004 C 
ENDBRANCH   5   6
ENDBRANCH   4   5
ENDBRANCH   3   4
ENDBRANCH   2   3
ENDBRANCH   1   2
BRANCH   1   8
ATOM      8  C   UNL     1     -14.127  -2.172  16.573  1.00  0.00     0.000 C 
BRANCH   8   9
ATOM      9  C   UNL     1     -15.455  -2.683  15.991  1.00  0.00     0.000 C 
BRANCH   9  10
ATOM     10  C   UNL     1     -16.492  -1.562  15.814  1.00  0.00     0.004 C 
BRANCH  10  11
ATOM     11  C   UNL     1     -16.878  -0.915  17.153  1.00  0.00     0.027 C 
BRANCH  11  12
ATOM     12  C   UNL     1     -16.873   0.589  17.086  1.00  0.00    -0.035 C 
ATOM     13  C   UNL     1     -15.810   1.308  17.461  1.00  0.00     0.004 C 
ENDBRANCH  11  12
ENDBRANCH  10  11
ENDBRANCH   9  10
ENDBRANCH   8   9
ENDBRANCH   1   8
TORSDOF 10
ENDMDL
MODEL 6
REMARK VINA RESULT:    -2.346      2.117      5.967
REMARK INTER + INTRA:          -4.375
REMARK INTER:                  -3.651
REMARK INTRA:                  -0.725
REMARK UNBOUND:                -0.657
REMARK SMILES C=CCCCCCCCCCCC
REMARK SMILES IDX 7 1 8 2 9 3 10 4 11 5 12 6 13 7 6 8 5 9 4 10 3 11 2 12 1 13
REMARK H PARENT
REMARK Flexibility Score: inf
ROOT
ATOM      1  C   UNL     1     -14.081  -2.291  16.687  1.00  0.00     0.000 C 
ENDROOT
BRANCH   1   2
ATOM      2  C   UNL     1     -15.505  -2.702  16.279  1.00  0.00     0.000 C 
BRANCH   2   3
ATOM      3  C   UNL     1     -16.373  -1.502  15.875  1.00  0.00    -0.000 C 
BRANCH   3   4
ATOM      4  C   UNL     1     -17.071  -0.892  17.098  1.00  0.00    -0.000 C 
BRANCH   4   5
ATOM      5  C   UNL     1     -16.903   0.635  17.123  1.00  0.00    -0.000 C 
BRANCH   5   6
ATOM      6  C   UNL     1     -15.486   1.066  17.529  1.00  0.00    -0.003 C 
ATOM      7  C   UNL     1     -15.409   2.538  17.933  1.00  0.00     0.004 C 
ENDBRANCH   5   6
ENDBRANCH   4   5
ENDBRANCH   3   4
ENDBRANCH   2   3
ENDBRANCH   1   2
BRANCH   1   8
ATOM      8  C   UNL     1     -13.749  -2.669  18.140  1.00  0.00     0.000 C 
BRANCH   8   9
ATOM      9  C   UNL     1     -14.656  -1.960  19.158  1.00  0.00     0.000 C 
BRANCH   9  10
ATOM     10  C   UNL     1     -14.419  -2.444  20.599  1.00  0.00     0.004 C 
BRANCH  10  11
ATOM     11  C   UNL     1     -13.402  -1.566  21.343  1.00  0.00     0.027 C 
BRANCH  11  12
ATOM     12  C   UNL     1     -13.698  -1.468  22.816  1.00  0.00    -0.035 C 
ATOM     13  C   UNL     1     -14.794  -0.854  23.275  1.00  0.00     0.004 C 
ENDBRANCH  11  12
ENDBRANCH  10  11
ENDBRANCH   9  10
ENDBRANCH   8   9
ENDBRANCH   1   8
TORSDOF 10
ENDMDL
MODEL 7
REMARK VINA RESULT:    -1.446      1.624      2.174
REMARK INTER + INTRA:          -2.949
REMARK INTER:                  -2.358
REMARK INTRA:                  -0.590
REMARK UNBOUND:                -0.657
REMARK SMILES C=CCCCCCCCCCCC
REMARK SMILES IDX 7 1 8 2 9 3 10 4 11 5 12 6 13 7 6 8 5 9 4 10 3 11 2 12 1 13
REMARK H PARENT
REMARK Flexibility Score: inf
ROOT
ATOM      1  C   UNL     1     -15.468  -0.825  18.758  1.00  0.00     0.000 C 
ENDROOT
BRANCH   1   2
ATOM      2  C   UNL     1     -14.906  -2.236  18.998  1.00  0.00     0.000 C 
BRANCH   2   3
ATOM      3  C   UNL     1     -13.765  -2.251  20.026  1.00  0.00    -0.000 C 
BRANCH   3   4
ATOM      4  C   UNL     1     -14.314  -2.330  21.455  1.00  0.00    -0.000 C 
BRANCH   4   5
ATOM      5  C   UNL     1     -13.631  -1.298  22.365  1.00  0.00    -0.000 C 
BRANCH   5   6
ATOM      6  C   UNL     1     -14.331  -1.153  23.725  1.00  0.00    -0.003 C 
ATOM      7  C   UNL     1     -15.266   0.055  23.784  1.00  0.00     0.004 C 
ENDBRANCH   5   6
ENDBRANCH   4   5
ENDBRANCH   3   4
ENDBRANCH   2   3
ENDBRANCH   1   2
BRANCH   1   8
ATOM      8  C   UNL     1     -15.727  -0.537  17.270  1.00  0.00     0.000 C 
BRANCH   8   9
ATOM      9  C   UNL     1     -16.697  -1.543  16.632  1.00  0.00     0.000 C 
BRANCH   9  10
ATOM     10  C   UNL     1     -16.029  -2.397  15.541  1.00  0.00     0.004 C 
BRANCH  10  11
ATOM     11  C   UNL     1     -15.340  -3.641  16.121  1.00  0.00     0.027 C 
BRANCH  11  12
ATOM     12  C   UNL     1     -13.881  -3.711  15.756  1.00  0.00    -0.035 C 
ATOM     13  C   UNL     1     -12.994  -2.830  16.229  1.00  0.00     0.004 C 
ENDBRANCH  11  12
ENDBRANCH  10  11
ENDBRANCH   9  10
ENDBRANCH   8   9
ENDBRANCH   1   8
TORSDOF 10
ENDMDL
MODEL 8
REMARK VINA RESULT:    -1.097      1.928      6.898
REMARK INTER + INTRA:          -2.395
REMARK INTER:                  -1.533
REMARK INTRA:                  -0.862
REMARK UNBOUND:                -0.657
REMARK SMILES C=CCCCCCCCCCCC
REMARK SMILES IDX 7 1 8 2 9 3 10 4 11 5 12 6 13 7 6 8 5 9 4 10 3 11 2 12 1 13
REMARK H PARENT
REMARK Flexibility Score: inf
ROOT
ATOM      1  C   UNL     1     -14.813  -1.754  19.646  1.00  0.00     0.000 C 
ENDROOT
BRANCH   1   2
ATOM      2  C   UNL     1     -15.719  -2.224  18.497  1.00  0.00     0.000 C 
BRANCH   2   3
ATOM      3  C   UNL     1     -16.007  -1.110  17.479  1.00  0.00    -0.000 C 
BRANCH   3   4
ATOM      4  C   UNL     1     -16.040  -1.667  16.050  1.00  0.00    -0.000 C 
BRANCH   4   5
ATOM      5  C   UNL     1     -15.117  -2.888  15.914  1.00  0.00    -0.000 C 
BRANCH   5   6
ATOM      6  C   UNL     1     -13.651  -2.496  15.672  1.00  0.00    -0.003 C 
ATOM      7  C   UNL     1     -12.671  -3.336  16.490  1.00  0.00     0.004 C 
ENDBRANCH   5   6
ENDBRANCH   4   5
ENDBRANCH   3   4
ENDBRANCH   2   3
ENDBRANCH   1   2
BRANCH   1   8
ATOM      8  C   UNL     1     -13.615  -2.691  19.877  1.00  0.00     0.000 C 
BRANCH   8   9
ATOM      9  C   UNL     1     -13.116  -2.667  21.330  1.00  0.00     0.000 C 
BRANCH   9  10
ATOM     10  C   UNL     1     -13.066  -1.245  21.914  1.00  0.00     0.004 C 
BRANCH  10  11
ATOM     11  C   UNL     1     -13.528  -1.205  23.378  1.00  0.00     0.027 C 
BRANCH  11  12
ATOM     12  C   UNL     1     -15.010  -0.974  23.506  1.00  0.00    -0.035 C 
ATOM     13  C   UNL     1     -15.509   0.208  23.885  1.00  0.00     0.004 C 
ENDBRANCH  11  12
ENDBRANCH  10  11
ENDBRANCH   9  10
ENDBRANCH   8   9
ENDBRANCH   1   8
TORSDOF 10
ENDMDL
