MODEL 1
REMARK VINA RESULT:    -1.648      0.000      0.000
REMARK INTER + INTRA:          -7.382
REMARK INTER:                  -4.345
REMARK INTRA:                  -3.037
REMARK UNBOUND:                -3.037
REMARK SMILES CCCCCCCCCCCCCCCCCCCCCCCCCCCCCC(=O)[O-]
REMARK SMILES IDX 16 1 17 2 18 3 19 4 20 5 21 6 22 7 23 8 24 9 25 10 26 11
REMARK SMILES IDX 27 12 28 13 29 14 30 15 31 16 32 17 15 18 14 19 13 20 12 21
REMARK SMILES IDX 11 22 10 23 9 24 8 25 7 26 6 27 5 28 4 29 3 30 2 31 1 32
REMARK H PARENT
REMARK Flexibility Score: inf
ROOT
ATOM      1  C   UNL     1       4.813  -6.281  -9.584  1.00  0.00     0.000 C 
ENDROOT
BRANCH   1   2
ATOM      2  C   UNL     1       4.695  -7.694  -8.981  1.00  0.00     0.000 C 
BRANCH   2   3
ATOM      3  C   UNL     1       5.379  -8.810  -9.791  1.00  0.00     0.000 C 
BRANCH   3   4
ATOM      4  C   UNL     1       6.447  -9.566  -8.987  1.00  0.00     0.000 C 
BRANCH   4   5
ATOM      5  C   UNL     1       7.282  -8.601  -8.137  1.00  0.00     0.000 C 
BRANCH   5   6
ATOM      6  C   UNL     1       7.085  -8.873  -6.639  1.00  0.00     0.000 C 
BRANCH   6   7
ATOM      7  C   UNL     1       8.291  -8.437  -5.789  1.00  0.00     0.000 C 
BRANCH   7   8
ATOM      8  C   UNL     1       8.249  -6.976  -5.295  1.00  0.00     0.000 C 
BRANCH   8   9
ATOM      9  C   UNL     1       6.955  -6.209  -5.621  1.00  0.00     0.000 C 
BRANCH   9  10
ATOM     10  C   UNL     1       7.112  -5.254  -6.816  1.00  0.00     0.000 C 
BRANCH  10  11
ATOM     11  C   UNL     1       8.582  -4.930  -7.128  1.00  0.00     0.000 C 
BRANCH  11  12
ATOM     12  C   UNL     1       8.982  -5.298  -8.565  1.00  0.00     0.000 C 
BRANCH  12  13
ATOM     13  C   UNL     1       8.544  -4.204  -9.552  1.00  0.00     0.006 C 
BRANCH  13  14
ATOM     14  C   UNL     1       8.974  -2.804  -9.097  1.00  0.00     0.053 C 
BRANCH  14  15
ATOM     15  C   UNL     1       7.824  -1.845  -9.081  1.00  0.00     0.041 C 
ATOM     16  O   UNL     1       6.738  -2.165  -8.528  1.00  0.00    -0.550 OA
ATOM     17  O   UNL     1       7.955  -0.590  -9.665  1.00  0.00    -0.550 OA
ENDBRANCH  14  15
ENDBRANCH  13  14
ENDBRANCH  12  13
ENDBRANCH  11  12
ENDBRANCH  10  11
ENDBRANCH   9  10
ENDBRANCH   8   9
ENDBRANCH   7   8
ENDBRANCH   6   7
ENDBRANCH   5   6
ENDBRANCH   4   5
ENDBRANCH   3   4
ENDBRANCH   2   3
ENDBRANCH   1   2
BRANCH   1  18
ATOM     18  C   UNL     1       3.488  -5.657 -10.060  1.00  0.00     0.000 C 
BRANCH  18  19
ATOM     19  C   UNL     1       3.033  -4.438  -9.231  1.00  0.00     0.000 C 
BRANCH  19  20
ATOM     20  C   UNL     1       3.944  -4.168  -8.024  1.00  0.00     0.000 C 
BRANCH  20  21
ATOM     21  C   UNL     1       3.218  -4.461  -6.705  1.00  0.00     0.000 C 
BRANCH  21  22
ATOM     22  C   UNL     1       3.721  -3.537  -5.587  1.00  0.00     0.000 C 
BRANCH  22  23
ATOM     23  C   UNL     1       2.698  -2.453  -5.209  1.00  0.00     0.000 C 
BRANCH  23  24
ATOM     24  C   UNL     1       1.859  -2.844  -3.981  1.00  0.00    -0.000 C 
BRANCH  24  25
ATOM     25  C   UNL     1       2.691  -2.910  -2.689  1.00  0.00    -0.000 C 
BRANCH  25  26
ATOM     26  C   UNL     1       2.274  -1.847  -1.657  1.00  0.00    -0.000 C 
BRANCH  26  27
ATOM     27  C   UNL     1       3.017  -0.515  -1.847  1.00  0.00    -0.000 C 
BRANCH  27  28
ATOM     28  C   UNL     1       3.079   0.321  -0.558  1.00  0.00    -0.000 C 
BRANCH  28  29
ATOM     29  C   UNL     1       3.150   1.835  -0.829  1.00  0.00    -0.000 C 
BRANCH  29  30
ATOM     30  C   UNL     1       2.902   2.726   0.402  1.00  0.00    -0.000 C 
BRANCH  30  31
ATOM     31  C   UNL     1       2.399   4.129   0.034  1.00  0.00    -0.003 C 
ATOM     32  C   UNL     1       1.919   4.179  -1.415  1.00  0.00     0.004 C 
ENDBRANCH  30  31
ENDBRANCH  29  30
ENDBRANCH  28  29
ENDBRANCH  27  28
ENDBRANCH  26  27
ENDBRANCH  25  26
ENDBRANCH  24  25
ENDBRANCH  23  24
ENDBRANCH  22  23
ENDBRANCH  21  22
ENDBRANCH  20  21
ENDBRANCH  19  20
ENDBRANCH  18  19
ENDBRANCH   1  18
TORSDOF 28
ENDMDL
MODEL 2
REMARK VINA RESULT:    -1.632      4.114      9.767
REMARK INTER + INTRA:          -7.339
REMARK INTER:                  -3.873
REMARK INTRA:                  -3.466
REMARK UNBOUND:                -3.037
REMARK SMILES CCCCCCCCCCCCCCCCCCCCCCCCCCCCCC(=O)[O-]
REMARK SMILES IDX 16 1 17 2 18 3 19 4 20 5 21 6 22 7 23 8 24 9 25 10 26 11
REMARK SMILES IDX 27 12 28 13 29 14 30 15 31 16 32 17 15 18 14 19 13 20 12 21
REMARK SMILES IDX 11 22 10 23 9 24 8 25 7 26 6 27 5 28 4 29 3 30 2 31 1 32
REMARK H PARENT
REMARK Flexibility Score: inf
ROOT
ATOM      1  C   UNL     1       5.503  -4.312  -9.600  1.00  0.00     0.000 C 
ENDROOT
BRANCH   1   2
ATOM      2  C   UNL     1       4.083  -4.892  -9.456  1.00  0.00     0.000 C 
BRANCH   2   3
ATOM      3  C   UNL     1       3.672  -5.267  -8.021  1.00  0.00     0.000 C 
BRANCH   3   4
ATOM      4  C   UNL     1       4.620  -4.694  -6.957  1.00  0.00     0.000 C 
BRANCH   4   5
ATOM      5  C   UNL     1       4.094  -3.360  -6.412  1.00  0.00     0.000 C 
BRANCH   5   6
ATOM      6  C   UNL     1       2.815  -3.566  -5.588  1.00  0.00     0.000 C 
BRANCH   6   7
ATOM      7  C   UNL     1       2.659  -2.531  -4.460  1.00  0.00     0.000 C 
BRANCH   7   8
ATOM      8  C   UNL     1       1.687  -2.936  -3.332  1.00  0.00     0.000 C 
BRANCH   8   9
ATOM      9  C   UNL     1       2.287  -2.939  -1.915  1.00  0.00     0.000 C 
BRANCH   9  10
ATOM     10  C   UNL     1       1.368  -3.610  -0.880  1.00  0.00     0.000 C 
BRANCH  10  11
ATOM     11  C   UNL     1       1.928  -4.946  -0.366  1.00  0.00     0.000 C 
BRANCH  11  12
ATOM     12  C   UNL     1       0.909  -5.739   0.466  1.00  0.00     0.000 C 
BRANCH  12  13
ATOM     13  C   UNL     1       1.511  -7.067   0.949  1.00  0.00     0.006 C 
BRANCH  13  14
ATOM     14  C   UNL     1       1.129  -8.244   0.042  1.00  0.00     0.053 C 
BRANCH  14  15
ATOM     15  C   UNL     1       2.194  -9.297   0.016  1.00  0.00     0.041 C 
ATOM     16  O   UNL     1       2.693  -9.721   1.092  1.00  0.00    -0.550 OA
ATOM     17  O   UNL     1       2.625  -9.821  -1.197  1.00  0.00    -0.550 OA
ENDBRANCH  14  15
ENDBRANCH  13  14
ENDBRANCH  12  13
ENDBRANCH  11  12
ENDBRANCH  10  11
ENDBRANCH   9  10
ENDBRANCH   8   9
ENDBRANCH   7   8
ENDBRANCH   6   7
ENDBRANCH   5   6
ENDBRANCH   4   5
ENDBRANCH   3   4
ENDBRANCH   2   3
ENDBRANCH   1   2
BRANCH   1  18
ATOM     18  C   UNL     1       5.571  -2.786  -9.798  1.00  0.00     0.000 C 
BRANCH  18  19
ATOM     19  C   UNL     1       6.929  -2.162  -9.413  1.00  0.00     0.000 C 
BRANCH  19  20
ATOM     20  C   UNL     1       7.399  -2.582  -8.013  1.00  0.00     0.000 C 
BRANCH  20  21
ATOM     21  C   UNL     1       8.923  -2.463  -7.880  1.00  0.00     0.000 C 
BRANCH  21  22
ATOM     22  C   UNL     1       9.631  -3.492  -8.773  1.00  0.00     0.000 C 
BRANCH  22  23
ATOM     23  C   UNL     1       9.354  -4.941  -8.343  1.00  0.00     0.000 C 
BRANCH  23  24
ATOM     24  C   UNL     1       8.746  -5.782  -9.479  1.00  0.00    -0.000 C 
BRANCH  24  25
ATOM     25  C   UNL     1       9.499  -7.102  -9.709  1.00  0.00    -0.000 C 
BRANCH  25  26
ATOM     26  C   UNL     1       8.610  -8.341  -9.495  1.00  0.00    -0.000 C 
BRANCH  26  27
ATOM     27  C   UNL     1       7.112  -8.024  -9.633  1.00  0.00    -0.000 C 
BRANCH  27  28
ATOM     28  C   UNL     1       6.321  -8.324  -8.349  1.00  0.00    -0.000 C 
BRANCH  28  29
ATOM     29  C   UNL     1       6.735  -7.427  -7.168  1.00  0.00    -0.000 C 
BRANCH  29  30
ATOM     30  C   UNL     1       7.216  -8.183  -5.916  1.00  0.00    -0.000 C 
BRANCH  30  31
ATOM     31  C   UNL     1       8.399  -7.498  -5.218  1.00  0.00    -0.003 C 
ATOM     32  C   UNL     1       9.703  -7.753  -5.972  1.00  0.00     0.004 C 
ENDBRANCH  30  31
ENDBRANCH  29  30
ENDBRANCH  28  29
ENDBRANCH  27  28
ENDBRANCH  26  27
ENDBRANCH  25  26
ENDBRANCH  24  25
ENDBRANCH  23  24
ENDBRANCH  22  23
ENDBRANCH  21  22
ENDBRANCH  20  21
ENDBRANCH  19  20
ENDBRANCH  18  19
ENDBRANCH   1  18
TORSDOF 28
ENDMDL
MODEL 3
REMARK VINA RESULT:    -1.569      4.172      9.663
REMARK INTER + INTRA:          -7.174
REMARK INTER:                  -3.587
REMARK INTRA:                  -3.587
REMARK UNBOUND:                -3.037
REMARK SMILES CCCCCCCCCCCCCCCCCCCCCCCCCCCCCC(=O)[O-]
REMARK SMILES IDX 16 1 17 2 18 3 19 4 20 5 21 6 22 7 23 8 24 9 25 10 26 11
REMARK SMILES IDX 27 12 28 13 29 14 30 15 31 16 32 17 15 18 14 19 13 20 12 21
REMARK SMILES IDX 11 22 10 23 9 24 8 25 7 26 6 27 5 28 4 29 3 30 2 31 1 32
REMARK H PARENT
REMARK Flexibility Score: inf
ROOT
ATOM      1  C   UNL     1       6.635  -4.636  -9.994  1.00  0.00     0.000 C 
ENDROOT
BRANCH   1   2
ATOM      2  C   UNL     1       6.265  -5.444  -8.737  1.00  0.00     0.000 C 
BRANCH   2   3
ATOM      3  C   UNL     1       5.085  -6.417  -8.909  1.00  0.00     0.000 C 
BRANCH   3   4
ATOM      4  C   UNL     1       3.860  -5.765  -9.568  1.00  0.00     0.000 C 
BRANCH   4   5
ATOM      5  C   UNL     1       3.398  -4.536  -8.774  1.00  0.00     0.000 C 
BRANCH   5   6
ATOM      6  C   UNL     1       3.336  -4.842  -7.271  1.00  0.00     0.000 C 
BRANCH   6   7
ATOM      7  C   UNL     1       3.910  -3.705  -6.407  1.00  0.00     0.000 C 
BRANCH   7   8
ATOM      8  C   UNL     1       3.283  -3.571  -5.004  1.00  0.00     0.000 C 
BRANCH   8   9
ATOM      9  C   UNL     1       2.368  -2.349  -4.806  1.00  0.00     0.000 C 
BRANCH   9  10
ATOM     10  C   UNL     1       2.039  -2.083  -3.327  1.00  0.00     0.000 C 
BRANCH  10  11
ATOM     11  C   UNL     1       2.580  -3.177  -2.392  1.00  0.00     0.000 C 
BRANCH  11  12
ATOM     12  C   UNL     1       1.651  -3.455  -1.200  1.00  0.00     0.000 C 
BRANCH  12  13
ATOM     13  C   UNL     1       1.868  -4.876  -0.656  1.00  0.00     0.006 C 
BRANCH  13  14
ATOM     14  C   UNL     1       1.025  -5.155   0.595  1.00  0.00     0.053 C 
BRANCH  14  15
ATOM     15  C   UNL     1       1.245  -6.541   1.118  1.00  0.00     0.041 C 
ATOM     16  O   UNL     1       0.818  -7.537   0.475  1.00  0.00    -0.550 OA
ATOM     17  O   UNL     1       1.934  -6.735   2.309  1.00  0.00    -0.550 OA
ENDBRANCH  14  15
ENDBRANCH  13  14
ENDBRANCH  12  13
ENDBRANCH  11  12
ENDBRANCH  10  11
ENDBRANCH   9  10
ENDBRANCH   8   9
ENDBRANCH   7   8
ENDBRANCH   6   7
ENDBRANCH   5   6
ENDBRANCH   4   5
ENDBRANCH   3   4
ENDBRANCH   2   3
ENDBRANCH   1   2
BRANCH   1  18
ATOM     18  C   UNL     1       6.376  -3.120  -9.901  1.00  0.00     0.000 C 
BRANCH  18  19
ATOM     19  C   UNL     1       7.651  -2.256 -10.008  1.00  0.00     0.000 C 
BRANCH  19  20
ATOM     20  C   UNL     1       8.281  -1.955  -8.640  1.00  0.00     0.000 C 
BRANCH  20  21
ATOM     21  C   UNL     1       9.786  -2.250  -8.645  1.00  0.00     0.000 C 
BRANCH  21  22
ATOM     22  C   UNL     1      10.052  -3.739  -8.382  1.00  0.00     0.000 C 
BRANCH  22  23
ATOM     23  C   UNL     1       9.197  -4.300  -7.234  1.00  0.00     0.000 C 
BRANCH  23  24
ATOM     24  C   UNL     1       9.872  -5.490  -6.531  1.00  0.00    -0.000 C 
BRANCH  24  25
ATOM     25  C   UNL     1       8.862  -6.535  -6.030  1.00  0.00    -0.000 C 
BRANCH  25  26
ATOM     26  C   UNL     1       9.529  -7.861  -5.621  1.00  0.00    -0.000 C 
BRANCH  26  27
ATOM     27  C   UNL     1       8.869  -9.083  -6.279  1.00  0.00    -0.000 C 
BRANCH  27  28
ATOM     28  C   UNL     1       7.407  -8.824  -6.681  1.00  0.00    -0.000 C 
BRANCH  28  29
ATOM     29  C   UNL     1       7.096  -9.264  -8.123  1.00  0.00    -0.000 C 
BRANCH  29  30
ATOM     30  C   UNL     1       8.317  -9.337  -9.057  1.00  0.00    -0.000 C 
BRANCH  30  31
ATOM     31  C   UNL     1       8.340  -8.214 -10.103  1.00  0.00    -0.003 C 
ATOM     32  C   UNL     1       9.426  -7.188  -9.783  1.00  0.00     0.004 C 
ENDBRANCH  30  31
ENDBRANCH  29  30
ENDBRANCH  28  29
ENDBRANCH  27  28
ENDBRANCH  26  27
ENDBRANCH  25  26
ENDBRANCH  24  25
ENDBRANCH  23  24
ENDBRANCH  22  23
ENDBRANCH  21  22
ENDBRANCH  20  21
ENDBRANCH  19  20
ENDBRANCH  18  19
ENDBRANCH   1  18
TORSDOF 28
ENDMDL
MODEL 4
REMARK VINA RESULT:    -1.551      3.047      9.301
REMARK INTER + INTRA:          -7.126
REMARK INTER:                  -3.309
REMARK INTRA:                  -3.817
REMARK UNBOUND:                -3.037
REMARK SMILES CCCCCCCCCCCCCCCCCCCCCCCCCCCCCC(=O)[O-]
REMARK SMILES IDX 16 1 17 2 18 3 19 4 20 5 21 6 22 7 23 8 24 9 25 10 26 11
REMARK SMILES IDX 27 12 28 13 29 14 30 15 31 16 32 17 15 18 14 19 13 20 12 21
REMARK SMILES IDX 11 22 10 23 9 24 8 25 7 26 6 27 5 28 4 29 3 30 2 31 1 32
REMARK H PARENT
REMARK Flexibility Score: inf
ROOT
ATOM      1  C   UNL     1       6.669  -4.418  -9.942  1.00  0.00     0.000 C 
ENDROOT
BRANCH   1   2
ATOM      2  C   UNL     1       6.344  -5.396  -8.797  1.00  0.00     0.000 C 
BRANCH   2   3
ATOM      3  C   UNL     1       4.920  -5.980  -8.820  1.00  0.00     0.000 C 
BRANCH   3   4
ATOM      4  C   UNL     1       3.968  -5.275  -7.843  1.00  0.00     0.000 C 
BRANCH   4   5
ATOM      5  C   UNL     1       4.749  -4.519  -6.761  1.00  0.00     0.000 C 
BRANCH   5   6
ATOM      6  C   UNL     1       4.001  -3.251  -6.324  1.00  0.00     0.000 C 
BRANCH   6   7
ATOM      7  C   UNL     1       2.703  -3.558  -5.555  1.00  0.00     0.000 C 
BRANCH   7   8
ATOM      8  C   UNL     1       2.352  -2.552  -4.440  1.00  0.00     0.000 C 
BRANCH   8   9
ATOM      9  C   UNL     1       2.885  -2.908  -3.041  1.00  0.00     0.000 C 
BRANCH   9  10
ATOM     10  C   UNL     1       1.871  -2.610  -1.923  1.00  0.00     0.000 C 
BRANCH  10  11
ATOM     11  C   UNL     1       1.972  -1.169  -1.398  1.00  0.00     0.000 C 
BRANCH  11  12
ATOM     12  C   UNL     1       3.410  -0.629  -1.411  1.00  0.00     0.000 C 
BRANCH  12  13
ATOM     13  C   UNL     1       3.423   0.900  -1.252  1.00  0.00     0.006 C 
BRANCH  13  14
ATOM     14  C   UNL     1       2.828   1.350   0.088  1.00  0.00     0.053 C 
BRANCH  14  15
ATOM     15  C   UNL     1       2.818   2.842   0.221  1.00  0.00     0.041 C 
ATOM     16  O   UNL     1       2.998   3.380   1.345  1.00  0.00    -0.550 OA
ATOM     17  O   UNL     1       2.625   3.640  -0.901  1.00  0.00    -0.550 OA
ENDBRANCH  14  15
ENDBRANCH  13  14
ENDBRANCH  12  13
ENDBRANCH  11  12
ENDBRANCH  10  11
ENDBRANCH   9  10
ENDBRANCH   8   9
ENDBRANCH   7   8
ENDBRANCH   6   7
ENDBRANCH   5   6
ENDBRANCH   4   5
ENDBRANCH   3   4
ENDBRANCH   2   3
ENDBRANCH   1   2
BRANCH   1  18
ATOM     18  C   UNL     1       6.341  -2.940  -9.655  1.00  0.00     0.000 C 
BRANCH  18  19
ATOM     19  C   UNL     1       7.500  -1.968  -9.962  1.00  0.00     0.000 C 
BRANCH  19  20
ATOM     20  C   UNL     1       8.297  -1.581  -8.708  1.00  0.00     0.000 C 
BRANCH  20  21
ATOM     21  C   UNL     1       9.422  -2.587  -8.434  1.00  0.00     0.000 C 
BRANCH  21  22
ATOM     22  C   UNL     1       9.119  -3.417  -7.179  1.00  0.00     0.000 C 
BRANCH  22  23
ATOM     23  C   UNL     1       9.763  -4.813  -7.221  1.00  0.00     0.000 C 
BRANCH  23  24
ATOM     24  C   UNL     1      10.093  -5.260  -8.656  1.00  0.00    -0.000 C 
BRANCH  24  25
ATOM     25  C   UNL     1      10.063  -6.788  -8.824  1.00  0.00    -0.000 C 
BRANCH  25  26
ATOM     26  C   UNL     1       9.186  -7.240 -10.005  1.00  0.00    -0.000 C 
BRANCH  26  27
ATOM     27  C   UNL     1       8.511  -8.597  -9.754  1.00  0.00    -0.000 C 
BRANCH  27  28
ATOM     28  C   UNL     1       8.600  -9.043  -8.285  1.00  0.00    -0.000 C 
BRANCH  28  29
ATOM     29  C   UNL     1       7.314  -8.748  -7.491  1.00  0.00    -0.000 C 
BRANCH  29  30
ATOM     30  C   UNL     1       7.506  -8.616  -5.969  1.00  0.00    -0.000 C 
BRANCH  30  31
ATOM     31  C   UNL     1       8.067  -7.250  -5.552  1.00  0.00    -0.003 C 
ATOM     32  C   UNL     1       6.942  -6.285  -5.181  1.00  0.00     0.004 C 
ENDBRANCH  30  31
ENDBRANCH  29  30
ENDBRANCH  28  29
ENDBRANCH  27  28
ENDBRANCH  26  27
ENDBRANCH  25  26
ENDBRANCH  24  25
ENDBRANCH  23  24
ENDBRANCH  22  23
ENDBRANCH  21  22
ENDBRANCH  20  21
ENDBRANCH  19  20
ENDBRANCH  18  19
ENDBRANCH   1  18
TORSDOF 28
ENDMDL
MODEL 5
REMARK VINA RESULT:    -1.540      4.052      9.740
REMARK INTER + INTRA:          -7.097
REMARK INTER:                  -3.896
REMARK INTRA:                  -3.201
REMARK UNBOUND:                -3.037
REMARK SMILES CCCCCCCCCCCCCCCCCCCCCCCCCCCCCC(=O)[O-]
REMARK SMILES IDX 16 1 17 2 18 3 19 4 20 5 21 6 22 7 23 8 24 9 25 10 26 11
REMARK SMILES IDX 27 12 28 13 29 14 30 15 31 16 32 17 15 18 14 19 13 20 12 21
REMARK SMILES IDX 11 22 10 23 9 24 8 25 7 26 6 27 5 28 4 29 3 30 2 31 1 32
REMARK H PARENT
REMARK Flexibility Score: inf
ROOT
ATOM      1  C   UNL     1       5.474  -4.345  -9.674  1.00  0.00     0.000 C 
ENDROOT
BRANCH   1   2
ATOM      2  C   UNL     1       4.084  -4.954  -9.415  1.00  0.00     0.000 C 
BRANCH   2   3
ATOM      3  C   UNL     1       3.826  -5.401  -7.964  1.00  0.00     0.000 C 
BRANCH   3   4
ATOM      4  C   UNL     1       4.769  -4.731  -6.954  1.00  0.00     0.000 C 
BRANCH   4   5
ATOM      5  C   UNL     1       4.181  -3.409  -6.444  1.00  0.00     0.000 C 
BRANCH   5   6
ATOM      6  C   UNL     1       2.928  -3.655  -5.592  1.00  0.00     0.000 C 
BRANCH   6   7
ATOM      7  C   UNL     1       2.735  -2.593  -4.495  1.00  0.00     0.000 C 
BRANCH   7   8
ATOM      8  C   UNL     1       1.739  -2.979  -3.382  1.00  0.00     0.000 C 
BRANCH   8   9
ATOM      9  C   UNL     1       2.322  -3.010  -1.958  1.00  0.00     0.000 C 
BRANCH   9  10
ATOM     10  C   UNL     1       1.379  -3.676  -0.941  1.00  0.00     0.000 C 
BRANCH  10  11
ATOM     11  C   UNL     1       1.963  -4.967  -0.347  1.00  0.00     0.000 C 
BRANCH  11  12
ATOM     12  C   UNL     1       0.924  -5.786   0.434  1.00  0.00     0.000 C 
BRANCH  12  13
ATOM     13  C   UNL     1       1.527  -7.111   0.927  1.00  0.00     0.006 C 
BRANCH  13  14
ATOM     14  C   UNL     1       1.119  -8.299   0.047  1.00  0.00     0.053 C 
BRANCH  14  15
ATOM     15  C   UNL     1       2.203  -9.329  -0.038  1.00  0.00     0.041 C 
ATOM     16  O   UNL     1       2.645  -9.873   1.008  1.00  0.00    -0.550 OA
ATOM     17  O   UNL     1       2.715  -9.700  -1.276  1.00  0.00    -0.550 OA
ENDBRANCH  14  15
ENDBRANCH  13  14
ENDBRANCH  12  13
ENDBRANCH  11  12
ENDBRANCH  10  11
ENDBRANCH   9  10
ENDBRANCH   8   9
ENDBRANCH   7   8
ENDBRANCH   6   7
ENDBRANCH   5   6
ENDBRANCH   4   5
ENDBRANCH   3   4
ENDBRANCH   2   3
ENDBRANCH   1   2
BRANCH   1  18
ATOM     18  C   UNL     1       5.496  -2.818  -9.872  1.00  0.00     0.000 C 
BRANCH  18  19
ATOM     19  C   UNL     1       6.874  -2.170  -9.616  1.00  0.00     0.000 C 
BRANCH  19  20
ATOM     20  C   UNL     1       7.436  -2.503  -8.226  1.00  0.00     0.000 C 
BRANCH  20  21
ATOM     21  C   UNL     1       8.960  -2.665  -8.269  1.00  0.00     0.000 C 
BRANCH  21  22
ATOM     22  C   UNL     1       9.353  -3.944  -9.022  1.00  0.00     0.000 C 
BRANCH  22  23
ATOM     23  C   UNL     1       8.615  -5.188  -8.502  1.00  0.00     0.000 C 
BRANCH  23  24
ATOM     24  C   UNL     1       9.125  -5.636  -7.121  1.00  0.00    -0.000 C 
BRANCH  24  25
ATOM     25  C   UNL     1       8.044  -5.554  -6.032  1.00  0.00    -0.000 C 
BRANCH  25  26
ATOM     26  C   UNL     1       7.830  -6.893  -5.303  1.00  0.00    -0.000 C 
BRANCH  26  27
ATOM     27  C   UNL     1       9.072  -7.797  -5.348  1.00  0.00    -0.000 C 
BRANCH  27  28
ATOM     28  C   UNL     1       8.795  -9.156  -6.012  1.00  0.00    -0.000 C 
BRANCH  28  29
ATOM     29  C   UNL     1       8.373  -9.026  -7.488  1.00  0.00    -0.000 C 
BRANCH  29  30
ATOM     30  C   UNL     1       6.855  -9.085  -7.737  1.00  0.00    -0.000 C 
BRANCH  30  31
ATOM     31  C   UNL     1       6.407  -8.215  -8.920  1.00  0.00    -0.003 C 
ATOM     32  C   UNL     1       5.957  -9.078 -10.096  1.00  0.00     0.004 C 
ENDBRANCH  30  31
ENDBRANCH  29  30
ENDBRANCH  28  29
ENDBRANCH  27  28
ENDBRANCH  26  27
ENDBRANCH  25  26
ENDBRANCH  24  25
ENDBRANCH  23  24
ENDBRANCH  22  23
ENDBRANCH  21  22
ENDBRANCH  20  21
ENDBRANCH  19  20
ENDBRANCH  18  19
ENDBRANCH   1  18
TORSDOF 28
ENDMDL
MODEL 6
REMARK VINA RESULT:    -1.318      3.004      9.152
REMARK INTER + INTRA:          -6.512
REMARK INTER:                  -2.987
REMARK INTRA:                  -3.525
REMARK UNBOUND:                -3.037
REMARK SMILES CCCCCCCCCCCCCCCCCCCCCCCCCCCCCC(=O)[O-]
REMARK SMILES IDX 16 1 17 2 18 3 19 4 20 5 21 6 22 7 23 8 24 9 25 10 26 11
REMARK SMILES IDX 27 12 28 13 29 14 30 15 31 16 32 17 15 18 14 19 13 20 12 21
REMARK SMILES IDX 11 22 10 23 9 24 8 25 7 26 6 27 5 28 4 29 3 30 2 31 1 32
REMARK H PARENT
REMARK Flexibility Score: inf
ROOT
ATOM      1  C   UNL     1       6.874  -5.792 -10.125  1.00  0.00     0.000 C 
ENDROOT
BRANCH   1   2
ATOM      2  C   UNL     1       5.865  -6.048  -8.989  1.00  0.00     0.000 C 
BRANCH   2   3
ATOM      3  C   UNL     1       4.406  -5.684  -9.317  1.00  0.00     0.000 C 
BRANCH   3   4
ATOM      4  C   UNL     1       4.150  -4.170  -9.311  1.00  0.00     0.000 C 
BRANCH   4   5
ATOM      5  C   UNL     1       3.967  -3.647  -7.881  1.00  0.00     0.000 C 
BRANCH   5   6
ATOM      6  C   UNL     1       3.038  -4.564  -7.073  1.00  0.00     0.000 C 
BRANCH   6   7
ATOM      7  C   UNL     1       2.189  -3.797  -6.043  1.00  0.00     0.000 C 
BRANCH   7   8
ATOM      8  C   UNL     1       2.988  -3.132  -4.904  1.00  0.00     0.000 C 
BRANCH   8   9
ATOM      9  C   UNL     1       2.141  -2.419  -3.835  1.00  0.00     0.000 C 
BRANCH   9  10
ATOM     10  C   UNL     1       2.546  -2.800  -2.401  1.00  0.00     0.000 C 
BRANCH  10  11
ATOM     11  C   UNL     1       2.260  -1.681  -1.386  1.00  0.00     0.000 C 
BRANCH  11  12
ATOM     12  C   UNL     1       3.298  -0.550  -1.437  1.00  0.00     0.000 C 
BRANCH  12  13
ATOM     13  C   UNL     1       2.792   0.692  -0.688  1.00  0.00     0.006 C 
BRANCH  13  14
ATOM     14  C   UNL     1       3.380   1.992  -1.253  1.00  0.00     0.053 C 
BRANCH  14  15
ATOM     15  C   UNL     1       2.895   3.195  -0.506  1.00  0.00     0.041 C 
ATOM     16  O   UNL     1       2.882   3.197   0.754  1.00  0.00    -0.550 OA
ATOM     17  O   UNL     1       2.470   4.322  -1.199  1.00  0.00    -0.550 OA
ENDBRANCH  14  15
ENDBRANCH  13  14
ENDBRANCH  12  13
ENDBRANCH  11  12
ENDBRANCH  10  11
ENDBRANCH   9  10
ENDBRANCH   8   9
ENDBRANCH   7   8
ENDBRANCH   6   7
ENDBRANCH   5   6
ENDBRANCH   4   5
ENDBRANCH   3   4
ENDBRANCH   2   3
ENDBRANCH   1   2
BRANCH   1  18
ATOM     18  C   UNL     1       8.304  -5.447  -9.668  1.00  0.00     0.000 C 
BRANCH  18  19
ATOM     19  C   UNL     1       8.768  -4.031 -10.071  1.00  0.00     0.000 C 
BRANCH  19  20
ATOM     20  C   UNL     1       7.733  -2.949  -9.734  1.00  0.00     0.000 C 
BRANCH  20  21
ATOM     21  C   UNL     1       8.276  -1.970  -8.685  1.00  0.00     0.000 C 
BRANCH  21  22
ATOM     22  C   UNL     1       8.342  -2.631  -7.302  1.00  0.00     0.000 C 
BRANCH  22  23
ATOM     23  C   UNL     1       6.984  -3.189  -6.846  1.00  0.00     0.000 C 
BRANCH  23  24
ATOM     24  C   UNL     1       7.126  -4.510  -6.069  1.00  0.00    -0.000 C 
BRANCH  24  25
ATOM     25  C   UNL     1       8.463  -5.218  -6.339  1.00  0.00    -0.000 C 
BRANCH  25  26
ATOM     26  C   UNL     1       8.528  -6.625  -5.717  1.00  0.00    -0.000 C 
BRANCH  26  27
ATOM     27  C   UNL     1       7.219  -7.410  -5.891  1.00  0.00    -0.000 C 
BRANCH  27  28
ATOM     28  C   UNL     1       7.398  -8.921  -5.668  1.00  0.00    -0.000 C 
BRANCH  28  29
ATOM     29  C   UNL     1       8.856  -9.313  -5.366  1.00  0.00    -0.000 C 
BRANCH  29  30
ATOM     30  C   UNL     1       9.553 -10.125  -6.474  1.00  0.00    -0.000 C 
BRANCH  30  31
ATOM     31  C   UNL     1       8.806 -10.074  -7.814  1.00  0.00    -0.003 C 
ATOM     32  C   UNL     1       9.175  -8.819  -8.601  1.00  0.00     0.004 C 
ENDBRANCH  30  31
ENDBRANCH  29  30
ENDBRANCH  28  29
ENDBRANCH  27  28
ENDBRANCH  26  27
ENDBRANCH  25  26
ENDBRANCH  24  25
ENDBRANCH  23  24
ENDBRANCH  22  23
ENDBRANCH  21  22
ENDBRANCH  20  21
ENDBRANCH  19  20
ENDBRANCH  18  19
ENDBRANCH   1  18
TORSDOF 28
ENDMDL
MODEL 7
REMARK VINA RESULT:    -1.270      2.061      4.408
REMARK INTER + INTRA:          -6.386
REMARK INTER:                  -3.588
REMARK INTRA:                  -2.798
REMARK UNBOUND:                -3.037
REMARK SMILES CCCCCCCCCCCCCCCCCCCCCCCCCCCCCC(=O)[O-]
REMARK SMILES IDX 16 1 17 2 18 3 19 4 20 5 21 6 22 7 23 8 24 9 25 10 26 11
REMARK SMILES IDX 27 12 28 13 29 14 30 15 31 16 32 17 15 18 14 19 13 20 12 21
REMARK SMILES IDX 11 22 10 23 9 24 8 25 7 26 6 27 5 28 4 29 3 30 2 31 1 32
REMARK H PARENT
REMARK Flexibility Score: inf
ROOT
ATOM      1  C   UNL     1       6.495  -2.369  -9.043  1.00  0.00     0.000 C 
ENDROOT
BRANCH   1   2
ATOM      2  C   UNL     1       7.741  -1.882  -9.804  1.00  0.00     0.000 C 
BRANCH   2   3
ATOM      3  C   UNL     1       8.855  -1.287  -8.922  1.00  0.00     0.000 C 
BRANCH   3   4
ATOM      4  C   UNL     1       9.614  -2.351  -8.116  1.00  0.00     0.000 C 
BRANCH   4   5
ATOM      5  C   UNL     1       9.919  -3.582  -8.979  1.00  0.00     0.000 C 
BRANCH   5   6
ATOM      6  C   UNL     1       9.408  -4.865  -8.309  1.00  0.00     0.000 C 
BRANCH   6   7
ATOM      7  C   UNL     1       9.176  -4.698  -6.797  1.00  0.00     0.000 C 
BRANCH   7   8
ATOM      8  C   UNL     1       7.767  -5.091  -6.306  1.00  0.00     0.000 C 
BRANCH   8   9
ATOM      9  C   UNL     1       7.615  -6.551  -5.842  1.00  0.00     0.000 C 
BRANCH   9  10
ATOM     10  C   UNL     1       8.919  -7.135  -5.273  1.00  0.00     0.000 C 
BRANCH  10  11
ATOM     11  C   UNL     1       9.138  -8.602  -5.675  1.00  0.00     0.000 C 
BRANCH  11  12
ATOM     12  C   UNL     1       9.457  -8.770  -7.169  1.00  0.00     0.000 C 
BRANCH  12  13
ATOM     13  C   UNL     1       8.654  -9.932  -7.773  1.00  0.00     0.006 C 
BRANCH  13  14
ATOM     14  C   UNL     1       7.182  -9.909  -7.340  1.00  0.00     0.053 C 
BRANCH  14  15
ATOM     15  C   UNL     1       6.312  -9.237  -8.357  1.00  0.00     0.041 C 
ATOM     16  O   UNL     1       6.542  -8.048  -8.703  1.00  0.00    -0.550 OA
ATOM     17  O   UNL     1       5.254  -9.929  -8.935  1.00  0.00    -0.550 OA
ENDBRANCH  14  15
ENDBRANCH  13  14
ENDBRANCH  12  13
ENDBRANCH  11  12
ENDBRANCH  10  11
ENDBRANCH   9  10
ENDBRANCH   8   9
ENDBRANCH   7   8
ENDBRANCH   6   7
ENDBRANCH   5   6
ENDBRANCH   4   5
ENDBRANCH   3   4
ENDBRANCH   2   3
ENDBRANCH   1   2
BRANCH   1  18
ATOM     18  C   UNL     1       5.854  -3.659  -9.590  1.00  0.00     0.000 C 
BRANCH  18  19
ATOM     19  C   UNL     1       4.418  -3.913  -9.083  1.00  0.00     0.000 C 
BRANCH  19  20
ATOM     20  C   UNL     1       4.385  -4.686  -7.757  1.00  0.00     0.000 C 
BRANCH  20  21
ATOM     21  C   UNL     1       4.279  -3.731  -6.561  1.00  0.00     0.000 C 
BRANCH  21  22
ATOM     22  C   UNL     1       2.864  -3.754  -5.967  1.00  0.00     0.000 C 
BRANCH  22  23
ATOM     23  C   UNL     1       2.654  -2.675  -4.892  1.00  0.00     0.000 C 
BRANCH  23  24
ATOM     24  C   UNL     1       2.068  -3.251  -3.592  1.00  0.00    -0.000 C 
BRANCH  24  25
ATOM     25  C   UNL     1       1.662  -2.160  -2.588  1.00  0.00    -0.000 C 
BRANCH  25  26
ATOM     26  C   UNL     1       2.841  -1.674  -1.726  1.00  0.00    -0.000 C 
BRANCH  26  27
ATOM     27  C   UNL     1       2.474  -0.468  -0.847  1.00  0.00    -0.000 C 
BRANCH  27  28
ATOM     28  C   UNL     1       3.446   0.711  -1.019  1.00  0.00    -0.000 C 
BRANCH  28  29
ATOM     29  C   UNL     1       3.002   1.969  -0.251  1.00  0.00    -0.000 C 
BRANCH  29  30
ATOM     30  C   UNL     1       2.559   3.148  -1.136  1.00  0.00    -0.000 C 
BRANCH  30  31
ATOM     31  C   UNL     1       2.150   4.386  -0.326  1.00  0.00    -0.003 C 
ATOM     32  C   UNL     1       2.689   4.312   1.100  1.00  0.00     0.004 C 
ENDBRANCH  30  31
ENDBRANCH  29  30
ENDBRANCH  28  29
ENDBRANCH  27  28
ENDBRANCH  26  27
ENDBRANCH  25  26
ENDBRANCH  24  25
ENDBRANCH  23  24
ENDBRANCH  22  23
ENDBRANCH  21  22
ENDBRANCH  20  21
ENDBRANCH  19  20
ENDBRANCH  18  19
ENDBRANCH   1  18
TORSDOF 28
ENDMDL
MODEL 8
REMARK VINA RESULT:    -1.205      2.089      4.300
REMARK INTER + INTRA:          -6.214
REMARK INTER:                  -3.767
REMARK INTRA:                  -2.446
REMARK UNBOUND:                -3.037
REMARK SMILES CCCCCCCCCCCCCCCCCCCCCCCCCCCCCC(=O)[O-]
REMARK SMILES IDX 16 1 17 2 18 3 19 4 20 5 21 6 22 7 23 8 24 9 25 10 26 11
REMARK SMILES IDX 27 12 28 13 29 14 30 15 31 16 32 17 15 18 14 19 13 20 12 21
REMARK SMILES IDX 11 22 10 23 9 24 8 25 7 26 6 27 5 28 4 29 3 30 2 31 1 32
REMARK H PARENT
REMARK Flexibility Score: inf
ROOT
ATOM      1  C   UNL     1       6.399  -2.318  -9.044  1.00  0.00     0.000 C 
ENDROOT
BRANCH   1   2
ATOM      2  C   UNL     1       7.634  -1.773  -9.784  1.00  0.00     0.000 C 
BRANCH   2   3
ATOM      3  C   UNL     1       8.861  -1.500  -8.895  1.00  0.00     0.000 C 
BRANCH   3   4
ATOM      4  C   UNL     1       9.738  -2.743  -8.685  1.00  0.00     0.000 C 
BRANCH   4   5
ATOM      5  C   UNL     1      10.106  -3.390 -10.027  1.00  0.00     0.000 C 
BRANCH   5   6
ATOM      6  C   UNL     1       9.643  -4.853 -10.079  1.00  0.00     0.000 C 
BRANCH   6   7
ATOM      7  C   UNL     1       9.307  -5.423  -8.689  1.00  0.00     0.000 C 
BRANCH   7   8
ATOM      8  C   UNL     1       7.984  -6.212  -8.609  1.00  0.00     0.000 C 
BRANCH   8   9
ATOM      9  C   UNL     1       8.081  -7.701  -8.987  1.00  0.00     0.000 C 
BRANCH   9  10
ATOM     10  C   UNL     1       9.463  -8.305  -8.682  1.00  0.00     0.000 C 
BRANCH  10  11
ATOM     11  C   UNL     1       9.679  -8.566  -7.183  1.00  0.00     0.000 C 
BRANCH  11  12
ATOM     12  C   UNL     1       8.457  -9.208  -6.507  1.00  0.00     0.000 C 
BRANCH  12  13
ATOM     13  C   UNL     1       8.146  -8.519  -5.170  1.00  0.00     0.006 C 
BRANCH  13  14
ATOM     14  C   UNL     1       7.882  -7.017  -5.336  1.00  0.00     0.053 C 
BRANCH  14  15
ATOM     15  C   UNL     1       6.419  -6.715  -5.438  1.00  0.00     0.041 C 
ATOM     16  O   UNL     1       5.983  -5.576  -5.123  1.00  0.00    -0.550 OA
ATOM     17  O   UNL     1       5.537  -7.687  -5.896  1.00  0.00    -0.550 OA
ENDBRANCH  14  15
ENDBRANCH  13  14
ENDBRANCH  12  13
ENDBRANCH  11  12
ENDBRANCH  10  11
ENDBRANCH   9  10
ENDBRANCH   8   9
ENDBRANCH   7   8
ENDBRANCH   6   7
ENDBRANCH   5   6
ENDBRANCH   4   5
ENDBRANCH   3   4
ENDBRANCH   2   3
ENDBRANCH   1   2
BRANCH   1  18
ATOM     18  C   UNL     1       5.725  -3.539  -9.699  1.00  0.00     0.000 C 
BRANCH  18  19
ATOM     19  C   UNL     1       4.224  -3.681  -9.371  1.00  0.00     0.000 C 
BRANCH  19  20
ATOM     20  C   UNL     1       3.974  -4.392  -8.033  1.00  0.00     0.000 C 
BRANCH  20  21
ATOM     21  C   UNL     1       3.859  -3.384  -6.883  1.00  0.00     0.000 C 
BRANCH  21  22
ATOM     22  C   UNL     1       2.709  -3.761  -5.939  1.00  0.00     0.000 C 
BRANCH  22  23
ATOM     23  C   UNL     1       2.442  -2.688  -4.871  1.00  0.00     0.000 C 
BRANCH  23  24
ATOM     24  C   UNL     1       2.200  -3.296  -3.479  1.00  0.00    -0.000 C 
BRANCH  24  25
ATOM     25  C   UNL     1       1.771  -2.249  -2.438  1.00  0.00    -0.000 C 
BRANCH  25  26
ATOM     26  C   UNL     1       2.967  -1.614  -1.704  1.00  0.00    -0.000 C 
BRANCH  26  27
ATOM     27  C   UNL     1       2.553  -0.435  -0.811  1.00  0.00    -0.000 C 
BRANCH  27  28
ATOM     28  C   UNL     1       3.467   0.790  -0.982  1.00  0.00    -0.000 C 
BRANCH  28  29
ATOM     29  C   UNL     1       2.993   2.009  -0.169  1.00  0.00    -0.000 C 
BRANCH  29  30
ATOM     30  C   UNL     1       2.554   3.221  -1.010  1.00  0.00    -0.000 C 
BRANCH  30  31
ATOM     31  C   UNL     1       2.165   4.435  -0.156  1.00  0.00    -0.003 C 
ATOM     32  C   UNL     1       2.765   4.336   1.245  1.00  0.00     0.004 C 
ENDBRANCH  30  31
ENDBRANCH  29  30
ENDBRANCH  28  29
ENDBRANCH  27  28
ENDBRANCH  26  27
ENDBRANCH  25  26
ENDBRANCH  24  25
ENDBRANCH  23  24
ENDBRANCH  22  23
ENDBRANCH  21  22
ENDBRANCH  20  21
ENDBRANCH  19  20
ENDBRANCH  18  19
ENDBRANCH   1  18
TORSDOF 28
ENDMDL
MODEL 9
REMARK VINA RESULT:    -1.082      3.987      9.057
REMARK INTER + INTRA:          -5.890
REMARK INTER:                  -2.799
REMARK INTRA:                  -3.091
REMARK UNBOUND:                -3.037
REMARK SMILES CCCCCCCCCCCCCCCCCCCCCCCCCCCCCC(=O)[O-]
REMARK SMILES IDX 16 1 17 2 18 3 19 4 20 5 21 6 22 7 23 8 24 9 25 10 26 11
REMARK SMILES IDX 27 12 28 13 29 14 30 15 31 16 32 17 15 18 14 19 13 20 12 21
REMARK SMILES IDX 11 22 10 23 9 24 8 25 7 26 6 27 5 28 4 29 3 30 2 31 1 32
REMARK H PARENT
REMARK Flexibility Score: inf
ROOT
ATOM      1  C   UNL     1       6.822  -8.236  -9.523  1.00  0.00     0.000 C 
ENDROOT
BRANCH   1   2
ATOM      2  C   UNL     1       6.200  -6.937 -10.067  1.00  0.00     0.000 C 
BRANCH   2   3
ATOM      3  C   UNL     1       4.689  -6.780  -9.813  1.00  0.00     0.000 C 
BRANCH   3   4
ATOM      4  C   UNL     1       4.305  -5.371  -9.336  1.00  0.00     0.000 C 
BRANCH   4   5
ATOM      5  C   UNL     1       4.252  -5.304  -7.805  1.00  0.00     0.000 C 
BRANCH   5   6
ATOM      6  C   UNL     1       4.337  -3.852  -7.313  1.00  0.00     0.000 C 
BRANCH   6   7
ATOM      7  C   UNL     1       4.036  -3.711  -5.811  1.00  0.00     0.000 C 
BRANCH   7   8
ATOM      8  C   UNL     1       2.592  -3.288  -5.471  1.00  0.00     0.000 C 
BRANCH   8   9
ATOM      9  C   UNL     1       2.441  -2.414  -4.213  1.00  0.00     0.000 C 
BRANCH   9  10
ATOM     10  C   UNL     1       2.334  -3.243  -2.921  1.00  0.00     0.000 C 
BRANCH  10  11
ATOM     11  C   UNL     1       2.127  -2.371  -1.672  1.00  0.00     0.000 C 
BRANCH  11  12
ATOM     12  C   UNL     1       1.218  -3.035  -0.625  1.00  0.00     0.000 C 
BRANCH  12  13
ATOM     13  C   UNL     1       1.624  -4.500  -0.399  1.00  0.00     0.006 C 
BRANCH  13  14
ATOM     14  C   UNL     1       0.707  -5.208   0.607  1.00  0.00     0.053 C 
BRANCH  14  15
ATOM     15  C   UNL     1       1.257  -6.538   1.022  1.00  0.00     0.041 C 
ATOM     16  O   UNL     1       1.145  -7.536   0.261  1.00  0.00    -0.550 OA
ATOM     17  O   UNL     1       1.907  -6.674   2.243  1.00  0.00    -0.550 OA
ENDBRANCH  14  15
ENDBRANCH  13  14
ENDBRANCH  12  13
ENDBRANCH  11  12
ENDBRANCH  10  11
ENDBRANCH   9  10
ENDBRANCH   8   9
ENDBRANCH   7   8
ENDBRANCH   6   7
ENDBRANCH   5   6
ENDBRANCH   4   5
ENDBRANCH   3   4
ENDBRANCH   2   3
ENDBRANCH   1   2
BRANCH   1  18
ATOM     18  C   UNL     1       8.311  -8.443  -9.861  1.00  0.00     0.000 C 
BRANCH  18  19
ATOM     19  C   UNL     1       8.795  -9.901  -9.707  1.00  0.00     0.000 C 
BRANCH  19  20
ATOM     20  C   UNL     1       9.787 -10.077  -8.548  1.00  0.00     0.000 C 
BRANCH  20  21
ATOM     21  C   UNL     1       9.509  -9.073  -7.422  1.00  0.00     0.000 C 
BRANCH  21  22
ATOM     22  C   UNL     1       8.843  -9.765  -6.225  1.00  0.00     0.000 C 
BRANCH  22  23
ATOM     23  C   UNL     1       8.226  -8.766  -5.232  1.00  0.00     0.000 C 
BRANCH  23  24
ATOM     24  C   UNL     1       7.079  -7.954  -5.857  1.00  0.00    -0.000 C 
BRANCH  24  25
ATOM     25  C   UNL     1       7.201  -6.446  -5.584  1.00  0.00    -0.000 C 
BRANCH  25  26
ATOM     26  C   UNL     1       7.613  -5.646  -6.833  1.00  0.00    -0.000 C 
BRANCH  26  27
ATOM     27  C   UNL     1       9.121  -5.358  -6.880  1.00  0.00    -0.000 C 
BRANCH  27  28
ATOM     28  C   UNL     1       9.707  -5.487  -8.296  1.00  0.00    -0.000 C 
BRANCH  28  29
ATOM     29  C   UNL     1       9.122  -4.459  -9.282  1.00  0.00    -0.000 C 
BRANCH  29  30
ATOM     30  C   UNL     1       7.805  -3.802  -8.830  1.00  0.00    -0.000 C 
BRANCH  30  31
ATOM     31  C   UNL     1       7.548  -2.448  -9.505  1.00  0.00    -0.003 C 
ATOM     32  C   UNL     1       8.453  -1.364  -8.925  1.00  0.00     0.004 C 
ENDBRANCH  30  31
ENDBRANCH  29  30
ENDBRANCH  28  29
ENDBRANCH  27  28
ENDBRANCH  26  27
ENDBRANCH  25  26
ENDBRANCH  24  25
ENDBRANCH  23  24
ENDBRANCH  22  23
ENDBRANCH  21  22
ENDBRANCH  20  21
ENDBRANCH  19  20
ENDBRANCH  18  19
ENDBRANCH   1  18
TORSDOF 28
ENDMDL
