MODEL 1
REMARK VINA RESULT:    -6.892      0.000      0.000
REMARK INTER + INTRA:          -8.647
REMARK INTER:                  -8.302
REMARK INTRA:                  -0.345
REMARK UNBOUND:                -0.345
REMARK SMILES Oc1cc(O)c2cc(O)c(-c3ccc(O)c(O)c3)[o+]c2c1
REMARK SMILES IDX 10 1 19 2 20 3 21 4 2 5 3 6 4 7 6 8 7 9 8 10 11 11 12 12
REMARK SMILES IDX 13 13 14 14 18 15 16 16 15 17 17 19 9 21 1 23 5 25
REMARK H PARENT 15 18 17 20 9 22 1 24 5 26
REMARK Flexibility Score: inf
ROOT
ATOM      1  C   UNL     1     107.615 122.137 119.460  1.00  0.00     0.402 A 
ATOM      2  O   UNL     1     106.460 121.885 120.067  1.00  0.00    -0.202 OA
ATOM      3  C   UNL     1     105.333 122.534 119.791  1.00  0.00     0.368 A 
ATOM      4  C   UNL     1     104.166 122.194 120.480  1.00  0.00     0.162 A 
ATOM      5  C   UNL     1     102.966 122.858 120.207  1.00  0.00     0.128 A 
ATOM      6  C   UNL     1     102.934 123.864 119.239  1.00  0.00     0.093 A 
ATOM      7  C   UNL     1     104.089 124.223 118.533  1.00  0.00     0.136 A 
ATOM      8  C   UNL     1     105.309 123.553 118.809  1.00  0.00     0.125 A 
ATOM      9  C   UNL     1     106.519 123.855 118.162  1.00  0.00     0.078 A 
ATOM     10  C   UNL     1     107.684 123.155 118.491  1.00  0.00     0.223 A 
ENDROOT
BRANCH   1  11
ATOM     11  C   UNL     1     108.800 121.339 119.850  1.00  0.00     0.087 A 
ATOM     12  C   UNL     1     109.621 121.724 120.925  1.00  0.00     0.022 A 
ATOM     13  C   UNL     1     110.748 120.967 121.259  1.00  0.00     0.051 A 
ATOM     14  C   UNL     1     111.080 119.828 120.519  1.00  0.00     0.157 A 
ATOM     15  C   UNL     1     109.148 120.206 119.096  1.00  0.00     0.068 A 
ATOM     16  C   UNL     1     110.279 119.445 119.431  1.00  0.00     0.158 A 
BRANCH  14  17
ATOM     17  O   UNL     1     112.210 119.093 120.878  1.00  0.00    -0.504 OA
ATOM     18  H   UNL     1     112.409 118.848 121.841  1.00  0.00     0.293 HD
ENDBRANCH  14  17
BRANCH  16  19
ATOM     19  O   UNL     1     110.607 118.315 118.685  1.00  0.00    -0.504 OA
ATOM     20  H   UNL     1     110.604 118.327 117.671  1.00  0.00     0.293 HD
ENDBRANCH  16  19
ENDBRANCH   1  11
BRANCH  10  21
ATOM     21  O   UNL     1     108.895 123.488 117.884  1.00  0.00    -0.500 OA
ATOM     22  H   UNL     1     109.194 124.452 117.784  1.00  0.00     0.294 HD
ENDBRANCH  10  21
BRANCH   5  23
ATOM     23  O   UNL     1     101.799 122.525 120.891  1.00  0.00    -0.507 OA
ATOM     24  H   UNL     1     101.062 121.986 120.452  1.00  0.00     0.293 HD
ENDBRANCH   5  23
BRANCH   7  25
ATOM     25  O   UNL     1     103.972 125.237 117.579  1.00  0.00    -0.507 OA
ATOM     26  H   UNL     1     103.225 125.302 116.904  1.00  0.00     0.293 HD
ENDBRANCH   7  25
TORSDOF 6
ENDMDL
MODEL 2
REMARK VINA RESULT:    -6.852      1.064      2.690
REMARK INTER + INTRA:          -8.600
REMARK INTER:                  -8.260
REMARK INTRA:                  -0.340
REMARK UNBOUND:                -0.345
REMARK SMILES Oc1cc(O)c2cc(O)c(-c3ccc(O)c(O)c3)[o+]c2c1
REMARK SMILES IDX 10 1 19 2 20 3 21 4 2 5 3 6 4 7 6 8 7 9 8 10 11 11 12 12
REMARK SMILES IDX 13 13 14 14 18 15 16 16 15 17 17 19 9 21 1 23 5 25
REMARK H PARENT 15 18 17 20 9 22 1 24 5 26
REMARK Flexibility Score: inf
ROOT
ATOM      1  C   UNL     1     107.037 121.214 120.485  1.00  0.00     0.402 A 
ATOM      2  O   UNL     1     106.789 122.224 119.657  1.00  0.00    -0.202 OA
ATOM      3  C   UNL     1     105.580 122.753 119.492  1.00  0.00     0.368 A 
ATOM      4  C   UNL     1     105.420 123.816 118.600  1.00  0.00     0.162 A 
ATOM      5  C   UNL     1     104.161 124.394 118.410  1.00  0.00     0.128 A 
ATOM      6  C   UNL     1     103.059 123.906 119.117  1.00  0.00     0.093 A 
ATOM      7  C   UNL     1     103.193 122.842 120.017  1.00  0.00     0.136 A 
ATOM      8  C   UNL     1     104.469 122.252 120.211  1.00  0.00     0.125 A 
ATOM      9  C   UNL     1     104.696 121.173 121.082  1.00  0.00     0.078 A 
ATOM     10  C   UNL     1     105.982 120.640 121.218  1.00  0.00     0.223 A 
ENDROOT
BRANCH   1  11
ATOM     11  C   UNL     1     108.429 120.718 120.588  1.00  0.00     0.087 A 
ATOM     12  C   UNL     1     109.266 121.101 121.651  1.00  0.00     0.022 A 
ATOM     13  C   UNL     1     110.584 120.638 121.713  1.00  0.00     0.051 A 
ATOM     14  C   UNL     1     111.088 119.801 120.713  1.00  0.00     0.157 A 
ATOM     15  C   UNL     1     108.945 119.894 119.574  1.00  0.00     0.068 A 
ATOM     16  C   UNL     1     110.267 119.429 119.636  1.00  0.00     0.158 A 
BRANCH  14  17
ATOM     17  O   UNL     1     112.406 119.355 120.804  1.00  0.00    -0.504 OA
ATOM     18  H   UNL     1     112.639 118.369 120.840  1.00  0.00     0.293 HD
ENDBRANCH  14  17
BRANCH  16  19
ATOM     19  O   UNL     1     110.765 118.601 118.631  1.00  0.00    -0.504 OA
ATOM     20  H   UNL     1     111.630 118.085 118.748  1.00  0.00     0.293 HD
ENDBRANCH  16  19
ENDBRANCH   1  11
BRANCH  10  21
ATOM     21  O   UNL     1     106.198 119.537 122.045  1.00  0.00    -0.500 OA
ATOM     22  H   UNL     1     105.714 119.431 122.929  1.00  0.00     0.294 HD
ENDBRANCH  10  21
BRANCH   5  23
ATOM     23  O   UNL     1     103.993 125.453 117.522  1.00  0.00    -0.507 OA
ATOM     24  H   UNL     1     103.279 125.434 116.802  1.00  0.00     0.293 HD
ENDBRANCH   5  23
BRANCH   7  25
ATOM     25  O   UNL     1     102.044 122.416 120.686  1.00  0.00    -0.507 OA
ATOM     26  H   UNL     1     101.101 122.610 120.383  1.00  0.00     0.293 HD
ENDBRANCH   7  25
TORSDOF 6
ENDMDL
MODEL 3
REMARK VINA RESULT:    -6.551      0.626      1.493
REMARK INTER + INTRA:          -8.236
REMARK INTER:                  -7.884
REMARK INTRA:                  -0.353
REMARK UNBOUND:                -0.345
REMARK SMILES Oc1cc(O)c2cc(O)c(-c3ccc(O)c(O)c3)[o+]c2c1
REMARK SMILES IDX 10 1 19 2 20 3 21 4 2 5 3 6 4 7 6 8 7 9 8 10 11 11 12 12
REMARK SMILES IDX 13 13 14 14 18 15 16 16 15 17 17 19 9 21 1 23 5 25
REMARK H PARENT 15 18 17 20 9 22 1 24 5 26
REMARK Flexibility Score: inf
ROOT
ATOM      1  C   UNL     1     107.649 122.123 119.279  1.00  0.00     0.402 A 
ATOM      2  O   UNL     1     106.475 121.810 119.820  1.00  0.00    -0.202 OA
ATOM      3  C   UNL     1     105.349 122.464 119.552  1.00  0.00     0.368 A 
ATOM      4  C   UNL     1     104.164 122.057 120.168  1.00  0.00     0.162 A 
ATOM      5  C   UNL     1     102.964 122.724 119.901  1.00  0.00     0.128 A 
ATOM      6  C   UNL     1     102.952 123.802 119.013  1.00  0.00     0.093 A 
ATOM      7  C   UNL     1     104.127 124.230 118.382  1.00  0.00     0.136 A 
ATOM      8  C   UNL     1     105.347 123.556 118.652  1.00  0.00     0.125 A 
ATOM      9  C   UNL     1     106.575 123.923 118.077  1.00  0.00     0.078 A 
ATOM     10  C   UNL     1     107.738 123.214 118.395  1.00  0.00     0.223 A 
ENDROOT
BRANCH   1  11
ATOM     11  C   UNL     1     108.831 121.313 119.651  1.00  0.00     0.087 A 
ATOM     12  C   UNL     1     109.197 120.172 118.916  1.00  0.00     0.022 A 
ATOM     13  C   UNL     1     110.304 119.409 119.300  1.00  0.00     0.051 A 
ATOM     14  C   UNL     1     111.050 119.763 120.429  1.00  0.00     0.157 A 
ATOM     15  C   UNL     1     109.570 121.654 120.796  1.00  0.00     0.068 A 
ATOM     16  C   UNL     1     110.681 120.889 121.183  1.00  0.00     0.158 A 
BRANCH  14  17
ATOM     17  O   UNL     1     112.149 118.983 120.786  1.00  0.00    -0.504 OA
ATOM     18  H   UNL     1     112.164 117.979 120.646  1.00  0.00     0.293 HD
ENDBRANCH  14  17
BRANCH  16  19
ATOM     19  O   UNL     1     111.415 121.244 122.313  1.00  0.00    -0.504 OA
ATOM     20  H   UNL     1     112.247 120.734 122.588  1.00  0.00     0.293 HD
ENDBRANCH  16  19
ENDBRANCH   1  11
BRANCH  10  21
ATOM     21  O   UNL     1     108.965 123.609 117.862  1.00  0.00    -0.500 OA
ATOM     22  H   UNL     1     109.777 123.762 118.450  1.00  0.00     0.294 HD
ENDBRANCH  10  21
BRANCH   5  23
ATOM     23  O   UNL     1     101.778 122.325 120.512  1.00  0.00    -0.507 OA
ATOM     24  H   UNL     1     101.432 122.782 121.348  1.00  0.00     0.293 HD
ENDBRANCH   5  23
BRANCH   7  25
ATOM     25  O   UNL     1     104.030 125.314 117.506  1.00  0.00    -0.507 OA
ATOM     26  H   UNL     1     103.167 125.780 117.268  1.00  0.00     0.293 HD
ENDBRANCH   7  25
TORSDOF 6
ENDMDL
MODEL 4
REMARK VINA RESULT:    -6.054      2.102      7.035
REMARK INTER + INTRA:          -7.638
REMARK INTER:                  -7.309
REMARK INTRA:                  -0.329
REMARK UNBOUND:                -0.345
REMARK SMILES Oc1cc(O)c2cc(O)c(-c3ccc(O)c(O)c3)[o+]c2c1
REMARK SMILES IDX 10 1 19 2 20 3 21 4 2 5 3 6 4 7 6 8 7 9 8 10 11 11 12 12
REMARK SMILES IDX 13 13 14 14 18 15 16 16 15 17 17 19 9 21 1 23 5 25
REMARK H PARENT 15 18 17 20 9 22 1 24 5 26
REMARK Flexibility Score: inf
ROOT
ATOM      1  C   UNL     1     106.245 121.755 120.043  1.00  0.00     0.402 A 
ATOM      2  O   UNL     1     107.563 121.843 119.887  1.00  0.00    -0.202 OA
ATOM      3  C   UNL     1     108.434 121.217 120.673  1.00  0.00     0.368 A 
ATOM      4  C   UNL     1     109.801 121.368 120.427  1.00  0.00     0.162 A 
ATOM      5  C   UNL     1     110.739 120.719 121.236  1.00  0.00     0.128 A 
ATOM      6  C   UNL     1     110.307 119.915 122.293  1.00  0.00     0.093 A 
ATOM      7  C   UNL     1     108.942 119.747 122.560  1.00  0.00     0.136 A 
ATOM      8  C   UNL     1     107.987 120.406 121.743  1.00  0.00     0.125 A 
ATOM      9  C   UNL     1     106.600 120.307 121.944  1.00  0.00     0.078 A 
ATOM     10  C   UNL     1     105.719 120.990 121.100  1.00  0.00     0.223 A 
ENDROOT
BRANCH   1  11
ATOM     11  C   UNL     1     105.377 122.493 119.096  1.00  0.00     0.087 A 
ATOM     12  C   UNL     1     105.096 123.859 119.272  1.00  0.00     0.022 A 
ATOM     13  C   UNL     1     104.255 124.528 118.378  1.00  0.00     0.051 A 
ATOM     14  C   UNL     1     103.672 123.843 117.308  1.00  0.00     0.157 A 
ATOM     15  C   UNL     1     104.774 121.803 118.032  1.00  0.00     0.068 A 
ATOM     16  C   UNL     1     103.929 122.473 117.134  1.00  0.00     0.158 A 
BRANCH  14  17
ATOM     17  O   UNL     1     102.838 124.538 116.432  1.00  0.00    -0.504 OA
ATOM     18  H   UNL     1     102.780 125.549 116.434  1.00  0.00     0.293 HD
ENDBRANCH  14  17
BRANCH  16  19
ATOM     19  O   UNL     1     103.346 121.782 116.073  1.00  0.00    -0.504 OA
ATOM     20  H   UNL     1     102.894 120.885 116.208  1.00  0.00     0.293 HD
ENDBRANCH  16  19
ENDBRANCH   1  11
BRANCH  10  21
ATOM     21  O   UNL     1     104.344 120.932 121.330  1.00  0.00    -0.500 OA
ATOM     22  H   UNL     1     103.676 121.305 120.665  1.00  0.00     0.294 HD
ENDBRANCH  10  21
BRANCH   5  23
ATOM     23  O   UNL     1     112.103 120.865 120.998  1.00  0.00    -0.507 OA
ATOM     24  H   UNL     1     112.468 120.991 120.061  1.00  0.00     0.293 HD
ENDBRANCH   5  23
BRANCH   7  25
ATOM     25  O   UNL     1     108.592 118.925 123.634  1.00  0.00    -0.507 OA
ATOM     26  H   UNL     1     108.467 117.925 123.570  1.00  0.00     0.293 HD
ENDBRANCH   7  25
TORSDOF 6
ENDMDL
MODEL 5
REMARK VINA RESULT:    -5.905      1.934      2.594
REMARK INTER + INTRA:          -7.458
REMARK INTER:                  -7.398
REMARK INTRA:                  -0.061
REMARK UNBOUND:                -0.345
REMARK SMILES Oc1cc(O)c2cc(O)c(-c3ccc(O)c(O)c3)[o+]c2c1
REMARK SMILES IDX 10 1 19 2 20 3 21 4 2 5 3 6 4 7 6 8 7 9 8 10 11 11 12 12
REMARK SMILES IDX 13 13 14 14 18 15 16 16 15 17 17 19 9 21 1 23 5 25
REMARK H PARENT 15 18 17 20 9 22 1 24 5 26
REMARK Flexibility Score: inf
ROOT
ATOM      1  C   UNL     1     107.190 121.190 121.054  1.00  0.00     0.402 A 
ATOM      2  O   UNL     1     106.530 120.984 122.190  1.00  0.00    -0.202 OA
ATOM      3  C   UNL     1     105.281 121.392 122.393  1.00  0.00     0.368 A 
ATOM      4  C   UNL     1     104.670 121.124 123.621  1.00  0.00     0.162 A 
ATOM      5  C   UNL     1     103.356 121.538 123.860  1.00  0.00     0.128 A 
ATOM      6  C   UNL     1     102.651 122.221 122.867  1.00  0.00     0.093 A 
ATOM      7  C   UNL     1     103.240 122.501 121.627  1.00  0.00     0.136 A 
ATOM      8  C   UNL     1     104.574 122.084 121.381  1.00  0.00     0.125 A 
ATOM      9  C   UNL     1     105.250 122.332 120.175  1.00  0.00     0.078 A 
ATOM     10  C   UNL     1     106.568 121.895 120.007  1.00  0.00     0.223 A 
ENDROOT
BRANCH   1  11
ATOM     11  C   UNL     1     108.575 120.679 120.946  1.00  0.00     0.087 A 
ATOM     12  C   UNL     1     109.561 121.029 121.886  1.00  0.00     0.022 A 
ATOM     13  C   UNL     1     110.868 120.553 121.750  1.00  0.00     0.051 A 
ATOM     14  C   UNL     1     111.214 119.736 120.670  1.00  0.00     0.157 A 
ATOM     15  C   UNL     1     108.932 119.875 119.851  1.00  0.00     0.068 A 
ATOM     16  C   UNL     1     110.244 119.397 119.713  1.00  0.00     0.158 A 
BRANCH  14  17
ATOM     17  O   UNL     1     112.526 119.276 120.562  1.00  0.00    -0.504 OA
ATOM     18  H   UNL     1     113.299 119.898 120.355  1.00  0.00     0.293 HD
ENDBRANCH  14  17
BRANCH  16  19
ATOM     19  O   UNL     1     110.583 118.588 118.630  1.00  0.00    -0.504 OA
ATOM     20  H   UNL     1     111.547 118.354 118.423  1.00  0.00     0.293 HD
ENDBRANCH  16  19
ENDBRANCH   1  11
BRANCH  10  21
ATOM     21  O   UNL     1     107.256 122.185 118.829  1.00  0.00    -0.500 OA
ATOM     22  H   UNL     1     106.805 122.138 117.922  1.00  0.00     0.294 HD
ENDBRANCH  10  21
BRANCH   5  23
ATOM     23  O   UNL     1     102.740 121.276 125.082  1.00  0.00    -0.507 OA
ATOM     24  H   UNL     1     103.188 121.506 125.961  1.00  0.00     0.293 HD
ENDBRANCH   5  23
BRANCH   7  25
ATOM     25  O   UNL     1     102.467 123.185 120.686  1.00  0.00    -0.507 OA
ATOM     26  H   UNL     1     102.809 123.508 119.793  1.00  0.00     0.293 HD
ENDBRANCH   7  25
TORSDOF 6
ENDMDL
MODEL 6
REMARK VINA RESULT:    -5.879      2.962      3.924
REMARK INTER + INTRA:          -7.427
REMARK INTER:                  -7.081
REMARK INTRA:                  -0.345
REMARK UNBOUND:                -0.345
REMARK SMILES Oc1cc(O)c2cc(O)c(-c3ccc(O)c(O)c3)[o+]c2c1
REMARK SMILES IDX 10 1 19 2 20 3 21 4 2 5 3 6 4 7 6 8 7 9 8 10 11 11 12 12
REMARK SMILES IDX 13 13 14 14 18 15 16 16 15 17 17 19 9 21 1 23 5 25
REMARK H PARENT 15 18 17 20 9 22 1 24 5 26
REMARK Flexibility Score: inf
ROOT
ATOM      1  C   UNL     1     107.100 120.251 121.391  1.00  0.00     0.402 A 
ATOM      2  O   UNL     1     106.579 119.344 122.213  1.00  0.00    -0.202 OA
ATOM      3  C   UNL     1     105.271 119.171 122.373  1.00  0.00     0.368 A 
ATOM      4  C   UNL     1     104.819 118.189 123.257  1.00  0.00     0.162 A 
ATOM      5  C   UNL     1     103.448 117.982 123.442  1.00  0.00     0.128 A 
ATOM      6  C   UNL     1     102.527 118.761 122.738  1.00  0.00     0.093 A 
ATOM      7  C   UNL     1     102.954 119.752 121.845  1.00  0.00     0.136 A 
ATOM      8  C   UNL     1     104.344 119.966 121.656  1.00  0.00     0.125 A 
ATOM      9  C   UNL     1     104.864 120.944 120.793  1.00  0.00     0.078 A 
ATOM     10  C   UNL     1     106.248 121.101 120.662  1.00  0.00     0.223 A 
ENDROOT
BRANCH   1  11
ATOM     11  C   UNL     1     108.575 120.342 121.293  1.00  0.00     0.087 A 
ATOM     12  C   UNL     1     109.320 121.144 122.175  1.00  0.00     0.022 A 
ATOM     13  C   UNL     1     110.709 121.232 122.047  1.00  0.00     0.051 A 
ATOM     14  C   UNL     1     111.372 120.535 121.032  1.00  0.00     0.157 A 
ATOM     15  C   UNL     1     109.242 119.659 120.262  1.00  0.00     0.068 A 
ATOM     16  C   UNL     1     110.636 119.747 120.133  1.00  0.00     0.158 A 
BRANCH  14  17
ATOM     17  O   UNL     1     112.759 120.642 120.932  1.00  0.00    -0.504 OA
ATOM     18  H   UNL     1     113.303 121.203 121.576  1.00  0.00     0.293 HD
ENDBRANCH  14  17
BRANCH  16  19
ATOM     19  O   UNL     1     111.290 119.054 119.115  1.00  0.00    -0.504 OA
ATOM     20  H   UNL     1     112.080 118.449 119.306  1.00  0.00     0.293 HD
ENDBRANCH  16  19
ENDBRANCH   1  11
BRANCH  10  21
ATOM     21  O   UNL     1     106.764 122.105 119.843  1.00  0.00    -0.500 OA
ATOM     22  H   UNL     1     106.170 122.817 119.433  1.00  0.00     0.294 HD
ENDBRANCH  10  21
BRANCH   5  23
ATOM     23  O   UNL     1     102.990 117.006 124.323  1.00  0.00    -0.507 OA
ATOM     24  H   UNL     1     102.637 116.115 123.991  1.00  0.00     0.293 HD
ENDBRANCH   5  23
BRANCH   7  25
ATOM     25  O   UNL     1     101.970 120.485 121.178  1.00  0.00    -0.507 OA
ATOM     26  H   UNL     1     102.149 121.112 120.407  1.00  0.00     0.293 HD
ENDBRANCH   7  25
TORSDOF 6
ENDMDL
MODEL 7
REMARK VINA RESULT:    -5.785      1.997      6.558
REMARK INTER + INTRA:          -7.313
REMARK INTER:                  -6.999
REMARK INTRA:                  -0.314
REMARK UNBOUND:                -0.345
REMARK SMILES Oc1cc(O)c2cc(O)c(-c3ccc(O)c(O)c3)[o+]c2c1
REMARK SMILES IDX 10 1 19 2 20 3 21 4 2 5 3 6 4 7 6 8 7 9 8 10 11 11 12 12
REMARK SMILES IDX 13 13 14 14 18 15 16 16 15 17 17 19 9 21 1 23 5 25
REMARK H PARENT 15 18 17 20 9 22 1 24 5 26
REMARK Flexibility Score: inf
ROOT
ATOM      1  C   UNL     1     106.762 122.424 119.227  1.00  0.00     0.402 A 
ATOM      2  O   UNL     1     106.675 121.577 120.248  1.00  0.00    -0.202 OA
ATOM      3  C   UNL     1     107.736 121.068 120.867  1.00  0.00     0.368 A 
ATOM      4  C   UNL     1     107.543 120.187 121.934  1.00  0.00     0.162 A 
ATOM      5  C   UNL     1     108.641 119.640 122.605  1.00  0.00     0.128 A 
ATOM      6  C   UNL     1     109.936 119.977 122.207  1.00  0.00     0.093 A 
ATOM      7  C   UNL     1     110.157 120.858 121.141  1.00  0.00     0.136 A 
ATOM      8  C   UNL     1     109.046 121.414 120.456  1.00  0.00     0.125 A 
ATOM      9  C   UNL     1     109.170 122.295 119.368  1.00  0.00     0.078 A 
ATOM     10  C   UNL     1     108.027 122.798 118.739  1.00  0.00     0.223 A 
ENDROOT
BRANCH   1  11
ATOM     11  C   UNL     1     105.506 122.929 118.627  1.00  0.00     0.087 A 
ATOM     12  C   UNL     1     105.048 124.235 118.876  1.00  0.00     0.022 A 
ATOM     13  C   UNL     1     103.847 124.681 118.316  1.00  0.00     0.051 A 
ATOM     14  C   UNL     1     103.080 123.829 117.516  1.00  0.00     0.157 A 
ATOM     15  C   UNL     1     104.722 122.069 117.839  1.00  0.00     0.068 A 
ATOM     16  C   UNL     1     103.516 122.516 117.277  1.00  0.00     0.158 A 
BRANCH  14  17
ATOM     17  O   UNL     1     101.887 124.303 116.971  1.00  0.00    -0.504 OA
ATOM     18  H   UNL     1     101.557 124.009 116.059  1.00  0.00     0.293 HD
ENDBRANCH  14  17
BRANCH  16  19
ATOM     19  O   UNL     1     102.754 121.659 116.485  1.00  0.00    -0.504 OA
ATOM     20  H   UNL     1     102.803 120.652 116.592  1.00  0.00     0.293 HD
ENDBRANCH  16  19
ENDBRANCH   1  11
BRANCH  10  21
ATOM     21  O   UNL     1     108.151 123.633 117.628  1.00  0.00    -0.500 OA
ATOM     22  H   UNL     1     108.719 124.473 117.653  1.00  0.00     0.294 HD
ENDBRANCH  10  21
BRANCH   5  23
ATOM     23  O   UNL     1     108.457 118.761 123.669  1.00  0.00    -0.507 OA
ATOM     24  H   UNL     1     108.500 119.075 124.631  1.00  0.00     0.293 HD
ENDBRANCH   5  23
BRANCH   7  25
ATOM     25  O   UNL     1     111.483 121.147 120.807  1.00  0.00    -0.507 OA
ATOM     26  H   UNL     1     112.287 120.712 121.236  1.00  0.00     0.293 HD
ENDBRANCH   7  25
TORSDOF 6
ENDMDL
MODEL 8
REMARK VINA RESULT:    -5.733     10.374     11.660
REMARK INTER + INTRA:          -7.252
REMARK INTER:                  -6.916
REMARK INTRA:                  -0.336
REMARK UNBOUND:                -0.345
REMARK SMILES Oc1cc(O)c2cc(O)c(-c3ccc(O)c(O)c3)[o+]c2c1
REMARK SMILES IDX 10 1 19 2 20 3 21 4 2 5 3 6 4 7 6 8 7 9 8 10 11 11 12 12
REMARK SMILES IDX 13 13 14 14 18 15 16 16 15 17 17 19 9 21 1 23 5 25
REMARK H PARENT 15 18 17 20 9 22 1 24 5 26
REMARK Flexibility Score: inf
ROOT
ATOM      1  C   UNL     1     101.994 115.588 113.373  1.00  0.00     0.402 A 
ATOM      2  O   UNL     1     102.440 114.849 114.385  1.00  0.00    -0.202 OA
ATOM      3  C   UNL     1     102.053 113.595 114.598  1.00  0.00     0.368 A 
ATOM      4  C   UNL     1     102.581 112.898 115.688  1.00  0.00     0.162 A 
ATOM      5  C   UNL     1     102.195 111.576 115.934  1.00  0.00     0.128 A 
ATOM      6  C   UNL     1     101.278 110.951 115.086  1.00  0.00     0.093 A 
ATOM      7  C   UNL     1     100.735 111.628 113.986  1.00  0.00     0.136 A 
ATOM      8  C   UNL     1     101.123 112.969 113.734  1.00  0.00     0.125 A 
ATOM      9  C   UNL     1     100.621 113.730 112.665  1.00  0.00     0.078 A 
ATOM     10  C   UNL     1     101.046 115.050 112.483  1.00  0.00     0.223 A 
ENDROOT
BRANCH   1  11
ATOM     11  C   UNL     1     102.508 116.970 113.235  1.00  0.00     0.087 A 
ATOM     12  C   UNL     1     101.798 118.069 113.749  1.00  0.00     0.022 A 
ATOM     13  C   UNL     1     102.291 119.367 113.587  1.00  0.00     0.051 A 
ATOM     14  C   UNL     1     103.488 119.588 112.899  1.00  0.00     0.157 A 
ATOM     15  C   UNL     1     103.699 117.197 112.527  1.00  0.00     0.068 A 
ATOM     16  C   UNL     1     104.195 118.500 112.363  1.00  0.00     0.158 A 
BRANCH  14  17
ATOM     17  O   UNL     1     103.955 120.894 112.754  1.00  0.00    -0.504 OA
ATOM     18  H   UNL     1     104.671 121.138 112.080  1.00  0.00     0.293 HD
ENDBRANCH  14  17
BRANCH  16  19
ATOM     19  O   UNL     1     105.386 118.713 111.670  1.00  0.00    -0.504 OA
ATOM     20  H   UNL     1     105.651 119.634 111.341  1.00  0.00     0.293 HD
ENDBRANCH  16  19
ENDBRANCH   1  11
BRANCH  10  21
ATOM     21  O   UNL     1     100.511 115.821 111.451  1.00  0.00    -0.500 OA
ATOM     22  H   UNL     1      99.513 115.982 111.368  1.00  0.00     0.294 HD
ENDBRANCH  10  21
BRANCH   5  23
ATOM     23  O   UNL     1     102.715 110.875 117.019  1.00  0.00    -0.507 OA
ATOM     24  H   UNL     1     103.285 110.047 116.891  1.00  0.00     0.293 HD
ENDBRANCH   5  23
BRANCH   7  25
ATOM     25  O   UNL     1      99.827 110.931 113.185  1.00  0.00    -0.507 OA
ATOM     26  H   UNL     1      99.107 111.366 112.628  1.00  0.00     0.293 HD
ENDBRANCH   7  25
TORSDOF 6
ENDMDL
MODEL 9
REMARK VINA RESULT:    -5.658      3.866      7.108
REMARK INTER + INTRA:          -7.161
REMARK INTER:                  -6.817
REMARK INTRA:                  -0.344
REMARK UNBOUND:                -0.345
REMARK SMILES Oc1cc(O)c2cc(O)c(-c3ccc(O)c(O)c3)[o+]c2c1
REMARK SMILES IDX 10 1 19 2 20 3 21 4 2 5 3 6 4 7 6 8 7 9 8 10 11 11 12 12
REMARK SMILES IDX 13 13 14 14 18 15 16 16 15 17 17 19 9 21 1 23 5 25
REMARK H PARENT 15 18 17 20 9 22 1 24 5 26
REMARK Flexibility Score: inf
ROOT
ATOM      1  C   UNL     1     105.726 119.783 122.217  1.00  0.00     0.402 A 
ATOM      2  O   UNL     1     107.029 119.618 122.423  1.00  0.00    -0.202 OA
ATOM      3  C   UNL     1     107.965 120.205 121.683  1.00  0.00     0.368 A 
ATOM      4  C   UNL     1     109.310 119.972 121.980  1.00  0.00     0.162 A 
ATOM      5  C   UNL     1     110.316 120.580 121.220  1.00  0.00     0.128 A 
ATOM      6  C   UNL     1     109.972 121.423 120.162  1.00  0.00     0.093 A 
ATOM      7  C   UNL     1     108.632 121.673 119.844  1.00  0.00     0.136 A 
ATOM      8  C   UNL     1     107.608 121.057 120.611  1.00  0.00     0.125 A 
ATOM      9  C   UNL     1     106.239 121.238 120.357  1.00  0.00     0.078 A 
ATOM     10  C   UNL     1     105.287 120.593 121.153  1.00  0.00     0.223 A 
ENDROOT
BRANCH   1  11
ATOM     11  C   UNL     1     104.781 119.081 123.115  1.00  0.00     0.087 A 
ATOM     12  C   UNL     1     104.252 117.821 122.783  1.00  0.00     0.022 A 
ATOM     13  C   UNL     1     103.343 117.190 123.637  1.00  0.00     0.051 A 
ATOM     14  C   UNL     1     102.937 117.810 124.822  1.00  0.00     0.157 A 
ATOM     15  C   UNL     1     104.355 119.710 124.297  1.00  0.00     0.068 A 
ATOM     16  C   UNL     1     103.442 119.077 125.154  1.00  0.00     0.158 A 
BRANCH  14  17
ATOM     17  O   UNL     1     102.030 117.154 125.653  1.00  0.00    -0.504 OA
ATOM     18  H   UNL     1     101.508 117.642 126.372  1.00  0.00     0.293 HD
ENDBRANCH  14  17
BRANCH  16  19
ATOM     19  O   UNL     1     103.037 119.704 126.331  1.00  0.00    -0.504 OA
ATOM     20  H   UNL     1     102.059 119.778 126.585  1.00  0.00     0.293 HD
ENDBRANCH  16  19
ENDBRANCH   1  11
BRANCH  10  21
ATOM     21  O   UNL     1     103.928 120.733 120.871  1.00  0.00    -0.500 OA
ATOM     22  H   UNL     1     103.237 120.828 121.606  1.00  0.00     0.294 HD
ENDBRANCH  10  21
BRANCH   5  23
ATOM     23  O   UNL     1     111.659 120.352 121.509  1.00  0.00    -0.507 OA
ATOM     24  H   UNL     1     112.387 120.967 121.165  1.00  0.00     0.293 HD
ENDBRANCH   5  23
BRANCH   7  25
ATOM     25  O   UNL     1     108.372 122.531 118.773  1.00  0.00    -0.507 OA
ATOM     26  H   UNL     1     108.776 122.433 117.852  1.00  0.00     0.293 HD
ENDBRANCH   7  25
TORSDOF 6
ENDMDL
