MODEL 1
REMARK VINA RESULT:    -3.611      0.000      0.000
REMARK INTER + INTRA:          -6.194
REMARK INTER:                  -5.511
REMARK INTRA:                  -0.683
REMARK UNBOUND:                -0.683
REMARK SMILES O=C([O-])CCCCCCCCC(=O)[O-]
REMARK SMILES IDX 7 1 6 2 5 3 4 4 2 5 1 6 3 7 8 8 9 9 10 10 11 11 12 12 13 13
REMARK SMILES IDX 14 14
REMARK H PARENT
REMARK Flexibility Score: inf
ROOT
ATOM      1  C   UNL     1      65.755 -14.343  12.687  1.00  0.00     0.000 C 
ENDROOT
BRANCH   1   2
ATOM      2  C   UNL     1      65.286 -15.639  13.364  1.00  0.00     0.000 C 
BRANCH   2   3
ATOM      3  C   UNL     1      66.062 -15.948  14.654  1.00  0.00     0.006 C 
BRANCH   3   4
ATOM      4  C   UNL     1      67.464 -15.323  14.665  1.00  0.00     0.053 C 
BRANCH   4   5
ATOM      5  C   UNL     1      68.331 -16.005  15.675  1.00  0.00     0.041 C 
ATOM      6  O   UNL     1      67.815 -16.574  16.673  1.00  0.00    -0.550 OA
ATOM      7  O   UNL     1      69.708 -16.055  15.488  1.00  0.00    -0.550 OA
ENDBRANCH   4   5
ENDBRANCH   3   4
ENDBRANCH   2   3
ENDBRANCH   1   2
BRANCH   1   8
ATOM      8  C   UNL     1      66.055 -14.581  11.199  1.00  0.00     0.000 C 
BRANCH   8   9
ATOM      9  C   UNL     1      66.222 -16.070  10.858  1.00  0.00     0.000 C 
BRANCH   9  10
ATOM     10  C   UNL     1      67.696 -16.494  10.768  1.00  0.00     0.006 C 
BRANCH  10  11
ATOM     11  C   UNL     1      68.202 -16.410   9.324  1.00  0.00     0.053 C 
BRANCH  11  12
ATOM     12  C   UNL     1      69.331 -15.434   9.221  1.00  0.00     0.041 C 
ATOM     13  O   UNL     1      69.539 -14.605  10.145  1.00  0.00    -0.550 OA
ATOM     14  O   UNL     1      70.124 -15.407   8.081  1.00  0.00    -0.550 OA
ENDBRANCH  11  12
ENDBRANCH  10  11
ENDBRANCH   9  10
ENDBRANCH   8   9
ENDBRANCH   1   8
TORSDOF 9
ENDMDL
MODEL 2
REMARK VINA RESULT:    -3.438     20.406     22.304
REMARK INTER + INTRA:          -5.929
REMARK INTER:                  -5.383
REMARK INTRA:                  -0.546
REMARK UNBOUND:                -0.683
REMARK SMILES O=C([O-])CCCCCCCCC(=O)[O-]
REMARK SMILES IDX 7 1 6 2 5 3 4 4 2 5 1 6 3 7 8 8 9 9 10 10 11 11 12 12 13 13
REMARK SMILES IDX 14 14
REMARK H PARENT
REMARK Flexibility Score: inf
ROOT
ATOM      1  C   UNL     1      56.615   0.832  22.025  1.00  0.00     0.000 C 
ENDROOT
BRANCH   1   2
ATOM      2  C   UNL     1      57.495  -0.214  21.325  1.00  0.00     0.000 C 
BRANCH   2   3
ATOM      3  C   UNL     1      57.410  -1.599  21.986  1.00  0.00     0.006 C 
BRANCH   3   4
ATOM      4  C   UNL     1      58.720  -2.006  22.676  1.00  0.00     0.053 C 
BRANCH   4   5
ATOM      5  C   UNL     1      58.628  -1.772  24.151  1.00  0.00     0.041 C 
ATOM      6  O   UNL     1      59.638  -1.941  24.883  1.00  0.00    -0.550 OA
ATOM      7  O   UNL     1      57.439  -1.319  24.710  1.00  0.00    -0.550 OA
ENDBRANCH   4   5
ENDBRANCH   3   4
ENDBRANCH   2   3
ENDBRANCH   1   2
BRANCH   1   8
ATOM      8  C   UNL     1      55.170   0.328  22.161  1.00  0.00     0.000 C 
BRANCH   8   9
ATOM      9  C   UNL     1      54.173   1.459  22.459  1.00  0.00     0.000 C 
BRANCH   9  10
ATOM     10  C   UNL     1      52.985   1.472  21.485  1.00  0.00     0.006 C 
BRANCH  10  11
ATOM     11  C   UNL     1      53.032   0.261  20.548  1.00  0.00     0.053 C 
BRANCH  11  12
ATOM     12  C   UNL     1      51.689  -0.394  20.472  1.00  0.00     0.041 C 
ATOM     13  O   UNL     1      50.926  -0.162  19.498  1.00  0.00    -0.550 OA
ATOM     14  O   UNL     1      51.261  -1.224  21.500  1.00  0.00    -0.550 OA
ENDBRANCH  11  12
ENDBRANCH  10  11
ENDBRANCH   9  10
ENDBRANCH   8   9
ENDBRANCH   1   8
TORSDOF 9
ENDMDL
MODEL 3
REMARK VINA RESULT:    -3.400      9.749     10.530
REMARK INTER + INTRA:          -5.872
REMARK INTER:                  -5.325
REMARK INTRA:                  -0.547
REMARK UNBOUND:                -0.683
REMARK SMILES O=C([O-])CCCCCCCCC(=O)[O-]
REMARK SMILES IDX 7 1 6 2 5 3 4 4 2 5 1 6 3 7 8 8 9 9 10 10 11 11 12 12 13 13
REMARK SMILES IDX 14 14
REMARK H PARENT
REMARK Flexibility Score: inf
ROOT
ATOM      1  C   UNL     1      56.055 -15.335  10.407  1.00  0.00     0.000 C 
ENDROOT
BRANCH   1   2
ATOM      2  C   UNL     1      56.756 -16.695  10.270  1.00  0.00     0.000 C 
BRANCH   2   3
ATOM      3  C   UNL     1      57.674 -17.010  11.462  1.00  0.00     0.006 C 
BRANCH   3   4
ATOM      4  C   UNL     1      56.981 -16.801  12.815  1.00  0.00     0.053 C 
BRANCH   4   5
ATOM      5  C   UNL     1      57.989 -16.493  13.876  1.00  0.00     0.041 C 
ATOM      6  O   UNL     1      57.683 -16.608  15.092  1.00  0.00    -0.550 OA
ATOM      7  O   UNL     1      59.282 -16.128  13.522  1.00  0.00    -0.550 OA
ENDBRANCH   4   5
ENDBRANCH   3   4
ENDBRANCH   2   3
ENDBRANCH   1   2
BRANCH   1   8
ATOM      8  C   UNL     1      56.270 -14.481   9.148  1.00  0.00     0.000 C 
BRANCH   8   9
ATOM      9  C   UNL     1      57.733 -14.050   8.965  1.00  0.00     0.000 C 
BRANCH   9  10
ATOM     10  C   UNL     1      58.205 -14.160   7.508  1.00  0.00     0.006 C 
BRANCH  10  11
ATOM     11  C   UNL     1      58.192 -15.618   7.037  1.00  0.00     0.053 C 
BRANCH  11  12
ATOM     12  C   UNL     1      58.157 -15.685   5.542  1.00  0.00     0.041 C 
ATOM     13  O   UNL     1      57.610 -14.765   4.880  1.00  0.00    -0.550 OA
ATOM     14  O   UNL     1      58.685 -16.788   4.884  1.00  0.00    -0.550 OA
ENDBRANCH  11  12
ENDBRANCH  10  11
ENDBRANCH   9  10
ENDBRANCH   8   9
ENDBRANCH   1   8
TORSDOF 9
ENDMDL
MODEL 4
REMARK VINA RESULT:    -3.356     20.456     22.499
REMARK INTER + INTRA:          -5.805
REMARK INTER:                  -5.178
REMARK INTRA:                  -0.626
REMARK UNBOUND:                -0.683
REMARK SMILES O=C([O-])CCCCCCCCC(=O)[O-]
REMARK SMILES IDX 7 1 6 2 5 3 4 4 2 5 1 6 3 7 8 8 9 9 10 10 11 11 12 12 13 13
REMARK SMILES IDX 14 14
REMARK H PARENT
REMARK Flexibility Score: inf
ROOT
ATOM      1  C   UNL     1      55.386   0.812  22.727  1.00  0.00     0.000 C 
ENDROOT
BRANCH   1   2
ATOM      2  C   UNL     1      54.378   1.961  22.573  1.00  0.00     0.000 C 
BRANCH   2   3
ATOM      3  C   UNL     1      53.189   1.590  21.673  1.00  0.00     0.006 C 
BRANCH   3   4
ATOM      4  C   UNL     1      53.308   0.174  21.091  1.00  0.00     0.053 C 
BRANCH   4   5
ATOM      5  C   UNL     1      51.952  -0.379  20.783  1.00  0.00     0.041 C 
ATOM      6  O   UNL     1      51.326   0.010  19.762  1.00  0.00    -0.550 OA
ATOM      7  O   UNL     1      51.401  -1.361  21.597  1.00  0.00    -0.550 OA
ENDBRANCH   4   5
ENDBRANCH   3   4
ENDBRANCH   2   3
ENDBRANCH   1   2
BRANCH   1   8
ATOM      8  C   UNL     1      56.723   1.163  22.057  1.00  0.00     0.000 C 
BRANCH   8   9
ATOM      9  C   UNL     1      57.347  -0.030  21.318  1.00  0.00     0.000 C 
BRANCH   9  10
ATOM     10  C   UNL     1      57.176  -1.353  22.079  1.00  0.00     0.006 C 
BRANCH  10  11
ATOM     11  C   UNL     1      58.531  -1.904  22.533  1.00  0.00     0.053 C 
BRANCH  11  12
ATOM     12  C   UNL     1      58.682  -1.769  24.015  1.00  0.00     0.041 C 
ATOM     13  O   UNL     1      57.732  -1.323  24.710  1.00  0.00    -0.550 OA
ATOM     14  O   UNL     1      59.889  -2.091  24.623  1.00  0.00    -0.550 OA
ENDBRANCH  11  12
ENDBRANCH  10  11
ENDBRANCH   9  10
ENDBRANCH   8   9
ENDBRANCH   1   8
TORSDOF 9
ENDMDL
MODEL 5
REMARK VINA RESULT:    -3.280     15.202     16.382
REMARK INTER + INTRA:          -5.689
REMARK INTER:                  -4.791
REMARK INTRA:                  -0.898
REMARK UNBOUND:                -0.683
REMARK SMILES O=C([O-])CCCCCCCCC(=O)[O-]
REMARK SMILES IDX 7 1 6 2 5 3 4 4 2 5 1 6 3 7 8 8 9 9 10 10 11 11 12 12 13 13
REMARK SMILES IDX 14 14
REMARK H PARENT
REMARK Flexibility Score: inf
ROOT
ATOM      1  C   UNL     1      68.625  -2.056  10.496  1.00  0.00     0.000 C 
ENDROOT
BRANCH   1   2
ATOM      2  C   UNL     1      69.401  -1.782  11.793  1.00  0.00     0.000 C 
BRANCH   2   3
ATOM      3  C   UNL     1      69.553  -0.282  12.088  1.00  0.00     0.006 C 
BRANCH   3   4
ATOM      4  C   UNL     1      68.231   0.485  11.944  1.00  0.00     0.053 C 
BRANCH   4   5
ATOM      5  C   UNL     1      68.491   1.952  11.805  1.00  0.00     0.041 C 
ATOM      6  O   UNL     1      68.852   2.629  12.803  1.00  0.00    -0.550 OA
ATOM      7  O   UNL     1      68.383   2.562  10.561  1.00  0.00    -0.550 OA
ENDBRANCH   4   5
ENDBRANCH   3   4
ENDBRANCH   2   3
ENDBRANCH   1   2
BRANCH   1   8
ATOM      8  C   UNL     1      69.576  -2.495   9.372  1.00  0.00     0.000 C 
BRANCH   8   9
ATOM      9  C   UNL     1      69.420  -1.648   8.099  1.00  0.00     0.000 C 
BRANCH   9  10
ATOM     10  C   UNL     1      69.167  -0.164   8.402  1.00  0.00     0.006 C 
BRANCH  10  11
ATOM     11  C   UNL     1      68.310   0.481   7.308  1.00  0.00     0.053 C 
BRANCH  11  12
ATOM     12  C   UNL     1      66.951   0.818   7.837  1.00  0.00     0.041 C 
ATOM     13  O   UNL     1      66.305   1.783   7.353  1.00  0.00    -0.550 OA
ATOM     14  O   UNL     1      66.420   0.096   8.898  1.00  0.00    -0.550 OA
ENDBRANCH  11  12
ENDBRANCH  10  11
ENDBRANCH   9  10
ENDBRANCH   8   9
ENDBRANCH   1   8
TORSDOF 9
ENDMDL
MODEL 6
REMARK VINA RESULT:    -3.235      0.856      5.363
REMARK INTER + INTRA:          -5.620
REMARK INTER:                  -4.860
REMARK INTRA:                  -0.760
REMARK UNBOUND:                -0.683
REMARK SMILES O=C([O-])CCCCCCCCC(=O)[O-]
REMARK SMILES IDX 7 1 6 2 5 3 4 4 2 5 1 6 3 7 8 8 9 9 10 10 11 11 12 12 13 13
REMARK SMILES IDX 14 14
REMARK H PARENT
REMARK Flexibility Score: inf
ROOT
ATOM      1  C   UNL     1      66.811 -14.489  11.993  1.00  0.00     0.000 C 
ENDROOT
BRANCH   1   2
ATOM      2  C   UNL     1      66.516 -15.106  10.618  1.00  0.00     0.000 C 
BRANCH   2   3
ATOM      3  C   UNL     1      67.391 -16.334  10.320  1.00  0.00     0.006 C 
BRANCH   3   4
ATOM      4  C   UNL     1      68.866 -16.111  10.678  1.00  0.00     0.053 C 
BRANCH   4   5
ATOM      5  C   UNL     1      69.554 -15.336   9.598  1.00  0.00     0.041 C 
ATOM      6  O   UNL     1      69.594 -15.787   8.423  1.00  0.00    -0.550 OA
ATOM      7  O   UNL     1      70.108 -14.093   9.879  1.00  0.00    -0.550 OA
ENDBRANCH   4   5
ENDBRANCH   3   4
ENDBRANCH   2   3
ENDBRANCH   1   2
BRANCH   1   8
ATOM      8  C   UNL     1      65.598 -14.627  12.926  1.00  0.00     0.000 C 
BRANCH   8   9
ATOM      9  C   UNL     1      65.098 -16.076  13.039  1.00  0.00     0.000 C 
BRANCH   9  10
ATOM     10  C   UNL     1      65.878 -16.891  14.081  1.00  0.00     0.006 C 
BRANCH  10  11
ATOM     11  C   UNL     1      66.345 -16.000  15.236  1.00  0.00     0.053 C 
BRANCH  11  12
ATOM     12  C   UNL     1      67.808 -16.192  15.488  1.00  0.00     0.041 C 
ATOM     13  O   UNL     1      68.644 -15.949  14.579  1.00  0.00    -0.550 OA
ATOM     14  O   UNL     1      68.243 -16.685  16.711  1.00  0.00    -0.550 OA
ENDBRANCH  11  12
ENDBRANCH  10  11
ENDBRANCH   9  10
ENDBRANCH   8   9
ENDBRANCH   1   8
TORSDOF 9
ENDMDL
MODEL 7
REMARK VINA RESULT:    -3.204     15.017     16.140
REMARK INTER + INTRA:          -5.573
REMARK INTER:                  -4.633
REMARK INTRA:                  -0.940
REMARK UNBOUND:                -0.683
REMARK SMILES O=C([O-])CCCCCCCCC(=O)[O-]
REMARK SMILES IDX 7 1 6 2 5 3 4 4 2 5 1 6 3 7 8 8 9 9 10 10 11 11 12 12 13 13
REMARK SMILES IDX 14 14
REMARK H PARENT
REMARK Flexibility Score: inf
ROOT
ATOM      1  C   UNL     1      68.234   2.346  11.243  1.00  0.00     0.000 C 
ENDROOT
BRANCH   1   2
ATOM      2  C   UNL     1      68.305   1.018  12.012  1.00  0.00     0.000 C 
BRANCH   2   3
ATOM      3  C   UNL     1      69.713   0.403  12.004  1.00  0.00     0.006 C 
BRANCH   3   4
ATOM      4  C   UNL     1      69.918  -0.589  10.851  1.00  0.00     0.053 C 
BRANCH   4   5
ATOM      5  C   UNL     1      69.204  -1.873  11.134  1.00  0.00     0.041 C 
ATOM      6  O   UNL     1      69.302  -2.416  12.265  1.00  0.00    -0.550 OA
ATOM      7  O   UNL     1      68.390  -2.445  10.163  1.00  0.00    -0.550 OA
ENDBRANCH   4   5
ENDBRANCH   3   4
ENDBRANCH   2   3
ENDBRANCH   1   2
BRANCH   1   8
ATOM      8  C   UNL     1      67.558   2.151   9.877  1.00  0.00     0.000 C 
BRANCH   8   9
ATOM      9  C   UNL     1      66.751   0.846   9.796  1.00  0.00     0.000 C 
BRANCH   9  10
ATOM     10  C   UNL     1      66.831   0.186   8.411  1.00  0.00     0.006 C 
BRANCH  10  11
ATOM     11  C   UNL     1      67.591   1.077   7.423  1.00  0.00     0.053 C 
BRANCH  11  12
ATOM     12  C   UNL     1      68.735   0.328   6.815  1.00  0.00     0.041 C 
ATOM     13  O   UNL     1      69.356   0.810   5.833  1.00  0.00    -0.550 OA
ATOM     14  O   UNL     1      69.084  -0.924   7.304  1.00  0.00    -0.550 OA
ENDBRANCH  11  12
ENDBRANCH  10  11
ENDBRANCH   9  10
ENDBRANCH   8   9
ENDBRANCH   1   8
TORSDOF 9
ENDMDL
MODEL 8
REMARK VINA RESULT:    -3.146     21.215     23.249
REMARK INTER + INTRA:          -5.484
REMARK INTER:                  -4.848
REMARK INTRA:                  -0.635
REMARK UNBOUND:                -0.683
REMARK SMILES O=C([O-])CCCCCCCCC(=O)[O-]
REMARK SMILES IDX 7 1 6 2 5 3 4 4 2 5 1 6 3 7 8 8 9 9 10 10 11 11 12 12 13 13
REMARK SMILES IDX 14 14
REMARK H PARENT
REMARK Flexibility Score: inf
ROOT
ATOM      1  C   UNL     1      53.631   1.284  22.286  1.00  0.00     0.000 C 
ENDROOT
BRANCH   1   2
ATOM      2  C   UNL     1      54.663   0.154  22.162  1.00  0.00     0.000 C 
BRANCH   2   3
ATOM      3  C   UNL     1      56.108   0.650  22.331  1.00  0.00     0.006 C 
BRANCH   3   4
ATOM      4  C   UNL     1      57.135  -0.282  21.674  1.00  0.00     0.053 C 
BRANCH   4   5
ATOM      5  C   UNL     1      57.667  -1.259  22.674  1.00  0.00     0.041 C 
ATOM      6  O   UNL     1      58.495  -2.140  22.321  1.00  0.00    -0.550 OA
ATOM      7  O   UNL     1      57.287  -1.166  24.008  1.00  0.00    -0.550 OA
ENDBRANCH   4   5
ENDBRANCH   3   4
ENDBRANCH   2   3
ENDBRANCH   1   2
BRANCH   1   8
ATOM      8  C   UNL     1      52.828   1.437  20.985  1.00  0.00     0.000 C 
BRANCH   8   9
ATOM      9  C   UNL     1      52.546   0.090  20.301  1.00  0.00     0.000 C 
BRANCH   9  10
ATOM     10  C   UNL     1      51.059  -0.292  20.337  1.00  0.00     0.006 C 
BRANCH  10  11
ATOM     11  C   UNL     1      50.826  -1.501  21.248  1.00  0.00     0.053 C 
BRANCH  11  12
ATOM     12  C   UNL     1      50.495  -1.054  22.638  1.00  0.00     0.041 C 
ATOM     13  O   UNL     1      50.555  -1.868  23.596  1.00  0.00    -0.550 OA
ATOM     14  O   UNL     1      50.075   0.250  22.867  1.00  0.00    -0.550 OA
ENDBRANCH  11  12
ENDBRANCH  10  11
ENDBRANCH   9  10
ENDBRANCH   8   9
ENDBRANCH   1   8
TORSDOF 9
ENDMDL
MODEL 9
REMARK VINA RESULT:    -3.118     15.079     16.751
REMARK INTER + INTRA:          -5.441
REMARK INTER:                  -4.649
REMARK INTRA:                  -0.792
REMARK UNBOUND:                -0.683
REMARK SMILES O=C([O-])CCCCCCCCC(=O)[O-]
REMARK SMILES IDX 7 1 6 2 5 3 4 4 2 5 1 6 3 7 8 8 9 9 10 10 11 11 12 12 13 13
REMARK SMILES IDX 14 14
REMARK H PARENT
REMARK Flexibility Score: inf
ROOT
ATOM      1  C   UNL     1      69.367  -2.517   9.117  1.00  0.00     0.000 C 
ENDROOT
BRANCH   1   2
ATOM      2  C   UNL     1      69.995  -1.409   8.257  1.00  0.00     0.000 C 
BRANCH   2   3
ATOM      3  C   UNL     1      68.989  -0.772   7.285  1.00  0.00     0.006 C 
BRANCH   3   4
ATOM      4  C   UNL     1      68.666   0.685   7.640  1.00  0.00     0.053 C 
BRANCH   4   5
ATOM      5  C   UNL     1      67.189   0.869   7.798  1.00  0.00     0.041 C 
ATOM      6  O   UNL     1      66.530   0.095   8.540  1.00  0.00    -0.550 OA
ATOM      7  O   UNL     1      66.549   1.927   7.163  1.00  0.00    -0.550 OA
ENDBRANCH   4   5
ENDBRANCH   3   4
ENDBRANCH   2   3
ENDBRANCH   1   2
BRANCH   1   8
ATOM      8  C   UNL     1      68.610  -1.919  10.312  1.00  0.00     0.000 C 
BRANCH   8   9
ATOM      9  C   UNL     1      69.368  -2.086  11.638  1.00  0.00     0.000 C 
BRANCH   9  10
ATOM     10  C   UNL     1      69.764  -0.742  12.267  1.00  0.00     0.006 C 
BRANCH  10  11
ATOM     11  C   UNL     1      69.581   0.405  11.268  1.00  0.00     0.053 C 
BRANCH  11  12
ATOM     12  C   UNL     1      68.684   1.458  11.839  1.00  0.00     0.041 C 
ATOM     13  O   UNL     1      67.805   2.000  11.119  1.00  0.00    -0.550 OA
ATOM     14  O   UNL     1      68.851   1.876  13.153  1.00  0.00    -0.550 OA
ENDBRANCH  11  12
ENDBRANCH  10  11
ENDBRANCH   9  10
ENDBRANCH   8   9
ENDBRANCH   1   8
TORSDOF 9
ENDMDL
