MODEL 1
REMARK VINA RESULT:    -4.107      0.000      0.000
REMARK INTER + INTRA:          -4.918
REMARK INTER:                  -4.707
REMARK INTRA:                  -0.211
REMARK UNBOUND:                -0.211
REMARK SMILES COC(=O)c1ccccc1O
REMARK SMILES IDX 5 1 6 2 7 3 8 4 9 5 10 6 3 7 4 8 2 9 1 10 11 11
REMARK H PARENT 11 12
REMARK Flexibility Score: inf
ROOT
ATOM      1  C   UNL     1     167.132 169.888 168.500  1.00  0.00     0.101 A 
ATOM      2  C   UNL     1     168.470 169.462 168.423  1.00  0.00     0.019 A 
ATOM      3  C   UNL     1     168.779 168.134 168.117  1.00  0.00     0.001 A 
ATOM      4  C   UNL     1     167.757 167.216 167.881  1.00  0.00     0.004 A 
ATOM      5  C   UNL     1     166.424 167.627 167.932  1.00  0.00     0.047 A 
ATOM      6  C   UNL     1     166.098 168.959 168.218  1.00  0.00     0.130 A 
ENDROOT
BRANCH   1   7
ATOM      7  C   UNL     1     166.865 171.286 168.903  1.00  0.00     0.341 C 
ATOM      8  O   UNL     1     167.219 172.245 168.163  1.00  0.00    -0.246 OA
BRANCH   7   9
ATOM      9  O   UNL     1     166.158 171.538 170.083  1.00  0.00    -0.465 OA
ATOM     10  C   UNL     1     165.572 172.802 170.374  1.00  0.00     0.282 C 
ENDBRANCH   7   9
ENDBRANCH   1   7
BRANCH   6  11
ATOM     11  O   UNL     1     164.749 169.319 168.176  1.00  0.00    -0.507 OA
ATOM     12  H   UNL     1     164.415 170.184 167.773  1.00  0.00     0.293 HD
ENDBRANCH   6  11
TORSDOF 3
ENDMDL
MODEL 2
REMARK VINA RESULT:    -4.091      4.609      6.597
REMARK INTER + INTRA:          -4.900
REMARK INTER:                  -4.592
REMARK INTRA:                  -0.308
REMARK UNBOUND:                -0.211
REMARK SMILES COC(=O)c1ccccc1O
REMARK SMILES IDX 5 1 6 2 7 3 8 4 9 5 10 6 3 7 4 8 2 9 1 10 11 11
REMARK H PARENT 11 12
REMARK Flexibility Score: inf
ROOT
ATOM      1  C   UNL     1     168.273 164.838 168.467  1.00  0.00     0.101 A 
ATOM      2  C   UNL     1     166.886 165.067 168.496  1.00  0.00     0.019 A 
ATOM      3  C   UNL     1     166.371 166.350 168.300  1.00  0.00     0.001 A 
ATOM      4  C   UNL     1     167.233 167.422 168.070  1.00  0.00     0.004 A 
ATOM      5  C   UNL     1     168.611 167.209 168.016  1.00  0.00     0.047 A 
ATOM      6  C   UNL     1     169.143 165.925 168.191  1.00  0.00     0.130 A 
ENDROOT
BRANCH   1   7
ATOM      7  C   UNL     1     168.765 163.473 168.757  1.00  0.00     0.341 C 
ATOM      8  O   UNL     1     168.333 162.485 168.102  1.00  0.00    -0.246 OA
BRANCH   7   9
ATOM      9  O   UNL     1     169.759 163.291 169.723  1.00  0.00    -0.465 OA
ATOM     10  C   UNL     1     169.468 163.139 171.108  1.00  0.00     0.282 C 
ENDBRANCH   7   9
ENDBRANCH   1   7
BRANCH   6  11
ATOM     11  O   UNL     1     170.524 165.770 168.049  1.00  0.00    -0.507 OA
ATOM     12  H   UNL     1     171.008 165.869 167.167  1.00  0.00     0.293 HD
ENDBRANCH   6  11
TORSDOF 3
ENDMDL
MODEL 3
REMARK VINA RESULT:    -4.058      4.355      6.319
REMARK INTER + INTRA:          -4.862
REMARK INTER:                  -4.584
REMARK INTRA:                  -0.278
REMARK UNBOUND:                -0.211
REMARK SMILES COC(=O)c1ccccc1O
REMARK SMILES IDX 5 1 6 2 7 3 8 4 9 5 10 6 3 7 4 8 2 9 1 10 11 11
REMARK H PARENT 11 12
REMARK Flexibility Score: inf
ROOT
ATOM      1  C   UNL     1     168.391 165.095 168.604  1.00  0.00     0.101 A 
ATOM      2  C   UNL     1     169.401 166.072 168.667  1.00  0.00     0.019 A 
ATOM      3  C   UNL     1     169.131 167.400 168.327  1.00  0.00     0.001 A 
ATOM      4  C   UNL     1     167.850 167.771 167.923  1.00  0.00     0.004 A 
ATOM      5  C   UNL     1     166.831 166.819 167.875  1.00  0.00     0.047 A 
ATOM      6  C   UNL     1     167.079 165.487 168.231  1.00  0.00     0.130 A 
ENDROOT
BRANCH   1   7
ATOM      7  C   UNL     1     168.754 163.692 168.900  1.00  0.00     0.341 C 
ATOM      8  O   UNL     1     168.337 162.755 168.166  1.00  0.00    -0.246 OA
BRANCH   7   9
ATOM      9  O   UNL     1     169.616 163.415 169.966  1.00  0.00    -0.465 OA
ATOM     10  C   UNL     1     169.863 162.093 170.431  1.00  0.00     0.282 C 
ENDBRANCH   7   9
ENDBRANCH   1   7
BRANCH   6  11
ATOM     11  O   UNL     1     165.998 164.604 168.235  1.00  0.00    -0.507 OA
ATOM     12  H   UNL     1     165.039 164.897 168.370  1.00  0.00     0.293 HD
ENDBRANCH   6  11
TORSDOF 3
ENDMDL
MODEL 4
REMARK VINA RESULT:    -4.054      2.427      4.268
REMARK INTER + INTRA:          -4.858
REMARK INTER:                  -4.575
REMARK INTRA:                  -0.283
REMARK UNBOUND:                -0.211
REMARK SMILES COC(=O)c1ccccc1O
REMARK SMILES IDX 5 1 6 2 7 3 8 4 9 5 10 6 3 7 4 8 2 9 1 10 11 11
REMARK H PARENT 11 12
REMARK Flexibility Score: inf
ROOT
ATOM      1  C   UNL     1     165.478 167.192 168.748  1.00  0.00     0.101 A 
ATOM      2  C   UNL     1     166.489 166.266 169.057  1.00  0.00     0.019 A 
ATOM      3  C   UNL     1     167.827 166.547 168.768  1.00  0.00     0.001 A 
ATOM      4  C   UNL     1     168.173 167.758 168.170  1.00  0.00     0.004 A 
ATOM      5  C   UNL     1     167.184 168.698 167.875  1.00  0.00     0.047 A 
ATOM      6  C   UNL     1     165.840 168.440 168.176  1.00  0.00     0.130 A 
ENDROOT
BRANCH   1   7
ATOM      7  C   UNL     1     164.073 166.808 169.005  1.00  0.00     0.341 C 
ATOM      8  O   UNL     1     163.164 167.119 168.187  1.00  0.00    -0.246 OA
BRANCH   7   9
ATOM      9  O   UNL     1     163.765 166.042 170.134  1.00  0.00    -0.465 OA
ATOM     10  C   UNL     1     162.463 165.524 170.380  1.00  0.00     0.282 C 
ENDBRANCH   7   9
ENDBRANCH   1   7
BRANCH   6  11
ATOM     11  O   UNL     1     164.914 169.454 167.927  1.00  0.00    -0.507 OA
ATOM     12  H   UNL     1     163.914 169.306 167.919  1.00  0.00     0.293 HD
ENDBRANCH   6  11
TORSDOF 3
ENDMDL
MODEL 5
REMARK VINA RESULT:    -4.032      1.094      2.055
REMARK INTER + INTRA:          -4.832
REMARK INTER:                  -4.546
REMARK INTRA:                  -0.287
REMARK UNBOUND:                -0.211
REMARK SMILES COC(=O)c1ccccc1O
REMARK SMILES IDX 5 1 6 2 7 3 8 4 9 5 10 6 3 7 4 8 2 9 1 10 11 11
REMARK H PARENT 11 12
REMARK Flexibility Score: inf
ROOT
ATOM      1  C   UNL     1     167.232 169.858 168.778  1.00  0.00     0.101 A 
ATOM      2  C   UNL     1     166.286 168.875 169.120  1.00  0.00     0.019 A 
ATOM      3  C   UNL     1     166.522 167.528 168.833  1.00  0.00     0.001 A 
ATOM      4  C   UNL     1     167.705 167.145 168.203  1.00  0.00     0.004 A 
ATOM      5  C   UNL     1     168.664 168.104 167.875  1.00  0.00     0.047 A 
ATOM      6  C   UNL     1     168.452 169.457 168.174  1.00  0.00     0.130 A 
ENDROOT
BRANCH   1   7
ATOM      7  C   UNL     1     166.894 171.274 169.036  1.00  0.00     0.341 C 
ATOM      8  O   UNL     1     167.240 172.174 168.221  1.00  0.00    -0.246 OA
BRANCH   7   9
ATOM      9  O   UNL     1     166.132 171.606 170.161  1.00  0.00    -0.465 OA
ATOM     10  C   UNL     1     165.473 172.859 170.302  1.00  0.00     0.282 C 
ENDBRANCH   7   9
ENDBRANCH   1   7
BRANCH   6  11
ATOM     11  O   UNL     1     169.484 170.353 167.889  1.00  0.00    -0.507 OA
ATOM     12  H   UNL     1     170.307 170.105 167.357  1.00  0.00     0.293 HD
ENDBRANCH   6  11
TORSDOF 3
ENDMDL
MODEL 6
REMARK VINA RESULT:    -3.958      3.755      4.728
REMARK INTER + INTRA:          -4.748
REMARK INTER:                  -4.458
REMARK INTRA:                  -0.290
REMARK UNBOUND:                -0.211
REMARK SMILES COC(=O)c1ccccc1O
REMARK SMILES IDX 5 1 6 2 7 3 8 4 9 5 10 6 3 7 4 8 2 9 1 10 11 11
REMARK H PARENT 11 12
REMARK Flexibility Score: inf
ROOT
ATOM      1  C   UNL     1     169.947 168.033 168.649  1.00  0.00     0.101 A 
ATOM      2  C   UNL     1     168.879 168.888 168.974  1.00  0.00     0.019 A 
ATOM      3  C   UNL     1     167.556 168.475 168.799  1.00  0.00     0.001 A 
ATOM      4  C   UNL     1     167.281 167.203 168.299  1.00  0.00     0.004 A 
ATOM      5  C   UNL     1     168.329 166.334 167.991  1.00  0.00     0.047 A 
ATOM      6  C   UNL     1     169.661 166.724 168.180  1.00  0.00     0.130 A 
ENDROOT
BRANCH   1   7
ATOM      7  C   UNL     1     171.326 168.551 168.784  1.00  0.00     0.341 C 
ATOM      8  O   UNL     1     172.255 168.093 168.063  1.00  0.00    -0.246 OA
BRANCH   7   9
ATOM      9  O   UNL     1     171.582 169.600 169.672  1.00  0.00    -0.465 OA
ATOM     10  C   UNL     1     172.338 169.429 170.866  1.00  0.00     0.282 C 
ENDBRANCH   7   9
ENDBRANCH   1   7
BRANCH   6  11
ATOM     11  O   UNL     1     170.656 165.779 167.926  1.00  0.00    -0.507 OA
ATOM     12  H   UNL     1     171.488 165.976 167.386  1.00  0.00     0.293 HD
ENDBRANCH   6  11
TORSDOF 3
ENDMDL
MODEL 7
REMARK VINA RESULT:    -3.915      4.112      6.035
REMARK INTER + INTRA:          -4.699
REMARK INTER:                  -4.411
REMARK INTRA:                  -0.288
REMARK UNBOUND:                -0.211
REMARK SMILES COC(=O)c1ccccc1O
REMARK SMILES IDX 5 1 6 2 7 3 8 4 9 5 10 6 3 7 4 8 2 9 1 10 11 11
REMARK H PARENT 11 12
REMARK Flexibility Score: inf
ROOT
ATOM      1  C   UNL     1     168.570 166.239 168.395  1.00  0.00     0.101 A 
ATOM      2  C   UNL     1     167.384 166.991 168.460  1.00  0.00     0.019 A 
ATOM      3  C   UNL     1     167.408 168.378 168.294  1.00  0.00     0.001 A 
ATOM      4  C   UNL     1     168.616 169.032 168.059  1.00  0.00     0.004 A 
ATOM      5  C   UNL     1     169.801 168.300 167.971  1.00  0.00     0.047 A 
ATOM      6  C   UNL     1     169.791 166.906 168.115  1.00  0.00     0.130 A 
ENDROOT
BRANCH   1   7
ATOM      7  C   UNL     1     168.494 164.785 168.655  1.00  0.00     0.341 C 
ATOM      8  O   UNL     1     167.581 164.089 168.131  1.00  0.00    -0.246 OA
BRANCH   7   9
ATOM      9  O   UNL     1     169.479 164.173 169.437  1.00  0.00    -0.465 OA
ATOM     10  C   UNL     1     169.481 162.778 169.717  1.00  0.00     0.282 C 
ENDBRANCH   7   9
ENDBRANCH   1   7
BRANCH   6  11
ATOM     11  O   UNL     1     170.999 166.228 167.939  1.00  0.00    -0.507 OA
ATOM     12  H   UNL     1     171.440 166.098 167.038  1.00  0.00     0.293 HD
ENDBRANCH   6  11
TORSDOF 3
ENDMDL
