MODEL 1
REMARK VINA RESULT:    -5.024      0.000      0.000
REMARK INTER + INTRA:         -14.236
REMARK INTER:                 -10.898
REMARK INTRA:                  -3.338
REMARK UNBOUND:                -3.338
REMARK SMILES CCCCCCCCCCCCCCCCCCCCCC(=O)[O-]
REMARK SMILES IDX 12 1 11 2 10 3 9 4 8 5 7 6 6 7 5 8 4 9 3 10 2 11 1 12 13 13
REMARK SMILES IDX 14 14 15 15 16 16 17 17 18 18 19 19 20 20 21 21 22 22 23 23
REMARK SMILES IDX 24 24
REMARK H PARENT
REMARK Flexibility Score: inf
ROOT
ATOM      1  C   UNL     1      77.390  12.364  20.103  1.00  0.00     0.000 C 
ENDROOT
BRANCH   1   2
ATOM      2  C   UNL     1      76.467  11.135  20.163  1.00  0.00     0.000 C 
BRANCH   2   3
ATOM      3  C   UNL     1      75.381  11.146  19.071  1.00  0.00     0.000 C 
BRANCH   3   4
ATOM      4  C   UNL     1      74.229  12.141  19.307  1.00  0.00    -0.000 C 
BRANCH   4   5
ATOM      5  C   UNL     1      74.058  13.142  18.151  1.00  0.00    -0.000 C 
BRANCH   5   6
ATOM      6  C   UNL     1      74.456  14.573  18.546  1.00  0.00    -0.000 C 
BRANCH   6   7
ATOM      7  C   UNL     1      75.320  15.261  17.475  1.00  0.00    -0.000 C 
BRANCH   7   8
ATOM      8  C   UNL     1      74.682  15.196  16.068  1.00  0.00    -0.000 C 
BRANCH   8   9
ATOM      9  C   UNL     1      75.650  14.712  14.975  1.00  0.00    -0.000 C 
BRANCH   9  10
ATOM     10  C   UNL     1      76.691  13.681  15.451  1.00  0.00    -0.000 C 
BRANCH  10  11
ATOM     11  C   UNL     1      76.184  12.223  15.413  1.00  0.00    -0.003 C 
ATOM     12  C   UNL     1      77.220  11.217  15.915  1.00  0.00     0.004 C 
ENDBRANCH  10  11
ENDBRANCH   9  10
ENDBRANCH   8   9
ENDBRANCH   7   8
ENDBRANCH   6   7
ENDBRANCH   5   6
ENDBRANCH   4   5
ENDBRANCH   3   4
ENDBRANCH   2   3
ENDBRANCH   1   2
BRANCH   1  13
ATOM     13  C   UNL     1      78.627  12.132  19.222  1.00  0.00     0.000 C 
BRANCH  13  14
ATOM     14  C   UNL     1      78.989  13.357  18.368  1.00  0.00     0.000 C 
BRANCH  14  15
ATOM     15  C   UNL     1      78.184  14.590  18.809  1.00  0.00     0.000 C 
BRANCH  15  16
ATOM     16  C   UNL     1      78.950  15.904  18.594  1.00  0.00     0.000 C 
BRANCH  16  17
ATOM     17  C   UNL     1      79.779  16.313  19.824  1.00  0.00     0.000 C 
BRANCH  17  18
ATOM     18  C   UNL     1      81.129  15.578  19.906  1.00  0.00     0.000 C 
BRANCH  18  19
ATOM     19  C   UNL     1      81.210  14.484  20.988  1.00  0.00     0.000 C 
BRANCH  19  20
ATOM     20  C   UNL     1      82.357  13.469  20.818  1.00  0.00     0.006 C 
BRANCH  20  21
ATOM     21  C   UNL     1      82.605  13.045  19.359  1.00  0.00     0.053 C 
BRANCH  21  22
ATOM     22  C   UNL     1      82.835  11.570  19.224  1.00  0.00     0.041 C 
ATOM     23  O   UNL     1      81.897  10.811  18.861  1.00  0.00    -0.550 OA
ATOM     24  O   UNL     1      84.077  11.028  19.532  1.00  0.00    -0.550 OA
ENDBRANCH  21  22
ENDBRANCH  20  21
ENDBRANCH  19  20
ENDBRANCH  18  19
ENDBRANCH  17  18
ENDBRANCH  16  17
ENDBRANCH  15  16
ENDBRANCH  14  15
ENDBRANCH  13  14
ENDBRANCH   1  13
TORSDOF 20
ENDMDL
MODEL 2
REMARK VINA RESULT:    -5.018      1.558      2.468
REMARK INTER + INTRA:         -14.224
REMARK INTER:                 -11.283
REMARK INTRA:                  -2.941
REMARK UNBOUND:                -3.338
REMARK SMILES CCCCCCCCCCCCCCCCCCCCCC(=O)[O-]
REMARK SMILES IDX 12 1 11 2 10 3 9 4 8 5 7 6 6 7 5 8 4 9 3 10 2 11 1 12 13 13
REMARK SMILES IDX 14 14 15 15 16 16 17 17 18 18 19 19 20 20 21 21 22 22 23 23
REMARK SMILES IDX 24 24
REMARK H PARENT
REMARK Flexibility Score: inf
ROOT
ATOM      1  C   UNL     1      77.302  12.420  20.162  1.00  0.00     0.000 C 
ENDROOT
BRANCH   1   2
ATOM      2  C   UNL     1      76.314  11.241  20.121  1.00  0.00     0.000 C 
BRANCH   2   3
ATOM      3  C   UNL     1      75.290  11.357  18.976  1.00  0.00     0.000 C 
BRANCH   3   4
ATOM      4  C   UNL     1      74.297  12.527  19.106  1.00  0.00    -0.000 C 
BRANCH   4   5
ATOM      5  C   UNL     1      74.443  13.563  17.978  1.00  0.00    -0.000 C 
BRANCH   5   6
ATOM      6  C   UNL     1      75.201  13.007  16.761  1.00  0.00    -0.000 C 
BRANCH   6   7
ATOM      7  C   UNL     1      75.175  13.970  15.561  1.00  0.00    -0.000 C 
BRANCH   7   8
ATOM      8  C   UNL     1      76.141  15.164  15.739  1.00  0.00    -0.000 C 
BRANCH   8   9
ATOM      9  C   UNL     1      75.594  16.487  15.179  1.00  0.00    -0.000 C 
BRANCH   9  10
ATOM     10  C   UNL     1      75.735  17.692  16.129  1.00  0.00    -0.000 C 
BRANCH  10  11
ATOM     11  C   UNL     1      77.086  18.430  16.000  1.00  0.00    -0.003 C 
ATOM     12  C   UNL     1      77.302  19.043  14.616  1.00  0.00     0.004 C 
ENDBRANCH  10  11
ENDBRANCH   9  10
ENDBRANCH   8   9
ENDBRANCH   7   8
ENDBRANCH   6   7
ENDBRANCH   5   6
ENDBRANCH   4   5
ENDBRANCH   3   4
ENDBRANCH   2   3
ENDBRANCH   1   2
BRANCH   1  13
ATOM     13  C   UNL     1      78.478  12.242  19.189  1.00  0.00     0.000 C 
BRANCH  13  14
ATOM     14  C   UNL     1      78.645  13.432  18.233  1.00  0.00     0.000 C 
BRANCH  14  15
ATOM     15  C   UNL     1      77.923  14.676  18.774  1.00  0.00     0.000 C 
BRANCH  15  16
ATOM     16  C   UNL     1      78.812  15.929  18.762  1.00  0.00     0.000 C 
BRANCH  16  17
ATOM     17  C   UNL     1      79.577  16.123  20.082  1.00  0.00     0.000 C 
BRANCH  17  18
ATOM     18  C   UNL     1      81.003  15.545  20.037  1.00  0.00     0.000 C 
BRANCH  18  19
ATOM     19  C   UNL     1      81.227  14.295  20.908  1.00  0.00     0.000 C 
BRANCH  19  20
ATOM     20  C   UNL     1      82.443  13.430  20.524  1.00  0.00     0.006 C 
BRANCH  20  21
ATOM     21  C   UNL     1      82.237  12.593  19.249  1.00  0.00     0.053 C 
BRANCH  21  22
ATOM     22  C   UNL     1      82.929  11.265  19.319  1.00  0.00     0.041 C 
ATOM     23  O   UNL     1      83.314  10.806  20.426  1.00  0.00    -0.550 OA
ATOM     24  O   UNL     1      83.178  10.548  18.154  1.00  0.00    -0.550 OA
ENDBRANCH  21  22
ENDBRANCH  20  21
ENDBRANCH  19  20
ENDBRANCH  18  19
ENDBRANCH  17  18
ENDBRANCH  16  17
ENDBRANCH  15  16
ENDBRANCH  14  15
ENDBRANCH  13  14
ENDBRANCH   1  13
TORSDOF 20
ENDMDL
MODEL 3
REMARK VINA RESULT:    -5.016      2.989      6.067
REMARK INTER + INTRA:         -14.219
REMARK INTER:                 -11.350
REMARK INTRA:                  -2.870
REMARK UNBOUND:                -3.338
REMARK SMILES CCCCCCCCCCCCCCCCCCCCCC(=O)[O-]
REMARK SMILES IDX 12 1 11 2 10 3 9 4 8 5 7 6 6 7 5 8 4 9 3 10 2 11 1 12 13 13
REMARK SMILES IDX 14 14 15 15 16 16 17 17 18 18 19 19 20 20 21 21 22 22 23 23
REMARK SMILES IDX 24 24
REMARK H PARENT
REMARK Flexibility Score: inf
ROOT
ATOM      1  C   UNL     1      74.497  11.607  19.052  1.00  0.00     0.000 C 
ENDROOT
BRANCH   1   2
ATOM      2  C   UNL     1      75.540  11.976  20.121  1.00  0.00     0.000 C 
BRANCH   2   3
ATOM      3  C   UNL     1      76.753  11.027  20.130  1.00  0.00     0.000 C 
BRANCH   3   4
ATOM      4  C   UNL     1      78.080  11.662  19.676  1.00  0.00    -0.000 C 
BRANCH   4   5
ATOM      5  C   UNL     1      78.060  13.199  19.738  1.00  0.00    -0.000 C 
BRANCH   5   6
ATOM      6  C   UNL     1      78.353  13.848  18.376  1.00  0.00    -0.000 C 
BRANCH   6   7
ATOM      7  C   UNL     1      78.585  15.366  18.484  1.00  0.00    -0.000 C 
BRANCH   7   8
ATOM      8  C   UNL     1      79.279  15.766  19.807  1.00  0.00    -0.000 C 
BRANCH   8   9
ATOM      9  C   UNL     1      80.801  15.544  19.795  1.00  0.00    -0.000 C 
BRANCH   9  10
ATOM     10  C   UNL     1      81.320  14.605  20.901  1.00  0.00    -0.000 C 
BRANCH  10  11
ATOM     11  C   UNL     1      82.027  13.342  20.362  1.00  0.00    -0.003 C 
ATOM     12  C   UNL     1      82.001  13.248  18.837  1.00  0.00     0.004 C 
ENDBRANCH  10  11
ENDBRANCH   9  10
ENDBRANCH   8   9
ENDBRANCH   7   8
ENDBRANCH   6   7
ENDBRANCH   5   6
ENDBRANCH   4   5
ENDBRANCH   3   4
ENDBRANCH   2   3
ENDBRANCH   1   2
BRANCH   1  13
ATOM     13  C   UNL     1      73.807  12.839  18.447  1.00  0.00     0.000 C 
BRANCH  13  14
ATOM     14  C   UNL     1      74.717  14.076  18.417  1.00  0.00     0.000 C 
BRANCH  14  15
ATOM     15  C   UNL     1      74.979  14.528  16.971  1.00  0.00     0.000 C 
BRANCH  15  16
ATOM     16  C   UNL     1      75.133  16.052  16.846  1.00  0.00     0.000 C 
BRANCH  16  17
ATOM     17  C   UNL     1      74.817  16.563  15.429  1.00  0.00     0.000 C 
BRANCH  17  18
ATOM     18  C   UNL     1      75.678  17.773  15.025  1.00  0.00     0.000 C 
BRANCH  18  19
ATOM     19  C   UNL     1      76.773  18.160  16.037  1.00  0.00     0.000 C 
BRANCH  19  20
ATOM     20  C   UNL     1      78.047  18.777  15.429  1.00  0.00     0.006 C 
BRANCH  20  21
ATOM     21  C   UNL     1      79.271  17.844  15.461  1.00  0.00     0.053 C 
BRANCH  21  22
ATOM     22  C   UNL     1      79.262  16.851  14.338  1.00  0.00     0.041 C 
ATOM     23  O   UNL     1      78.823  15.686  14.523  1.00  0.00    -0.550 OA
ATOM     24  O   UNL     1      79.772  17.204  13.094  1.00  0.00    -0.550 OA
ENDBRANCH  21  22
ENDBRANCH  20  21
ENDBRANCH  19  20
ENDBRANCH  18  19
ENDBRANCH  17  18
ENDBRANCH  16  17
ENDBRANCH  15  16
ENDBRANCH  14  15
ENDBRANCH  13  14
ENDBRANCH   1  13
TORSDOF 20
ENDMDL
MODEL 4
REMARK VINA RESULT:    -5.008      1.782      4.156
REMARK INTER + INTRA:         -14.200
REMARK INTER:                 -11.149
REMARK INTRA:                  -3.051
REMARK UNBOUND:                -3.338
REMARK SMILES CCCCCCCCCCCCCCCCCCCCCC(=O)[O-]
REMARK SMILES IDX 12 1 11 2 10 3 9 4 8 5 7 6 6 7 5 8 4 9 3 10 2 11 1 12 13 13
REMARK SMILES IDX 14 14 15 15 16 16 17 17 18 18 19 19 20 20 21 21 22 22 23 23
REMARK SMILES IDX 24 24
REMARK H PARENT
REMARK Flexibility Score: inf
ROOT
ATOM      1  C   UNL     1      75.864  17.661  15.860  1.00  0.00     0.000 C 
ENDROOT
BRANCH   1   2
ATOM      2  C   UNL     1      74.869  16.706  15.178  1.00  0.00     0.000 C 
BRANCH   2   3
ATOM      3  C   UNL     1      74.666  15.394  15.958  1.00  0.00     0.000 C 
BRANCH   3   4
ATOM      4  C   UNL     1      75.352  14.159  15.346  1.00  0.00    -0.000 C 
BRANCH   4   5
ATOM      5  C   UNL     1      75.277  12.920  16.255  1.00  0.00    -0.000 C 
BRANCH   5   6
ATOM      6  C   UNL     1      74.195  13.049  17.340  1.00  0.00    -0.000 C 
BRANCH   6   7
ATOM      7  C   UNL     1      74.774  12.954  18.763  1.00  0.00    -0.000 C 
BRANCH   7   8
ATOM      8  C   UNL     1      76.156  13.636  18.886  1.00  0.00    -0.000 C 
BRANCH   8   9
ATOM      9  C   UNL     1      77.264  12.693  19.385  1.00  0.00    -0.000 C 
BRANCH   9  10
ATOM     10  C   UNL     1      76.793  11.623  20.388  1.00  0.00    -0.000 C 
BRANCH  10  11
ATOM     11  C   UNL     1      77.236  10.189  20.021  1.00  0.00    -0.003 C 
ATOM     12  C   UNL     1      76.620   9.690  18.714  1.00  0.00     0.004 C 
ENDBRANCH  10  11
ENDBRANCH   9  10
ENDBRANCH   8   9
ENDBRANCH   7   8
ENDBRANCH   6   7
ENDBRANCH   5   6
ENDBRANCH   4   5
ENDBRANCH   3   4
ENDBRANCH   2   3
ENDBRANCH   1   2
BRANCH   1  13
ATOM     13  C   UNL     1      77.034  18.051  14.944  1.00  0.00     0.000 C 
BRANCH  13  14
ATOM     14  C   UNL     1      78.381  17.489  15.425  1.00  0.00     0.000 C 
BRANCH  14  15
ATOM     15  C   UNL     1      78.431  15.963  15.253  1.00  0.00     0.000 C 
BRANCH  15  16
ATOM     16  C   UNL     1      78.899  15.239  16.525  1.00  0.00     0.000 C 
BRANCH  16  17
ATOM     17  C   UNL     1      78.688  16.081  17.796  1.00  0.00     0.000 C 
BRANCH  17  18
ATOM     18  C   UNL     1      79.959  16.188  18.659  1.00  0.00     0.000 C 
BRANCH  18  19
ATOM     19  C   UNL     1      79.726  16.069  20.177  1.00  0.00     0.000 C 
BRANCH  19  20
ATOM     20  C   UNL     1      80.069  14.699  20.793  1.00  0.00     0.006 C 
BRANCH  20  21
ATOM     21  C   UNL     1      81.557  14.320  20.683  1.00  0.00     0.053 C 
BRANCH  21  22
ATOM     22  C   UNL     1      81.768  13.053  19.909  1.00  0.00     0.041 C 
ATOM     23  O   UNL     1      80.822  12.547  19.248  1.00  0.00    -0.550 OA
ATOM     24  O   UNL     1      83.001  12.414  19.944  1.00  0.00    -0.550 OA
ENDBRANCH  21  22
ENDBRANCH  20  21
ENDBRANCH  19  20
ENDBRANCH  18  19
ENDBRANCH  17  18
ENDBRANCH  16  17
ENDBRANCH  15  16
ENDBRANCH  14  15
ENDBRANCH  13  14
ENDBRANCH   1  13
TORSDOF 20
ENDMDL
MODEL 5
REMARK VINA RESULT:    -4.999      2.277      6.021
REMARK INTER + INTRA:         -14.182
REMARK INTER:                 -11.259
REMARK INTRA:                  -2.924
REMARK UNBOUND:                -3.338
REMARK SMILES CCCCCCCCCCCCCCCCCCCCCC(=O)[O-]
REMARK SMILES IDX 12 1 11 2 10 3 9 4 8 5 7 6 6 7 5 8 4 9 3 10 2 11 1 12 13 13
REMARK SMILES IDX 14 14 15 15 16 16 17 17 18 18 19 19 20 20 21 21 22 22 23 23
REMARK SMILES IDX 24 24
REMARK H PARENT
REMARK Flexibility Score: inf
ROOT
ATOM      1  C   UNL     1      75.687  15.178  15.773  1.00  0.00     0.000 C 
ENDROOT
BRANCH   1   2
ATOM      2  C   UNL     1      74.768  16.345  15.373  1.00  0.00     0.000 C 
BRANCH   2   3
ATOM      3  C   UNL     1      75.522  17.680  15.225  1.00  0.00     0.000 C 
BRANCH   3   4
ATOM      4  C   UNL     1      77.057  17.567  15.250  1.00  0.00    -0.000 C 
BRANCH   4   5
ATOM      5  C   UNL     1      77.733  18.758  15.951  1.00  0.00    -0.000 C 
BRANCH   5   6
ATOM      6  C   UNL     1      78.720  18.317  17.044  1.00  0.00    -0.000 C 
BRANCH   6   7
ATOM      7  C   UNL     1      78.787  16.787  17.195  1.00  0.00    -0.000 C 
BRANCH   7   8
ATOM      8  C   UNL     1      78.738  16.335  18.672  1.00  0.00    -0.000 C 
BRANCH   8   9
ATOM      9  C   UNL     1      79.965  16.773  19.491  1.00  0.00    -0.000 C 
BRANCH   9  10
ATOM     10  C   UNL     1      81.094  15.727  19.563  1.00  0.00    -0.000 C 
BRANCH  10  11
ATOM     11  C   UNL     1      80.859  14.632  20.628  1.00  0.00    -0.003 C 
ATOM     12  C   UNL     1      82.156  13.991  21.121  1.00  0.00     0.004 C 
ENDBRANCH  10  11
ENDBRANCH   9  10
ENDBRANCH   8   9
ENDBRANCH   7   8
ENDBRANCH   6   7
ENDBRANCH   5   6
ENDBRANCH   4   5
ENDBRANCH   3   4
ENDBRANCH   2   3
ENDBRANCH   1   2
BRANCH   1  13
ATOM     13  C   UNL     1      75.398  14.656  17.189  1.00  0.00     0.000 C 
BRANCH  13  14
ATOM     14  C   UNL     1      74.503  13.407  17.191  1.00  0.00     0.000 C 
BRANCH  14  15
ATOM     15  C   UNL     1      73.977  13.113  18.605  1.00  0.00     0.000 C 
BRANCH  15  16
ATOM     16  C   UNL     1      74.469  11.763  19.150  1.00  0.00     0.000 C 
BRANCH  16  17
ATOM     17  C   UNL     1      75.458  11.922  20.318  1.00  0.00     0.000 C 
BRANCH  17  18
ATOM     18  C   UNL     1      76.906  11.574  19.927  1.00  0.00     0.000 C 
BRANCH  18  19
ATOM     19  C   UNL     1      77.826  12.787  19.693  1.00  0.00     0.000 C 
BRANCH  19  20
ATOM     20  C   UNL     1      78.468  12.870  18.294  1.00  0.00     0.006 C 
BRANCH  20  21
ATOM     21  C   UNL     1      78.639  11.506  17.603  1.00  0.00     0.053 C 
BRANCH  21  22
ATOM     22  C   UNL     1      77.856  11.408  16.329  1.00  0.00     0.041 C 
ATOM     23  O   UNL     1      77.739  12.410  15.576  1.00  0.00    -0.550 OA
ATOM     24  O   UNL     1      77.225  10.217  15.989  1.00  0.00    -0.550 OA
ENDBRANCH  21  22
ENDBRANCH  20  21
ENDBRANCH  19  20
ENDBRANCH  18  19
ENDBRANCH  17  18
ENDBRANCH  16  17
ENDBRANCH  15  16
ENDBRANCH  14  15
ENDBRANCH  13  14
ENDBRANCH   1  13
TORSDOF 20
ENDMDL
MODEL 6
REMARK VINA RESULT:    -4.994      2.834      6.671
REMARK INTER + INTRA:         -14.171
REMARK INTER:                 -10.498
REMARK INTRA:                  -3.673
REMARK UNBOUND:                -3.338
REMARK SMILES CCCCCCCCCCCCCCCCCCCCCC(=O)[O-]
REMARK SMILES IDX 12 1 11 2 10 3 9 4 8 5 7 6 6 7 5 8 4 9 3 10 2 11 1 12 13 13
REMARK SMILES IDX 14 14 15 15 16 16 17 17 18 18 19 19 20 20 21 21 22 22 23 23
REMARK SMILES IDX 24 24
REMARK H PARENT
REMARK Flexibility Score: inf
ROOT
ATOM      1  C   UNL     1      77.179  10.895  16.072  1.00  0.00     0.000 C 
ENDROOT
BRANCH   1   2
ATOM      2  C   UNL     1      78.247  11.873  15.551  1.00  0.00     0.000 C 
BRANCH   2   3
ATOM      3  C   UNL     1      79.348  12.167  16.587  1.00  0.00     0.000 C 
BRANCH   3   4
ATOM      4  C   UNL     1      78.870  12.889  17.860  1.00  0.00    -0.000 C 
BRANCH   4   5
ATOM      5  C   UNL     1      78.776  14.414  17.683  1.00  0.00    -0.000 C 
BRANCH   5   6
ATOM      6  C   UNL     1      78.348  15.133  18.973  1.00  0.00    -0.000 C 
BRANCH   6   7
ATOM      7  C   UNL     1      79.548  15.653  19.784  1.00  0.00    -0.000 C 
BRANCH   7   8
ATOM      8  C   UNL     1      79.989  14.665  20.888  1.00  0.00    -0.000 C 
BRANCH   8   9
ATOM      9  C   UNL     1      81.503  14.394  20.903  1.00  0.00    -0.000 C 
BRANCH   9  10
ATOM     10  C   UNL     1      82.230  14.746  19.591  1.00  0.00    -0.000 C 
BRANCH  10  11
ATOM     11  C   UNL     1      82.439  13.537  18.652  1.00  0.00    -0.003 C 
ATOM     12  C   UNL     1      82.423  12.199  19.390  1.00  0.00     0.004 C 
ENDBRANCH  10  11
ENDBRANCH   9  10
ENDBRANCH   8   9
ENDBRANCH   7   8
ENDBRANCH   6   7
ENDBRANCH   5   6
ENDBRANCH   4   5
ENDBRANCH   3   4
ENDBRANCH   2   3
ENDBRANCH   1   2
BRANCH   1  13
ATOM     13  C   UNL     1      77.759   9.515  16.417  1.00  0.00     0.000 C 
BRANCH  13  14
ATOM     14  C   UNL     1      77.519   9.118  17.882  1.00  0.00     0.000 C 
BRANCH  14  15
ATOM     15  C   UNL     1      76.352   9.917  18.482  1.00  0.00     0.000 C 
BRANCH  15  16
ATOM     16  C   UNL     1      76.743  10.661  19.768  1.00  0.00     0.000 C 
BRANCH  16  17
ATOM     17  C   UNL     1      76.066  12.038  19.883  1.00  0.00     0.000 C 
BRANCH  17  18
ATOM     18  C   UNL     1      74.576  12.005  19.497  1.00  0.00     0.000 C 
BRANCH  18  19
ATOM     19  C   UNL     1      74.114  13.156  18.583  1.00  0.00     0.000 C 
BRANCH  19  20
ATOM     20  C   UNL     1      75.098  13.546  17.463  1.00  0.00     0.006 C 
BRANCH  20  21
ATOM     21  C   UNL     1      74.998  15.019  17.027  1.00  0.00     0.053 C 
BRANCH  21  22
ATOM     22  C   UNL     1      75.279  15.203  15.566  1.00  0.00     0.041 C 
ATOM     23  O   UNL     1      75.780  14.266  14.892  1.00  0.00    -0.550 OA
ATOM     24  O   UNL     1      75.017  16.425  14.957  1.00  0.00    -0.550 OA
ENDBRANCH  21  22
ENDBRANCH  20  21
ENDBRANCH  19  20
ENDBRANCH  18  19
ENDBRANCH  17  18
ENDBRANCH  16  17
ENDBRANCH  15  16
ENDBRANCH  14  15
ENDBRANCH  13  14
ENDBRANCH   1  13
TORSDOF 20
ENDMDL
MODEL 7
REMARK VINA RESULT:    -4.981      2.649      5.482
REMARK INTER + INTRA:         -14.142
REMARK INTER:                 -10.586
REMARK INTRA:                  -3.557
REMARK UNBOUND:                -3.338
REMARK SMILES CCCCCCCCCCCCCCCCCCCCCC(=O)[O-]
REMARK SMILES IDX 12 1 11 2 10 3 9 4 8 5 7 6 6 7 5 8 4 9 3 10 2 11 1 12 13 13
REMARK SMILES IDX 14 14 15 15 16 16 17 17 18 18 19 19 20 20 21 21 22 22 23 23
REMARK SMILES IDX 24 24
REMARK H PARENT
REMARK Flexibility Score: inf
ROOT
ATOM      1  C   UNL     1      74.420  14.430  18.281  1.00  0.00     0.000 C 
ENDROOT
BRANCH   1   2
ATOM      2  C   UNL     1      75.474  14.309  17.166  1.00  0.00     0.000 C 
BRANCH   2   3
ATOM      3  C   UNL     1      75.153  15.184  15.939  1.00  0.00     0.000 C 
BRANCH   3   4
ATOM      4  C   UNL     1      75.118  16.699  16.210  1.00  0.00    -0.000 C 
BRANCH   4   5
ATOM      5  C   UNL     1      75.445  17.538  14.963  1.00  0.00    -0.000 C 
BRANCH   5   6
ATOM      6  C   UNL     1      76.717  18.383  15.136  1.00  0.00    -0.000 C 
BRANCH   6   7
ATOM      7  C   UNL     1      77.452  18.078  16.453  1.00  0.00    -0.000 C 
BRANCH   7   8
ATOM      8  C   UNL     1      78.798  17.352  16.226  1.00  0.00    -0.000 C 
BRANCH   8   9
ATOM      9  C   UNL     1      78.868  15.965  16.887  1.00  0.00    -0.000 C 
BRANCH   9  10
ATOM     10  C   UNL     1      78.487  15.946  18.379  1.00  0.00    -0.000 C 
BRANCH  10  11
ATOM     11  C   UNL     1      79.590  16.497  19.310  1.00  0.00    -0.003 C 
ATOM     12  C   UNL     1      80.211  15.423  20.202  1.00  0.00     0.004 C 
ENDBRANCH  10  11
ENDBRANCH   9  10
ENDBRANCH   8   9
ENDBRANCH   7   8
ENDBRANCH   6   7
ENDBRANCH   5   6
ENDBRANCH   4   5
ENDBRANCH   3   4
ENDBRANCH   2   3
ENDBRANCH   1   2
BRANCH   1  13
ATOM     13  C   UNL     1      73.685  13.107  18.546  1.00  0.00     0.000 C 
BRANCH  13  14
ATOM     14  C   UNL     1      74.643  11.924  18.748  1.00  0.00     0.000 C 
BRANCH  14  15
ATOM     15  C   UNL     1      75.232  11.931  20.168  1.00  0.00     0.000 C 
BRANCH  15  16
ATOM     16  C   UNL     1      76.711  11.515  20.197  1.00  0.00     0.000 C 
BRANCH  16  17
ATOM     17  C   UNL     1      77.654  12.658  19.786  1.00  0.00     0.000 C 
BRANCH  17  18
ATOM     18  C   UNL     1      78.823  12.180  18.905  1.00  0.00     0.000 C 
BRANCH  18  19
ATOM     19  C   UNL     1      78.563  12.241  17.388  1.00  0.00     0.000 C 
BRANCH  19  20
ATOM     20  C   UNL     1      77.685  11.108  16.822  1.00  0.00     0.006 C 
BRANCH  20  21
ATOM     21  C   UNL     1      76.875  11.507  15.576  1.00  0.00     0.053 C 
BRANCH  21  22
ATOM     22  C   UNL     1      77.701  11.484  14.325  1.00  0.00     0.041 C 
ATOM     23  O   UNL     1      77.958  10.391  13.754  1.00  0.00    -0.550 OA
ATOM     24  O   UNL     1      78.214  12.667  13.809  1.00  0.00    -0.550 OA
ENDBRANCH  21  22
ENDBRANCH  20  21
ENDBRANCH  19  20
ENDBRANCH  18  19
ENDBRANCH  17  18
ENDBRANCH  16  17
ENDBRANCH  15  16
ENDBRANCH  14  15
ENDBRANCH  13  14
ENDBRANCH   1  13
TORSDOF 20
ENDMDL
MODEL 8
REMARK VINA RESULT:    -4.945      2.120      4.638
REMARK INTER + INTRA:         -14.065
REMARK INTER:                 -10.219
REMARK INTRA:                  -3.846
REMARK UNBOUND:                -3.338
REMARK SMILES CCCCCCCCCCCCCCCCCCCCCC(=O)[O-]
REMARK SMILES IDX 12 1 11 2 10 3 9 4 8 5 7 6 6 7 5 8 4 9 3 10 2 11 1 12 13 13
REMARK SMILES IDX 14 14 15 15 16 16 17 17 18 18 19 19 20 20 21 21 22 22 23 23
REMARK SMILES IDX 24 24
REMARK H PARENT
REMARK Flexibility Score: inf
ROOT
ATOM      1  C   UNL     1      75.091  16.219  14.993  1.00  0.00     0.000 C 
ENDROOT
BRANCH   1   2
ATOM      2  C   UNL     1      75.217  14.758  15.459  1.00  0.00     0.000 C 
BRANCH   2   3
ATOM      3  C   UNL     1      74.820  14.563  16.934  1.00  0.00     0.000 C 
BRANCH   3   4
ATOM      4  C   UNL     1      74.430  13.124  17.318  1.00  0.00    -0.000 C 
BRANCH   4   5
ATOM      5  C   UNL     1      73.917  13.009  18.764  1.00  0.00    -0.000 C 
BRANCH   5   6
ATOM      6  C   UNL     1      74.426  11.743  19.473  1.00  0.00    -0.000 C 
BRANCH   6   7
ATOM      7  C   UNL     1      75.765  11.971  20.197  1.00  0.00    -0.000 C 
BRANCH   7   8
ATOM      8  C   UNL     1      76.817  10.892  19.850  1.00  0.00    -0.000 C 
BRANCH   8   9
ATOM      9  C   UNL     1      76.313   9.841  18.847  1.00  0.00    -0.000 C 
BRANCH   9  10
ATOM     10  C   UNL     1      77.053   9.838  17.496  1.00  0.00    -0.000 C 
BRANCH  10  11
ATOM     11  C   UNL     1      77.502  11.241  17.030  1.00  0.00    -0.003 C 
ATOM     12  C   UNL     1      77.238  11.489  15.545  1.00  0.00     0.004 C 
ENDBRANCH  10  11
ENDBRANCH   9  10
ENDBRANCH   8   9
ENDBRANCH   7   8
ENDBRANCH   6   7
ENDBRANCH   5   6
ENDBRANCH   4   5
ENDBRANCH   3   4
ENDBRANCH   2   3
ENDBRANCH   1   2
BRANCH   1  13
ATOM     13  C   UNL     1      75.095  17.216  16.162  1.00  0.00     0.000 C 
BRANCH  13  14
ATOM     14  C   UNL     1      76.414  17.995  16.276  1.00  0.00     0.000 C 
BRANCH  14  15
ATOM     15  C   UNL     1      76.999  18.288  14.886  1.00  0.00     0.000 C 
BRANCH  15  16
ATOM     16  C   UNL     1      78.462  17.837  14.751  1.00  0.00     0.000 C 
BRANCH  16  17
ATOM     17  C   UNL     1      79.042  17.312  16.076  1.00  0.00     0.000 C 
BRANCH  17  18
ATOM     18  C   UNL     1      79.475  15.837  15.996  1.00  0.00     0.000 C 
BRANCH  18  19
ATOM     19  C   UNL     1      78.562  14.848  16.746  1.00  0.00     0.000 C 
BRANCH  19  20
ATOM     20  C   UNL     1      78.144  15.280  18.165  1.00  0.00     0.006 C 
BRANCH  20  21
ATOM     21  C   UNL     1      78.465  14.242  19.255  1.00  0.00     0.053 C 
BRANCH  21  22
ATOM     22  C   UNL     1      79.917  13.870  19.280  1.00  0.00     0.041 C 
ATOM     23  O   UNL     1      80.791  14.738  19.542  1.00  0.00    -0.550 OA
ATOM     24  O   UNL     1      80.307  12.570  18.981  1.00  0.00    -0.550 OA
ENDBRANCH  21  22
ENDBRANCH  20  21
ENDBRANCH  19  20
ENDBRANCH  18  19
ENDBRANCH  17  18
ENDBRANCH  16  17
ENDBRANCH  15  16
ENDBRANCH  14  15
ENDBRANCH  13  14
ENDBRANCH   1  13
TORSDOF 20
ENDMDL
MODEL 9
REMARK VINA RESULT:    -4.925      2.315      5.848
REMARK INTER + INTRA:         -14.022
REMARK INTER:                 -10.635
REMARK INTRA:                  -3.387
REMARK UNBOUND:                -3.338
REMARK SMILES CCCCCCCCCCCCCCCCCCCCCC(=O)[O-]
REMARK SMILES IDX 12 1 11 2 10 3 9 4 8 5 7 6 6 7 5 8 4 9 3 10 2 11 1 12 13 13
REMARK SMILES IDX 14 14 15 15 16 16 17 17 18 18 19 19 20 20 21 21 22 22 23 23
REMARK SMILES IDX 24 24
REMARK H PARENT
REMARK Flexibility Score: inf
ROOT
ATOM      1  C   UNL     1      81.064  13.188  18.266  1.00  0.00     0.000 C 
ENDROOT
BRANCH   1   2
ATOM      2  C   UNL     1      81.435  12.986  19.745  1.00  0.00     0.000 C 
BRANCH   2   3
ATOM      3  C   UNL     1      81.358  14.288  20.566  1.00  0.00     0.000 C 
BRANCH   3   4
ATOM      4  C   UNL     1      80.089  15.129  20.336  1.00  0.00    -0.000 C 
BRANCH   4   5
ATOM      5  C   UNL     1      80.391  16.517  19.743  1.00  0.00    -0.000 C 
BRANCH   5   6
ATOM      6  C   UNL     1      79.401  16.913  18.636  1.00  0.00    -0.000 C 
BRANCH   6   7
ATOM      7  C   UNL     1      78.471  15.754  18.235  1.00  0.00    -0.000 C 
BRANCH   7   8
ATOM      8  C   UNL     1      77.711  16.034  16.918  1.00  0.00    -0.000 C 
BRANCH   8   9
ATOM      9  C   UNL     1      77.579  17.531  16.589  1.00  0.00    -0.000 C 
BRANCH   9  10
ATOM     10  C   UNL     1      76.535  17.860  15.506  1.00  0.00    -0.000 C 
BRANCH  10  11
ATOM     11  C   UNL     1      75.721  16.634  15.034  1.00  0.00    -0.003 C 
ATOM     12  C   UNL     1      74.246  16.710  15.426  1.00  0.00     0.004 C 
ENDBRANCH  10  11
ENDBRANCH   9  10
ENDBRANCH   8   9
ENDBRANCH   7   8
ENDBRANCH   6   7
ENDBRANCH   5   6
ENDBRANCH   4   5
ENDBRANCH   3   4
ENDBRANCH   2   3
ENDBRANCH   1   2
BRANCH   1  13
ATOM     13  C   UNL     1      79.847  12.351  17.841  1.00  0.00     0.000 C 
BRANCH  13  14
ATOM     14  C   UNL     1      79.175  11.635  19.022  1.00  0.00     0.000 C 
BRANCH  14  15
ATOM     15  C   UNL     1      77.869  12.339  19.419  1.00  0.00     0.000 C 
BRANCH  15  16
ATOM     16  C   UNL     1      76.806  11.362  19.945  1.00  0.00     0.000 C 
BRANCH  16  17
ATOM     17  C   UNL     1      75.441  12.038  20.169  1.00  0.00     0.000 C 
BRANCH  17  18
ATOM     18  C   UNL     1      74.417  11.692  19.073  1.00  0.00     0.000 C 
BRANCH  18  19
ATOM     19  C   UNL     1      73.925  12.891  18.240  1.00  0.00     0.000 C 
BRANCH  19  20
ATOM     20  C   UNL     1      75.011  13.618  17.423  1.00  0.00     0.006 C 
BRANCH  20  21
ATOM     21  C   UNL     1      75.194  13.068  15.998  1.00  0.00     0.053 C 
BRANCH  21  22
ATOM     22  C   UNL     1      76.535  12.427  15.800  1.00  0.00     0.041 C 
ATOM     23  O   UNL     1      77.424  13.009  15.124  1.00  0.00    -0.550 OA
ATOM     24  O   UNL     1      76.791  11.170  16.336  1.00  0.00    -0.550 OA
ENDBRANCH  21  22
ENDBRANCH  20  21
ENDBRANCH  19  20
ENDBRANCH  18  19
ENDBRANCH  17  18
ENDBRANCH  16  17
ENDBRANCH  15  16
ENDBRANCH  14  15
ENDBRANCH  13  14
ENDBRANCH   1  13
TORSDOF 20
ENDMDL
