MODEL 1
REMARK VINA RESULT:    -4.204      0.000      0.000
REMARK INTER + INTRA:          -4.204
REMARK INTER:                  -4.204
REMARK INTRA:                   0.000
REMARK UNBOUND:                 0.000
REMARK SMILES CC1=CC(=O)[C@H]2C[C@@H]1C2(C)C
REMARK SMILES IDX 1 1 2 2 3 3 4 4 5 5 6 6 7 7 8 8 9 9 10 10 11 11
REMARK H PARENT
REMARK Flexibility Score: inf
ROOT
ATOM      1  C   UNL     1      72.377 -20.480  -7.078  1.00  0.00     0.040 C 
ATOM      2  C   UNL     1      71.567 -19.393  -7.710  1.00  0.00    -0.066 C 
ATOM      3  C   UNL     1      70.342 -19.624  -8.260  1.00  0.00     0.047 C 
ATOM      4  C   UNL     1      69.649 -18.437  -8.857  1.00  0.00     0.159 C 
ATOM      5  O   UNL     1      68.533 -18.530  -9.433  1.00  0.00    -0.295 OA
ATOM      6  C   UNL     1      70.391 -17.108  -8.720  1.00  0.00     0.067 C 
ATOM      7  C   UNL     1      70.860 -17.089  -7.248  1.00  0.00     0.021 C 
ATOM      8  C   UNL     1      72.068 -17.933  -7.714  1.00  0.00     0.022 C 
ATOM      9  C   UNL     1      71.875 -17.324  -9.133  1.00  0.00    -0.019 C 
ATOM     10  C   UNL     1      72.175 -18.222 -10.366  1.00  0.00     0.012 C 
ATOM     11  C   UNL     1      72.639 -15.987  -9.309  1.00  0.00     0.012 C 
ENDROOT
TORSDOF 0
ENDMDL
MODEL 2
REMARK VINA RESULT:    -4.202      1.927      2.457
REMARK INTER + INTRA:          -4.202
REMARK INTER:                  -4.202
REMARK INTRA:                   0.000
REMARK UNBOUND:                 0.000
REMARK SMILES CC1=CC(=O)[C@H]2C[C@@H]1C2(C)C
REMARK SMILES IDX 1 1 2 2 3 3 4 4 5 5 6 6 7 7 8 8 9 9 10 10 11 11
REMARK H PARENT
REMARK Flexibility Score: inf
ROOT
ATOM      1  C   UNL     1      70.331 -20.096  -7.617  1.00  0.00     0.040 C 
ATOM      2  C   UNL     1      69.758 -19.474  -8.852  1.00  0.00    -0.066 C 
ATOM      3  C   UNL     1      69.055 -20.195  -9.770  1.00  0.00     0.047 C 
ATOM      4  C   UNL     1      68.543 -19.436 -10.956  1.00  0.00     0.159 C 
ATOM      5  O   UNL     1      67.917 -19.997 -11.894  1.00  0.00    -0.295 OA
ATOM      6  C   UNL     1      68.833 -17.934 -10.949  1.00  0.00     0.067 C 
ATOM      7  C   UNL     1      68.476 -17.489  -9.513  1.00  0.00     0.021 C 
ATOM      8  C   UNL     1      69.892 -17.959  -9.110  1.00  0.00     0.022 C 
ATOM      9  C   UNL     1      70.330 -17.722 -10.584  1.00  0.00    -0.019 C 
ATOM     10  C   UNL     1      71.385 -18.683 -11.201  1.00  0.00     0.012 C 
ATOM     11  C   UNL     1      70.797 -16.265 -10.833  1.00  0.00     0.012 C 
ENDROOT
TORSDOF 0
ENDMDL
MODEL 3
REMARK VINA RESULT:    -4.004      1.829      3.094
REMARK INTER + INTRA:          -4.004
REMARK INTER:                  -4.004
REMARK INTRA:                   0.000
REMARK UNBOUND:                 0.000
REMARK SMILES CC1=CC(=O)[C@H]2C[C@@H]1C2(C)C
REMARK SMILES IDX 1 1 2 2 3 3 4 4 5 5 6 6 7 7 8 8 9 9 10 10 11 11
REMARK H PARENT
REMARK Flexibility Score: inf
ROOT
ATOM      1  C   UNL     1      67.860 -20.213 -10.758  1.00  0.00     0.040 C 
ATOM      2  C   UNL     1      68.825 -19.205 -10.220  1.00  0.00    -0.066 C 
ATOM      3  C   UNL     1      68.833 -17.909 -10.640  1.00  0.00     0.047 C 
ATOM      4  C   UNL     1      69.858 -17.014 -10.012  1.00  0.00     0.159 C 
ATOM      5  O   UNL     1      69.995 -15.809 -10.347  1.00  0.00    -0.295 OA
ATOM      6  C   UNL     1      70.727 -17.668  -8.936  1.00  0.00     0.067 C 
ATOM      7  C   UNL     1      69.720 -18.450  -8.063  1.00  0.00     0.021 C 
ATOM      8  C   UNL     1      69.827 -19.583  -9.109  1.00  0.00     0.022 C 
ATOM      9  C   UNL     1      71.237 -19.035  -9.475  1.00  0.00    -0.019 C 
ATOM     10  C   UNL     1      71.696 -19.119 -10.958  1.00  0.00     0.012 C 
ATOM     11  C   UNL     1      72.353 -19.640  -8.586  1.00  0.00     0.012 C 
ENDROOT
TORSDOF 0
ENDMDL
MODEL 4
REMARK VINA RESULT:    -3.996      1.728      3.115
REMARK INTER + INTRA:          -3.996
REMARK INTER:                  -3.996
REMARK INTRA:                   0.000
REMARK UNBOUND:                 0.000
REMARK SMILES CC1=CC(=O)[C@H]2C[C@@H]1C2(C)C
REMARK SMILES IDX 1 1 2 2 3 3 4 4 5 5 6 6 7 7 8 8 9 9 10 10 11 11
REMARK H PARENT
REMARK Flexibility Score: inf
ROOT
ATOM      1  C   UNL     1      71.591 -15.741  -8.611  1.00  0.00     0.040 C 
ATOM      2  C   UNL     1      70.824 -17.009  -8.818  1.00  0.00    -0.066 C 
ATOM      3  C   UNL     1      70.892 -18.051  -7.942  1.00  0.00     0.047 C 
ATOM      4  C   UNL     1      70.068 -19.256  -8.282  1.00  0.00     0.159 C 
ATOM      5  O   UNL     1      70.079 -20.298  -7.577  1.00  0.00    -0.295 OA
ATOM      6  C   UNL     1      69.215 -19.131  -9.545  1.00  0.00     0.067 C 
ATOM      7  C   UNL     1      68.561 -17.737  -9.421  1.00  0.00     0.021 C 
ATOM      8  C   UNL     1      69.867 -17.168 -10.018  1.00  0.00     0.022 C 
ATOM      9  C   UNL     1      70.101 -18.553 -10.686  1.00  0.00    -0.019 C 
ATOM     10  C   UNL     1      71.562 -19.069 -10.819  1.00  0.00     0.012 C 
ATOM     11  C   UNL     1      69.419 -18.661 -12.074  1.00  0.00     0.012 C 
ENDROOT
TORSDOF 0
ENDMDL
MODEL 5
REMARK VINA RESULT:    -3.874      1.876      3.050
REMARK INTER + INTRA:          -3.874
REMARK INTER:                  -3.874
REMARK INTRA:                   0.000
REMARK UNBOUND:                 0.000
REMARK SMILES CC1=CC(=O)[C@H]2C[C@@H]1C2(C)C
REMARK SMILES IDX 1 1 2 2 3 3 4 4 5 5 6 6 7 7 8 8 9 9 10 10 11 11
REMARK H PARENT
REMARK Flexibility Score: inf
ROOT
ATOM      1  C   UNL     1      72.195 -16.503  -6.780  1.00  0.00     0.040 C 
ATOM      2  C   UNL     1      71.750 -17.430  -7.867  1.00  0.00    -0.066 C 
ATOM      3  C   UNL     1      72.626 -17.992  -8.746  1.00  0.00     0.047 C 
ATOM      4  C   UNL     1      72.033 -18.899  -9.782  1.00  0.00     0.159 C 
ATOM      5  O   UNL     1      72.731 -19.444 -10.676  1.00  0.00    -0.295 OA
ATOM      6  C   UNL     1      70.523 -19.115  -9.677  1.00  0.00     0.067 C 
ATOM      7  C   UNL     1      70.284 -19.373  -8.172  1.00  0.00     0.021 C 
ATOM      8  C   UNL     1      70.268 -17.837  -8.002  1.00  0.00     0.022 C 
ATOM      9  C   UNL     1      69.837 -17.732  -9.493  1.00  0.00    -0.019 C 
ATOM     10  C   UNL     1      70.363 -16.530 -10.328  1.00  0.00     0.012 C 
ATOM     11  C   UNL     1      68.298 -17.809  -9.668  1.00  0.00     0.012 C 
ENDROOT
TORSDOF 0
ENDMDL
MODEL 6
REMARK VINA RESULT:    -3.850      1.858      2.946
REMARK INTER + INTRA:          -3.850
REMARK INTER:                  -3.850
REMARK INTRA:                   0.000
REMARK UNBOUND:                 0.000
REMARK SMILES CC1=CC(=O)[C@H]2C[C@@H]1C2(C)C
REMARK SMILES IDX 1 1 2 2 3 3 4 4 5 5 6 6 7 7 8 8 9 9 10 10 11 11
REMARK H PARENT
REMARK Flexibility Score: inf
ROOT
ATOM      1  C   UNL     1      70.487 -20.457  -7.240  1.00  0.00     0.040 C 
ATOM      2  C   UNL     1      70.736 -19.266  -8.110  1.00  0.00    -0.066 C 
ATOM      3  C   UNL     1      71.087 -18.052  -7.600  1.00  0.00     0.047 C 
ATOM      4  C   UNL     1      71.303 -16.953  -8.595  1.00  0.00     0.159 C 
ATOM      5  O   UNL     1      71.588 -15.777  -8.245  1.00  0.00    -0.295 OA
ATOM      6  C   UNL     1      71.153 -17.358 -10.062  1.00  0.00     0.067 C 
ATOM      7  C   UNL     1      71.938 -18.684 -10.168  1.00  0.00     0.021 C 
ATOM      8  C   UNL     1      70.661 -19.380  -9.647  1.00  0.00     0.022 C 
ATOM      9  C   UNL     1      69.845 -18.184 -10.215  1.00  0.00    -0.019 C 
ATOM     10  C   UNL     1      68.582 -17.719  -9.436  1.00  0.00     0.012 C 
ATOM     11  C   UNL     1      69.450 -18.392 -11.700  1.00  0.00     0.012 C 
ENDROOT
TORSDOF 0
ENDMDL
MODEL 7
REMARK VINA RESULT:    -3.826     14.027     15.565
REMARK INTER + INTRA:          -3.826
REMARK INTER:                  -3.826
REMARK INTRA:                   0.000
REMARK UNBOUND:                 0.000
REMARK SMILES CC1=CC(=O)[C@H]2C[C@@H]1C2(C)C
REMARK SMILES IDX 1 1 2 2 3 3 4 4 5 5 6 6 7 7 8 8 9 9 10 10 11 11
REMARK H PARENT
REMARK Flexibility Score: inf
ROOT
ATOM      1  C   UNL     1      54.399 -12.551  -6.587  1.00  0.00     0.040 C 
ATOM      2  C   UNL     1      55.644 -13.358  -6.393  1.00  0.00    -0.066 C 
ATOM      3  C   UNL     1      56.202 -14.087  -7.400  1.00  0.00     0.047 C 
ATOM      4  C   UNL     1      57.448 -14.845  -7.055  1.00  0.00     0.159 C 
ATOM      5  O   UNL     1      58.033 -15.589  -7.886  1.00  0.00    -0.295 OA
ATOM      6  C   UNL     1      57.958 -14.654  -5.626  1.00  0.00     0.067 C 
ATOM      7  C   UNL     1      57.875 -13.128  -5.398  1.00  0.00     0.021 C 
ATOM      8  C   UNL     1      56.388 -13.352  -5.041  1.00  0.00     0.022 C 
ATOM      9  C   UNL     1      56.759 -14.811  -4.648  1.00  0.00    -0.019 C 
ATOM     10  C   UNL     1      55.720 -15.934  -4.927  1.00  0.00     0.012 C 
ATOM     11  C   UNL     1      57.214 -14.925  -3.171  1.00  0.00     0.012 C 
ENDROOT
TORSDOF 0
ENDMDL
MODEL 8
REMARK VINA RESULT:    -3.762     13.738     15.244
REMARK INTER + INTRA:          -3.762
REMARK INTER:                  -3.762
REMARK INTRA:                   0.000
REMARK UNBOUND:                 0.000
REMARK SMILES CC1=CC(=O)[C@H]2C[C@@H]1C2(C)C
REMARK SMILES IDX 1 1 2 2 3 3 4 4 5 5 6 6 7 7 8 8 9 9 10 10 11 11
REMARK H PARENT
REMARK Flexibility Score: inf
ROOT
ATOM      1  C   UNL     1      56.626 -13.804  -8.988  1.00  0.00     0.040 C 
ATOM      2  C   UNL     1      56.920 -13.691  -7.525  1.00  0.00    -0.066 C 
ATOM      3  C   UNL     1      57.989 -12.992  -7.050  1.00  0.00     0.047 C 
ATOM      4  C   UNL     1      58.156 -12.968  -5.561  1.00  0.00     0.159 C 
ATOM      5  O   UNL     1      59.127 -12.393  -5.003  1.00  0.00    -0.295 OA
ATOM      6  C   UNL     1      57.066 -13.690  -4.768  1.00  0.00     0.067 C 
ATOM      7  C   UNL     1      55.749 -13.217  -5.422  1.00  0.00     0.021 C 
ATOM      8  C   UNL     1      55.980 -14.322  -6.478  1.00  0.00     0.022 C 
ATOM      9  C   UNL     1      56.824 -15.083  -5.416  1.00  0.00    -0.019 C 
ATOM     10  C   UNL     1      58.057 -15.896  -5.901  1.00  0.00     0.012 C 
ATOM     11  C   UNL     1      55.955 -16.005  -4.522  1.00  0.00     0.012 C 
ENDROOT
TORSDOF 0
ENDMDL
MODEL 9
REMARK VINA RESULT:    -3.686     22.032     23.416
REMARK INTER + INTRA:          -3.686
REMARK INTER:                  -3.686
REMARK INTRA:                   0.000
REMARK UNBOUND:                 0.000
REMARK SMILES CC1=CC(=O)[C@H]2C[C@@H]1C2(C)C
REMARK SMILES IDX 1 1 2 2 3 3 4 4 5 5 6 6 7 7 8 8 9 9 10 10 11 11
REMARK H PARENT
REMARK Flexibility Score: inf
ROOT
ATOM      1  C   UNL     1      52.875  -6.428   5.515  1.00  0.00     0.040 C 
ATOM      2  C   UNL     1      53.272  -7.712   4.859  1.00  0.00    -0.066 C 
ATOM      3  C   UNL     1      53.248  -8.904   5.520  1.00  0.00     0.047 C 
ATOM      4  C   UNL     1      53.674 -10.106   4.733  1.00  0.00     0.159 C 
ATOM      5  O   UNL     1      53.736 -11.255   5.243  1.00  0.00    -0.295 OA
ATOM      6  C   UNL     1      54.029  -9.839   3.270  1.00  0.00     0.067 C 
ATOM      7  C   UNL     1      52.887  -8.931   2.765  1.00  0.00     0.021 C 
ATOM      8  C   UNL     1      53.677  -7.749   3.371  1.00  0.00     0.022 C 
ATOM      9  C   UNL     1      54.968  -8.601   3.206  1.00  0.00    -0.019 C 
ATOM     10  C   UNL     1      56.082  -8.463   4.282  1.00  0.00     0.012 C 
ATOM     11  C   UNL     1      55.617  -8.424   1.809  1.00  0.00     0.012 C 
ENDROOT
TORSDOF 0
ENDMDL
