MODEL 1
REMARK VINA RESULT:    -4.376      0.000      0.000
REMARK INTER + INTRA:         -10.382
REMARK INTER:                  -7.958
REMARK INTRA:                  -2.425
REMARK UNBOUND:                -2.425
REMARK SMILES CCCCCC=CCC=CCCCCCCCC(=O)[O-]
REMARK SMILES IDX 11 1 12 2 13 3 14 4 15 5 16 6 17 7 18 8 19 9 20 10 10 11
REMARK SMILES IDX 9 12 8 13 7 14 6 15 5 16 4 17 3 18 2 19 1 20
REMARK H PARENT
REMARK Flexibility Score: inf
ROOT
ATOM      1  C   UNL     1      98.668   2.428 -29.792  1.00  0.00     0.027 C 
ENDROOT
BRANCH   1   2
ATOM      2  C   UNL     1      98.749   1.329 -28.722  1.00  0.00     0.004 C 
BRANCH   2   3
ATOM      3  C   UNL     1     100.124   1.267 -28.039  1.00  0.00     0.000 C 
BRANCH   3   4
ATOM      4  C   UNL     1     100.038   0.841 -26.564  1.00  0.00     0.000 C 
BRANCH   4   5
ATOM      5  C   UNL     1      98.591   0.510 -26.140  1.00  0.00     0.000 C 
BRANCH   5   6
ATOM      6  C   UNL     1      98.368   0.546 -24.618  1.00  0.00     0.006 C 
BRANCH   6   7
ATOM      7  C   UNL     1      97.244  -0.382 -24.147  1.00  0.00     0.053 C 
BRANCH   7   8
ATOM      8  C   UNL     1      97.675  -1.811 -24.246  1.00  0.00     0.041 C 
ATOM      9  O   UNL     1      96.820  -2.724 -24.405  1.00  0.00    -0.550 OA
ATOM     10  O   UNL     1      99.012  -2.146 -24.072  1.00  0.00    -0.550 OA
ENDBRANCH   7   8
ENDBRANCH   6   7
ENDBRANCH   5   6
ENDBRANCH   4   5
ENDBRANCH   3   4
ENDBRANCH   2   3
ENDBRANCH   1   2
BRANCH   1  11
ATOM     11  C   UNL     1      99.893   3.305 -29.749  1.00  0.00    -0.031 C 
ATOM     12  C   UNL     1      99.957   4.505 -29.139  1.00  0.00    -0.027 C 
BRANCH  12  13
ATOM     13  C   UNL     1      98.838   5.117 -28.334  1.00  0.00     0.054 C 
BRANCH  13  14
ATOM     14  C   UNL     1      98.943   4.714 -26.885  1.00  0.00    -0.027 C 
ATOM     15  C   UNL     1      97.983   4.050 -26.212  1.00  0.00    -0.031 C 
BRANCH  15  16
ATOM     16  C   UNL     1      96.626   3.701 -26.773  1.00  0.00     0.027 C 
BRANCH  16  17
ATOM     17  C   UNL     1      95.782   2.878 -25.779  1.00  0.00     0.004 C 
BRANCH  17  18
ATOM     18  C   UNL     1      94.486   3.575 -25.322  1.00  0.00     0.000 C 
BRANCH  18  19
ATOM     19  C   UNL     1      94.049   4.704 -26.273  1.00  0.00    -0.003 C 
ATOM     20  C   UNL     1      93.107   5.681 -25.574  1.00  0.00     0.004 C 
ENDBRANCH  18  19
ENDBRANCH  17  18
ENDBRANCH  16  17
ENDBRANCH  15  16
ENDBRANCH  13  14
ENDBRANCH  12  13
ENDBRANCH   1  11
TORSDOF 14
ENDMDL
MODEL 2
REMARK VINA RESULT:    -4.340      1.173      1.782
REMARK INTER + INTRA:         -10.317
REMARK INTER:                  -7.869
REMARK INTRA:                  -2.447
REMARK UNBOUND:                -2.425
REMARK SMILES CCCCCC=CCC=CCCCCCCCC(=O)[O-]
REMARK SMILES IDX 11 1 12 2 13 3 14 4 15 5 16 6 17 7 18 8 19 9 20 10 10 11
REMARK SMILES IDX 9 12 8 13 7 14 6 15 5 16 4 17 3 18 2 19 1 20
REMARK H PARENT
REMARK Flexibility Score: inf
ROOT
ATOM      1  C   UNL     1      98.831   2.531 -29.885  1.00  0.00     0.027 C 
ENDROOT
BRANCH   1   2
ATOM      2  C   UNL     1      99.079   1.110 -29.360  1.00  0.00     0.004 C 
BRANCH   2   3
ATOM      3  C   UNL     1      99.839   1.095 -28.024  1.00  0.00     0.000 C 
BRANCH   3   4
ATOM      4  C   UNL     1      99.138   0.248 -26.950  1.00  0.00     0.000 C 
BRANCH   4   5
ATOM      5  C   UNL     1      99.747   0.470 -25.549  1.00  0.00     0.000 C 
BRANCH   5   6
ATOM      6  C   UNL     1      99.244  -0.526 -24.490  1.00  0.00     0.006 C 
BRANCH   6   7
ATOM      7  C   UNL     1      98.165  -1.478 -25.015  1.00  0.00     0.053 C 
BRANCH   7   8
ATOM      8  C   UNL     1      97.406  -2.082 -23.877  1.00  0.00     0.041 C 
ATOM      9  O   UNL     1      97.537  -1.622 -22.710  1.00  0.00    -0.550 OA
ATOM     10  O   UNL     1      96.625  -3.212 -24.085  1.00  0.00    -0.550 OA
ENDBRANCH   7   8
ENDBRANCH   6   7
ENDBRANCH   5   6
ENDBRANCH   4   5
ENDBRANCH   3   4
ENDBRANCH   2   3
ENDBRANCH   1   2
BRANCH   1  11
ATOM     11  C   UNL     1     100.026   3.413 -29.623  1.00  0.00    -0.031 C 
ATOM     12  C   UNL     1     100.000   4.541 -28.887  1.00  0.00    -0.027 C 
BRANCH  12  13
ATOM     13  C   UNL     1      98.791   5.052 -28.144  1.00  0.00     0.054 C 
BRANCH  13  14
ATOM     14  C   UNL     1      98.768   4.517 -26.735  1.00  0.00    -0.027 C 
ATOM     15  C   UNL     1      97.868   3.624 -26.278  1.00  0.00    -0.031 C 
BRANCH  15  16
ATOM     16  C   UNL     1      96.694   3.105 -27.073  1.00  0.00     0.027 C 
BRANCH  16  17
ATOM     17  C   UNL     1      95.353   3.670 -26.561  1.00  0.00     0.004 C 
BRANCH  17  18
ATOM     18  C   UNL     1      95.090   3.415 -25.065  1.00  0.00     0.000 C 
BRANCH  18  19
ATOM     19  C   UNL     1      94.867   1.926 -24.743  1.00  0.00    -0.003 C 
ATOM     20  C   UNL     1      96.007   1.367 -23.897  1.00  0.00     0.004 C 
ENDBRANCH  18  19
ENDBRANCH  17  18
ENDBRANCH  16  17
ENDBRANCH  15  16
ENDBRANCH  13  14
ENDBRANCH  12  13
ENDBRANCH   1  11
TORSDOF 14
ENDMDL
MODEL 3
REMARK VINA RESULT:    -4.252      1.256      3.007
REMARK INTER + INTRA:         -10.157
REMARK INTER:                  -8.110
REMARK INTRA:                  -2.047
REMARK UNBOUND:                -2.425
REMARK SMILES CCCCCC=CCC=CCCCCCCCC(=O)[O-]
REMARK SMILES IDX 11 1 12 2 13 3 14 4 15 5 16 6 17 7 18 8 19 9 20 10 10 11
REMARK SMILES IDX 9 12 8 13 7 14 6 15 5 16 4 17 3 18 2 19 1 20
REMARK H PARENT
REMARK Flexibility Score: inf
ROOT
ATOM      1  C   UNL     1      98.631   4.777 -28.181  1.00  0.00     0.027 C 
ENDROOT
BRANCH   1   2
ATOM      2  C   UNL     1      99.403   3.831 -29.112  1.00  0.00     0.004 C 
BRANCH   2   3
ATOM      3  C   UNL     1      98.520   2.714 -29.688  1.00  0.00     0.000 C 
BRANCH   3   4
ATOM      4  C   UNL     1      98.727   1.366 -28.978  1.00  0.00     0.000 C 
BRANCH   4   5
ATOM      5  C   UNL     1     100.121   1.264 -28.323  1.00  0.00     0.000 C 
BRANCH   5   6
ATOM      6  C   UNL     1     100.076   0.941 -26.819  1.00  0.00     0.006 C 
BRANCH   6   7
ATOM      7  C   UNL     1      99.062  -0.150 -26.462  1.00  0.00     0.053 C 
BRANCH   7   8
ATOM      8  C   UNL     1      98.599   0.015 -25.049  1.00  0.00     0.041 C 
ATOM      9  O   UNL     1      97.538  -0.544 -24.659  1.00  0.00    -0.550 OA
ATOM     10  O   UNL     1      99.286   0.861 -24.188  1.00  0.00    -0.550 OA
ENDBRANCH   7   8
ENDBRANCH   6   7
ENDBRANCH   5   6
ENDBRANCH   4   5
ENDBRANCH   3   4
ENDBRANCH   2   3
ENDBRANCH   1   2
BRANCH   1  11
ATOM     11  C   UNL     1      99.018   4.541 -26.742  1.00  0.00    -0.031 C 
ATOM     12  C   UNL     1      98.277   3.853 -25.852  1.00  0.00    -0.027 C 
BRANCH  12  13
ATOM     13  C   UNL     1      96.987   3.143 -26.177  1.00  0.00     0.054 C 
BRANCH  13  14
ATOM     14  C   UNL     1      96.183   2.900 -24.924  1.00  0.00    -0.027 C 
ATOM     15  C   UNL     1      94.867   3.162 -24.806  1.00  0.00    -0.031 C 
BRANCH  15  16
ATOM     16  C   UNL     1      94.025   3.828 -25.866  1.00  0.00     0.027 C 
BRANCH  16  17
ATOM     17  C   UNL     1      93.126   4.937 -25.282  1.00  0.00     0.004 C 
BRANCH  17  18
ATOM     18  C   UNL     1      93.174   6.265 -26.060  1.00  0.00     0.000 C 
BRANCH  18  19
ATOM     19  C   UNL     1      92.087   6.360 -27.146  1.00  0.00    -0.003 C 
ATOM     20  C   UNL     1      90.948   5.381 -26.875  1.00  0.00     0.004 C 
ENDBRANCH  18  19
ENDBRANCH  17  18
ENDBRANCH  16  17
ENDBRANCH  15  16
ENDBRANCH  13  14
ENDBRANCH  12  13
ENDBRANCH   1  11
TORSDOF 14
ENDMDL
MODEL 4
REMARK VINA RESULT:    -4.208      3.122      5.729
REMARK INTER + INTRA:         -10.077
REMARK INTER:                  -7.605
REMARK INTRA:                  -2.471
REMARK UNBOUND:                -2.425
REMARK SMILES CCCCCC=CCC=CCCCCCCCC(=O)[O-]
REMARK SMILES IDX 11 1 12 2 13 3 14 4 15 5 16 6 17 7 18 8 19 9 20 10 10 11
REMARK SMILES IDX 9 12 8 13 7 14 6 15 5 16 4 17 3 18 2 19 1 20
REMARK H PARENT
REMARK Flexibility Score: inf
ROOT
ATOM      1  C   UNL     1      99.330   4.879 -27.951  1.00  0.00     0.027 C 
ENDROOT
BRANCH   1   2
ATOM      2  C   UNL     1      98.829   4.273 -26.632  1.00  0.00     0.004 C 
BRANCH   2   3
ATOM      3  C   UNL     1      97.307   4.396 -26.463  1.00  0.00     0.000 C 
BRANCH   3   4
ATOM      4  C   UNL     1      96.607   3.032 -26.352  1.00  0.00     0.000 C 
BRANCH   4   5
ATOM      5  C   UNL     1      95.110   3.117 -26.718  1.00  0.00     0.000 C 
BRANCH   5   6
ATOM      6  C   UNL     1      94.248   3.804 -25.644  1.00  0.00     0.006 C 
BRANCH   6   7
ATOM      7  C   UNL     1      93.607   5.110 -26.123  1.00  0.00     0.053 C 
BRANCH   7   8
ATOM      8  C   UNL     1      92.391   4.820 -26.945  1.00  0.00     0.041 C 
ATOM      9  O   UNL     1      91.643   3.848 -26.652  1.00  0.00    -0.550 OA
ATOM     10  O   UNL     1      92.132   5.564 -28.088  1.00  0.00    -0.550 OA
ENDBRANCH   7   8
ENDBRANCH   6   7
ENDBRANCH   5   6
ENDBRANCH   4   5
ENDBRANCH   3   4
ENDBRANCH   2   3
ENDBRANCH   1   2
BRANCH   1  11
ATOM     11  C   UNL     1      98.358   4.598 -29.070  1.00  0.00    -0.031 C 
ATOM     12  C   UNL     1      98.409   3.521 -29.877  1.00  0.00    -0.027 C 
BRANCH  12  13
ATOM     13  C   UNL     1      99.394   2.388 -29.734  1.00  0.00     0.054 C 
BRANCH  13  14
ATOM     14  C   UNL     1      98.716   1.161 -29.179  1.00  0.00    -0.027 C 
ATOM     15  C   UNL     1      99.010   0.606 -27.987  1.00  0.00    -0.031 C 
BRANCH  15  16
ATOM     16  C   UNL     1     100.125   1.065 -27.078  1.00  0.00     0.027 C 
BRANCH  16  17
ATOM     17  C   UNL     1     100.045   0.408 -25.686  1.00  0.00     0.004 C 
BRANCH  17  18
ATOM     18  C   UNL     1      99.529   1.342 -24.575  1.00  0.00     0.000 C 
BRANCH  18  19
ATOM     19  C   UNL     1      98.294   0.779 -23.847  1.00  0.00    -0.003 C 
ATOM     20  C   UNL     1      97.673  -0.377 -24.627  1.00  0.00     0.004 C 
ENDBRANCH  18  19
ENDBRANCH  17  18
ENDBRANCH  16  17
ENDBRANCH  15  16
ENDBRANCH  13  14
ENDBRANCH  12  13
ENDBRANCH   1  11
TORSDOF 14
ENDMDL
MODEL 5
REMARK VINA RESULT:    -4.134      3.438      6.256
REMARK INTER + INTRA:          -9.943
REMARK INTER:                  -7.922
REMARK INTRA:                  -2.020
REMARK UNBOUND:                -2.425
REMARK SMILES CCCCCC=CCC=CCCCCCCCC(=O)[O-]
REMARK SMILES IDX 11 1 12 2 13 3 14 4 15 5 16 6 17 7 18 8 19 9 20 10 10 11
REMARK SMILES IDX 9 12 8 13 7 14 6 15 5 16 4 17 3 18 2 19 1 20
REMARK H PARENT
REMARK Flexibility Score: inf
ROOT
ATOM      1  C   UNL     1      94.333   3.747 -25.304  1.00  0.00     0.027 C 
ENDROOT
BRANCH   1   2
ATOM      2  C   UNL     1      94.993   2.728 -24.364  1.00  0.00     0.004 C 
BRANCH   2   3
ATOM      3  C   UNL     1      96.406   2.331 -24.817  1.00  0.00     0.000 C 
BRANCH   3   4
ATOM      4  C   UNL     1      96.878   3.115 -26.053  1.00  0.00     0.000 C 
BRANCH   4   5
ATOM      5  C   UNL     1      98.310   3.664 -25.879  1.00  0.00     0.000 C 
BRANCH   5   6
ATOM      6  C   UNL     1      98.733   4.651 -26.982  1.00  0.00     0.006 C 
BRANCH   6   7
ATOM      7  C   UNL     1      99.748   4.062 -27.966  1.00  0.00     0.053 C 
BRANCH   7   8
ATOM      8  C   UNL     1      99.100   3.806 -29.290  1.00  0.00     0.041 C 
ATOM      9  O   UNL     1      97.997   4.347 -29.572  1.00  0.00    -0.550 OA
ATOM     10  O   UNL     1      99.666   2.898 -30.175  1.00  0.00    -0.550 OA
ENDBRANCH   7   8
ENDBRANCH   6   7
ENDBRANCH   5   6
ENDBRANCH   4   5
ENDBRANCH   3   4
ENDBRANCH   2   3
ENDBRANCH   1   2
BRANCH   1  11
ATOM     11  C   UNL     1      93.201   4.460 -24.608  1.00  0.00    -0.031 C 
ATOM     12  C   UNL     1      92.685   5.643 -24.997  1.00  0.00    -0.027 C 
BRANCH  12  13
ATOM     13  C   UNL     1      93.103   6.395 -26.235  1.00  0.00     0.054 C 
BRANCH  13  14
ATOM     14  C   UNL     1      91.906   6.705 -27.098  1.00  0.00    -0.027 C 
ATOM     15  C   UNL     1      91.455   5.905 -28.084  1.00  0.00    -0.031 C 
BRANCH  15  16
ATOM     16  C   UNL     1      92.135   4.636 -28.539  1.00  0.00     0.027 C 
BRANCH  16  17
ATOM     17  C   UNL     1      91.183   3.423 -28.503  1.00  0.00     0.004 C 
BRANCH  17  18
ATOM     18  C   UNL     1      91.325   2.547 -27.244  1.00  0.00     0.000 C 
BRANCH  18  19
ATOM     19  C   UNL     1      90.351   2.951 -26.123  1.00  0.00    -0.003 C 
ATOM     20  C   UNL     1      89.051   3.511 -26.695  1.00  0.00     0.004 C 
ENDBRANCH  18  19
ENDBRANCH  17  18
ENDBRANCH  16  17
ENDBRANCH  15  16
ENDBRANCH  13  14
ENDBRANCH  12  13
ENDBRANCH   1  11
TORSDOF 14
ENDMDL
MODEL 6
REMARK VINA RESULT:    -4.075      1.750      3.924
REMARK INTER + INTRA:          -9.835
REMARK INTER:                  -7.374
REMARK INTRA:                  -2.460
REMARK UNBOUND:                -2.425
REMARK SMILES CCCCCC=CCC=CCCCCCCCC(=O)[O-]
REMARK SMILES IDX 11 1 12 2 13 3 14 4 15 5 16 6 17 7 18 8 19 9 20 10 10 11
REMARK SMILES IDX 9 12 8 13 7 14 6 15 5 16 4 17 3 18 2 19 1 20
REMARK H PARENT
REMARK Flexibility Score: inf
ROOT
ATOM      1  C   UNL     1      98.589   4.485 -26.815  1.00  0.00     0.027 C 
ENDROOT
BRANCH   1   2
ATOM      2  C   UNL     1      99.310   5.139 -28.002  1.00  0.00     0.004 C 
BRANCH   2   3
ATOM      3  C   UNL     1      98.970   4.471 -29.344  1.00  0.00     0.000 C 
BRANCH   3   4
ATOM      4  C   UNL     1     100.103   3.574 -29.866  1.00  0.00     0.000 C 
BRANCH   4   5
ATOM      5  C   UNL     1      99.739   2.076 -29.789  1.00  0.00     0.000 C 
BRANCH   5   6
ATOM      6  C   UNL     1     100.116   1.414 -28.452  1.00  0.00     0.006 C 
BRANCH   6   7
ATOM      7  C   UNL     1      99.051   0.444 -27.933  1.00  0.00     0.053 C 
BRANCH   7   8
ATOM      8  C   UNL     1      99.205   0.245 -26.458  1.00  0.00     0.041 C 
ATOM      9  O   UNL     1      99.724   1.147 -25.746  1.00  0.00    -0.550 OA
ATOM     10  O   UNL     1      98.861  -0.971 -25.883  1.00  0.00    -0.550 OA
ENDBRANCH   7   8
ENDBRANCH   6   7
ENDBRANCH   5   6
ENDBRANCH   4   5
ENDBRANCH   3   4
ENDBRANCH   2   3
ENDBRANCH   1   2
BRANCH   1  11
ATOM     11  C   UNL     1      97.348   3.764 -27.276  1.00  0.00    -0.031 C 
ATOM     12  C   UNL     1      96.560   3.010 -26.484  1.00  0.00    -0.027 C 
BRANCH  12  13
ATOM     13  C   UNL     1      96.751   2.839 -24.998  1.00  0.00     0.054 C 
BRANCH  13  14
ATOM     14  C   UNL     1      95.907   1.701 -24.481  1.00  0.00    -0.027 C 
ATOM     15  C   UNL     1      94.890   1.848 -23.609  1.00  0.00    -0.031 C 
BRANCH  15  16
ATOM     16  C   UNL     1      94.511   3.148 -22.943  1.00  0.00     0.027 C 
BRANCH  16  17
ATOM     17  C   UNL     1      93.390   3.884 -23.706  1.00  0.00     0.004 C 
BRANCH  17  18
ATOM     18  C   UNL     1      92.590   2.989 -24.671  1.00  0.00     0.000 C 
BRANCH  18  19
ATOM     19  C   UNL     1      92.799   3.367 -26.148  1.00  0.00    -0.003 C 
ATOM     20  C   UNL     1      92.852   2.125 -27.034  1.00  0.00     0.004 C 
ENDBRANCH  18  19
ENDBRANCH  17  18
ENDBRANCH  16  17
ENDBRANCH  15  16
ENDBRANCH  13  14
ENDBRANCH  12  13
ENDBRANCH   1  11
TORSDOF 14
ENDMDL
MODEL 7
REMARK VINA RESULT:    -4.040      3.998      7.339
REMARK INTER + INTRA:          -9.771
REMARK INTER:                  -8.029
REMARK INTRA:                  -1.742
REMARK UNBOUND:                -2.425
REMARK SMILES CCCCCC=CCC=CCCCCCCCC(=O)[O-]
REMARK SMILES IDX 11 1 12 2 13 3 14 4 15 5 16 6 17 7 18 8 19 9 20 10 10 11
REMARK SMILES IDX 9 12 8 13 7 14 6 15 5 16 4 17 3 18 2 19 1 20
REMARK H PARENT
REMARK Flexibility Score: inf
ROOT
ATOM      1  C   UNL     1      96.321   3.024 -26.158  1.00  0.00     0.027 C 
ENDROOT
BRANCH   1   2
ATOM      2  C   UNL     1      95.197   3.330 -25.158  1.00  0.00     0.004 C 
BRANCH   2   3
ATOM      3  C   UNL     1      93.892   3.760 -25.845  1.00  0.00     0.000 C 
BRANCH   3   4
ATOM      4  C   UNL     1      93.373   5.117 -25.343  1.00  0.00     0.000 C 
BRANCH   4   5
ATOM      5  C   UNL     1      92.889   6.017 -26.499  1.00  0.00     0.000 C 
BRANCH   5   6
ATOM      6  C   UNL     1      91.765   5.391 -27.343  1.00  0.00     0.006 C 
BRANCH   6   7
ATOM      7  C   UNL     1      91.146   6.366 -28.349  1.00  0.00     0.053 C 
BRANCH   7   8
ATOM      8  C   UNL     1      91.438   5.923 -29.748  1.00  0.00     0.041 C 
ATOM      9  O   UNL     1      91.714   4.716 -29.988  1.00  0.00    -0.550 OA
ATOM     10  O   UNL     1      91.497   6.857 -30.774  1.00  0.00    -0.550 OA
ENDBRANCH   7   8
ENDBRANCH   6   7
ENDBRANCH   5   6
ENDBRANCH   4   5
ENDBRANCH   3   4
ENDBRANCH   2   3
ENDBRANCH   1   2
BRANCH   1  11
ATOM     11  C   UNL     1      97.669   3.331 -25.555  1.00  0.00    -0.031 C 
ATOM     12  C   UNL     1      98.603   4.118 -26.126  1.00  0.00    -0.027 C 
BRANCH  12  13
ATOM     13  C   UNL     1      98.412   4.878 -27.414  1.00  0.00     0.054 C 
BRANCH  13  14
ATOM     14  C   UNL     1      99.574   4.642 -28.346  1.00  0.00    -0.027 C 
ATOM     15  C   UNL     1      99.610   3.673 -29.282  1.00  0.00    -0.031 C 
BRANCH  15  16
ATOM     16  C   UNL     1      98.546   2.620 -29.469  1.00  0.00     0.027 C 
BRANCH  16  17
ATOM     17  C   UNL     1      99.065   1.206 -29.139  1.00  0.00     0.004 C 
BRANCH  17  18
ATOM     18  C   UNL     1      99.964   1.139 -27.889  1.00  0.00     0.000 C 
BRANCH  18  19
ATOM     19  C   UNL     1      99.346   0.303 -26.754  1.00  0.00    -0.003 C 
ATOM     20  C   UNL     1     100.125   0.479 -25.452  1.00  0.00     0.004 C 
ENDBRANCH  18  19
ENDBRANCH  17  18
ENDBRANCH  16  17
ENDBRANCH  15  16
ENDBRANCH  13  14
ENDBRANCH  12  13
ENDBRANCH   1  11
TORSDOF 14
ENDMDL
MODEL 8
REMARK VINA RESULT:    -4.037      1.996      3.498
REMARK INTER + INTRA:          -9.765
REMARK INTER:                  -7.720
REMARK INTRA:                  -2.045
REMARK UNBOUND:                -2.425
REMARK SMILES CCCCCC=CCC=CCCCCCCCC(=O)[O-]
REMARK SMILES IDX 11 1 12 2 13 3 14 4 15 5 16 6 17 7 18 8 19 9 20 10 10 11
REMARK SMILES IDX 9 12 8 13 7 14 6 15 5 16 4 17 3 18 2 19 1 20
REMARK H PARENT
REMARK Flexibility Score: inf
ROOT
ATOM      1  C   UNL     1     100.022   0.751 -26.872  1.00  0.00     0.027 C 
ENDROOT
BRANCH   1   2
ATOM      2  C   UNL     1      99.357   1.210 -25.566  1.00  0.00     0.004 C 
BRANCH   2   3
ATOM      3  C   UNL     1      98.265   0.243 -25.085  1.00  0.00     0.000 C 
BRANCH   3   4
ATOM      4  C   UNL     1      98.672  -1.233 -25.224  1.00  0.00     0.000 C 
BRANCH   4   5
ATOM      5  C   UNL     1      98.688  -1.961 -23.863  1.00  0.00     0.000 C 
BRANCH   5   6
ATOM      6  C   UNL     1      99.905  -1.613 -22.989  1.00  0.00     0.006 C 
BRANCH   6   7
ATOM      7  C   UNL     1      99.559  -1.442 -21.507  1.00  0.00     0.053 C 
BRANCH   7   8
ATOM      8  C   UNL     1      99.382   0.007 -21.179  1.00  0.00     0.041 C 
ATOM      9  O   UNL     1      98.520   0.367 -20.333  1.00  0.00    -0.550 OA
ATOM     10  O   UNL     1     100.104   0.969 -21.874  1.00  0.00    -0.550 OA
ENDBRANCH   7   8
ENDBRANCH   6   7
ENDBRANCH   5   6
ENDBRANCH   4   5
ENDBRANCH   3   4
ENDBRANCH   2   3
ENDBRANCH   1   2
BRANCH   1  11
ATOM     11  C   UNL     1      99.002   0.630 -27.976  1.00  0.00    -0.031 C 
ATOM     12  C   UNL     1      98.997   1.374 -29.099  1.00  0.00    -0.027 C 
BRANCH  12  13
ATOM     13  C   UNL     1     100.056   2.384 -29.464  1.00  0.00     0.054 C 
BRANCH  13  14
ATOM     14  C   UNL     1      99.426   3.701 -29.843  1.00  0.00    -0.027 C 
ATOM     15  C   UNL     1      99.368   4.775 -29.031  1.00  0.00    -0.031 C 
BRANCH  15  16
ATOM     16  C   UNL     1      99.829   4.790 -27.594  1.00  0.00     0.027 C 
BRANCH  16  17
ATOM     17  C   UNL     1      98.677   4.497 -26.613  1.00  0.00     0.004 C 
BRANCH  17  18
ATOM     18  C   UNL     1      97.320   4.231 -27.293  1.00  0.00     0.000 C 
BRANCH  18  19
ATOM     19  C   UNL     1      96.477   3.177 -26.553  1.00  0.00    -0.003 C 
ATOM     20  C   UNL     1      95.069   3.694 -26.271  1.00  0.00     0.004 C 
ENDBRANCH  18  19
ENDBRANCH  17  18
ENDBRANCH  16  17
ENDBRANCH  15  16
ENDBRANCH  13  14
ENDBRANCH  12  13
ENDBRANCH   1  11
TORSDOF 14
ENDMDL
MODEL 9
REMARK VINA RESULT:    -3.724      3.184      6.415
REMARK INTER + INTRA:          -9.196
REMARK INTER:                  -7.016
REMARK INTRA:                  -2.181
REMARK UNBOUND:                -2.425
REMARK SMILES CCCCCC=CCC=CCCCCCCCC(=O)[O-]
REMARK SMILES IDX 11 1 12 2 13 3 14 4 15 5 16 6 17 7 18 8 19 9 20 10 10 11
REMARK SMILES IDX 9 12 8 13 7 14 6 15 5 16 4 17 3 18 2 19 1 20
REMARK H PARENT
REMARK Flexibility Score: inf
ROOT
ATOM      1  C   UNL     1      96.720   2.381 -25.592  1.00  0.00     0.027 C 
ENDROOT
BRANCH   1   2
ATOM      2  C   UNL     1      95.891   2.664 -24.330  1.00  0.00     0.004 C 
BRANCH   2   3
ATOM      3  C   UNL     1      94.523   3.287 -24.647  1.00  0.00     0.000 C 
BRANCH   3   4
ATOM      4  C   UNL     1      94.433   3.829 -26.083  1.00  0.00     0.000 C 
BRANCH   4   5
ATOM      5  C   UNL     1      93.686   5.178 -26.148  1.00  0.00     0.000 C 
BRANCH   5   6
ATOM      6  C   UNL     1      92.535   5.200 -27.169  1.00  0.00     0.006 C 
BRANCH   6   7
ATOM      7  C   UNL     1      92.613   4.068 -28.197  1.00  0.00     0.053 C 
BRANCH   7   8
ATOM      8  C   UNL     1      91.426   3.167 -28.068  1.00  0.00     0.041 C 
ATOM      9  O   UNL     1      90.416   3.335 -28.805  1.00  0.00    -0.550 OA
ATOM     10  O   UNL     1      91.395   2.198 -27.073  1.00  0.00    -0.550 OA
ENDBRANCH   7   8
ENDBRANCH   6   7
ENDBRANCH   5   6
ENDBRANCH   4   5
ENDBRANCH   3   4
ENDBRANCH   2   3
ENDBRANCH   1   2
BRANCH   1  11
ATOM     11  C   UNL     1      98.121   2.918 -25.441  1.00  0.00    -0.031 C 
ATOM     12  C   UNL     1      98.623   3.955 -26.139  1.00  0.00    -0.027 C 
BRANCH  12  13
ATOM     13  C   UNL     1      97.838   4.790 -27.119  1.00  0.00     0.054 C 
BRANCH  13  14
ATOM     14  C   UNL     1      98.654   5.064 -28.357  1.00  0.00    -0.027 C 
ATOM     15  C   UNL     1      98.542   4.370 -29.507  1.00  0.00    -0.031 C 
BRANCH  15  16
ATOM     16  C   UNL     1      97.665   3.156 -29.695  1.00  0.00     0.027 C 
BRANCH  16  17
ATOM     17  C   UNL     1      98.476   1.916 -30.122  1.00  0.00     0.004 C 
BRANCH  17  18
ATOM     18  C   UNL     1      99.944   1.929 -29.655  1.00  0.00     0.000 C 
BRANCH  18  19
ATOM     19  C   UNL     1     100.125   1.358 -28.237  1.00  0.00    -0.003 C 
ATOM     20  C   UNL     1      99.006   0.380 -27.889  1.00  0.00     0.004 C 
ENDBRANCH  18  19
ENDBRANCH  17  18
ENDBRANCH  16  17
ENDBRANCH  15  16
ENDBRANCH  13  14
ENDBRANCH  12  13
ENDBRANCH   1  11
TORSDOF 14
ENDMDL
