MODEL 1
REMARK VINA RESULT:    -2.597      0.000      0.000
REMARK INTER + INTRA:          -4.931
REMARK INTER:                  -3.963
REMARK INTRA:                  -0.968
REMARK UNBOUND:                -0.968
REMARK SMILES CCCCCCCCCCC(=O)[O-]
REMARK SMILES IDX 7 1 8 2 9 3 10 4 11 5 12 6 13 7 6 8 5 9 4 10 3 11 2 12 1 13
REMARK H PARENT
REMARK Flexibility Score: inf
ROOT
ATOM      1  C   UNL     1      54.670 -35.124  24.306  1.00  0.00     0.000 C 
ENDROOT
BRANCH   1   2
ATOM      2  C   UNL     1      54.321 -35.421  22.839  1.00  0.00     0.000 C 
BRANCH   2   3
ATOM      3  C   UNL     1      55.567 -35.673  21.975  1.00  0.00     0.006 C 
BRANCH   3   4
ATOM      4  C   UNL     1      56.529 -36.688  22.606  1.00  0.00     0.053 C 
BRANCH   4   5
ATOM      5  C   UNL     1      57.918 -36.137  22.644  1.00  0.00     0.041 C 
ATOM      6  O   UNL     1      58.846 -36.709  22.014  1.00  0.00    -0.550 OA
ATOM      7  O   UNL     1      58.200 -35.017  23.417  1.00  0.00    -0.550 OA
ENDBRANCH   4   5
ENDBRANCH   3   4
ENDBRANCH   2   3
ENDBRANCH   1   2
BRANCH   1   8
ATOM      8  C   UNL     1      54.830 -33.617  24.539  1.00  0.00     0.000 C 
BRANCH   8   9
ATOM      9  C   UNL     1      54.018 -32.813  23.513  1.00  0.00    -0.000 C 
BRANCH   9  10
ATOM     10  C   UNL     1      52.835 -32.064  24.148  1.00  0.00    -0.000 C 
BRANCH  10  11
ATOM     11  C   UNL     1      51.483 -32.465  23.539  1.00  0.00    -0.000 C 
BRANCH  11  12
ATOM     12  C   UNL     1      51.050 -33.850  24.032  1.00  0.00    -0.003 C 
ATOM     13  C   UNL     1      50.612 -34.736  22.870  1.00  0.00     0.004 C 
ENDBRANCH  11  12
ENDBRANCH  10  11
ENDBRANCH   9  10
ENDBRANCH   8   9
ENDBRANCH   1   8
TORSDOF 9
ENDMDL
MODEL 2
REMARK VINA RESULT:    -2.562      1.113      2.145
REMARK INTER + INTRA:          -4.878
REMARK INTER:                  -4.286
REMARK INTRA:                  -0.592
REMARK UNBOUND:                -0.968
REMARK SMILES CCCCCCCCCCC(=O)[O-]
REMARK SMILES IDX 7 1 8 2 9 3 10 4 11 5 12 6 13 7 6 8 5 9 4 10 3 11 2 12 1 13
REMARK H PARENT
REMARK Flexibility Score: inf
ROOT
ATOM      1  C   UNL     1      54.725 -34.534  23.539  1.00  0.00     0.000 C 
ENDROOT
BRANCH   1   2
ATOM      2  C   UNL     1      54.781 -35.540  22.378  1.00  0.00     0.000 C 
BRANCH   2   3
ATOM      3  C   UNL     1      56.089 -36.347  22.356  1.00  0.00     0.006 C 
BRANCH   3   4
ATOM      4  C   UNL     1      57.062 -35.926  23.466  1.00  0.00     0.053 C 
BRANCH   4   5
ATOM      5  C   UNL     1      58.461 -35.875  22.941  1.00  0.00     0.041 C 
ATOM      6  O   UNL     1      59.273 -35.021  23.383  1.00  0.00    -0.550 OA
ATOM      7  O   UNL     1      58.855 -36.739  21.927  1.00  0.00    -0.550 OA
ENDBRANCH   4   5
ENDBRANCH   3   4
ENDBRANCH   2   3
ENDBRANCH   1   2
BRANCH   1   8
ATOM      8  C   UNL     1      53.293 -34.381  24.064  1.00  0.00     0.000 C 
BRANCH   8   9
ATOM      9  C   UNL     1      52.290 -35.090  23.142  1.00  0.00    -0.000 C 
BRANCH   9  10
ATOM     10  C   UNL     1      50.894 -34.448  23.179  1.00  0.00    -0.000 C 
BRANCH  10  11
ATOM     11  C   UNL     1      50.900 -33.053  23.821  1.00  0.00    -0.000 C 
BRANCH  11  12
ATOM     12  C   UNL     1      50.678 -31.964  22.764  1.00  0.00    -0.003 C 
ATOM     13  C   UNL     1      51.476 -30.706  23.094  1.00  0.00     0.004 C 
ENDBRANCH  11  12
ENDBRANCH  10  11
ENDBRANCH   9  10
ENDBRANCH   8   9
ENDBRANCH   1   8
TORSDOF 9
ENDMDL
MODEL 3
REMARK VINA RESULT:    -2.550      1.601      2.888
REMARK INTER + INTRA:          -4.859
REMARK INTER:                  -4.444
REMARK INTRA:                  -0.415
REMARK UNBOUND:                -0.968
REMARK SMILES CCCCCCCCCCC(=O)[O-]
REMARK SMILES IDX 7 1 8 2 9 3 10 4 11 5 12 6 13 7 6 8 5 9 4 10 3 11 2 12 1 13
REMARK H PARENT
REMARK Flexibility Score: inf
ROOT
ATOM      1  C   UNL     1      52.531 -34.302  23.540  1.00  0.00     0.000 C 
ENDROOT
BRANCH   1   2
ATOM      2  C   UNL     1      53.634 -35.372  23.550  1.00  0.00     0.000 C 
BRANCH   2   3
ATOM      3  C   UNL     1      54.913 -34.910  22.834  1.00  0.00     0.006 C 
BRANCH   3   4
ATOM      4  C   UNL     1      55.615 -36.049  22.082  1.00  0.00     0.053 C 
BRANCH   4   5
ATOM      5  C   UNL     1      56.894 -36.415  22.764  1.00  0.00     0.041 C 
ATOM      6  O   UNL     1      56.879 -36.876  23.936  1.00  0.00    -0.550 OA
ATOM      7  O   UNL     1      58.108 -36.200  22.126  1.00  0.00    -0.550 OA
ENDBRANCH   4   5
ENDBRANCH   3   4
ENDBRANCH   2   3
ENDBRANCH   1   2
BRANCH   1   8
ATOM      8  C   UNL     1      51.185 -34.906  23.124  1.00  0.00     0.000 C 
BRANCH   8   9
ATOM      9  C   UNL     1      50.064 -33.859  23.206  1.00  0.00    -0.000 C 
BRANCH   9  10
ATOM     10  C   UNL     1      50.600 -32.423  23.317  1.00  0.00    -0.000 C 
BRANCH  10  11
ATOM     11  C   UNL     1      49.875 -31.444  22.381  1.00  0.00    -0.000 C 
BRANCH  11  12
ATOM     12  C   UNL     1      50.232 -29.993  22.725  1.00  0.00    -0.003 C 
ATOM     13  C   UNL     1      51.640 -29.894  23.304  1.00  0.00     0.004 C 
ENDBRANCH  11  12
ENDBRANCH  10  11
ENDBRANCH   9  10
ENDBRANCH   8   9
ENDBRANCH   1   8
TORSDOF 9
ENDMDL
MODEL 4
REMARK VINA RESULT:    -2.537      3.649      6.317
REMARK INTER + INTRA:          -4.839
REMARK INTER:                  -4.230
REMARK INTRA:                  -0.610
REMARK UNBOUND:                -0.968
REMARK SMILES CCCCCCCCCCC(=O)[O-]
REMARK SMILES IDX 7 1 8 2 9 3 10 4 11 5 12 6 13 7 6 8 5 9 4 10 3 11 2 12 1 13
REMARK H PARENT
REMARK Flexibility Score: inf
ROOT
ATOM      1  C   UNL     1      51.030 -33.456  24.032  1.00  0.00     0.000 C 
ENDROOT
BRANCH   1   2
ATOM      2  C   UNL     1      50.483 -32.296  23.185  1.00  0.00     0.000 C 
BRANCH   2   3
ATOM      3  C   UNL     1      51.558 -31.250  22.851  1.00  0.00     0.006 C 
BRANCH   3   4
ATOM      4  C   UNL     1      51.110 -29.818  23.175  1.00  0.00     0.053 C 
BRANCH   4   5
ATOM      5  C   UNL     1      52.230 -29.049  23.799  1.00  0.00     0.041 C 
ATOM      6  O   UNL     1      52.943 -29.579  24.691  1.00  0.00    -0.550 OA
ATOM      7  O   UNL     1      52.456 -27.729  23.432  1.00  0.00    -0.550 OA
ENDBRANCH   4   5
ENDBRANCH   3   4
ENDBRANCH   2   3
ENDBRANCH   1   2
BRANCH   1   8
ATOM      8  C   UNL     1      51.441 -34.637  23.146  1.00  0.00     0.000 C 
BRANCH   8   9
ATOM      9  C   UNL     1      52.763 -35.253  23.628  1.00  0.00    -0.000 C 
BRANCH   9  10
ATOM     10  C   UNL     1      53.818 -34.192  23.980  1.00  0.00    -0.000 C 
BRANCH  10  11
ATOM     11  C   UNL     1      55.050 -34.254  23.066  1.00  0.00    -0.000 C 
BRANCH  11  12
ATOM     12  C   UNL     1      55.072 -35.561  22.265  1.00  0.00    -0.003 C 
ATOM     13  C   UNL     1      56.388 -36.307  22.464  1.00  0.00     0.004 C 
ENDBRANCH  11  12
ENDBRANCH  10  11
ENDBRANCH   9  10
ENDBRANCH   8   9
ENDBRANCH   1   8
TORSDOF 9
ENDMDL
MODEL 5
REMARK VINA RESULT:    -2.500      3.005      6.035
REMARK INTER + INTRA:          -4.783
REMARK INTER:                  -3.955
REMARK INTRA:                  -0.828
REMARK UNBOUND:                -0.968
REMARK SMILES CCCCCCCCCCC(=O)[O-]
REMARK SMILES IDX 7 1 8 2 9 3 10 4 11 5 12 6 13 7 6 8 5 9 4 10 3 11 2 12 1 13
REMARK H PARENT
REMARK Flexibility Score: inf
ROOT
ATOM      1  C   UNL     1      54.381 -35.620  24.134  1.00  0.00     0.000 C 
ENDROOT
BRANCH   1   2
ATOM      2  C   UNL     1      52.855 -35.567  24.309  1.00  0.00     0.000 C 
BRANCH   2   3
ATOM      3  C   UNL     1      52.150 -34.865  23.137  1.00  0.00     0.006 C 
BRANCH   3   4
ATOM      4  C   UNL     1      51.148 -33.800  23.602  1.00  0.00     0.053 C 
BRANCH   4   5
ATOM      5  C   UNL     1      51.698 -32.429  23.369  1.00  0.00     0.041 C 
ATOM      6  O   UNL     1      52.852 -32.131  23.773  1.00  0.00    -0.550 OA
ATOM      7  O   UNL     1      50.916 -31.463  22.748  1.00  0.00    -0.550 OA
ENDBRANCH   4   5
ENDBRANCH   3   4
ENDBRANCH   2   3
ENDBRANCH   1   2
BRANCH   1   8
ATOM      8  C   UNL     1      54.810 -34.922  22.838  1.00  0.00     0.000 C 
BRANCH   8   9
ATOM      9  C   UNL     1      55.487 -35.912  21.878  1.00  0.00    -0.000 C 
BRANCH   9  10
ATOM     10  C   UNL     1      56.571 -36.757  22.565  1.00  0.00    -0.000 C 
BRANCH  10  11
ATOM     11  C   UNL     1      57.981 -36.172  22.386  1.00  0.00    -0.000 C 
BRANCH  11  12
ATOM     12  C   UNL     1      58.639 -35.906  23.745  1.00  0.00    -0.003 C 
ATOM     13  C   UNL     1      57.914 -36.649  24.863  1.00  0.00     0.004 C 
ENDBRANCH  11  12
ENDBRANCH  10  11
ENDBRANCH   9  10
ENDBRANCH   8   9
ENDBRANCH   1   8
TORSDOF 9
ENDMDL
MODEL 6
REMARK VINA RESULT:    -2.473      1.271      2.161
REMARK INTER + INTRA:          -4.742
REMARK INTER:                  -3.828
REMARK INTRA:                  -0.914
REMARK UNBOUND:                -0.968
REMARK SMILES CCCCCCCCCCC(=O)[O-]
REMARK SMILES IDX 7 1 8 2 9 3 10 4 11 5 12 6 13 7 6 8 5 9 4 10 3 11 2 12 1 13
REMARK H PARENT
REMARK Flexibility Score: inf
ROOT
ATOM      1  C   UNL     1      54.247 -32.953  24.228  1.00  0.00     0.000 C 
ENDROOT
BRANCH   1   2
ATOM      2  C   UNL     1      55.145 -33.793  23.306  1.00  0.00     0.000 C 
BRANCH   2   3
ATOM      3  C   UNL     1      54.583 -35.201  23.057  1.00  0.00     0.006 C 
BRANCH   3   4
ATOM      4  C   UNL     1      55.456 -36.025  22.100  1.00  0.00     0.053 C 
BRANCH   4   5
ATOM      5  C   UNL     1      56.766 -36.352  22.740  1.00  0.00     0.041 C 
ATOM      6  O   UNL     1      56.802 -36.854  23.895  1.00  0.00    -0.550 OA
ATOM      7  O   UNL     1      57.954 -36.057  22.082  1.00  0.00    -0.550 OA
ENDBRANCH   4   5
ENDBRANCH   3   4
ENDBRANCH   2   3
ENDBRANCH   1   2
BRANCH   1   8
ATOM      8  C   UNL     1      52.984 -32.490  23.491  1.00  0.00     0.000 C 
BRANCH   8   9
ATOM      9  C   UNL     1      51.740 -32.652  24.378  1.00  0.00    -0.000 C 
BRANCH   9  10
ATOM     10  C   UNL     1      50.588 -33.369  23.656  1.00  0.00    -0.000 C 
BRANCH  10  11
ATOM     11  C   UNL     1      51.025 -34.690  23.006  1.00  0.00    -0.000 C 
BRANCH  11  12
ATOM     12  C   UNL     1      50.531 -35.891  23.821  1.00  0.00    -0.003 C 
ATOM     13  C   UNL     1      51.562 -36.311  24.864  1.00  0.00     0.004 C 
ENDBRANCH  11  12
ENDBRANCH  10  11
ENDBRANCH   9  10
ENDBRANCH   8   9
ENDBRANCH   1   8
TORSDOF 9
ENDMDL
MODEL 7
REMARK VINA RESULT:    -2.456      1.729      3.338
REMARK INTER + INTRA:          -4.716
REMARK INTER:                  -3.506
REMARK INTRA:                  -1.209
REMARK UNBOUND:                -0.968
REMARK SMILES CCCCCCCCCCC(=O)[O-]
REMARK SMILES IDX 7 1 8 2 9 3 10 4 11 5 12 6 13 7 6 8 5 9 4 10 3 11 2 12 1 13
REMARK H PARENT
REMARK Flexibility Score: inf
ROOT
ATOM      1  C   UNL     1      50.994 -34.404  24.547  1.00  0.00     0.000 C 
ENDROOT
BRANCH   1   2
ATOM      2  C   UNL     1      52.149 -35.411  24.435  1.00  0.00     0.000 C 
BRANCH   2   3
ATOM      3  C   UNL     1      53.038 -35.158  23.207  1.00  0.00     0.006 C 
BRANCH   3   4
ATOM      4  C   UNL     1      54.529 -35.079  23.562  1.00  0.00     0.053 C 
BRANCH   4   5
ATOM      5  C   UNL     1      55.359 -35.644  22.454  1.00  0.00     0.041 C 
ATOM      6  O   UNL     1      56.606 -35.757  22.590  1.00  0.00    -0.550 OA
ATOM      7  O   UNL     1      54.763 -36.000  21.251  1.00  0.00    -0.550 OA
ENDBRANCH   4   5
ENDBRANCH   3   4
ENDBRANCH   2   3
ENDBRANCH   1   2
BRANCH   1   8
ATOM      8  C   UNL     1      50.609 -33.855  23.168  1.00  0.00     0.000 C 
BRANCH   8   9
ATOM      9  C   UNL     1      50.415 -32.332  23.216  1.00  0.00    -0.000 C 
BRANCH   9  10
ATOM     10  C   UNL     1      51.742 -31.562  23.125  1.00  0.00    -0.000 C 
BRANCH  10  11
ATOM     11  C   UNL     1      52.256 -31.101  24.497  1.00  0.00    -0.000 C 
BRANCH  11  12
ATOM     12  C   UNL     1      53.680 -31.611  24.748  1.00  0.00    -0.003 C 
ATOM     13  C   UNL     1      53.772 -32.358  26.075  1.00  0.00     0.004 C 
ENDBRANCH  11  12
ENDBRANCH  10  11
ENDBRANCH   9  10
ENDBRANCH   8   9
ENDBRANCH   1   8
TORSDOF 9
ENDMDL
MODEL 8
REMARK VINA RESULT:    -2.423      2.250      3.810
REMARK INTER + INTRA:          -4.666
REMARK INTER:                  -4.137
REMARK INTRA:                  -0.528
REMARK UNBOUND:                -0.968
REMARK SMILES CCCCCCCCCCC(=O)[O-]
REMARK SMILES IDX 7 1 8 2 9 3 10 4 11 5 12 6 13 7 6 8 5 9 4 10 3 11 2 12 1 13
REMARK H PARENT
REMARK Flexibility Score: inf
ROOT
ATOM      1  C   UNL     1      51.127 -34.025  24.538  1.00  0.00     0.000 C 
ENDROOT
BRANCH   1   2
ATOM      2  C   UNL     1      52.163 -35.160  24.516  1.00  0.00     0.000 C 
BRANCH   2   3
ATOM      3  C   UNL     1      52.993 -35.178  23.223  1.00  0.00     0.006 C 
BRANCH   3   4
ATOM      4  C   UNL     1      54.485 -34.920  23.474  1.00  0.00     0.053 C 
BRANCH   4   5
ATOM      5  C   UNL     1      55.317 -35.644  22.465  1.00  0.00     0.041 C 
ATOM      6  O   UNL     1      56.535 -35.870  22.690  1.00  0.00    -0.550 OA
ATOM      7  O   UNL     1      54.760 -36.027  21.251  1.00  0.00    -0.550 OA
ENDBRANCH   4   5
ENDBRANCH   3   4
ENDBRANCH   2   3
ENDBRANCH   1   2
BRANCH   1   8
ATOM      8  C   UNL     1      50.509 -33.820  23.150  1.00  0.00     0.000 C 
BRANCH   8   9
ATOM      9  C   UNL     1      50.295 -32.327  22.859  1.00  0.00    -0.000 C 
BRANCH   9  10
ATOM     10  C   UNL     1      51.568 -31.493  23.074  1.00  0.00    -0.000 C 
BRANCH  10  11
ATOM     11  C   UNL     1      51.294 -29.981  23.073  1.00  0.00    -0.000 C 
BRANCH  11  12
ATOM     12  C   UNL     1      52.292 -29.244  23.973  1.00  0.00    -0.003 C 
ATOM     13  C   UNL     1      52.322 -27.752  23.655  1.00  0.00     0.004 C 
ENDBRANCH  11  12
ENDBRANCH  10  11
ENDBRANCH   9  10
ENDBRANCH   8   9
ENDBRANCH   1   8
TORSDOF 9
ENDMDL
MODEL 9
REMARK VINA RESULT:    -2.357      2.471      4.684
REMARK INTER + INTRA:          -4.566
REMARK INTER:                  -3.469
REMARK INTRA:                  -1.097
REMARK UNBOUND:                -0.968
REMARK SMILES CCCCCCCCCCC(=O)[O-]
REMARK SMILES IDX 7 1 8 2 9 3 10 4 11 5 12 6 13 7 6 8 5 9 4 10 3 11 2 12 1 13
REMARK H PARENT
REMARK Flexibility Score: inf
ROOT
ATOM      1  C   UNL     1      53.367 -33.749  25.407  1.00  0.00     0.000 C 
ENDROOT
BRANCH   1   2
ATOM      2  C   UNL     1      54.168 -32.443  25.533  1.00  0.00     0.000 C 
BRANCH   2   3
ATOM      3  C   UNL     1      55.664 -32.637  25.244  1.00  0.00     0.006 C 
BRANCH   3   4
ATOM      4  C   UNL     1      56.038 -32.283  23.798  1.00  0.00     0.053 C 
BRANCH   4   5
ATOM      5  C   UNL     1      56.777 -30.985  23.753  1.00  0.00     0.041 C 
ATOM      6  O   UNL     1      57.938 -30.932  23.269  1.00  0.00    -0.550 OA
ATOM      7  O   UNL     1      56.204 -29.840  24.292  1.00  0.00    -0.550 OA
ENDBRANCH   4   5
ENDBRANCH   3   4
ENDBRANCH   2   3
ENDBRANCH   1   2
BRANCH   1   8
ATOM      8  C   UNL     1      52.496 -33.739  24.145  1.00  0.00     0.000 C 
BRANCH   8   9
ATOM      9  C   UNL     1      52.736 -35.000  23.301  1.00  0.00    -0.000 C 
BRANCH   9  10
ATOM     10  C   UNL     1      54.145 -35.582  23.492  1.00  0.00    -0.000 C 
BRANCH  10  11
ATOM     11  C   UNL     1      54.905 -35.743  22.168  1.00  0.00    -0.000 C 
BRANCH  11  12
ATOM     12  C   UNL     1      56.373 -36.109  22.420  1.00  0.00    -0.003 C 
ATOM     13  C   UNL     1      56.674 -36.179  23.914  1.00  0.00     0.004 C 
ENDBRANCH  11  12
ENDBRANCH  10  11
ENDBRANCH   9  10
ENDBRANCH   8   9
ENDBRANCH   1   8
TORSDOF 9
ENDMDL
