MODEL 1
REMARK VINA RESULT:    -3.426      0.000      0.000
REMARK INTER + INTRA:          -4.775
REMARK INTER:                  -4.428
REMARK INTRA:                  -0.347
REMARK UNBOUND:                -0.347
REMARK SMILES CO[C@]1(CO)O[C@@H](CO)[C@H](O)[C@@H]1O
REMARK SMILES IDX 3 1 12 2 10 3 7 4 6 5 2 6 1 7 4 8 5 9 13 11 11 13 8 15 9 16
REMARK H PARENT 5 10 13 12 11 14 9 17
REMARK Flexibility Score: inf
ROOT
ATOM      1  C   UNL     1      33.716  36.750   0.853  1.00  0.00     0.221 C 
ATOM      2  C   UNL     1      33.227  38.193   0.694  1.00  0.00     0.207 C 
ATOM      3  C   UNL     1      33.834  38.601  -0.624  1.00  0.00     0.180 C 
ATOM      4  C   UNL     1      33.913  37.267  -1.376  1.00  0.00     0.179 C 
ATOM      5  O   UNL     1      33.799  36.201  -0.453  1.00  0.00    -0.337 OA
ENDROOT
BRANCH   1   6
ATOM      6  O   UNL     1      34.990  36.766   1.498  1.00  0.00    -0.349 OA
ATOM      7  C   UNL     1      34.980  36.114   2.753  1.00  0.00     0.198 C 
ENDBRANCH   1   6
BRANCH   1   8
ATOM      8  C   UNL     1      32.702  35.932   1.686  1.00  0.00     0.224 C 
BRANCH   8   9
ATOM      9  O   UNL     1      32.024  35.003   0.884  1.00  0.00    -0.391 OA
ATOM     10  H   UNL     1      32.008  35.378  -0.036  1.00  0.00     0.210 HD
ENDBRANCH   8   9
ENDBRANCH   1   8
BRANCH   2  11
ATOM     11  O   UNL     1      33.652  39.011   1.756  1.00  0.00    -0.385 OA
ATOM     12  H   UNL     1      32.890  39.611   1.969  1.00  0.00     0.211 HD
ENDBRANCH   2  11
BRANCH   3  13
ATOM     13  O   UNL     1      35.123  39.125  -0.428  1.00  0.00    -0.387 OA
ATOM     14  H   UNL     1      35.700  38.362  -0.156  1.00  0.00     0.211 HD
ENDBRANCH   3  13
BRANCH   4  15
ATOM     15  C   UNL     1      32.798  37.146  -2.422  1.00  0.00     0.191 C 
BRANCH  15  16
ATOM     16  O   UNL     1      32.076  35.966  -2.206  1.00  0.00    -0.394 OA
ATOM     17  H   UNL     1      32.191  35.744  -1.245  1.00  0.00     0.210 HD
ENDBRANCH  15  16
ENDBRANCH   4  15
TORSDOF 7
ENDMDL
MODEL 2
REMARK VINA RESULT:    -3.262      2.021      3.017
REMARK INTER + INTRA:          -4.563
REMARK INTER:                  -4.130
REMARK INTRA:                  -0.433
REMARK UNBOUND:                -0.347
REMARK SMILES CO[C@]1(CO)O[C@@H](CO)[C@H](O)[C@@H]1O
REMARK SMILES IDX 3 1 12 2 10 3 7 4 6 5 2 6 1 7 4 8 5 9 13 11 11 13 8 15 9 16
REMARK H PARENT 5 10 13 12 11 14 9 17
REMARK Flexibility Score: inf
ROOT
ATOM      1  C   UNL     1      34.140  37.349   2.617  1.00  0.00     0.221 C 
ATOM      2  C   UNL     1      33.211  36.879   1.493  1.00  0.00     0.207 C 
ATOM      3  C   UNL     1      32.930  38.156   0.744  1.00  0.00     0.180 C 
ATOM      4  C   UNL     1      34.207  38.968   0.989  1.00  0.00     0.179 C 
ATOM      5  O   UNL     1      34.906  38.421   2.090  1.00  0.00    -0.337 OA
ENDROOT
BRANCH   1   6
ATOM      6  O   UNL     1      33.343  37.769   3.725  1.00  0.00    -0.349 OA
ATOM      7  C   UNL     1      34.070  38.526   4.672  1.00  0.00     0.198 C 
ENDBRANCH   1   6
BRANCH   1   8
ATOM      8  C   UNL     1      35.087  36.204   3.040  1.00  0.00     0.224 C 
BRANCH   8   9
ATOM      9  O   UNL     1      34.763  35.011   2.377  1.00  0.00    -0.391 OA
ATOM     10  H   UNL     1      34.678  35.235   1.413  1.00  0.00     0.210 HD
ENDBRANCH   8   9
ENDBRANCH   1   8
BRANCH   2  11
ATOM     11  O   UNL     1      32.040  36.283   1.995  1.00  0.00    -0.385 OA
ATOM     12  H   UNL     1      32.304  35.799   2.821  1.00  0.00     0.211 HD
ENDBRANCH   2  11
BRANCH   3  13
ATOM     13  O   UNL     1      31.820  38.816   1.299  1.00  0.00    -0.387 OA
ATOM     14  H   UNL     1      31.516  38.260   2.065  1.00  0.00     0.211 HD
ENDBRANCH   3  13
BRANCH   4  15
ATOM     15  C   UNL     1      35.122  38.958  -0.242  1.00  0.00     0.191 C 
BRANCH  15  16
ATOM     16  O   UNL     1      34.347  38.894  -1.405  1.00  0.00    -0.394 OA
ATOM     17  H   UNL     1      34.908  38.437  -2.085  1.00  0.00     0.210 HD
ENDBRANCH  15  16
ENDBRANCH   4  15
TORSDOF 7
ENDMDL
MODEL 3
REMARK VINA RESULT:    -2.981      1.770      3.264
REMARK INTER + INTRA:          -4.199
REMARK INTER:                  -3.789
REMARK INTRA:                  -0.410
REMARK UNBOUND:                -0.347
REMARK SMILES CO[C@]1(CO)O[C@@H](CO)[C@H](O)[C@@H]1O
REMARK SMILES IDX 3 1 12 2 10 3 7 4 6 5 2 6 1 7 4 8 5 9 13 11 11 13 8 15 9 16
REMARK H PARENT 5 10 13 12 11 14 9 17
REMARK Flexibility Score: inf
ROOT
ATOM      1  C   UNL     1      33.385  36.704   1.227  1.00  0.00     0.221 C 
ATOM      2  C   UNL     1      33.839  36.812   2.686  1.00  0.00     0.207 C 
ATOM      3  C   UNL     1      33.852  38.301   2.915  1.00  0.00     0.180 C 
ATOM      4  C   UNL     1      32.762  38.791   1.955  1.00  0.00     0.179 C 
ATOM      5  O   UNL     1      32.498  37.786   0.995  1.00  0.00    -0.337 OA
ENDROOT
BRANCH   1   6
ATOM      6  O   UNL     1      34.535  36.777   0.383  1.00  0.00    -0.349 OA
ATOM      7  C   UNL     1      34.240  37.272  -0.908  1.00  0.00     0.198 C 
ENDBRANCH   1   6
BRANCH   1   8
ATOM      8  C   UNL     1      32.635  35.372   0.998  1.00  0.00     0.224 C 
BRANCH   8   9
ATOM      9  O   UNL     1      31.384  35.383   1.632  1.00  0.00    -0.391 OA
ATOM     10  H   UNL     1      30.896  36.177   1.287  1.00  0.00     0.210 HD
ENDBRANCH   8   9
ENDBRANCH   1   8
BRANCH   2  11
ATOM     11  O   UNL     1      35.101  36.227   2.888  1.00  0.00    -0.385 OA
ATOM     12  H   UNL     1      35.216  35.552   2.169  1.00  0.00     0.211 HD
ENDBRANCH   2  11
BRANCH   3  13
ATOM     13  O   UNL     1      35.097  38.842   2.554  1.00  0.00    -0.387 OA
ATOM     14  H   UNL     1      35.320  38.465   1.661  1.00  0.00     0.211 HD
ENDBRANCH   3  13
BRANCH   4  15
ATOM     15  C   UNL     1      31.465  39.125   2.701  1.00  0.00     0.191 C 
BRANCH  15  16
ATOM     16  O   UNL     1      30.400  38.413   2.137  1.00  0.00    -0.394 OA
ATOM     17  H   UNL     1      29.582  38.724   2.606  1.00  0.00     0.210 HD
ENDBRANCH  15  16
ENDBRANCH   4  15
TORSDOF 7
ENDMDL
MODEL 4
REMARK VINA RESULT:    -2.979      1.554      4.259
REMARK INTER + INTRA:          -4.197
REMARK INTER:                  -4.131
REMARK INTRA:                  -0.066
REMARK UNBOUND:                -0.347
REMARK SMILES CO[C@]1(CO)O[C@@H](CO)[C@H](O)[C@@H]1O
REMARK SMILES IDX 3 1 12 2 10 3 7 4 6 5 2 6 1 7 4 8 5 9 13 11 11 13 8 15 9 16
REMARK H PARENT 5 10 13 12 11 14 9 17
REMARK Flexibility Score: inf
ROOT
ATOM      1  C   UNL     1      33.779  37.741   0.852  1.00  0.00     0.221 C 
ATOM      2  C   UNL     1      32.997  36.830   1.804  1.00  0.00     0.207 C 
ATOM      3  C   UNL     1      34.066  36.357   2.756  1.00  0.00     0.180 C 
ATOM      4  C   UNL     1      35.052  37.531   2.752  1.00  0.00     0.179 C 
ATOM      5  O   UNL     1      34.811  38.342   1.619  1.00  0.00    -0.337 OA
ENDROOT
BRANCH   1   6
ATOM      6  O   UNL     1      34.308  36.947  -0.210  1.00  0.00    -0.349 OA
ATOM      7  C   UNL     1      33.695  37.214  -1.456  1.00  0.00     0.198 C 
ENDBRANCH   1   6
BRANCH   1   8
ATOM      8  C   UNL     1      32.854  38.844   0.289  1.00  0.00     0.224 C 
BRANCH   8   9
ATOM      9  O   UNL     1      31.705  38.989   1.080  1.00  0.00    -0.391 OA
ATOM     10  H   UNL     1      31.574  39.965   1.217  1.00  0.00     0.210 HD
ENDBRANCH   8   9
ENDBRANCH   1   8
BRANCH   2  11
ATOM     11  O   UNL     1      32.377  35.768   1.124  1.00  0.00    -0.385 OA
ATOM     12  H   UNL     1      32.492  34.964   1.695  1.00  0.00     0.211 HD
ENDBRANCH   2  11
BRANCH   3  13
ATOM     13  O   UNL     1      34.687  35.199   2.259  1.00  0.00    -0.387 OA
ATOM     14  H   UNL     1      35.279  34.864   2.983  1.00  0.00     0.211 HD
ENDBRANCH   3  13
BRANCH   4  15
ATOM     15  C   UNL     1      34.912  38.385   4.018  1.00  0.00     0.191 C 
BRANCH  15  16
ATOM     16  O   UNL     1      33.648  38.186   4.584  1.00  0.00    -0.394 OA
ATOM     17  H   UNL     1      33.233  37.441   4.075  1.00  0.00     0.210 HD
ENDBRANCH  15  16
ENDBRANCH   4  15
TORSDOF 7
ENDMDL
MODEL 5
REMARK VINA RESULT:    -2.689      1.735      3.158
REMARK INTER + INTRA:          -3.822
REMARK INTER:                  -3.426
REMARK INTRA:                  -0.396
REMARK UNBOUND:                -0.347
REMARK SMILES CO[C@]1(CO)O[C@@H](CO)[C@H](O)[C@@H]1O
REMARK SMILES IDX 3 1 12 2 10 3 7 4 6 5 2 6 1 7 4 8 5 9 13 11 11 13 8 15 9 16
REMARK H PARENT 5 10 13 12 11 14 9 17
REMARK Flexibility Score: inf
ROOT
ATOM      1  C   UNL     1      33.668  38.316   1.421  1.00  0.00     0.221 C 
ATOM      2  C   UNL     1      34.375  37.052   0.922  1.00  0.00     0.207 C 
ATOM      3  C   UNL     1      33.712  36.810  -0.410  1.00  0.00     0.180 C 
ATOM      4  C   UNL     1      33.330  38.229  -0.849  1.00  0.00     0.179 C 
ATOM      5  O   UNL     1      33.357  39.089   0.273  1.00  0.00    -0.337 OA
ENDROOT
BRANCH   1   6
ATOM      6  O   UNL     1      32.490  37.931   2.131  1.00  0.00    -0.349 OA
ATOM      7  C   UNL     1      31.589  39.003   2.325  1.00  0.00     0.198 C 
ENDBRANCH   1   6
BRANCH   1   8
ATOM      8  C   UNL     1      34.609  39.125   2.342  1.00  0.00     0.224 C 
BRANCH   8   9
ATOM      9  O   UNL     1      35.014  38.360   3.446  1.00  0.00    -0.391 OA
ATOM     10  H   UNL     1      34.222  37.834   3.734  1.00  0.00     0.210 HD
ENDBRANCH   8   9
ENDBRANCH   1   8
BRANCH   2  11
ATOM     11  O   UNL     1      34.210  35.972   1.807  1.00  0.00    -0.385 OA
ATOM     12  H   UNL     1      35.021  35.953   2.379  1.00  0.00     0.211 HD
ENDBRANCH   2  11
BRANCH   3  13
ATOM     13  O   UNL     1      32.559  36.024  -0.247  1.00  0.00    -0.387 OA
ATOM     14  H   UNL     1      32.864  35.146   0.106  1.00  0.00     0.211 HD
ENDBRANCH   3  13
BRANCH   4  15
ATOM     15  C   UNL     1      34.292  38.765  -1.915  1.00  0.00     0.191 C 
BRANCH  15  16
ATOM     16  O   UNL     1      33.764  38.526  -3.189  1.00  0.00    -0.394 OA
ATOM     17  H   UNL     1      34.458  38.822  -3.834  1.00  0.00     0.210 HD
ENDBRANCH  15  16
ENDBRANCH   4  15
TORSDOF 7
ENDMDL
MODEL 6
REMARK VINA RESULT:    -2.574      2.025      3.658
REMARK INTER + INTRA:          -3.673
REMARK INTER:                  -3.800
REMARK INTRA:                   0.127
REMARK UNBOUND:                -0.347
REMARK SMILES CO[C@]1(CO)O[C@@H](CO)[C@H](O)[C@@H]1O
REMARK SMILES IDX 3 1 12 2 10 3 7 4 6 5 2 6 1 7 4 8 5 9 13 11 11 13 8 15 9 16
REMARK H PARENT 5 10 13 12 11 14 9 17
REMARK Flexibility Score: inf
ROOT
ATOM      1  C   UNL     1      34.000  36.514   1.720  1.00  0.00     0.221 C 
ATOM      2  C   UNL     1      34.560  37.802   1.109  1.00  0.00     0.207 C 
ATOM      3  C   UNL     1      33.360  38.713   1.109  1.00  0.00     0.180 C 
ATOM      4  C   UNL     1      32.559  38.201   2.312  1.00  0.00     0.179 C 
ATOM      5  O   UNL     1      33.008  36.904   2.656  1.00  0.00    -0.337 OA
ENDROOT
BRANCH   1   6
ATOM      6  O   UNL     1      33.450  35.712   0.674  1.00  0.00    -0.349 OA
ATOM      7  C   UNL     1      32.240  35.081   1.043  1.00  0.00     0.198 C 
ENDBRANCH   1   6
BRANCH   1   8
ATOM      8  C   UNL     1      35.120  35.742   2.456  1.00  0.00     0.224 C 
BRANCH   8   9
ATOM      9  O   UNL     1      34.712  34.436   2.764  1.00  0.00    -0.391 OA
ATOM     10  H   UNL     1      34.540  34.414   3.742  1.00  0.00     0.210 HD
ENDBRANCH   8   9
ENDBRANCH   1   8
BRANCH   2  11
ATOM     11  O   UNL     1      35.073  37.591  -0.183  1.00  0.00    -0.385 OA
ATOM     12  H   UNL     1      35.918  38.109  -0.238  1.00  0.00     0.211 HD
ENDBRANCH   2  11
BRANCH   3  13
ATOM     13  O   UNL     1      32.619  38.548  -0.074  1.00  0.00    -0.387 OA
ATOM     14  H   UNL     1      31.732  38.966   0.089  1.00  0.00     0.211 HD
ENDBRANCH   3  13
BRANCH   4  15
ATOM     15  C   UNL     1      32.717  39.124   3.525  1.00  0.00     0.191 C 
BRANCH  15  16
ATOM     16  O   UNL     1      33.282  38.411   4.590  1.00  0.00    -0.394 OA
ATOM     17  H   UNL     1      33.776  37.653   4.182  1.00  0.00     0.210 HD
ENDBRANCH  15  16
ENDBRANCH   4  15
TORSDOF 7
ENDMDL
MODEL 7
REMARK VINA RESULT:    -2.136      2.022      3.862
REMARK INTER + INTRA:          -3.107
REMARK INTER:                  -2.812
REMARK INTRA:                  -0.295
REMARK UNBOUND:                -0.347
REMARK SMILES CO[C@]1(CO)O[C@@H](CO)[C@H](O)[C@@H]1O
REMARK SMILES IDX 3 1 12 2 10 3 7 4 6 5 2 6 1 7 4 8 5 9 13 11 11 13 8 15 9 16
REMARK H PARENT 5 10 13 12 11 14 9 17
REMARK Flexibility Score: inf
ROOT
ATOM      1  C   UNL     1      33.886  37.991   2.366  1.00  0.00     0.221 C 
ATOM      2  C   UNL     1      32.584  37.188   2.458  1.00  0.00     0.207 C 
ATOM      3  C   UNL     1      32.894  35.967   1.631  1.00  0.00     0.180 C 
ATOM      4  C   UNL     1      34.410  35.826   1.808  1.00  0.00     0.179 C 
ATOM      5  O   UNL     1      34.942  37.047   2.284  1.00  0.00    -0.337 OA
ENDROOT
BRANCH   1   6
ATOM      6  O   UNL     1      33.831  38.821   1.206  1.00  0.00    -0.349 OA
ATOM      7  C   UNL     1      35.110  39.120   0.682  1.00  0.00     0.198 C 
ENDBRANCH   1   6
BRANCH   1   8
ATOM      8  C   UNL     1      34.071  38.854   3.635  1.00  0.00     0.224 C 
BRANCH   8   9
ATOM      9  O   UNL     1      33.258  38.392   4.681  1.00  0.00    -0.391 OA
ATOM     10  H   UNL     1      33.103  37.425   4.516  1.00  0.00     0.210 HD
ENDBRANCH   8   9
ENDBRANCH   1   8
BRANCH   2  11
ATOM     11  O   UNL     1      31.486  37.910   1.959  1.00  0.00    -0.385 OA
ATOM     12  H   UNL     1      31.860  38.625   1.381  1.00  0.00     0.211 HD
ENDBRANCH   2  11
BRANCH   3  13
ATOM     13  O   UNL     1      32.582  36.198   0.280  1.00  0.00    -0.387 OA
ATOM     14  H   UNL     1      32.975  37.082   0.047  1.00  0.00     0.211 HD
ENDBRANCH   3  13
BRANCH   4  15
ATOM     15  C   UNL     1      34.757  34.708   2.799  1.00  0.00     0.191 C 
BRANCH  15  16
ATOM     16  O   UNL     1      34.123  33.521   2.412  1.00  0.00    -0.394 OA
ATOM     17  H   UNL     1      34.517  32.803   2.973  1.00  0.00     0.210 HD
ENDBRANCH  15  16
ENDBRANCH   4  15
TORSDOF 7
ENDMDL
MODEL 8
REMARK VINA RESULT:    -0.720      2.110      4.260
REMARK INTER + INTRA:          -1.277
REMARK INTER:                  -1.032
REMARK INTRA:                  -0.246
REMARK UNBOUND:                -0.347
REMARK SMILES CO[C@]1(CO)O[C@@H](CO)[C@H](O)[C@@H]1O
REMARK SMILES IDX 3 1 12 2 10 3 7 4 6 5 2 6 1 7 4 8 5 9 13 11 11 13 8 15 9 16
REMARK H PARENT 5 10 13 12 11 14 9 17
REMARK Flexibility Score: inf
ROOT
ATOM      1  C   UNL     1      33.763  37.555   1.056  1.00  0.00     0.221 C 
ATOM      2  C   UNL     1      33.122  38.945   0.997  1.00  0.00     0.207 C 
ATOM      3  C   UNL     1      32.295  38.978   2.256  1.00  0.00     0.180 C 
ATOM      4  C   UNL     1      33.085  38.056   3.192  1.00  0.00     0.179 C 
ATOM      5  O   UNL     1      33.970  37.260   2.428  1.00  0.00    -0.337 OA
ENDROOT
BRANCH   1   6
ATOM      6  O   UNL     1      32.878  36.616   0.444  1.00  0.00    -0.349 OA
ATOM      7  C   UNL     1      32.816  35.385   1.136  1.00  0.00     0.198 C 
ENDBRANCH   1   6
BRANCH   1   8
ATOM      8  C   UNL     1      35.125  37.564   0.325  1.00  0.00     0.224 C 
BRANCH   8   9
ATOM      9  O   UNL     1      35.079  38.380  -0.815  1.00  0.00    -0.391 OA
ATOM     10  H   UNL     1      34.152  38.324  -1.169  1.00  0.00     0.210 HD
ENDBRANCH   8   9
ENDBRANCH   1   8
BRANCH   2  11
ATOM     11  O   UNL     1      32.343  39.116  -0.161  1.00  0.00    -0.385 OA
ATOM     12  H   UNL     1      31.416  38.858   0.085  1.00  0.00     0.211 HD
ENDBRANCH   2  11
BRANCH   3  13
ATOM     13  O   UNL     1      31.016  38.448   2.017  1.00  0.00    -0.387 OA
ATOM     14  H   UNL     1      31.122  37.460   1.984  1.00  0.00     0.211 HD
ENDBRANCH   3  13
BRANCH   4  15
ATOM     15  C   UNL     1      33.893  38.858   4.219  1.00  0.00     0.191 C 
BRANCH  15  16
ATOM     16  O   UNL     1      33.599  38.403   5.510  1.00  0.00    -0.394 OA
ATOM     17  H   UNL     1      32.959  39.058   5.893  1.00  0.00     0.210 HD
ENDBRANCH  15  16
ENDBRANCH   4  15
TORSDOF 7
ENDMDL
