MODEL 1
REMARK VINA RESULT:    -3.729      0.000      0.000
REMARK INTER + INTRA:          -5.363
REMARK INTER:                  -5.037
REMARK INTRA:                  -0.327
REMARK UNBOUND:                -0.327
REMARK SMILES C=C1CCC=C(C)CC[C@@H]2[C@@H]1CC2(C)C
REMARK SMILES IDX 11 1 12 2 13 3 10 4 14 5 15 6 9 7 8 8 6 9 7 10 5 11 2 13
REMARK SMILES IDX 1 14 3 15 4 16
REMARK H PARENT
REMARK Flexibility Score: 70.00
ROOT
ATOM      1  C   UNL     1     144.391 140.775 134.406  1.00  0.00     0.018 C 
ATOM      2  C   UNL     1     144.707 140.568 132.920  1.00  0.00     0.015 C 
ATOM      3  C   UNL     1     143.818 141.774 132.565  1.00  0.00    -0.031 C 
ATOM      4  C   UNL     1     143.385 141.878 134.051  1.00  0.00     0.002 C 
ATOM      5  C   UNL     1     144.642 142.956 132.010  1.00  0.00     0.011 C 
ATOM      6  C   UNL     1     142.657 141.422 131.616  1.00  0.00     0.011 C 
ENDROOT
BRANCH   4   7
ATOM      7  C   UNL     1     143.625 143.215 134.782  1.00  0.00     0.009 C 
BRANCH   7   8
ATOM      8  C   UNL     1     142.631 143.429 135.940  1.00  0.00     0.030 C 
BRANCH   8   9
ATOM      9  C   UNL     1     143.235 143.060 137.285  1.00  0.00    -0.077 C 
ATOM     10  C   UNL     1     143.909 144.154 138.075  1.00  0.00     0.039 C 
ATOM     11  C   UNL     1     143.233 141.814 137.816  1.00  0.00    -0.028 CG0
ATOM     12  G   UNL     1     142.658 140.561 137.195  1.00  0.00     0.000 G0
ENDBRANCH   8   9
ENDBRANCH   7   8
ENDBRANCH   4   7
BRANCH   1  13
ATOM     13  C   UNL     1     143.789 139.596 135.155  1.00  0.00    -0.074 C 
ATOM     14  C   UNL     1     143.178 138.577 134.523  1.00  0.00     0.008 C 
BRANCH  13  15
ATOM     15  C   UNL     1     143.784 139.636 136.666  1.00  0.00     0.035 C 
BRANCH  15  16
ATOM     16  C   UNL     1     142.663 140.543 137.201  1.00  0.00     0.032 CG0
ATOM     17  G   UNL     1     143.216 141.813 137.805  1.00  0.00     0.000 G0
ENDBRANCH  15  16
ENDBRANCH  13  15
ENDBRANCH   1  13
TORSDOF 0
ENDMDL
MODEL 2
REMARK VINA RESULT:    -3.711      4.042      6.564
REMARK INTER + INTRA:          -5.339
REMARK INTER:                  -5.001
REMARK INTRA:                  -0.338
REMARK UNBOUND:                -0.327
REMARK SMILES C=C1CCC=C(C)CC[C@@H]2[C@@H]1CC2(C)C
REMARK SMILES IDX 11 1 12 2 13 3 10 4 14 5 15 6 9 7 8 8 6 9 7 10 5 11 2 13
REMARK SMILES IDX 1 14 3 15 4 16
REMARK H PARENT
REMARK Flexibility Score: 70.00
ROOT
ATOM      1  C   UNL     1     140.712 137.854 134.736  1.00  0.00     0.018 C 
ATOM      2  C   UNL     1     140.975 137.629 136.229  1.00  0.00     0.015 C 
ATOM      3  C   UNL     1     140.041 138.806 136.569  1.00  0.00    -0.031 C 
ATOM      4  C   UNL     1     139.905 139.120 135.056  1.00  0.00     0.002 C 
ATOM      5  C   UNL     1     138.758 138.336 137.286  1.00  0.00     0.011 C 
ATOM      6  C   UNL     1     140.734 139.929 137.363  1.00  0.00     0.011 C 
ENDROOT
BRANCH   4   7
ATOM      7  C   UNL     1     138.489 139.140 134.446  1.00  0.00     0.009 C 
BRANCH   7   8
ATOM      8  C   UNL     1     138.407 140.042 133.199  1.00  0.00     0.030 C 
BRANCH   8   9
ATOM      9  C   UNL     1     138.496 139.241 131.910  1.00  0.00    -0.077 C 
ATOM     10  C   UNL     1     137.205 138.781 131.279  1.00  0.00     0.039 C 
ATOM     11  C   UNL     1     139.653 138.890 131.298  1.00  0.00    -0.028 CG0
ATOM     12  G   UNL     1     141.058 139.200 131.762  1.00  0.00     0.000 G0
ENDBRANCH   8   9
ENDBRANCH   7   8
ENDBRANCH   4   7
BRANCH   1  13
ATOM     13  C   UNL     1     141.925 138.092 133.849  1.00  0.00    -0.074 C 
ATOM     14  C   UNL     1     143.104 138.514 134.341  1.00  0.00     0.008 C 
BRANCH  13  15
ATOM     15  C   UNL     1     141.756 137.954 132.354  1.00  0.00     0.035 C 
BRANCH  15  16
ATOM     16  C   UNL     1     141.079 139.195 131.747  1.00  0.00     0.032 CG0
ATOM     17  G   UNL     1     139.667 138.896 131.298  1.00  0.00     0.000 G0
ENDBRANCH  15  16
ENDBRANCH  13  15
ENDBRANCH   1  13
TORSDOF 0
ENDMDL
MODEL 3
REMARK VINA RESULT:    -3.705      4.765      6.620
REMARK INTER + INTRA:          -5.331
REMARK INTER:                  -5.017
REMARK INTRA:                  -0.314
REMARK UNBOUND:                -0.327
REMARK SMILES C=C1CCC=C(C)CC[C@@H]2[C@@H]1CC2(C)C
REMARK SMILES IDX 11 1 12 2 13 3 10 4 14 5 15 6 9 7 8 8 6 9 7 10 5 11 2 13
REMARK SMILES IDX 1 14 3 15 4 16
REMARK H PARENT
REMARK Flexibility Score: 70.00
ROOT
ATOM      1  C   UNL     1     137.746 141.655 135.302  1.00  0.00     0.018 C 
ATOM      2  C   UNL     1     137.385 141.546 136.788  1.00  0.00     0.015 C 
ATOM      3  C   UNL     1     138.576 142.456 137.142  1.00  0.00    -0.031 C 
ATOM      4  C   UNL     1     139.020 142.434 135.656  1.00  0.00     0.002 C 
ATOM      5  C   UNL     1     138.114 143.821 137.696  1.00  0.00     0.011 C 
ATOM      6  C   UNL     1     139.593 141.795 138.091  1.00  0.00     0.011 C 
ENDROOT
BRANCH   4   7
ATOM      7  C   UNL     1     139.163 143.784 134.924  1.00  0.00     0.009 C 
BRANCH   7   8
ATOM      8  C   UNL     1     140.024 143.665 133.651  1.00  0.00     0.030 C 
BRANCH   8   9
ATOM      9  C   UNL     1     139.174 143.543 132.398  1.00  0.00    -0.077 C 
ATOM     10  C   UNL     1     138.722 144.817 131.729  1.00  0.00     0.039 C 
ATOM     11  C   UNL     1     138.772 142.371 131.849  1.00  0.00    -0.028 CG0
ATOM     12  G   UNL     1     139.065 140.979 132.361  1.00  0.00     0.000 G0
ENDBRANCH   8   9
ENDBRANCH   7   8
ENDBRANCH   4   7
BRANCH   1  13
ATOM     13  C   UNL     1     137.995 140.355 134.554  1.00  0.00    -0.074 C 
ATOM     14  C   UNL     1     138.446 139.245 135.168  1.00  0.00     0.008 C 
BRANCH  13  15
ATOM     15  C   UNL     1     137.834 140.351 133.051  1.00  0.00     0.035 C 
BRANCH  15  16
ATOM     16  C   UNL     1     139.057 140.967 132.353  1.00  0.00     0.032 CG0
ATOM     17  G   UNL     1     138.770 142.364 131.853  1.00  0.00     0.000 G0
ENDBRANCH  15  16
ENDBRANCH  13  15
ENDBRANCH   1  13
TORSDOF 0
ENDMDL
MODEL 4
REMARK VINA RESULT:    -3.700      3.149      4.263
REMARK INTER + INTRA:          -5.325
REMARK INTER:                  -4.997
REMARK INTRA:                  -0.328
REMARK UNBOUND:                -0.327
REMARK SMILES C=C1CCC=C(C)CC[C@@H]2[C@@H]1CC2(C)C
REMARK SMILES IDX 11 1 12 2 13 3 10 4 14 5 15 6 9 7 8 8 6 9 7 10 5 11 2 13
REMARK SMILES IDX 1 14 3 15 4 16
REMARK H PARENT
REMARK Flexibility Score: 70.00
ROOT
ATOM      1  C   UNL     1     141.335 144.405 134.856  1.00  0.00     0.018 C 
ATOM      2  C   UNL     1     141.645 144.749 133.395  1.00  0.00     0.015 C 
ATOM      3  C   UNL     1     140.494 143.832 132.937  1.00  0.00    -0.031 C 
ATOM      4  C   UNL     1     140.291 143.374 134.405  1.00  0.00     0.002 C 
ATOM      5  C   UNL     1     139.335 144.632 132.305  1.00  0.00     0.011 C 
ATOM      6  C   UNL     1     140.950 142.695 132.003  1.00  0.00     0.011 C 
ENDROOT
BRANCH   4   7
ATOM      7  C   UNL     1     138.896 143.566 135.035  1.00  0.00     0.009 C 
BRANCH   7   8
ATOM      8  C   UNL     1     138.654 142.600 136.212  1.00  0.00     0.030 C 
BRANCH   8   9
ATOM      9  C   UNL     1     138.893 143.268 137.556  1.00  0.00    -0.077 C 
ATOM     10  C   UNL     1     137.721 143.945 138.222  1.00  0.00     0.039 C 
ATOM     11  C   UNL     1     140.090 143.319 138.190  1.00  0.00    -0.028 CG0
ATOM     12  G   UNL     1     141.403 142.752 137.701  1.00  0.00     0.000 G0
ENDBRANCH   8   9
ENDBRANCH   7   8
ENDBRANCH   4   7
BRANCH   1  13
ATOM     13  C   UNL     1     142.470 143.824 135.685  1.00  0.00    -0.074 C 
ATOM     14  C   UNL     1     143.521 143.196 135.126  1.00  0.00     0.008 C 
BRANCH  13  15
ATOM     15  C   UNL     1     142.348 143.861 137.191  1.00  0.00     0.035 C 
BRANCH  15  16
ATOM     16  C   UNL     1     141.416 142.753 137.707  1.00  0.00     0.032 CG0
ATOM     17  G   UNL     1     140.101 143.314 138.197  1.00  0.00     0.000 G0
ENDBRANCH  15  16
ENDBRANCH  13  15
ENDBRANCH   1  13
TORSDOF 0
ENDMDL
MODEL 5
REMARK VINA RESULT:    -3.694      2.954      5.631
REMARK INTER + INTRA:          -5.316
REMARK INTER:                  -5.016
REMARK INTRA:                  -0.300
REMARK UNBOUND:                -0.327
REMARK SMILES C=C1CCC=C(C)CC[C@@H]2[C@@H]1CC2(C)C
REMARK SMILES IDX 11 1 12 2 13 3 10 4 14 5 15 6 9 7 8 8 6 9 7 10 5 11 2 13
REMARK SMILES IDX 1 14 3 15 4 16
REMARK H PARENT
REMARK Flexibility Score: 70.00
ROOT
ATOM      1  C   UNL     1     141.644 144.373 134.845  1.00  0.00     0.018 C 
ATOM      2  C   UNL     1     141.453 144.581 136.352  1.00  0.00     0.015 C 
ATOM      3  C   UNL     1     142.259 143.297 136.629  1.00  0.00    -0.031 C 
ATOM      4  C   UNL     1     142.313 143.016 135.104  1.00  0.00     0.002 C 
ATOM      5  C   UNL     1     143.609 143.599 137.315  1.00  0.00     0.011 C 
ATOM      6  C   UNL     1     141.469 142.235 137.415  1.00  0.00     0.011 C 
ENDROOT
BRANCH   4   7
ATOM      7  C   UNL     1     143.699 142.857 134.447  1.00  0.00     0.009 C 
BRANCH   7   8
ATOM      8  C   UNL     1     143.617 142.127 133.092  1.00  0.00     0.030 C 
BRANCH   8   9
ATOM      9  C   UNL     1     143.633 143.095 131.921  1.00  0.00    -0.077 C 
ATOM     10  C   UNL     1     144.975 143.511 131.371  1.00  0.00     0.039 C 
ATOM     11  C   UNL     1     142.529 143.631 131.348  1.00  0.00    -0.028 CG0
ATOM     12  G   UNL     1     141.091 143.396 131.750  1.00  0.00     0.000 G0
ENDBRANCH   8   9
ENDBRANCH   7   8
ENDBRANCH   4   7
BRANCH   1  13
ATOM     13  C   UNL     1     140.385 144.298 133.994  1.00  0.00    -0.074 C 
ATOM     14  C   UNL     1     139.205 143.883 134.489  1.00  0.00     0.008 C 
BRANCH  13  15
ATOM     15  C   UNL     1     140.502 144.595 132.517  1.00  0.00     0.035 C 
BRANCH  15  16
ATOM     16  C   UNL     1     141.093 143.402 131.748  1.00  0.00     0.032 CG0
ATOM     17  G   UNL     1     142.529 143.652 131.349  1.00  0.00     0.000 G0
ENDBRANCH  15  16
ENDBRANCH  13  15
ENDBRANCH   1  13
TORSDOF 0
ENDMDL
MODEL 6
REMARK VINA RESULT:    -3.675      2.460      3.967
REMARK INTER + INTRA:          -5.290
REMARK INTER:                  -4.987
REMARK INTRA:                  -0.304
REMARK UNBOUND:                -0.327
REMARK SMILES C=C1CCC=C(C)CC[C@@H]2[C@@H]1CC2(C)C
REMARK SMILES IDX 11 1 12 2 13 3 10 4 14 5 15 6 9 7 8 8 6 9 7 10 5 11 2 13
REMARK SMILES IDX 1 14 3 15 4 16
REMARK H PARENT
REMARK Flexibility Score: 70.00
ROOT
ATOM      1  C   UNL     1     143.058 141.798 134.409  1.00  0.00     0.018 C 
ATOM      2  C   UNL     1     143.605 143.220 134.248  1.00  0.00     0.015 C 
ATOM      3  C   UNL     1     142.562 143.495 133.148  1.00  0.00    -0.031 C 
ATOM      4  C   UNL     1     142.120 142.009 133.213  1.00  0.00     0.002 C 
ATOM      5  C   UNL     1     141.515 144.539 133.593  1.00  0.00     0.011 C 
ATOM      6  C   UNL     1     143.185 143.885 131.795  1.00  0.00     0.011 C 
ENDROOT
BRANCH   4   7
ATOM      7  C   UNL     1     140.636 141.709 133.509  1.00  0.00     0.009 C 
BRANCH   7   8
ATOM      8  C   UNL     1     140.218 140.310 133.015  1.00  0.00     0.030 C 
BRANCH   8   9
ATOM      9  C   UNL     1     140.216 139.287 134.138  1.00  0.00    -0.077 C 
ATOM     10  C   UNL     1     138.938 139.105 134.920  1.00  0.00     0.039 C 
ATOM     11  C   UNL     1     141.286 138.540 134.504  1.00  0.00    -0.028 CG0
ATOM     12  G   UNL     1     142.670 138.578 133.899  1.00  0.00     0.000 G0
ENDBRANCH   8   9
ENDBRANCH   7   8
ENDBRANCH   4   7
BRANCH   1  13
ATOM     13  C   UNL     1     144.045 140.653 134.235  1.00  0.00    -0.074 C 
ATOM     14  C   UNL     1     145.178 140.783 133.521  1.00  0.00     0.008 C 
BRANCH  13  15
ATOM     15  C   UNL     1     143.676 139.299 134.794  1.00  0.00     0.035 C 
BRANCH  15  16
ATOM     16  C   UNL     1     142.671 138.571 133.887  1.00  0.00     0.032 CG0
ATOM     17  G   UNL     1     141.290 138.537 134.500  1.00  0.00     0.000 G0
ENDBRANCH  15  16
ENDBRANCH  13  15
ENDBRANCH   1  13
TORSDOF 0
ENDMDL
MODEL 7
REMARK VINA RESULT:    -3.663      3.062      4.526
REMARK INTER + INTRA:          -5.274
REMARK INTER:                  -4.952
REMARK INTRA:                  -0.323
REMARK UNBOUND:                -0.327
REMARK SMILES C=C1CCC=C(C)CC[C@@H]2[C@@H]1CC2(C)C
REMARK SMILES IDX 11 1 12 2 13 3 10 4 14 5 15 6 9 7 8 8 6 9 7 10 5 11 2 13
REMARK SMILES IDX 1 14 3 15 4 16
REMARK H PARENT
REMARK Flexibility Score: 70.00
ROOT
ATOM      1  C   UNL     1     143.482 139.812 133.346  1.00  0.00     0.018 C 
ATOM      2  C   UNL     1     144.764 140.649 133.416  1.00  0.00     0.015 C 
ATOM      3  C   UNL     1     143.927 141.938 133.304  1.00  0.00    -0.031 C 
ATOM      4  C   UNL     1     142.655 141.078 133.080  1.00  0.00     0.002 C 
ATOM      5  C   UNL     1     143.969 142.769 134.604  1.00  0.00     0.011 C 
ATOM      6  C   UNL     1     144.297 142.805 132.086  1.00  0.00     0.011 C 
ENDROOT
BRANCH   4   7
ATOM      7  C   UNL     1     141.470 141.277 134.046  1.00  0.00     0.009 C 
BRANCH   7   8
ATOM      8  C   UNL     1     140.123 140.908 133.394  1.00  0.00     0.030 C 
BRANCH   8   9
ATOM      9  C   UNL     1     139.665 139.512 133.782  1.00  0.00    -0.077 C 
ATOM     10  C   UNL     1     138.764 139.377 134.984  1.00  0.00     0.039 C 
ATOM     11  C   UNL     1     140.027 138.375 133.140  1.00  0.00    -0.028 CG0
ATOM     12  G   UNL     1     140.946 138.258 131.946  1.00  0.00     0.000 G0
ENDBRANCH   8   9
ENDBRANCH   7   8
ENDBRANCH   4   7
BRANCH   1  13
ATOM     13  C   UNL     1     143.398 138.767 132.245  1.00  0.00    -0.074 C 
ATOM     14  C   UNL     1     144.170 138.818 131.144  1.00  0.00     0.008 C 
BRANCH  13  15
ATOM     15  C   UNL     1     142.331 137.702 132.348  1.00  0.00     0.035 C 
BRANCH  15  16
ATOM     16  C   UNL     1     140.952 138.247 131.939  1.00  0.00     0.032 CG0
ATOM     17  G   UNL     1     140.027 138.372 133.128  1.00  0.00     0.000 G0
ENDBRANCH  15  16
ENDBRANCH  13  15
ENDBRANCH   1  13
TORSDOF 0
ENDMDL
MODEL 8
REMARK VINA RESULT:    -3.657      3.096      4.927
REMARK INTER + INTRA:          -5.267
REMARK INTER:                  -4.963
REMARK INTRA:                  -0.304
REMARK UNBOUND:                -0.327
REMARK SMILES C=C1CCC=C(C)CC[C@@H]2[C@@H]1CC2(C)C
REMARK SMILES IDX 11 1 12 2 13 3 10 4 14 5 15 6 9 7 8 8 6 9 7 10 5 11 2 13
REMARK SMILES IDX 1 14 3 15 4 16
REMARK H PARENT
REMARK Flexibility Score: 70.00
ROOT
ATOM      1  C   UNL     1     140.274 143.102 134.619  1.00  0.00     0.018 C 
ATOM      2  C   UNL     1     138.895 143.695 134.307  1.00  0.00     0.015 C 
ATOM      3  C   UNL     1     138.637 142.559 133.298  1.00  0.00    -0.031 C 
ATOM      4  C   UNL     1     140.090 142.059 133.508  1.00  0.00     0.002 C 
ATOM      5  C   UNL     1     137.514 141.612 133.771  1.00  0.00     0.011 C 
ATOM      6  C   UNL     1     138.367 143.060 131.868  1.00  0.00     0.011 C 
ENDROOT
BRANCH   4   7
ATOM      7  C   UNL     1     140.293 140.600 133.968  1.00  0.00     0.009 C 
BRANCH   7   8
ATOM      8  C   UNL     1     141.631 140.018 133.473  1.00  0.00     0.030 C 
BRANCH   8   9
ATOM      9  C   UNL     1     142.706 140.066 134.546  1.00  0.00    -0.077 C 
ATOM     10  C   UNL     1     142.899 138.839 135.402  1.00  0.00     0.039 C 
ATOM     11  C   UNL     1     143.489 141.140 134.806  1.00  0.00    -0.028 CG0
ATOM     12  G   UNL     1     143.451 142.483 134.113  1.00  0.00     0.000 G0
ENDBRANCH   8   9
ENDBRANCH   7   8
ENDBRANCH   4   7
BRANCH   1  13
ATOM     13  C   UNL     1     141.477 144.013 134.428  1.00  0.00    -0.074 C 
ATOM     14  C   UNL     1     141.418 145.139 133.693  1.00  0.00     0.008 C 
BRANCH  13  15
ATOM     15  C   UNL     1     142.806 143.572 134.996  1.00  0.00     0.035 C 
BRANCH  15  16
ATOM     16  C   UNL     1     143.461 142.493 134.119  1.00  0.00     0.032 CG0
ATOM     17  G   UNL     1     143.489 141.151 134.814  1.00  0.00     0.000 G0
ENDBRANCH  15  16
ENDBRANCH  13  15
ENDBRANCH   1  13
TORSDOF 0
ENDMDL
MODEL 9
REMARK VINA RESULT:    -3.611      4.050      5.543
REMARK INTER + INTRA:          -5.204
REMARK INTER:                  -4.885
REMARK INTRA:                  -0.320
REMARK UNBOUND:                -0.327
REMARK SMILES C=C1CCC=C(C)CC[C@@H]2[C@@H]1CC2(C)C
REMARK SMILES IDX 11 1 12 2 13 3 10 4 14 5 15 6 9 7 8 8 6 9 7 10 5 11 2 13
REMARK SMILES IDX 1 14 3 15 4 16
REMARK H PARENT
REMARK Flexibility Score: 70.00
ROOT
ATOM      1  C   UNL     1     139.803 138.790 133.371  1.00  0.00     0.018 C 
ATOM      2  C   UNL     1     140.641 137.521 133.558  1.00  0.00     0.015 C 
ATOM      3  C   UNL     1     141.927 138.369 133.536  1.00  0.00    -0.031 C 
ATOM      4  C   UNL     1     141.080 139.623 133.195  1.00  0.00     0.002 C 
ATOM      5  C   UNL     1     142.636 138.377 134.907  1.00  0.00     0.011 C 
ATOM      6  C   UNL     1     142.905 137.972 132.415  1.00  0.00     0.011 C 
ENDROOT
BRANCH   4   7
ATOM      7  C   UNL     1     141.179 140.840 134.137  1.00  0.00     0.009 C 
BRANCH   7   8
ATOM      8  C   UNL     1     140.860 142.162 133.411  1.00  0.00     0.030 C 
BRANCH   8   9
ATOM      9  C   UNL     1     139.430 142.616 133.656  1.00  0.00    -0.077 C 
ATOM     10  C   UNL     1     139.179 143.555 134.809  1.00  0.00     0.039 C 
ATOM     11  C   UNL     1     138.359 142.220 132.926  1.00  0.00    -0.028 CG0
ATOM     12  G   UNL     1     138.360 141.260 131.758  1.00  0.00     0.000 G0
ENDBRANCH   8   9
ENDBRANCH   7   8
ENDBRANCH   4   7
BRANCH   1  13
ATOM     13  C   UNL     1     138.862 138.828 132.177  1.00  0.00    -0.074 C 
ATOM     14  C   UNL     1     139.020 138.022 131.110  1.00  0.00     0.008 C 
BRANCH  13  15
ATOM     15  C   UNL     1     137.783 139.886 132.148  1.00  0.00     0.035 C 
BRANCH  15  16
ATOM     16  C   UNL     1     138.351 141.257 131.746  1.00  0.00     0.032 CG0
ATOM     17  G   UNL     1     138.360 142.220 132.911  1.00  0.00     0.000 G0
ENDBRANCH  15  16
ENDBRANCH  13  15
ENDBRANCH   1  13
TORSDOF 0
ENDMDL
