MODEL 1
REMARK VINA RESULT:    -4.442      0.000      0.000
REMARK INTER + INTRA:          -6.842
REMARK INTER:                  -6.780
REMARK INTRA:                  -0.063
REMARK UNBOUND:                -0.063
REMARK SMILES CC1=CCC[C@@H](C)C(=O)C[C@@H](C(C)C)C(=O)C1
REMARK SMILES IDX 8 1 9 2 6 3 7 4 5 5 4 6 3 7 2 8 1 9 10 11 11 12 15 13 16 14
REMARK SMILES IDX 17 15 12 17 13 18 14 19
REMARK H PARENT
REMARK Flexibility Score: 70.00
ROOT
ATOM      1  C   UNL     1       1.310 -19.902  -3.961  1.00  0.00     0.136 C 
ATOM      2  O   UNL     1       0.118 -19.789  -3.710  1.00  0.00    -0.299 OA
ENDROOT
BRANCH   1   3
ATOM      3  C   UNL     1       2.277 -20.095  -2.807  1.00  0.00     0.053 C 
ATOM      4  C   UNL     1       1.628 -20.902  -1.674  1.00  0.00     0.016 C 
BRANCH   3   5
ATOM      5  C   UNL     1       2.778 -18.719  -2.301  1.00  0.00     0.015 C 
BRANCH   5   6
ATOM      6  C   UNL     1       3.957 -18.167  -3.134  1.00  0.00     0.028 C 
BRANCH   6   7
ATOM      7  C   UNL     1       5.032 -19.207  -3.350  1.00  0.00    -0.028 C 
ATOM      8  C   UNL     1       5.327 -19.789  -4.538  1.00  0.00    -0.070 CG0
ATOM      9  C   UNL     1       6.453 -20.791  -4.576  1.00  0.00     0.039 C 
ATOM     10  G   UNL     1       4.587 -19.475  -5.827  1.00  0.00     0.000 G0
ENDBRANCH   6   7
ENDBRANCH   5   6
ENDBRANCH   3   5
ENDBRANCH   1   3
BRANCH   1  11
ATOM     11  C   UNL     1       1.731 -19.811  -5.420  1.00  0.00     0.087 C 
BRANCH  11  12
ATOM     12  C   UNL     1       2.460 -21.046  -6.024  1.00  0.00     0.066 C 
BRANCH  12  13
ATOM     13  C   UNL     1       3.896 -20.721  -6.405  1.00  0.00     0.140 C 
ATOM     14  O   UNL     1       4.527 -21.495  -7.112  1.00  0.00    -0.299 OA
BRANCH  13  15
ATOM     15  C   UNL     1       4.578 -19.494  -5.845  1.00  0.00     0.106 CG0
ATOM     16  G   UNL     1       5.315 -19.775  -4.546  1.00  0.00     0.000 G0
ENDBRANCH  13  15
ENDBRANCH  12  13
BRANCH  12  17
ATOM     17  C   UNL     1       1.705 -21.683  -7.235  1.00  0.00    -0.006 C 
ATOM     18  C   UNL     1       0.393 -22.356  -6.801  1.00  0.00     0.008 C 
ATOM     19  C   UNL     1       1.432 -20.709  -8.395  1.00  0.00     0.008 C 
ENDBRANCH  12  17
ENDBRANCH  11  12
ENDBRANCH   1  11
TORSDOF 1
ENDMDL
MODEL 2
REMARK VINA RESULT:    -4.276      2.011      4.245
REMARK INTER + INTRA:          -6.588
REMARK INTER:                  -6.299
REMARK INTRA:                  -0.289
REMARK UNBOUND:                -0.063
REMARK SMILES CC1=CCC[C@@H](C)C(=O)C[C@@H](C(C)C)C(=O)C1
REMARK SMILES IDX 8 1 9 2 6 3 7 4 5 5 4 6 3 7 2 8 1 9 10 11 11 12 15 13 16 14
REMARK SMILES IDX 17 15 12 17 13 18 14 19
REMARK H PARENT
REMARK Flexibility Score: 70.00
ROOT
ATOM      1  C   UNL     1       2.018 -21.149  -7.180  1.00  0.00     0.136 C 
ATOM      2  O   UNL     1       1.769 -21.352  -8.361  1.00  0.00    -0.299 OA
ENDROOT
BRANCH   1   3
ATOM      3  C   UNL     1       1.232 -21.918  -6.133  1.00  0.00     0.053 C 
ATOM      4  C   UNL     1       0.538 -23.139  -6.751  1.00  0.00     0.016 C 
BRANCH   3   5
ATOM      5  C   UNL     1       0.209 -20.979  -5.445  1.00  0.00     0.015 C 
BRANCH   5   6
ATOM      6  C   UNL     1       0.554 -20.699  -3.965  1.00  0.00     0.028 C 
BRANCH   6   7
ATOM      7  C   UNL     1       0.560 -19.221  -3.655  1.00  0.00    -0.028 C 
ATOM      8  C   UNL     1       1.663 -18.486  -3.375  1.00  0.00    -0.070 CG0
ATOM      9  C   UNL     1       1.486 -17.011  -3.115  1.00  0.00     0.039 C 
ATOM     10  G   UNL     1       3.064 -19.072  -3.320  1.00  0.00     0.000 G0
ENDBRANCH   6   7
ENDBRANCH   5   6
ENDBRANCH   3   5
ENDBRANCH   1   3
BRANCH   1  11
ATOM     11  C   UNL     1       3.085 -20.114  -6.857  1.00  0.00     0.087 C 
BRANCH  11  12
ATOM     12  C   UNL     1       3.857 -20.290  -5.518  1.00  0.00     0.066 C 
BRANCH  12  13
ATOM     13  C   UNL     1       3.786 -19.037  -4.658  1.00  0.00     0.140 C 
ATOM     14  O   UNL     1       4.363 -18.020  -5.017  1.00  0.00    -0.299 OA
BRANCH  13  15
ATOM     15  C   UNL     1       3.083 -19.067  -3.320  1.00  0.00     0.106 CG0
ATOM     16  G   UNL     1       1.683 -18.479  -3.382  1.00  0.00     0.000 G0
ENDBRANCH  13  15
ENDBRANCH  12  13
BRANCH  12  17
ATOM     17  C   UNL     1       5.343 -20.735  -5.711  1.00  0.00    -0.006 C 
ATOM     18  C   UNL     1       5.954 -21.267  -4.404  1.00  0.00     0.008 C 
ATOM     19  C   UNL     1       5.556 -21.759  -6.840  1.00  0.00     0.008 C 
ENDBRANCH  12  17
ENDBRANCH  11  12
ENDBRANCH   1  11
TORSDOF 1
ENDMDL
MODEL 3
REMARK VINA RESULT:    -4.149     11.964     14.128
REMARK INTER + INTRA:          -6.394
REMARK INTER:                  -6.544
REMARK INTRA:                   0.150
REMARK UNBOUND:                -0.063
REMARK SMILES CC1=CCC[C@@H](C)C(=O)C[C@@H](C(C)C)C(=O)C1
REMARK SMILES IDX 8 1 9 2 6 3 7 4 5 5 4 6 3 7 2 8 1 9 10 11 11 12 15 13 16 14
REMARK SMILES IDX 17 15 12 17 13 18 14 19
REMARK H PARENT
REMARK Flexibility Score: 70.00
ROOT
ATOM      1  C   UNL     1      -6.761 -27.001  -1.440  1.00  0.00     0.136 C 
ATOM      2  O   UNL     1      -7.328 -27.274  -0.391  1.00  0.00    -0.299 OA
ENDROOT
BRANCH   1   3
ATOM      3  C   UNL     1      -5.767 -28.001  -2.006  1.00  0.00     0.053 C 
ATOM      4  C   UNL     1      -5.228 -27.531  -3.364  1.00  0.00     0.016 C 
BRANCH   3   5
ATOM      5  C   UNL     1      -6.427 -29.398  -2.116  1.00  0.00     0.015 C 
BRANCH   5   6
ATOM      6  C   UNL     1      -7.363 -29.524  -3.339  1.00  0.00     0.028 C 
BRANCH   6   7
ATOM      7  C   UNL     1      -8.814 -29.333  -2.962  1.00  0.00    -0.028 C 
ATOM      8  C   UNL     1      -9.547 -28.224  -3.219  1.00  0.00    -0.070 CG0
ATOM      9  C   UNL     1     -10.994 -28.215  -2.794  1.00  0.00     0.039 C 
ATOM     10  G   UNL     1      -8.987 -26.997  -3.919  1.00  0.00     0.000 G0
ENDBRANCH   6   7
ENDBRANCH   5   6
ENDBRANCH   3   5
ENDBRANCH   1   3
BRANCH   1  11
ATOM     11  C   UNL     1      -7.080 -25.660  -2.082  1.00  0.00     0.087 C 
BRANCH  11  12
ATOM     12  C   UNL     1      -8.562 -25.187  -2.032  1.00  0.00     0.066 C 
BRANCH  12  13
ATOM     13  C   UNL     1      -9.357 -25.695  -3.225  1.00  0.00     0.140 C 
ATOM     14  O   UNL     1     -10.360 -25.097  -3.586  1.00  0.00    -0.299 OA
BRANCH  13  15
ATOM     15  C   UNL     1      -8.964 -26.984  -3.913  1.00  0.00     0.106 CG0
ATOM     16  G   UNL     1      -9.550 -28.211  -3.235  1.00  0.00     0.000 G0
ENDBRANCH  13  15
ENDBRANCH  12  13
BRANCH  12  17
ATOM     17  C   UNL     1      -8.716 -23.638  -1.894  1.00  0.00    -0.006 C 
ATOM     18  C   UNL     1      -9.529 -23.252  -0.647  1.00  0.00     0.008 C 
ATOM     19  C   UNL     1      -7.385 -22.865  -1.908  1.00  0.00     0.008 C 
ENDBRANCH  12  17
ENDBRANCH  11  12
ENDBRANCH   1  11
TORSDOF 1
ENDMDL
MODEL 4
REMARK VINA RESULT:    -3.949      1.384      3.975
REMARK INTER + INTRA:          -6.090
REMARK INTER:                  -6.086
REMARK INTRA:                  -0.003
REMARK UNBOUND:                -0.063
REMARK SMILES CC1=CCC[C@@H](C)C(=O)C[C@@H](C(C)C)C(=O)C1
REMARK SMILES IDX 8 1 9 2 6 3 7 4 5 5 4 6 3 7 2 8 1 9 10 11 11 12 15 13 16 14
REMARK SMILES IDX 17 15 12 17 13 18 14 19
REMARK H PARENT
REMARK Flexibility Score: 70.00
ROOT
ATOM      1  C   UNL     1       4.967 -20.769  -6.832  1.00  0.00     0.136 C 
ATOM      2  O   UNL     1       5.912 -21.527  -7.003  1.00  0.00    -0.299 OA
ENDROOT
BRANCH   1   3
ATOM      3  C   UNL     1       5.147 -19.300  -7.172  1.00  0.00     0.053 C 
ATOM      4  C   UNL     1       5.912 -19.131  -8.492  1.00  0.00     0.016 C 
BRANCH   3   5
ATOM      5  C   UNL     1       5.866 -18.572  -6.009  1.00  0.00     0.015 C 
BRANCH   5   6
ATOM      6  C   UNL     1       5.654 -19.266  -4.646  1.00  0.00     0.028 C 
BRANCH   6   7
ATOM      7  C   UNL     1       4.736 -18.474  -3.744  1.00  0.00    -0.028 C 
ATOM      8  C   UNL     1       3.528 -18.894  -3.297  1.00  0.00    -0.070 CG0
ATOM      9  C   UNL     1       2.754 -17.982  -2.379  1.00  0.00     0.039 C 
ATOM     10  G   UNL     1       2.922 -20.238  -3.667  1.00  0.00     0.000 G0
ENDBRANCH   6   7
ENDBRANCH   5   6
ENDBRANCH   3   5
ENDBRANCH   1   3
BRANCH   1  11
ATOM     11  C   UNL     1       3.687 -21.361  -6.261  1.00  0.00     0.087 C 
BRANCH  11  12
ATOM     12  C   UNL     1       2.434 -20.440  -6.232  1.00  0.00     0.066 C 
BRANCH  12  13
ATOM     13  C   UNL     1       1.947 -20.195  -4.812  1.00  0.00     0.140 C 
ATOM     14  O   UNL     1       0.783 -19.873  -4.616  1.00  0.00    -0.299 OA
BRANCH  13  15
ATOM     15  C   UNL     1       2.912 -20.260  -3.650  1.00  0.00     0.106 CG0
ATOM     16  G   UNL     1       3.516 -18.907  -3.315  1.00  0.00     0.000 G0
ENDBRANCH  13  15
ENDBRANCH  12  13
BRANCH  12  17
ATOM     17  C   UNL     1       1.262 -20.956  -7.129  1.00  0.00    -0.006 C 
ATOM     18  C   UNL     1       1.631 -20.933  -8.621  1.00  0.00     0.008 C 
ATOM     19  C   UNL     1       0.737 -22.350  -6.744  1.00  0.00     0.008 C 
ENDBRANCH  12  17
ENDBRANCH  11  12
ENDBRANCH   1  11
TORSDOF 1
ENDMDL
MODEL 5
REMARK VINA RESULT:    -3.927     10.641     12.735
REMARK INTER + INTRA:          -6.056
REMARK INTER:                  -6.236
REMARK INTRA:                   0.180
REMARK UNBOUND:                -0.063
REMARK SMILES CC1=CCC[C@@H](C)C(=O)C[C@@H](C(C)C)C(=O)C1
REMARK SMILES IDX 8 1 9 2 6 3 7 4 5 5 4 6 3 7 2 8 1 9 10 11 11 12 15 13 16 14
REMARK SMILES IDX 17 15 12 17 13 18 14 19
REMARK H PARENT
REMARK Flexibility Score: 70.00
ROOT
ATOM      1  C   UNL     1       3.840 -25.853   6.132  1.00  0.00     0.136 C 
ATOM      2  O   UNL     1       2.683 -25.837   6.530  1.00  0.00    -0.299 OA
ENDROOT
BRANCH   1   3
ATOM      3  C   UNL     1       4.107 -26.284   4.701  1.00  0.00     0.053 C 
ATOM      4  C   UNL     1       4.979 -27.547   4.661  1.00  0.00     0.016 C 
BRANCH   3   5
ATOM      5  C   UNL     1       4.764 -25.123   3.913  1.00  0.00     0.015 C 
BRANCH   5   6
ATOM      6  C   UNL     1       6.282 -25.322   3.708  1.00  0.00     0.028 C 
BRANCH   6   7
ATOM      7  C   UNL     1       7.019 -24.005   3.630  1.00  0.00    -0.028 C 
ATOM      8  C   UNL     1       7.412 -23.266   4.696  1.00  0.00    -0.070 CG0
ATOM      9  C   UNL     1       8.164 -21.986   4.433  1.00  0.00     0.039 C 
ATOM     10  G   UNL     1       7.141 -23.668   6.135  1.00  0.00     0.000 G0
ENDBRANCH   6   7
ENDBRANCH   5   6
ENDBRANCH   3   5
ENDBRANCH   1   3
BRANCH   1  11
ATOM     11  C   UNL     1       4.926 -25.463   7.123  1.00  0.00     0.087 C 
BRANCH  11  12
ATOM     12  C   UNL     1       4.954 -23.980   7.594  1.00  0.00     0.066 C 
BRANCH  12  13
ATOM     13  C   UNL     1       5.828 -23.119   6.694  1.00  0.00     0.140 C 
ATOM     14  O   UNL     1       5.434 -22.016   6.341  1.00  0.00    -0.299 OA
BRANCH  13  15
ATOM     15  C   UNL     1       7.139 -23.653   6.163  1.00  0.00     0.106 CG0
ATOM     16  G   UNL     1       7.376 -23.281   4.709  1.00  0.00     0.000 G0
ENDBRANCH  13  15
ENDBRANCH  12  13
BRANCH  12  17
ATOM     17  C   UNL     1       5.376 -23.810   9.089  1.00  0.00    -0.006 C 
ATOM     18  C   UNL     1       4.748 -22.558   9.722  1.00  0.00     0.008 C 
ATOM     19  C   UNL     1       5.093 -25.039   9.971  1.00  0.00     0.008 C 
ENDBRANCH  12  17
ENDBRANCH  11  12
ENDBRANCH   1  11
TORSDOF 1
ENDMDL
MODEL 6
REMARK VINA RESULT:    -3.677     10.562     12.968
REMARK INTER + INTRA:          -5.674
REMARK INTER:                  -5.752
REMARK INTRA:                   0.078
REMARK UNBOUND:                -0.063
REMARK SMILES CC1=CCC[C@@H](C)C(=O)C[C@@H](C(C)C)C(=O)C1
REMARK SMILES IDX 8 1 9 2 6 3 7 4 5 5 4 6 3 7 2 8 1 9 10 11 11 12 15 13 16 14
REMARK SMILES IDX 17 15 12 17 13 18 14 19
REMARK H PARENT
REMARK Flexibility Score: 70.00
ROOT
ATOM      1  C   UNL     1       4.560 -25.350   4.316  1.00  0.00     0.136 C 
ATOM      2  O   UNL     1       4.582 -25.606   3.120  1.00  0.00    -0.299 OA
ENDROOT
BRANCH   1   3
ATOM      3  C   UNL     1       4.892 -23.936   4.759  1.00  0.00     0.053 C 
ATOM      4  C   UNL     1       4.027 -22.909   4.016  1.00  0.00     0.016 C 
BRANCH   3   5
ATOM      5  C   UNL     1       6.401 -23.657   4.549  1.00  0.00     0.015 C 
BRANCH   5   6
ATOM      6  C   UNL     1       7.218 -23.760   5.857  1.00  0.00     0.028 C 
BRANCH   6   7
ATOM      7  C   UNL     1       6.426 -23.293   7.056  1.00  0.00    -0.028 C 
ATOM      8  C   UNL     1       5.751 -24.100   7.909  1.00  0.00    -0.070 CG0
ATOM      9  C   UNL     1       5.035 -23.463   9.072  1.00  0.00     0.039 C 
ATOM     10  G   UNL     1       5.690 -25.611   7.755  1.00  0.00     0.000 G0
ENDBRANCH   6   7
ENDBRANCH   5   6
ENDBRANCH   3   5
ENDBRANCH   1   3
BRANCH   1  11
ATOM     11  C   UNL     1       4.224 -26.486   5.271  1.00  0.00     0.087 C 
BRANCH  11  12
ATOM     12  C   UNL     1       3.422 -26.119   6.552  1.00  0.00     0.066 C 
BRANCH  12  13
ATOM     13  C   UNL     1       4.294 -26.175   7.798  1.00  0.00     0.140 C 
ATOM     14  O   UNL     1       3.829 -26.604   8.845  1.00  0.00    -0.299 OA
BRANCH  13  15
ATOM     15  C   UNL     1       5.701 -25.623   7.773  1.00  0.00     0.106 CG0
ATOM     16  G   UNL     1       5.739 -24.111   7.912  1.00  0.00     0.000 G0
ENDBRANCH  13  15
ENDBRANCH  12  13
BRANCH  12  17
ATOM     17  C   UNL     1       2.135 -26.983   6.748  1.00  0.00    -0.006 C 
ATOM     18  C   UNL     1       0.882 -26.110   6.925  1.00  0.00     0.008 C 
ATOM     19  C   UNL     1       1.893 -28.022   5.639  1.00  0.00     0.008 C 
ENDBRANCH  12  17
ENDBRANCH  11  12
ENDBRANCH   1  11
TORSDOF 1
ENDMDL
MODEL 7
REMARK VINA RESULT:    -3.663     10.275     12.334
REMARK INTER + INTRA:          -5.653
REMARK INTER:                  -5.728
REMARK INTRA:                   0.076
REMARK UNBOUND:                -0.063
REMARK SMILES CC1=CCC[C@@H](C)C(=O)C[C@@H](C(C)C)C(=O)C1
REMARK SMILES IDX 8 1 9 2 6 3 7 4 5 5 4 6 3 7 2 8 1 9 10 11 11 12 15 13 16 14
REMARK SMILES IDX 17 15 12 17 13 18 14 19
REMARK H PARENT
REMARK Flexibility Score: 70.00
ROOT
ATOM      1  C   UNL     1       4.295 -25.868   8.101  1.00  0.00     0.136 C 
ATOM      2  O   UNL     1       3.810 -26.694   8.862  1.00  0.00    -0.299 OA
ENDROOT
BRANCH   1   3
ATOM      3  C   UNL     1       5.528 -25.106   8.552  1.00  0.00     0.053 C 
ATOM      4  C   UNL     1       5.161 -23.688   9.013  1.00  0.00     0.016 C 
BRANCH   3   5
ATOM      5  C   UNL     1       6.576 -25.072   7.412  1.00  0.00     0.015 C 
BRANCH   5   6
ATOM      6  C   UNL     1       6.727 -23.671   6.779  1.00  0.00     0.028 C 
BRANCH   6   7
ATOM      7  C   UNL     1       7.117 -23.748   5.321  1.00  0.00    -0.028 C 
ATOM      8  C   UNL     1       6.273 -24.036   4.301  1.00  0.00    -0.070 CG0
ATOM      9  C   UNL     1       6.829 -24.043   2.900  1.00  0.00     0.039 C 
ATOM     10  G   UNL     1       4.798 -24.341   4.501  1.00  0.00     0.000 G0
ENDBRANCH   6   7
ENDBRANCH   5   6
ENDBRANCH   3   5
ENDBRANCH   1   3
BRANCH   1  11
ATOM     11  C   UNL     1       3.599 -25.651   6.766  1.00  0.00     0.087 C 
BRANCH  11  12
ATOM     12  C   UNL     1       4.005 -26.594   5.597  1.00  0.00     0.066 C 
BRANCH  12  13
ATOM     13  C   UNL     1       4.459 -25.813   4.373  1.00  0.00     0.140 C 
ATOM     14  O   UNL     1       4.628 -26.393   3.310  1.00  0.00    -0.299 OA
BRANCH  13  15
ATOM     15  C   UNL     1       4.787 -24.341   4.484  1.00  0.00     0.106 CG0
ATOM     16  G   UNL     1       6.270 -24.058   4.318  1.00  0.00     0.000 G0
ENDBRANCH  13  15
ENDBRANCH  12  13
BRANCH  12  17
ATOM     17  C   UNL     1       2.889 -27.617   5.207  1.00  0.00    -0.006 C 
ATOM     18  C   UNL     1       3.398 -29.066   5.258  1.00  0.00     0.008 C 
ATOM     19  C   UNL     1       1.596 -27.489   6.033  1.00  0.00     0.008 C 
ENDBRANCH  12  17
ENDBRANCH  11  12
ENDBRANCH   1  11
TORSDOF 1
ENDMDL
MODEL 8
REMARK VINA RESULT:    -3.525     12.761     14.974
REMARK INTER + INTRA:          -5.442
REMARK INTER:                  -5.113
REMARK INTRA:                  -0.329
REMARK UNBOUND:                -0.063
REMARK SMILES CC1=CCC[C@@H](C)C(=O)C[C@@H](C(C)C)C(=O)C1
REMARK SMILES IDX 8 1 9 2 6 3 7 4 5 5 4 6 3 7 2 8 1 9 10 11 11 12 15 13 16 14
REMARK SMILES IDX 17 15 12 17 13 18 14 19
REMARK H PARENT
REMARK Flexibility Score: 70.00
ROOT
ATOM      1  C   UNL     1      -7.397 -30.038  -3.120  1.00  0.00     0.136 C 
ATOM      2  O   UNL     1      -8.072 -30.806  -3.792  1.00  0.00    -0.299 OA
ENDROOT
BRANCH   1   3
ATOM      3  C   UNL     1      -6.462 -29.080  -3.838  1.00  0.00     0.053 C 
ATOM      4  C   UNL     1      -5.214 -28.793  -2.992  1.00  0.00     0.016 C 
BRANCH   3   5
ATOM      5  C   UNL     1      -7.213 -27.773  -4.193  1.00  0.00     0.015 C 
BRANCH   5   6
ATOM      6  C   UNL     1      -6.785 -26.578  -3.312  1.00  0.00     0.028 C 
BRANCH   6   7
ATOM      7  C   UNL     1      -7.959 -25.955  -2.594  1.00  0.00    -0.028 C 
ATOM      8  C   UNL     1      -8.346 -26.249  -1.330  1.00  0.00    -0.070 CG0
ATOM      9  C   UNL     1      -9.529 -25.508  -0.760  1.00  0.00     0.039 C 
ATOM     10  G   UNL     1      -7.644 -27.277  -0.460  1.00  0.00     0.000 G0
ENDBRANCH   6   7
ENDBRANCH   5   6
ENDBRANCH   3   5
ENDBRANCH   1   3
BRANCH   1  11
ATOM     11  C   UNL     1      -7.531 -30.125  -1.607  1.00  0.00     0.087 C 
BRANCH  11  12
ATOM     12  C   UNL     1      -8.837 -29.559  -0.980  1.00  0.00     0.066 C 
BRANCH  12  13
ATOM     13  C   UNL     1      -8.551 -28.414  -0.020  1.00  0.00     0.140 C 
ATOM     14  O   UNL     1      -9.110 -28.379   1.067  1.00  0.00    -0.299 OA
BRANCH  13  15
ATOM     15  C   UNL     1      -7.650 -27.273  -0.437  1.00  0.00     0.106 CG0
ATOM     16  G   UNL     1      -8.358 -26.260  -1.320  1.00  0.00     0.000 G0
ENDBRANCH  13  15
ENDBRANCH  12  13
BRANCH  12  17
ATOM     17  C   UNL     1      -9.715 -30.648  -0.283  1.00  0.00    -0.006 C 
ATOM     18  C   UNL     1     -10.923 -31.048  -1.146  1.00  0.00     0.008 C 
ATOM     19  C   UNL     1      -8.941 -31.907   0.146  1.00  0.00     0.008 C 
ENDBRANCH  12  17
ENDBRANCH  11  12
ENDBRANCH   1  11
TORSDOF 1
ENDMDL
MODEL 9
REMARK VINA RESULT:    -3.514      9.292     11.549
REMARK INTER + INTRA:          -5.426
REMARK INTER:                  -5.123
REMARK INTRA:                  -0.303
REMARK UNBOUND:                -0.063
REMARK SMILES CC1=CCC[C@@H](C)C(=O)C[C@@H](C(C)C)C(=O)C1
REMARK SMILES IDX 8 1 9 2 6 3 7 4 5 5 4 6 3 7 2 8 1 9 10 11 11 12 15 13 16 14
REMARK SMILES IDX 17 15 12 17 13 18 14 19
REMARK H PARENT
REMARK Flexibility Score: 70.00
ROOT
ATOM      1  C   UNL     1       5.795 -27.672   4.752  1.00  0.00     0.136 C 
ATOM      2  O   UNL     1       6.441 -28.612   5.195  1.00  0.00    -0.299 OA
ENDROOT
BRANCH   1   3
ATOM      3  C   UNL     1       5.037 -27.865   3.451  1.00  0.00     0.053 C 
ATOM      4  C   UNL     1       3.945 -28.933   3.602  1.00  0.00     0.016 C 
BRANCH   3   5
ATOM      5  C   UNL     1       6.023 -28.227   2.312  1.00  0.00     0.015 C 
BRANCH   5   6
ATOM      6  C   UNL     1       7.102 -27.144   2.087  1.00  0.00     0.028 C 
BRANCH   6   7
ATOM      7  C   UNL     1       6.532 -25.903   1.441  1.00  0.00    -0.028 C 
ATOM      8  C   UNL     1       6.425 -24.691   2.037  1.00  0.00    -0.070 CG0
ATOM      9  C   UNL     1       5.854 -23.552   1.232  1.00  0.00     0.039 C 
ATOM     10  G   UNL     1       6.861 -24.424   3.468  1.00  0.00     0.000 G0
ENDBRANCH   6   7
ENDBRANCH   5   6
ENDBRANCH   3   5
ENDBRANCH   1   3
BRANCH   1  11
ATOM     11  C   UNL     1       5.828 -26.369   5.536  1.00  0.00     0.087 C 
BRANCH  11  12
ATOM     12  C   UNL     1       4.896 -25.225   5.043  1.00  0.00     0.066 C 
BRANCH  12  13
ATOM     13  C   UNL     1       5.682 -24.102   4.384  1.00  0.00     0.140 C 
ATOM     14  O   UNL     1       5.322 -22.942   4.528  1.00  0.00    -0.299 OA
BRANCH  13  15
ATOM     15  C   UNL     1       6.853 -24.416   3.480  1.00  0.00     0.106 CG0
ATOM     16  G   UNL     1       6.430 -24.678   2.044  1.00  0.00     0.000 G0
ENDBRANCH  13  15
ENDBRANCH  12  13
BRANCH  12  17
ATOM     17  C   UNL     1       3.966 -24.655   6.162  1.00  0.00    -0.006 C 
ATOM     18  C   UNL     1       2.721 -25.532   6.374  1.00  0.00     0.008 C 
ATOM     19  C   UNL     1       4.670 -24.415   7.510  1.00  0.00     0.008 C 
ENDBRANCH  12  17
ENDBRANCH  11  12
ENDBRANCH   1  11
TORSDOF 1
ENDMDL
