MODEL 1
REMARK VINA RESULT:    -3.955      0.000      0.000
REMARK INTER + INTRA:          -4.992
REMARK INTER:                  -4.880
REMARK INTRA:                  -0.112
REMARK UNBOUND:                -0.112
REMARK SMILES CCCCCC=O
REMARK SMILES IDX 4 1 3 2 2 3 1 4 5 5 6 6 7 7
REMARK H PARENT
REMARK Flexibility Score: inf
ROOT
ATOM      1  C   UNL     1      12.244 -31.406 -22.281  1.00  0.00     0.008 C 
ENDROOT
BRANCH   1   2
ATOM      2  C   UNL     1      12.662 -30.019 -21.758  1.00  0.00     0.000 C 
BRANCH   2   3
ATOM      3  C   UNL     1      12.134 -28.869 -22.629  1.00  0.00    -0.003 C 
ATOM      4  C   UNL     1      10.812 -29.246 -23.292  1.00  0.00     0.004 C 
ENDBRANCH   2   3
ENDBRANCH   1   2
BRANCH   1   5
ATOM      5  C   UNL     1      11.691 -32.361 -21.209  1.00  0.00     0.072 C 
BRANCH   5   6
ATOM      6  C   UNL     1      12.314 -32.137 -19.862  1.00  0.00     0.224 C 
ATOM      7  O   UNL     1      12.134 -32.932 -18.953  1.00  0.00    -0.303 OA
ENDBRANCH   5   6
ENDBRANCH   1   5
TORSDOF 4
ENDMDL
MODEL 2
REMARK VINA RESULT:    -3.814      2.397      3.890
REMARK INTER + INTRA:          -4.818
REMARK INTER:                  -4.641
REMARK INTRA:                  -0.177
REMARK UNBOUND:                -0.112
REMARK SMILES CCCCCC=O
REMARK SMILES IDX 4 1 3 2 2 3 1 4 5 5 6 6 7 7
REMARK H PARENT
REMARK Flexibility Score: inf
ROOT
ATOM      1  C   UNL     1      12.705 -30.195 -22.261  1.00  0.00     0.008 C 
ENDROOT
BRANCH   1   2
ATOM      2  C   UNL     1      12.598 -30.602 -20.780  1.00  0.00     0.000 C 
BRANCH   2   3
ATOM      3  C   UNL     1      12.239 -32.084 -20.593  1.00  0.00    -0.003 C 
ATOM      4  C   UNL     1      11.272 -32.555 -21.676  1.00  0.00     0.004 C 
ENDBRANCH   2   3
ENDBRANCH   1   2
BRANCH   1   5
ATOM      5  C   UNL     1      11.917 -28.930 -22.643  1.00  0.00     0.072 C 
BRANCH   5   6
ATOM      6  C   UNL     1      10.655 -29.242 -23.393  1.00  0.00     0.224 C 
ATOM      7  O   UNL     1      10.613 -30.175 -24.177  1.00  0.00    -0.303 OA
ENDBRANCH   5   6
ENDBRANCH   1   5
TORSDOF 4
ENDMDL
MODEL 3
REMARK VINA RESULT:    -3.781      2.492      2.985
REMARK INTER + INTRA:          -4.777
REMARK INTER:                  -4.700
REMARK INTRA:                  -0.077
REMARK UNBOUND:                -0.112
REMARK SMILES CCCCCC=O
REMARK SMILES IDX 4 1 3 2 2 3 1 4 5 5 6 6 7 7
REMARK H PARENT
REMARK Flexibility Score: inf
ROOT
ATOM      1  C   UNL     1      12.796 -29.664 -21.864  1.00  0.00     0.008 C 
ENDROOT
BRANCH   1   2
ATOM      2  C   UNL     1      11.888 -30.726 -22.511  1.00  0.00     0.000 C 
BRANCH   2   3
ATOM      3  C   UNL     1      11.082 -30.178 -23.698  1.00  0.00    -0.003 C 
ATOM      4  C   UNL     1      10.433 -28.841 -23.350  1.00  0.00     0.004 C 
ENDBRANCH   2   3
ENDBRANCH   1   2
BRANCH   1   5
ATOM      5  C   UNL     1      13.063 -29.870 -20.363  1.00  0.00     0.072 C 
BRANCH   5   6
ATOM      6  C   UNL     1      13.969 -28.819 -19.790  1.00  0.00     0.224 C 
ATOM      7  O   UNL     1      14.937 -28.422 -20.418  1.00  0.00    -0.303 OA
ENDBRANCH   5   6
ENDBRANCH   1   5
TORSDOF 4
ENDMDL
MODEL 4
REMARK VINA RESULT:    -3.618      2.663      3.970
REMARK INTER + INTRA:          -4.576
REMARK INTER:                  -4.476
REMARK INTRA:                  -0.100
REMARK UNBOUND:                -0.112
REMARK SMILES CCCCCC=O
REMARK SMILES IDX 4 1 3 2 2 3 1 4 5 5 6 6 7 7
REMARK H PARENT
REMARK Flexibility Score: inf
ROOT
ATOM      1  C   UNL     1      13.168 -29.781 -21.868  1.00  0.00     0.008 C 
ENDROOT
BRANCH   1   2
ATOM      2  C   UNL     1      13.469 -29.242 -20.458  1.00  0.00     0.000 C 
BRANCH   2   3
ATOM      3  C   UNL     1      13.052 -30.215 -19.345  1.00  0.00    -0.003 C 
ATOM      4  C   UNL     1      12.612 -31.556 -19.926  1.00  0.00     0.004 C 
ENDBRANCH   2   3
ENDBRANCH   1   2
BRANCH   1   5
ATOM      5  C   UNL     1      11.966 -29.125 -22.569  1.00  0.00     0.072 C 
BRANCH   5   6
ATOM      6  C   UNL     1      11.126 -30.116 -23.321  1.00  0.00     0.224 C 
ATOM      7  O   UNL     1      10.309 -29.740 -24.146  1.00  0.00    -0.303 OA
ENDBRANCH   5   6
ENDBRANCH   1   5
TORSDOF 4
ENDMDL
MODEL 5
REMARK VINA RESULT:    -3.614     13.577     14.676
REMARK INTER + INTRA:          -4.571
REMARK INTER:                  -4.341
REMARK INTRA:                  -0.229
REMARK UNBOUND:                -0.112
REMARK SMILES CCCCCC=O
REMARK SMILES IDX 4 1 3 2 2 3 1 4 5 5 6 6 7 7
REMARK H PARENT
REMARK Flexibility Score: inf
ROOT
ATOM      1  C   UNL     1      11.041 -31.260 -35.250  1.00  0.00     0.008 C 
ENDROOT
BRANCH   1   2
ATOM      2  C   UNL     1      11.792 -30.517 -34.129  1.00  0.00     0.000 C 
BRANCH   2   3
ATOM      3  C   UNL     1      13.128 -29.922 -34.599  1.00  0.00    -0.003 C 
ATOM      4  C   UNL     1      12.936 -28.513 -35.153  1.00  0.00     0.004 C 
ENDBRANCH   2   3
ENDBRANCH   1   2
BRANCH   1   5
ATOM      5  C   UNL     1       9.794 -30.534 -35.784  1.00  0.00     0.072 C 
BRANCH   5   6
ATOM      6  C   UNL     1       9.958 -30.077 -37.204  1.00  0.00     0.224 C 
ATOM      7  O   UNL     1      11.030 -30.197 -37.776  1.00  0.00    -0.303 OA
ENDBRANCH   5   6
ENDBRANCH   1   5
TORSDOF 4
ENDMDL
MODEL 6
REMARK VINA RESULT:    -3.591      3.330      4.256
REMARK INTER + INTRA:          -4.543
REMARK INTER:                  -4.449
REMARK INTRA:                  -0.093
REMARK UNBOUND:                -0.112
REMARK SMILES CCCCCC=O
REMARK SMILES IDX 4 1 3 2 2 3 1 4 5 5 6 6 7 7
REMARK H PARENT
REMARK Flexibility Score: inf
ROOT
ATOM      1  C   UNL     1      13.021 -29.846 -20.618  1.00  0.00     0.008 C 
ENDROOT
BRANCH   1   2
ATOM      2  C   UNL     1      13.777 -29.060 -19.530  1.00  0.00     0.000 C 
BRANCH   2   3
ATOM      3  C   UNL     1      14.890 -28.170 -20.102  1.00  0.00    -0.003 C 
ATOM      4  C   UNL     1      14.696 -26.714 -19.686  1.00  0.00     0.004 C 
ENDBRANCH   2   3
ENDBRANCH   1   2
BRANCH   1   5
ATOM      5  C   UNL     1      12.922 -29.135 -21.978  1.00  0.00     0.072 C 
BRANCH   5   6
ATOM      6  C   UNL     1      11.725 -29.574 -22.771  1.00  0.00     0.224 C 
ATOM      7  O   UNL     1      10.931 -28.755 -23.204  1.00  0.00    -0.303 OA
ENDBRANCH   5   6
ENDBRANCH   1   5
TORSDOF 4
ENDMDL
MODEL 7
REMARK VINA RESULT:    -3.538     13.658     15.000
REMARK INTER + INTRA:          -4.478
REMARK INTER:                  -4.265
REMARK INTRA:                  -0.213
REMARK UNBOUND:                -0.112
REMARK SMILES CCCCCC=O
REMARK SMILES IDX 4 1 3 2 2 3 1 4 5 5 6 6 7 7
REMARK H PARENT
REMARK Flexibility Score: inf
ROOT
ATOM      1  C   UNL     1      11.918 -29.061 -36.931  1.00  0.00     0.008 C 
ENDROOT
BRANCH   1   2
ATOM      2  C   UNL     1      11.819 -28.866 -35.407  1.00  0.00     0.000 C 
BRANCH   2   3
ATOM      3  C   UNL     1      12.864 -29.681 -34.631  1.00  0.00    -0.003 C 
ATOM      4  C   UNL     1      12.225 -30.890 -33.954  1.00  0.00     0.004 C 
ENDBRANCH   2   3
ENDBRANCH   1   2
BRANCH   1   5
ATOM      5  C   UNL     1      10.612 -29.505 -37.612  1.00  0.00     0.072 C 
BRANCH   5   6
ATOM      6  C   UNL     1       9.926 -30.617 -36.873  1.00  0.00     0.224 C 
ATOM      7  O   UNL     1      10.368 -31.754 -36.910  1.00  0.00    -0.303 OA
ENDBRANCH   5   6
ENDBRANCH   1   5
TORSDOF 4
ENDMDL
MODEL 8
REMARK VINA RESULT:    -3.450      1.855      2.817
REMARK INTER + INTRA:          -4.368
REMARK INTER:                  -4.200
REMARK INTRA:                  -0.168
REMARK UNBOUND:                -0.112
REMARK SMILES CCCCCC=O
REMARK SMILES IDX 4 1 3 2 2 3 1 4 5 5 6 6 7 7
REMARK H PARENT
REMARK Flexibility Score: inf
ROOT
ATOM      1  C   UNL     1      13.432 -29.426 -21.850  1.00  0.00     0.008 C 
ENDROOT
BRANCH   1   2
ATOM      2  C   UNL     1      11.949 -29.415 -22.263  1.00  0.00     0.000 C 
BRANCH   2   3
ATOM      3  C   UNL     1      11.500 -30.732 -22.912  1.00  0.00    -0.003 C 
ATOM      4  C   UNL     1      11.558 -31.884 -21.911  1.00  0.00     0.004 C 
ENDBRANCH   2   3
ENDBRANCH   1   2
BRANCH   1   5
ATOM      5  C   UNL     1      13.740 -28.706 -20.525  1.00  0.00     0.072 C 
BRANCH   5   6
ATOM      6  C   UNL     1      13.659 -29.623 -19.340  1.00  0.00     0.224 C 
ATOM      7  O   UNL     1      12.577 -29.946 -18.875  1.00  0.00    -0.303 OA
ENDBRANCH   5   6
ENDBRANCH   1   5
TORSDOF 4
ENDMDL
MODEL 9
REMARK VINA RESULT:    -3.425     14.117     15.121
REMARK INTER + INTRA:          -4.338
REMARK INTER:                  -4.114
REMARK INTRA:                  -0.225
REMARK UNBOUND:                -0.112
REMARK SMILES CCCCCC=O
REMARK SMILES IDX 4 1 3 2 2 3 1 4 5 5 6 6 7 7
REMARK H PARENT
REMARK Flexibility Score: inf
ROOT
ATOM      1  C   UNL     1      12.209 -29.405 -35.116  1.00  0.00     0.008 C 
ENDROOT
BRANCH   1   2
ATOM      2  C   UNL     1      12.291 -28.220 -36.096  1.00  0.00     0.000 C 
BRANCH   2   3
ATOM      3  C   UNL     1      12.538 -28.661 -37.546  1.00  0.00    -0.003 C 
ATOM      4  C   UNL     1      11.299 -28.431 -38.408  1.00  0.00     0.004 C 
ENDBRANCH   2   3
ENDBRANCH   1   2
BRANCH   1   5
ATOM      5  C   UNL     1      10.826 -30.073 -35.021  1.00  0.00     0.072 C 
BRANCH   5   6
ATOM      6  C   UNL     1      10.804 -31.442 -35.635  1.00  0.00     0.224 C 
ATOM      7  O   UNL     1      10.403 -31.605 -36.777  1.00  0.00    -0.303 OA
ENDBRANCH   5   6
ENDBRANCH   1   5
TORSDOF 4
ENDMDL
