MODEL 1
REMARK VINA RESULT:    -3.813      0.000      0.000
REMARK INTER + INTRA:          -5.656
REMARK INTER:                  -5.820
REMARK INTRA:                   0.164
REMARK UNBOUND:                 0.164
REMARK SMILES CC1=CCC[C@H](C)C(=O)C[C@@H](C(C)C)C(=O)C1
REMARK SMILES IDX 8 1 9 2 6 3 7 4 5 5 4 6 3 7 2 8 1 9 10 11 11 12 15 13 16 14
REMARK SMILES IDX 17 15 12 17 13 18 14 19
REMARK H PARENT
REMARK Flexibility Score: 70.00
ROOT
ATOM      1  C   UNL     1      -8.723  72.743  25.204  1.00  0.00     0.136 C 
ATOM      2  O   UNL     1      -8.237  73.032  26.289  1.00  0.00    -0.299 OA
ENDROOT
BRANCH   1   3
ATOM      3  C   UNL     1      -9.993  73.425  24.748  1.00  0.00     0.053 C 
ATOM      4  C   UNL     1     -10.714  74.101  25.920  1.00  0.00     0.016 C 
BRANCH   3   5
ATOM      5  C   UNL     1      -9.647  74.440  23.631  1.00  0.00     0.015 C 
BRANCH   5   6
ATOM      6  C   UNL     1      -9.912  73.969  22.187  1.00  0.00     0.028 C 
BRANCH   6   7
ATOM      7  C   UNL     1      -8.891  74.354  21.138  1.00  0.00    -0.028 C 
ATOM      8  C   UNL     1      -7.690  73.766  20.915  1.00  0.00    -0.070 CG0
ATOM      9  C   UNL     1      -6.783  74.397  19.887  1.00  0.00     0.039 C 
ATOM     10  G   UNL     1      -7.238  72.473  21.569  1.00  0.00     0.000 G0
ENDBRANCH   6   7
ENDBRANCH   5   6
ENDBRANCH   3   5
ENDBRANCH   1   3
BRANCH   1  11
ATOM     11  C   UNL     1      -8.002  71.761  24.309  1.00  0.00     0.087 C 
BRANCH  11  12
ATOM     12  C   UNL     1      -6.507  72.140  24.093  1.00  0.00     0.066 C 
BRANCH  12  13
ATOM     13  C   UNL     1      -6.281  72.718  22.703  1.00  0.00     0.140 C 
ATOM     14  O   UNL     1      -5.307  73.430  22.503  1.00  0.00    -0.299 OA
BRANCH  13  15
ATOM     15  C   UNL     1      -7.241  72.459  21.558  1.00  0.00     0.106 CG0
ATOM     16  G   UNL     1      -7.679  73.762  20.915  1.00  0.00     0.000 G0
ENDBRANCH  13  15
ENDBRANCH  12  13
BRANCH  12  17
ATOM     17  C   UNL     1      -5.554  70.943  24.397  1.00  0.00    -0.006 C 
ATOM     18  C   UNL     1      -5.781  69.781  23.417  1.00  0.00     0.008 C 
ATOM     19  C   UNL     1      -5.624  70.435  25.848  1.00  0.00     0.008 C 
ENDBRANCH  12  17
ENDBRANCH  11  12
ENDBRANCH   1  11
TORSDOF 1
ENDMDL
MODEL 2
REMARK VINA RESULT:    -3.776      1.956      4.210
REMARK INTER + INTRA:          -5.599
REMARK INTER:                  -6.594
REMARK INTRA:                   0.995
REMARK UNBOUND:                 0.164
REMARK SMILES CC1=CCC[C@H](C)C(=O)C[C@@H](C(C)C)C(=O)C1
REMARK SMILES IDX 8 1 9 2 6 3 7 4 5 5 4 6 3 7 2 8 1 9 10 11 11 12 15 13 16 14
REMARK SMILES IDX 17 15 12 17 13 18 14 19
REMARK H PARENT
REMARK Flexibility Score: 70.00
ROOT
ATOM      1  C   UNL     1     -10.192  73.890  23.013  1.00  0.00     0.136 C 
ATOM      2  O   UNL     1     -11.232  73.246  23.023  1.00  0.00    -0.299 OA
ENDROOT
BRANCH   1   3
ATOM      3  C   UNL     1      -9.365  73.955  21.748  1.00  0.00     0.053 C 
ATOM      4  C   UNL     1     -10.151  74.603  20.602  1.00  0.00     0.016 C 
BRANCH   3   5
ATOM      5  C   UNL     1      -8.053  74.722  22.043  1.00  0.00     0.015 C 
BRANCH   5   6
ATOM      6  C   UNL     1      -6.757  73.889  21.984  1.00  0.00     0.028 C 
BRANCH   6   7
ATOM      7  C   UNL     1      -6.904  72.382  22.000  1.00  0.00    -0.028 C 
ATOM      8  C   UNL     1      -7.038  71.589  23.091  1.00  0.00    -0.070 CG0
ATOM      9  C   UNL     1      -7.051  70.096  22.871  1.00  0.00     0.039 C 
ATOM     10  G   UNL     1      -7.259  72.106  24.501  1.00  0.00     0.000 G0
ENDBRANCH   6   7
ENDBRANCH   5   6
ENDBRANCH   3   5
ENDBRANCH   1   3
BRANCH   1  11
ATOM     11  C   UNL     1      -9.791  74.666  24.246  1.00  0.00     0.087 C 
BRANCH  11  12
ATOM     12  C   UNL     1      -9.158  73.758  25.341  1.00  0.00     0.066 C 
BRANCH  12  13
ATOM     13  C   UNL     1      -8.713  72.423  24.758  1.00  0.00     0.140 C 
ATOM     14  O   UNL     1      -9.555  71.574  24.499  1.00  0.00    -0.299 OA
BRANCH  13  15
ATOM     15  C   UNL     1      -7.254  72.100  24.508  1.00  0.00     0.106 CG0
ATOM     16  G   UNL     1      -7.048  71.591  23.093  1.00  0.00     0.000 G0
ENDBRANCH  13  15
ENDBRANCH  12  13
BRANCH  12  17
ATOM     17  C   UNL     1     -10.104  73.580  26.569  1.00  0.00    -0.006 C 
ATOM     18  C   UNL     1     -11.152  74.701  26.638  1.00  0.00     0.008 C 
ATOM     19  C   UNL     1      -9.369  73.456  27.915  1.00  0.00     0.008 C 
ENDBRANCH  12  17
ENDBRANCH  11  12
ENDBRANCH   1  11
TORSDOF 1
ENDMDL
MODEL 3
REMARK VINA RESULT:    -3.696      1.656      4.180
REMARK INTER + INTRA:          -5.477
REMARK INTER:                  -5.423
REMARK INTRA:                  -0.053
REMARK UNBOUND:                 0.164
REMARK SMILES CC1=CCC[C@H](C)C(=O)C[C@@H](C(C)C)C(=O)C1
REMARK SMILES IDX 8 1 9 2 6 3 7 4 5 5 4 6 3 7 2 8 1 9 10 11 11 12 15 13 16 14
REMARK SMILES IDX 17 15 12 17 13 18 14 19
REMARK H PARENT
REMARK Flexibility Score: 70.00
ROOT
ATOM      1  C   UNL     1      -9.471  74.250  23.529  1.00  0.00     0.136 C 
ATOM      2  O   UNL     1     -10.626  74.241  23.130  1.00  0.00    -0.299 OA
ENDROOT
BRANCH   1   3
ATOM      3  C   UNL     1      -9.165  73.803  24.941  1.00  0.00     0.053 C 
ATOM      4  C   UNL     1     -10.353  74.056  25.875  1.00  0.00     0.016 C 
BRANCH   3   5
ATOM      5  C   UNL     1      -8.765  72.308  24.921  1.00  0.00     0.015 C 
BRANCH   5   6
ATOM      6  C   UNL     1      -7.268  72.007  25.136  1.00  0.00     0.028 C 
BRANCH   6   7
ATOM      7  C   UNL     1      -6.601  71.079  24.142  1.00  0.00    -0.028 C 
ATOM      8  C   UNL     1      -6.133  71.404  22.912  1.00  0.00    -0.070 CG0
ATOM      9  C   UNL     1      -5.610  70.284  22.046  1.00  0.00     0.039 C 
ATOM     10  G   UNL     1      -6.024  72.824  22.388  1.00  0.00     0.000 G0
ENDBRANCH   6   7
ENDBRANCH   5   6
ENDBRANCH   3   5
ENDBRANCH   1   3
BRANCH   1  11
ATOM     11  C   UNL     1      -8.362  74.638  22.578  1.00  0.00     0.087 C 
BRANCH  11  12
ATOM     12  C   UNL     1      -8.299  73.712  21.328  1.00  0.00     0.066 C 
BRANCH  12  13
ATOM     13  C   UNL     1      -6.927  73.066  21.191  1.00  0.00     0.140 C 
ATOM     14  O   UNL     1      -6.544  72.705  20.087  1.00  0.00    -0.299 OA
BRANCH  13  15
ATOM     15  C   UNL     1      -6.024  72.834  22.386  1.00  0.00     0.106 CG0
ATOM     16  G   UNL     1      -6.158  71.411  22.896  1.00  0.00     0.000 G0
ENDBRANCH  13  15
ENDBRANCH  12  13
BRANCH  12  17
ATOM     17  C   UNL     1      -8.733  74.457  20.028  1.00  0.00    -0.006 C 
ATOM     18  C   UNL     1      -8.001  75.799  19.878  1.00  0.00     0.008 C 
ATOM     19  C   UNL     1     -10.253  74.665  19.900  1.00  0.00     0.008 C 
ENDBRANCH  12  17
ENDBRANCH  11  12
ENDBRANCH   1  11
TORSDOF 1
ENDMDL
MODEL 4
REMARK VINA RESULT:    -3.467     11.461     13.981
REMARK INTER + INTRA:          -5.127
REMARK INTER:                  -4.775
REMARK INTRA:                  -0.353
REMARK UNBOUND:                 0.164
REMARK SMILES CC1=CCC[C@H](C)C(=O)C[C@@H](C(C)C)C(=O)C1
REMARK SMILES IDX 8 1 9 2 6 3 7 4 5 5 4 6 3 7 2 8 1 9 10 11 11 12 15 13 16 14
REMARK SMILES IDX 17 15 12 17 13 18 14 19
REMARK H PARENT
REMARK Flexibility Score: 70.00
ROOT
ATOM      1  C   UNL     1      -4.837  67.595  34.009  1.00  0.00     0.136 C 
ATOM      2  O   UNL     1      -4.056  66.694  33.735  1.00  0.00    -0.299 OA
ENDROOT
BRANCH   1   3
ATOM      3  C   UNL     1      -6.262  67.527  33.507  1.00  0.00     0.053 C 
ATOM      4  C   UNL     1      -6.309  67.363  31.985  1.00  0.00     0.016 C 
BRANCH   3   5
ATOM      5  C   UNL     1      -6.996  66.369  34.227  1.00  0.00     0.015 C 
BRANCH   5   6
ATOM      6  C   UNL     1      -7.907  66.775  35.403  1.00  0.00     0.028 C 
BRANCH   6   7
ATOM      7  C   UNL     1      -8.406  68.205  35.427  1.00  0.00    -0.028 C 
ATOM      8  C   UNL     1      -8.123  69.151  36.355  1.00  0.00    -0.070 CG0
ATOM      9  C   UNL     1      -8.831  70.479  36.237  1.00  0.00     0.039 C 
ATOM     10  G   UNL     1      -7.082  68.991  37.449  1.00  0.00     0.000 G0
ENDBRANCH   6   7
ENDBRANCH   5   6
ENDBRANCH   3   5
ENDBRANCH   1   3
BRANCH   1  11
ATOM     11  C   UNL     1      -4.380  68.722  34.906  1.00  0.00     0.087 C 
BRANCH  11  12
ATOM     12  C   UNL     1      -4.686  68.449  36.408  1.00  0.00     0.066 C 
BRANCH  12  13
ATOM     13  C   UNL     1      -5.709  69.438  36.950  1.00  0.00     0.140 C 
ATOM     14  O   UNL     1      -5.424  70.627  36.997  1.00  0.00    -0.299 OA
BRANCH  13  15
ATOM     15  C   UNL     1      -7.067  68.994  37.455  1.00  0.00     0.106 CG0
ATOM     16  G   UNL     1      -8.118  69.127  36.368  1.00  0.00     0.000 G0
ENDBRANCH  13  15
ENDBRANCH  12  13
BRANCH  12  17
ATOM     17  C   UNL     1      -3.386  68.414  37.270  1.00  0.00    -0.006 C 
ATOM     18  C   UNL     1      -2.143  68.741  36.427  1.00  0.00     0.008 C 
ATOM     19  C   UNL     1      -3.175  67.096  38.037  1.00  0.00     0.008 C 
ENDBRANCH  12  17
ENDBRANCH  11  12
ENDBRANCH   1  11
TORSDOF 1
ENDMDL
MODEL 5
REMARK VINA RESULT:    -3.211     11.003     13.699
REMARK INTER + INTRA:          -4.736
REMARK INTER:                  -4.817
REMARK INTRA:                   0.080
REMARK UNBOUND:                 0.164
REMARK SMILES CC1=CCC[C@H](C)C(=O)C[C@@H](C(C)C)C(=O)C1
REMARK SMILES IDX 8 1 9 2 6 3 7 4 5 5 4 6 3 7 2 8 1 9 10 11 11 12 15 13 16 14
REMARK SMILES IDX 17 15 12 17 13 18 14 19
REMARK H PARENT
REMARK Flexibility Score: 70.00
ROOT
ATOM      1  C   UNL     1      -4.333  67.551  36.236  1.00  0.00     0.136 C 
ATOM      2  O   UNL     1      -4.560  66.993  37.299  1.00  0.00    -0.299 OA
ENDROOT
BRANCH   1   3
ATOM      3  C   UNL     1      -3.730  68.938  36.233  1.00  0.00     0.053 C 
ATOM      4  C   UNL     1      -3.710  69.534  34.821  1.00  0.00     0.016 C 
BRANCH   3   5
ATOM      5  C   UNL     1      -4.522  69.833  37.217  1.00  0.00     0.015 C 
BRANCH   5   6
ATOM      6  C   UNL     1      -5.864  70.386  36.697  1.00  0.00     0.028 C 
BRANCH   6   7
ATOM      7  C   UNL     1      -7.126  69.717  37.198  1.00  0.00    -0.028 C 
ATOM      8  C   UNL     1      -8.049  69.059  36.455  1.00  0.00    -0.070 CG0
ATOM      9  C   UNL     1      -9.293  68.572  37.158  1.00  0.00     0.039 C 
ATOM     10  G   UNL     1      -7.872  68.707  34.989  1.00  0.00     0.000 G0
ENDBRANCH   6   7
ENDBRANCH   5   6
ENDBRANCH   3   5
ENDBRANCH   1   3
BRANCH   1  11
ATOM     11  C   UNL     1      -4.594  66.813  34.942  1.00  0.00     0.087 C 
BRANCH  11  12
ATOM     12  C   UNL     1      -5.699  67.492  34.082  1.00  0.00     0.066 C 
BRANCH  12  13
ATOM     13  C   UNL     1      -7.047  67.456  34.790  1.00  0.00     0.140 C 
ATOM     14  O   UNL     1      -7.477  66.388  35.203  1.00  0.00    -0.299 OA
BRANCH  13  15
ATOM     15  C   UNL     1      -7.889  68.702  34.980  1.00  0.00     0.106 CG0
ATOM     16  G   UNL     1      -8.038  69.033  36.454  1.00  0.00     0.000 G0
ENDBRANCH  13  15
ENDBRANCH  12  13
BRANCH  12  17
ATOM     17  C   UNL     1      -5.771  66.890  32.645  1.00  0.00    -0.006 C 
ATOM     18  C   UNL     1      -4.398  66.383  32.178  1.00  0.00     0.008 C 
ATOM     19  C   UNL     1      -6.370  67.841  31.594  1.00  0.00     0.008 C 
ENDBRANCH  12  17
ENDBRANCH  11  12
ENDBRANCH   1  11
TORSDOF 1
ENDMDL
MODEL 6
REMARK VINA RESULT:    -3.170     12.150     13.839
REMARK INTER + INTRA:          -4.674
REMARK INTER:                  -4.668
REMARK INTRA:                  -0.006
REMARK UNBOUND:                 0.164
REMARK SMILES CC1=CCC[C@H](C)C(=O)C[C@@H](C(C)C)C(=O)C1
REMARK SMILES IDX 8 1 9 2 6 3 7 4 5 5 4 6 3 7 2 8 1 9 10 11 11 12 15 13 16 14
REMARK SMILES IDX 17 15 12 17 13 18 14 19
REMARK H PARENT
REMARK Flexibility Score: 70.00
ROOT
ATOM      1  C   UNL     1      -7.760  68.011  35.352  1.00  0.00     0.136 C 
ATOM      2  O   UNL     1      -8.027  66.862  35.674  1.00  0.00    -0.299 OA
ENDROOT
BRANCH   1   3
ATOM      3  C   UNL     1      -8.408  69.163  36.087  1.00  0.00     0.053 C 
ATOM      4  C   UNL     1      -9.419  68.664  37.125  1.00  0.00     0.016 C 
BRANCH   3   5
ATOM      5  C   UNL     1      -7.304  70.031  36.738  1.00  0.00     0.015 C 
BRANCH   5   6
ATOM      6  C   UNL     1      -6.260  69.272  37.582  1.00  0.00     0.028 C 
BRANCH   6   7
ATOM      7  C   UNL     1      -4.865  69.859  37.644  1.00  0.00    -0.028 C 
ATOM      8  C   UNL     1      -3.721  69.290  37.191  1.00  0.00    -0.070 CG0
ATOM      9  C   UNL     1      -2.426  70.013  37.468  1.00  0.00     0.039 C 
ATOM     10  G   UNL     1      -3.670  68.025  36.354  1.00  0.00     0.000 G0
ENDBRANCH   6   7
ENDBRANCH   5   6
ENDBRANCH   3   5
ENDBRANCH   1   3
BRANCH   1  11
ATOM     11  C   UNL     1      -6.731  68.256  34.273  1.00  0.00     0.087 C 
BRANCH  11  12
ATOM     12  C   UNL     1      -5.447  67.398  34.469  1.00  0.00     0.066 C 
BRANCH  12  13
ATOM     13  C   UNL     1      -4.289  68.247  34.976  1.00  0.00     0.140 C 
ATOM     14  O   UNL     1      -3.836  69.129  34.259  1.00  0.00    -0.299 OA
BRANCH  13  15
ATOM     15  C   UNL     1      -3.660  68.021  36.336  1.00  0.00     0.106 CG0
ATOM     16  G   UNL     1      -3.727  69.282  37.178  1.00  0.00     0.000 G0
ENDBRANCH  13  15
ENDBRANCH  12  13
BRANCH  12  17
ATOM     17  C   UNL     1      -5.075  66.603  33.180  1.00  0.00    -0.006 C 
ATOM     18  C   UNL     1      -6.323  66.258  32.352  1.00  0.00     0.008 C 
ATOM     19  C   UNL     1      -4.245  65.333  33.441  1.00  0.00     0.008 C 
ENDBRANCH  12  17
ENDBRANCH  11  12
ENDBRANCH   1  11
TORSDOF 1
ENDMDL
MODEL 7
REMARK VINA RESULT:    -3.116     12.091     14.221
REMARK INTER + INTRA:          -4.591
REMARK INTER:                  -4.540
REMARK INTRA:                  -0.052
REMARK UNBOUND:                 0.164
REMARK SMILES CC1=CCC[C@H](C)C(=O)C[C@@H](C(C)C)C(=O)C1
REMARK SMILES IDX 8 1 9 2 6 3 7 4 5 5 4 6 3 7 2 8 1 9 10 11 11 12 15 13 16 14
REMARK SMILES IDX 17 15 12 17 13 18 14 19
REMARK H PARENT
REMARK Flexibility Score: 70.00
ROOT
ATOM      1  C   UNL     1      -7.666  68.201  35.210  1.00  0.00     0.136 C 
ATOM      2  O   UNL     1      -8.354  69.202  35.350  1.00  0.00    -0.299 OA
ENDROOT
BRANCH   1   3
ATOM      3  C   UNL     1      -8.047  66.926  35.929  1.00  0.00     0.053 C 
ATOM      4  C   UNL     1      -7.817  65.697  35.042  1.00  0.00     0.016 C 
BRANCH   3   5
ATOM      5  C   UNL     1      -7.245  66.833  37.250  1.00  0.00     0.015 C 
BRANCH   5   6
ATOM      6  C   UNL     1      -7.187  68.120  38.095  1.00  0.00     0.028 C 
BRANCH   6   7
ATOM      7  C   UNL     1      -5.829  68.544  38.614  1.00  0.00    -0.028 C 
ATOM      8  C   UNL     1      -4.924  69.331  37.982  1.00  0.00    -0.070 CG0
ATOM      9  C   UNL     1      -3.583  69.524  38.646  1.00  0.00     0.039 C 
ATOM     10  G   UNL     1      -5.205  70.094  36.700  1.00  0.00     0.000 G0
ENDBRANCH   6   7
ENDBRANCH   5   6
ENDBRANCH   3   5
ENDBRANCH   1   3
BRANCH   1  11
ATOM     11  C   UNL     1      -6.488  68.239  34.264  1.00  0.00     0.087 C 
BRANCH  11  12
ATOM     12  C   UNL     1      -5.127  68.067  35.001  1.00  0.00     0.066 C 
BRANCH  12  13
ATOM     13  C   UNL     1      -4.598  69.406  35.498  1.00  0.00     0.140 C 
ATOM     14  O   UNL     1      -3.656  69.928  34.918  1.00  0.00    -0.299 OA
BRANCH  13  15
ATOM     15  C   UNL     1      -5.187  70.106  36.706  1.00  0.00     0.106 CG0
ATOM     16  G   UNL     1      -4.928  69.308  37.972  1.00  0.00     0.000 G0
ENDBRANCH  13  15
ENDBRANCH  12  13
BRANCH  12  17
ATOM     17  C   UNL     1      -4.083  67.307  34.127  1.00  0.00    -0.006 C 
ATOM     18  C   UNL     1      -4.320  67.551  32.628  1.00  0.00     0.008 C 
ATOM     19  C   UNL     1      -4.004  65.797  34.411  1.00  0.00     0.008 C 
ENDBRANCH  12  17
ENDBRANCH  11  12
ENDBRANCH   1  11
TORSDOF 1
ENDMDL
MODEL 8
REMARK VINA RESULT:    -3.076     10.020     12.501
REMARK INTER + INTRA:          -4.530
REMARK INTER:                  -4.674
REMARK INTRA:                   0.143
REMARK UNBOUND:                 0.164
REMARK SMILES CC1=CCC[C@H](C)C(=O)C[C@@H](C(C)C)C(=O)C1
REMARK SMILES IDX 8 1 9 2 6 3 7 4 5 5 4 6 3 7 2 8 1 9 10 11 11 12 15 13 16 14
REMARK SMILES IDX 17 15 12 17 13 18 14 19
REMARK H PARENT
REMARK Flexibility Score: 70.00
ROOT
ATOM      1  C   UNL     1      -5.751  67.282  31.170  1.00  0.00     0.136 C 
ATOM      2  O   UNL     1      -6.404  68.240  30.782  1.00  0.00    -0.299 OA
ENDROOT
BRANCH   1   3
ATOM      3  C   UNL     1      -4.387  67.015  30.573  1.00  0.00     0.053 C 
ATOM      4  C   UNL     1      -4.491  66.643  29.090  1.00  0.00     0.016 C 
BRANCH   3   5
ATOM      5  C   UNL     1      -3.492  68.261  30.787  1.00  0.00     0.015 C 
BRANCH   5   6
ATOM      6  C   UNL     1      -2.530  68.202  31.990  1.00  0.00     0.028 C 
BRANCH   6   7
ATOM      7  C   UNL     1      -2.890  69.036  33.202  1.00  0.00    -0.028 C 
ATOM      8  C   UNL     1      -3.344  68.584  34.396  1.00  0.00    -0.070 CG0
ATOM      9  C   UNL     1      -3.750  69.613  35.423  1.00  0.00     0.039 C 
ATOM     10  G   UNL     1      -3.388  67.120  34.795  1.00  0.00     0.000 G0
ENDBRANCH   6   7
ENDBRANCH   5   6
ENDBRANCH   3   5
ENDBRANCH   1   3
BRANCH   1  11
ATOM     11  C   UNL     1      -6.292  66.423  32.290  1.00  0.00     0.087 C 
BRANCH  11  12
ATOM     12  C   UNL     1      -5.797  66.891  33.690  1.00  0.00     0.066 C 
BRANCH  12  13
ATOM     13  C   UNL     1      -4.408  66.346  33.993  1.00  0.00     0.140 C 
ATOM     14  O   UNL     1      -4.099  65.237  33.580  1.00  0.00    -0.299 OA
BRANCH  13  15
ATOM     15  C   UNL     1      -3.399  67.126  34.812  1.00  0.00     0.106 CG0
ATOM     16  G   UNL     1      -3.365  68.582  34.384  1.00  0.00     0.000 G0
ENDBRANCH  13  15
ENDBRANCH  12  13
BRANCH  12  17
ATOM     17  C   UNL     1      -6.823  66.550  34.815  1.00  0.00    -0.006 C 
ATOM     18  C   UNL     1      -7.859  65.520  34.338  1.00  0.00     0.008 C 
ATOM     19  C   UNL     1      -7.533  67.778  35.412  1.00  0.00     0.008 C 
ENDBRANCH  12  17
ENDBRANCH  11  12
ENDBRANCH   1  11
TORSDOF 1
ENDMDL
MODEL 9
REMARK VINA RESULT:    -3.074      3.485      5.588
REMARK INTER + INTRA:          -4.527
REMARK INTER:                  -4.579
REMARK INTRA:                   0.052
REMARK UNBOUND:                 0.164
REMARK SMILES CC1=CCC[C@H](C)C(=O)C[C@@H](C(C)C)C(=O)C1
REMARK SMILES IDX 8 1 9 2 6 3 7 4 5 5 4 6 3 7 2 8 1 9 10 11 11 12 15 13 16 14
REMARK SMILES IDX 17 15 12 17 13 18 14 19
REMARK H PARENT
REMARK Flexibility Score: 70.00
ROOT
ATOM      1  C   UNL     1      -5.358  71.470  24.571  1.00  0.00     0.136 C 
ATOM      2  O   UNL     1      -4.321  72.114  24.493  1.00  0.00    -0.299 OA
ENDROOT
BRANCH   1   3
ATOM      3  C   UNL     1      -6.484  71.745  23.599  1.00  0.00     0.053 C 
ATOM      4  C   UNL     1      -6.064  72.763  22.534  1.00  0.00     0.016 C 
BRANCH   3   5
ATOM      5  C   UNL     1      -6.936  70.408  22.962  1.00  0.00     0.015 C 
BRANCH   5   6
ATOM      6  C   UNL     1      -5.871  69.661  22.134  1.00  0.00     0.028 C 
BRANCH   6   7
ATOM      7  C   UNL     1      -5.987  68.153  22.061  1.00  0.00    -0.028 C 
ATOM      8  C   UNL     1      -5.968  67.283  23.101  1.00  0.00    -0.070 CG0
ATOM      9  C   UNL     1      -5.981  65.809  22.778  1.00  0.00     0.039 C 
ATOM     10  G   UNL     1      -6.019  67.696  24.561  1.00  0.00     0.000 G0
ENDBRANCH   6   7
ENDBRANCH   5   6
ENDBRANCH   3   5
ENDBRANCH   1   3
BRANCH   1  11
ATOM     11  C   UNL     1      -5.466  70.363  25.595  1.00  0.00     0.087 C 
BRANCH  11  12
ATOM     12  C   UNL     1      -4.237  69.407  25.568  1.00  0.00     0.066 C 
BRANCH  12  13
ATOM     13  C   UNL     1      -4.637  68.010  25.113  1.00  0.00     0.140 C 
ATOM     14  O   UNL     1      -3.816  67.105  25.171  1.00  0.00    -0.299 OA
BRANCH  13  15
ATOM     15  C   UNL     1      -6.017  67.706  24.566  1.00  0.00     0.106 CG0
ATOM     16  G   UNL     1      -5.940  67.281  23.110  1.00  0.00     0.000 G0
ENDBRANCH  13  15
ENDBRANCH  12  13
BRANCH  12  17
ATOM     17  C   UNL     1      -3.483  69.390  26.933  1.00  0.00    -0.006 C 
ATOM     18  C   UNL     1      -4.461  69.436  28.117  1.00  0.00     0.008 C 
ATOM     19  C   UNL     1      -2.421  70.494  27.079  1.00  0.00     0.008 C 
ENDBRANCH  12  17
ENDBRANCH  11  12
ENDBRANCH   1  11
TORSDOF 1
ENDMDL
