MODEL 1
REMARK VINA RESULT:    -5.701      0.000      0.000
REMARK INTER + INTRA:          -6.201
REMARK INTER:                  -6.201
REMARK INTRA:                   0.000
REMARK UNBOUND:                 0.000
REMARK SMILES Cc1cc(O)c2c(c1)C(=O)c1cc(O)cc(O)c1C2=O
REMARK SMILES IDX 1 1 2 2 8 3 7 4 6 5 4 6 3 7 19 8 20 9 18 10 11 11 9 12 10 13
REMARK SMILES IDX 12 14 13 15 15 16 16 17 5 18 17 20 14 22
REMARK H PARENT 5 19 17 21 14 23
REMARK Flexibility Score: inf
ROOT
ATOM      1  C   UNL     1      15.924  -1.875 -29.731  1.00  0.00     0.044 C 
ATOM      2  C   UNL     1      15.957  -2.965 -30.763  1.00  0.00    -0.047 A 
ATOM      3  C   UNL     1      17.040  -3.069 -31.642  1.00  0.00     0.016 A 
ATOM      4  C   UNL     1      17.094  -4.100 -32.595  1.00  0.00     0.038 A 
ATOM      5  C   UNL     1      16.045  -5.046 -32.670  1.00  0.00     0.076 A 
ATOM      6  C   UNL     1      15.001  -4.992 -31.708  1.00  0.00     0.127 A 
ATOM      7  C   UNL     1      14.956  -3.941 -30.787  1.00  0.00     0.050 A 
ATOM      8  C   UNL     1      16.055  -6.027 -33.790  1.00  0.00     0.201 C 
ATOM      9  O   UNL     1      14.987  -6.594 -34.147  1.00  0.00    -0.288 OA
ATOM     10  C   UNL     1      17.299  -6.259 -34.570  1.00  0.00     0.076 A 
ATOM     11  C   UNL     1      18.370  -5.348 -34.441  1.00  0.00     0.041 A 
ATOM     12  C   UNL     1      18.255  -4.202 -33.511  1.00  0.00     0.194 C 
ATOM     13  O   UNL     1      19.157  -3.319 -33.486  1.00  0.00    -0.289 OA
ATOM     14  C   UNL     1      19.540  -5.533 -35.199  1.00  0.00     0.059 A 
ATOM     15  C   UNL     1      19.654  -6.616 -36.076  1.00  0.00     0.120 A 
ATOM     16  C   UNL     1      18.601  -7.522 -36.200  1.00  0.00     0.093 A 
ATOM     17  C   UNL     1      17.426  -7.356 -35.455  1.00  0.00     0.131 A 
ENDROOT
BRANCH   6  18
ATOM     18  O   UNL     1      14.012  -5.974 -31.602  1.00  0.00    -0.507 OA
ATOM     19  H   UNL     1      13.998  -6.679 -30.879  1.00  0.00     0.293 HD
ENDBRANCH   6  18
BRANCH  17  20
ATOM     20  O   UNL     1      16.394  -8.284 -35.588  1.00  0.00    -0.507 OA
ATOM     21  H   UNL     1      15.908  -8.662 -34.782  1.00  0.00     0.293 HD
ENDBRANCH  17  20
BRANCH  15  22
ATOM     22  O   UNL     1      20.811  -6.802 -36.828  1.00  0.00    -0.508 OA
ATOM     23  H   UNL     1      21.004  -6.243 -37.652  1.00  0.00     0.293 HD
ENDBRANCH  15  22
TORSDOF 3
ENDMDL
MODEL 2
REMARK VINA RESULT:    -5.512      3.854      6.187
REMARK INTER + INTRA:          -5.995
REMARK INTER:                  -5.995
REMARK INTRA:                   0.000
REMARK UNBOUND:                 0.000
REMARK SMILES Cc1cc(O)c2c(c1)C(=O)c1cc(O)cc(O)c1C2=O
REMARK SMILES IDX 1 1 2 2 8 3 7 4 6 5 4 6 3 7 19 8 20 9 18 10 11 11 9 12 10 13
REMARK SMILES IDX 12 14 13 15 15 16 16 17 5 18 17 20 14 22
REMARK H PARENT 5 19 17 21 14 23
REMARK Flexibility Score: inf
ROOT
ATOM      1  C   UNL     1      10.935 -10.731 -35.771  1.00  0.00     0.044 C 
ATOM      2  C   UNL     1      12.051  -9.876 -36.296  1.00  0.00    -0.047 A 
ATOM      3  C   UNL     1      13.123  -9.532 -35.467  1.00  0.00     0.016 A 
ATOM      4  C   UNL     1      14.186  -8.753 -35.954  1.00  0.00     0.038 A 
ATOM      5  C   UNL     1      14.177  -8.310 -37.298  1.00  0.00     0.076 A 
ATOM      6  C   UNL     1      13.135  -8.749 -38.159  1.00  0.00     0.127 A 
ATOM      7  C   UNL     1      12.076  -9.502 -37.642  1.00  0.00     0.050 A 
ATOM      8  C   UNL     1      15.235  -7.358 -37.737  1.00  0.00     0.201 C 
ATOM      9  O   UNL     1      15.050  -6.629 -38.748  1.00  0.00    -0.288 OA
ATOM     10  C   UNL     1      16.464  -7.179 -36.921  1.00  0.00     0.076 A 
ATOM     11  C   UNL     1      16.493  -7.682 -35.603  1.00  0.00     0.041 A 
ATOM     12  C   UNL     1      15.320  -8.407 -35.064  1.00  0.00     0.194 C 
ATOM     13  O   UNL     1      15.295  -8.747 -33.849  1.00  0.00    -0.289 OA
ATOM     14  C   UNL     1      17.635  -7.488 -34.806  1.00  0.00     0.059 A 
ATOM     15  C   UNL     1      18.747  -6.807 -35.312  1.00  0.00     0.120 A 
ATOM     16  C   UNL     1      18.724  -6.316 -36.618  1.00  0.00     0.093 A 
ATOM     17  C   UNL     1      17.595  -6.496 -37.428  1.00  0.00     0.131 A 
ENDROOT
BRANCH   6  18
ATOM     18  O   UNL     1      13.128  -8.499 -39.534  1.00  0.00    -0.507 OA
ATOM     19  H   UNL     1      13.476  -9.149 -40.224  1.00  0.00     0.293 HD
ENDBRANCH   6  18
BRANCH  17  20
ATOM     20  O   UNL     1      17.606  -6.007 -38.733  1.00  0.00    -0.507 OA
ATOM     21  H   UNL     1      16.758  -5.944 -39.287  1.00  0.00     0.293 HD
ENDBRANCH  17  20
BRANCH  15  22
ATOM     22  O   UNL     1      19.880  -6.613 -34.526  1.00  0.00    -0.508 OA
ATOM     23  H   UNL     1      20.373  -5.727 -34.516  1.00  0.00     0.293 HD
ENDBRANCH  15  22
TORSDOF 3
ENDMDL
MODEL 3
REMARK VINA RESULT:    -5.420      1.980      3.794
REMARK INTER + INTRA:          -5.895
REMARK INTER:                  -5.895
REMARK INTRA:                   0.000
REMARK UNBOUND:                 0.000
REMARK SMILES Cc1cc(O)c2c(c1)C(=O)c1cc(O)cc(O)c1C2=O
REMARK SMILES IDX 1 1 2 2 8 3 7 4 6 5 4 6 3 7 19 8 20 9 18 10 11 11 9 12 10 13
REMARK SMILES IDX 12 14 13 15 15 16 16 17 5 18 17 20 14 22
REMARK H PARENT 5 19 17 21 14 23
REMARK Flexibility Score: inf
ROOT
ATOM      1  C   UNL     1      10.875  -6.376 -33.144  1.00  0.00     0.044 C 
ATOM      2  C   UNL     1      12.318  -5.961 -33.122  1.00  0.00    -0.047 A 
ATOM      3  C   UNL     1      13.292  -6.778 -33.705  1.00  0.00     0.016 A 
ATOM      4  C   UNL     1      14.643  -6.389 -33.712  1.00  0.00     0.038 A 
ATOM      5  C   UNL     1      15.026  -5.159 -33.128  1.00  0.00     0.076 A 
ATOM      6  C   UNL     1      14.016  -4.291 -32.629  1.00  0.00     0.127 A 
ATOM      7  C   UNL     1      12.684  -4.714 -32.609  1.00  0.00     0.050 A 
ATOM      8  C   UNL     1      16.478  -4.851 -33.012  1.00  0.00     0.201 C 
ATOM      9  O   UNL     1      16.883  -4.013 -32.162  1.00  0.00    -0.288 OA
ATOM     10  C   UNL     1      17.470  -5.613 -33.816  1.00  0.00     0.076 A 
ATOM     11  C   UNL     1      17.066  -6.805 -34.455  1.00  0.00     0.041 A 
ATOM     12  C   UNL     1      15.661  -7.261 -34.345  1.00  0.00     0.194 C 
ATOM     13  O   UNL     1      15.327  -8.387 -34.808  1.00  0.00    -0.289 OA
ATOM     14  C   UNL     1      18.001  -7.557 -35.188  1.00  0.00     0.059 A 
ATOM     15  C   UNL     1      19.327  -7.128 -35.297  1.00  0.00     0.120 A 
ATOM     16  C   UNL     1      19.728  -5.946 -34.674  1.00  0.00     0.093 A 
ATOM     17  C   UNL     1      18.812  -5.183 -33.936  1.00  0.00     0.131 A 
ENDROOT
BRANCH   6  18
ATOM     18  O   UNL     1      14.281  -2.994 -32.182  1.00  0.00    -0.507 OA
ATOM     19  H   UNL     1      14.264  -2.722 -31.210  1.00  0.00     0.293 HD
ENDBRANCH   6  18
BRANCH  17  20
ATOM     20  O   UNL     1      19.237  -3.999 -33.335  1.00  0.00    -0.507 OA
ATOM     21  H   UNL     1      19.874  -4.000 -32.546  1.00  0.00     0.293 HD
ENDBRANCH  17  20
BRANCH  15  22
ATOM     22  O   UNL     1      20.256  -7.870 -36.024  1.00  0.00    -0.508 OA
ATOM     23  H   UNL     1      20.794  -7.454 -36.777  1.00  0.00     0.293 HD
ENDBRANCH  15  22
TORSDOF 3
ENDMDL
MODEL 4
REMARK VINA RESULT:    -5.401      3.760      5.633
REMARK INTER + INTRA:          -5.875
REMARK INTER:                  -5.875
REMARK INTRA:                   0.000
REMARK UNBOUND:                 0.000
REMARK SMILES Cc1cc(O)c2c(c1)C(=O)c1cc(O)cc(O)c1C2=O
REMARK SMILES IDX 1 1 2 2 8 3 7 4 6 5 4 6 3 7 19 8 20 9 18 10 11 11 9 12 10 13
REMARK SMILES IDX 12 14 13 15 15 16 16 17 5 18 17 20 14 22
REMARK H PARENT 5 19 17 21 14 23
REMARK Flexibility Score: inf
ROOT
ATOM      1  C   UNL     1      13.709  -8.245 -34.827  1.00  0.00     0.044 C 
ATOM      2  C   UNL     1      15.112  -7.954 -35.276  1.00  0.00    -0.047 A 
ATOM      3  C   UNL     1      15.392  -7.777 -36.634  1.00  0.00     0.016 A 
ATOM      4  C   UNL     1      16.697  -7.480 -37.064  1.00  0.00     0.038 A 
ATOM      5  C   UNL     1      17.740  -7.356 -36.117  1.00  0.00     0.076 A 
ATOM      6  C   UNL     1      17.426  -7.438 -34.733  1.00  0.00     0.127 A 
ATOM      7  C   UNL     1      16.126  -7.761 -34.333  1.00  0.00     0.050 A 
ATOM      8  C   UNL     1      19.135  -7.198 -36.616  1.00  0.00     0.201 C 
ATOM      9  O   UNL     1      20.110  -7.495 -35.875  1.00  0.00    -0.288 OA
ATOM     10  C   UNL     1      19.383  -6.801 -38.026  1.00  0.00     0.076 A 
ATOM     11  C   UNL     1      18.322  -6.862 -38.954  1.00  0.00     0.041 A 
ATOM     12  C   UNL     1      16.975  -7.284 -38.507  1.00  0.00     0.194 C 
ATOM     13  O   UNL     1      16.057  -7.459 -39.355  1.00  0.00    -0.289 OA
ATOM     14  C   UNL     1      18.550  -6.525 -40.300  1.00  0.00     0.059 A 
ATOM     15  C   UNL     1      19.819  -6.122 -40.726  1.00  0.00     0.120 A 
ATOM     16  C   UNL     1      20.869  -6.054 -39.810  1.00  0.00     0.093 A 
ATOM     17  C   UNL     1      20.663  -6.387 -38.464  1.00  0.00     0.131 A 
ENDROOT
BRANCH   6  18
ATOM     18  O   UNL     1      18.355  -7.170 -33.725  1.00  0.00    -0.507 OA
ATOM     19  H   UNL     1      19.341  -7.370 -33.803  1.00  0.00     0.293 HD
ENDBRANCH   6  18
BRANCH  17  20
ATOM     20  O   UNL     1      21.727  -6.297 -37.568  1.00  0.00    -0.507 OA
ATOM     21  H   UNL     1      21.638  -6.591 -36.601  1.00  0.00     0.293 HD
ENDBRANCH  17  20
BRANCH  15  22
ATOM     22  O   UNL     1      20.049  -5.787 -42.058  1.00  0.00    -0.508 OA
ATOM     23  H   UNL     1      20.964  -5.894 -42.482  1.00  0.00     0.293 HD
ENDBRANCH  15  22
TORSDOF 3
ENDMDL
MODEL 5
REMARK VINA RESULT:    -5.276      1.896      4.868
REMARK INTER + INTRA:          -5.738
REMARK INTER:                  -5.738
REMARK INTRA:                   0.000
REMARK UNBOUND:                 0.000
REMARK SMILES Cc1cc(O)c2c(c1)C(=O)c1cc(O)cc(O)c1C2=O
REMARK SMILES IDX 1 1 2 2 8 3 7 4 6 5 4 6 3 7 19 8 20 9 18 10 11 11 9 12 10 13
REMARK SMILES IDX 12 14 13 15 15 16 16 17 5 18 17 20 14 22
REMARK H PARENT 5 19 17 21 14 23
REMARK Flexibility Score: inf
ROOT
ATOM      1  C   UNL     1      20.544  -1.876 -34.225  1.00  0.00     0.044 C 
ATOM      2  C   UNL     1      19.689  -3.100 -34.376  1.00  0.00    -0.047 A 
ATOM      3  C   UNL     1      18.634  -3.335 -33.490  1.00  0.00     0.016 A 
ATOM      4  C   UNL     1      17.812  -4.466 -33.637  1.00  0.00     0.038 A 
ATOM      5  C   UNL     1      18.050  -5.378 -34.691  1.00  0.00     0.076 A 
ATOM      6  C   UNL     1      19.060  -5.078 -35.645  1.00  0.00     0.127 A 
ATOM      7  C   UNL     1      19.881  -3.961 -35.461  1.00  0.00     0.050 A 
ATOM      8  C   UNL     1      17.264  -6.643 -34.725  1.00  0.00     0.201 C 
ATOM      9  O   UNL     1      17.699  -7.643 -35.358  1.00  0.00    -0.288 OA
ATOM     10  C   UNL     1      16.022  -6.772 -33.919  1.00  0.00     0.076 A 
ATOM     11  C   UNL     1      15.754  -5.820 -32.912  1.00  0.00     0.041 A 
ATOM     12  C   UNL     1      16.689  -4.693 -32.695  1.00  0.00     0.194 C 
ATOM     13  O   UNL     1      16.519  -3.914 -31.718  1.00  0.00    -0.289 OA
ATOM     14  C   UNL     1      14.602  -5.950 -32.116  1.00  0.00     0.059 A 
ATOM     15  C   UNL     1      13.714  -7.011 -32.320  1.00  0.00     0.120 A 
ATOM     16  C   UNL     1      13.972  -7.949 -33.320  1.00  0.00     0.093 A 
ATOM     17  C   UNL     1      15.115  -7.840 -34.122  1.00  0.00     0.131 A 
ENDROOT
BRANCH   6  18
ATOM     18  O   UNL     1      19.260  -5.832 -36.804  1.00  0.00    -0.507 OA
ATOM     19  H   UNL     1      18.573  -5.924 -37.538  1.00  0.00     0.293 HD
ENDBRANCH   6  18
BRANCH  17  20
ATOM     20  O   UNL     1      15.341  -8.784 -35.123  1.00  0.00    -0.507 OA
ATOM     21  H   UNL     1      15.370  -9.778 -34.922  1.00  0.00     0.293 HD
ENDBRANCH  17  20
BRANCH  15  22
ATOM     22  O   UNL     1      12.571  -7.142 -31.534  1.00  0.00    -0.508 OA
ATOM     23  H   UNL     1      11.643  -7.108 -31.940  1.00  0.00     0.293 HD
ENDBRANCH  15  22
TORSDOF 3
ENDMDL
MODEL 6
REMARK VINA RESULT:    -5.221      3.687      7.294
REMARK INTER + INTRA:          -5.679
REMARK INTER:                  -5.679
REMARK INTRA:                   0.000
REMARK UNBOUND:                 0.000
REMARK SMILES Cc1cc(O)c2c(c1)C(=O)c1cc(O)cc(O)c1C2=O
REMARK SMILES IDX 1 1 2 2 8 3 7 4 6 5 4 6 3 7 19 8 20 9 18 10 11 11 9 12 10 13
REMARK SMILES IDX 12 14 13 15 15 16 16 17 5 18 17 20 14 22
REMARK H PARENT 5 19 17 21 14 23
REMARK Flexibility Score: inf
ROOT
ATOM      1  C   UNL     1      20.170  -6.281 -42.125  1.00  0.00     0.044 C 
ATOM      2  C   UNL     1      19.841  -6.391 -40.665  1.00  0.00    -0.047 A 
ATOM      3  C   UNL     1      18.542  -6.714 -40.259  1.00  0.00     0.016 A 
ATOM      4  C   UNL     1      18.228  -6.844 -38.896  1.00  0.00     0.038 A 
ATOM      5  C   UNL     1      19.232  -6.648 -37.919  1.00  0.00     0.076 A 
ATOM      6  C   UNL     1      20.569  -6.420 -38.344  1.00  0.00     0.127 A 
ATOM      7  C   UNL     1      20.850  -6.269 -39.705  1.00  0.00     0.050 A 
ATOM      8  C   UNL     1      18.832  -6.637 -36.484  1.00  0.00     0.201 C 
ATOM      9  O   UNL     1      19.564  -6.073 -35.627  1.00  0.00    -0.288 OA
ATOM     10  C   UNL     1      17.515  -7.187 -36.072  1.00  0.00     0.076 A 
ATOM     11  C   UNL     1      16.539  -7.445 -37.057  1.00  0.00     0.041 A 
ATOM     12  C   UNL     1      16.848  -7.198 -38.484  1.00  0.00     0.194 C 
ATOM     13  O   UNL     1      15.940  -7.308 -39.353  1.00  0.00    -0.289 OA
ATOM     14  C   UNL     1      15.274  -7.931 -36.679  1.00  0.00     0.059 A 
ATOM     15  C   UNL     1      14.979  -8.169 -35.333  1.00  0.00     0.120 A 
ATOM     16  C   UNL     1      15.945  -7.923 -34.357  1.00  0.00     0.093 A 
ATOM     17  C   UNL     1      17.210  -7.437 -34.712  1.00  0.00     0.131 A 
ENDROOT
BRANCH   6  18
ATOM     18  O   UNL     1      21.651  -6.376 -37.461  1.00  0.00    -0.507 OA
ATOM     19  H   UNL     1      21.653  -6.820 -36.554  1.00  0.00     0.293 HD
ENDBRANCH   6  18
BRANCH  17  20
ATOM     20  O   UNL     1      18.160  -7.213 -33.717  1.00  0.00    -0.507 OA
ATOM     21  H   UNL     1      18.521  -6.285 -33.523  1.00  0.00     0.293 HD
ENDBRANCH  17  20
BRANCH  15  22
ATOM     22  O   UNL     1      13.728  -8.651 -34.955  1.00  0.00    -0.508 OA
ATOM     23  H   UNL     1      13.605  -9.600 -34.620  1.00  0.00     0.293 HD
ENDBRANCH  15  22
TORSDOF 3
ENDMDL
MODEL 7
REMARK VINA RESULT:    -5.112      4.140      6.602
REMARK INTER + INTRA:          -5.561
REMARK INTER:                  -5.561
REMARK INTRA:                   0.000
REMARK UNBOUND:                 0.000
REMARK SMILES Cc1cc(O)c2c(c1)C(=O)c1cc(O)cc(O)c1C2=O
REMARK SMILES IDX 1 1 2 2 8 3 7 4 6 5 4 6 3 7 19 8 20 9 18 10 11 11 9 12 10 13
REMARK SMILES IDX 12 14 13 15 15 16 16 17 5 18 17 20 14 22
REMARK H PARENT 5 19 17 21 14 23
REMARK Flexibility Score: inf
ROOT
ATOM      1  C   UNL     1      20.842  -5.315 -39.719  1.00  0.00     0.044 C 
ATOM      2  C   UNL     1      19.947  -5.908 -38.669  1.00  0.00    -0.047 A 
ATOM      3  C   UNL     1      18.583  -6.078 -38.923  1.00  0.00     0.016 A 
ATOM      4  C   UNL     1      17.741  -6.655 -37.957  1.00  0.00     0.038 A 
ATOM      5  C   UNL     1      18.273  -7.070 -36.714  1.00  0.00     0.076 A 
ATOM      6  C   UNL     1      19.677  -6.985 -36.505  1.00  0.00     0.127 A 
ATOM      7  C   UNL     1      20.489  -6.383 -37.471  1.00  0.00     0.050 A 
ATOM      8  C   UNL     1      17.330  -7.529 -35.657  1.00  0.00     0.201 C 
ATOM      9  O   UNL     1      17.678  -7.510 -34.445  1.00  0.00    -0.288 OA
ATOM     10  C   UNL     1      15.936  -7.903 -36.010  1.00  0.00     0.076 A 
ATOM     11  C   UNL     1      15.430  -7.546 -37.278  1.00  0.00     0.041 A 
ATOM     12  C   UNL     1      16.298  -6.839 -38.247  1.00  0.00     0.194 C 
ATOM     13  O   UNL     1      15.813  -6.409 -39.330  1.00  0.00    -0.289 OA
ATOM     14  C   UNL     1      14.101  -7.860 -37.614  1.00  0.00     0.059 A 
ATOM     15  C   UNL     1      13.278  -8.531 -36.704  1.00  0.00     0.120 A 
ATOM     16  C   UNL     1      13.778  -8.892 -35.453  1.00  0.00     0.093 A 
ATOM     17  C   UNL     1      15.099  -8.587 -35.098  1.00  0.00     0.131 A 
ENDROOT
BRANCH   6  18
ATOM     18  O   UNL     1      20.312  -7.516 -35.380  1.00  0.00    -0.507 OA
ATOM     19  H   UNL     1      20.878  -8.352 -35.398  1.00  0.00     0.293 HD
ENDBRANCH   6  18
BRANCH  17  20
ATOM     20  O   UNL     1      15.576  -8.972 -33.845  1.00  0.00    -0.507 OA
ATOM     21  H   UNL     1      15.011  -9.519 -33.204  1.00  0.00     0.293 HD
ENDBRANCH  17  20
BRANCH  15  22
ATOM     22  O   UNL     1      11.961  -8.844 -37.033  1.00  0.00    -0.508 OA
ATOM     23  H   UNL     1      11.587  -9.776 -36.892  1.00  0.00     0.293 HD
ENDBRANCH  15  22
TORSDOF 3
ENDMDL
MODEL 8
REMARK VINA RESULT:    -5.039      2.003      4.697
REMARK INTER + INTRA:          -5.481
REMARK INTER:                  -5.481
REMARK INTRA:                   0.000
REMARK UNBOUND:                 0.000
REMARK SMILES Cc1cc(O)c2c(c1)C(=O)c1cc(O)cc(O)c1C2=O
REMARK SMILES IDX 1 1 2 2 8 3 7 4 6 5 4 6 3 7 19 8 20 9 18 10 11 11 9 12 10 13
REMARK SMILES IDX 12 14 13 15 15 16 16 17 5 18 17 20 14 22
REMARK H PARENT 5 19 17 21 14 23
REMARK Flexibility Score: inf
ROOT
ATOM      1  C   UNL     1      14.280  -9.360 -35.000  1.00  0.00     0.044 C 
ATOM      2  C   UNL     1      14.681  -8.118 -34.259  1.00  0.00    -0.047 A 
ATOM      3  C   UNL     1      15.926  -7.528 -34.498  1.00  0.00     0.016 A 
ATOM      4  C   UNL     1      16.302  -6.350 -33.829  1.00  0.00     0.038 A 
ATOM      5  C   UNL     1      15.416  -5.752 -32.903  1.00  0.00     0.076 A 
ATOM      6  C   UNL     1      14.115  -6.302 -32.742  1.00  0.00     0.127 A 
ATOM      7  C   UNL     1      13.776  -7.489 -33.400  1.00  0.00     0.050 A 
ATOM      8  C   UNL     1      15.905  -4.600 -32.096  1.00  0.00     0.201 C 
ATOM      9  O   UNL     1      15.343  -4.304 -31.007  1.00  0.00    -0.288 OA
ATOM     10  C   UNL     1      17.128  -3.864 -32.511  1.00  0.00     0.076 A 
ATOM     11  C   UNL     1      17.975  -4.433 -33.485  1.00  0.00     0.041 A 
ATOM     12  C   UNL     1      17.621  -5.731 -34.103  1.00  0.00     0.194 C 
ATOM     13  O   UNL     1      18.436  -6.301 -34.880  1.00  0.00    -0.289 OA
ATOM     14  C   UNL     1      19.155  -3.767 -33.861  1.00  0.00     0.059 A 
ATOM     15  C   UNL     1      19.493  -2.539 -33.282  1.00  0.00     0.120 A 
ATOM     16  C   UNL     1      18.653  -1.970 -32.325  1.00  0.00     0.093 A 
ATOM     17  C   UNL     1      17.474  -2.618 -31.935  1.00  0.00     0.131 A 
ENDROOT
BRANCH   6  18
ATOM     18  O   UNL     1      13.119  -5.691 -31.977  1.00  0.00    -0.507 OA
ATOM     19  H   UNL     1      13.061  -5.764 -30.971  1.00  0.00     0.293 HD
ENDBRANCH   6  18
BRANCH  17  20
ATOM     20  O   UNL     1      16.647  -2.019 -30.985  1.00  0.00    -0.507 OA
ATOM     21  H   UNL     1      16.300  -2.530 -30.180  1.00  0.00     0.293 HD
ENDBRANCH  17  20
BRANCH  15  22
ATOM     22  O   UNL     1      20.660  -1.876 -33.652  1.00  0.00    -0.508 OA
ATOM     23  H   UNL     1      20.850  -1.636 -34.620  1.00  0.00     0.293 HD
ENDBRANCH  15  22
TORSDOF 3
ENDMDL
MODEL 9
REMARK VINA RESULT:    -5.030      3.213      7.690
REMARK INTER + INTRA:          -5.471
REMARK INTER:                  -5.471
REMARK INTRA:                   0.000
REMARK UNBOUND:                 0.000
REMARK SMILES Cc1cc(O)c2c(c1)C(=O)c1cc(O)cc(O)c1C2=O
REMARK SMILES IDX 1 1 2 2 8 3 7 4 6 5 4 6 3 7 19 8 20 9 18 10 11 11 9 12 10 13
REMARK SMILES IDX 12 14 13 15 15 16 16 17 5 18 17 20 14 22
REMARK H PARENT 5 19 17 21 14 23
REMARK Flexibility Score: inf
ROOT
ATOM      1  C   UNL     1      22.364  -6.079 -42.118  1.00  0.00     0.044 C 
ATOM      2  C   UNL     1      21.867  -5.701 -40.753  1.00  0.00    -0.047 A 
ATOM      3  C   UNL     1      20.849  -6.442 -40.145  1.00  0.00     0.016 A 
ATOM      4  C   UNL     1      20.392  -6.113 -38.857  1.00  0.00     0.038 A 
ATOM      5  C   UNL     1      20.966  -5.022 -38.163  1.00  0.00     0.076 A 
ATOM      6  C   UNL     1      22.068  -4.339 -38.747  1.00  0.00     0.127 A 
ATOM      7  C   UNL     1      22.485  -4.669 -40.040  1.00  0.00     0.050 A 
ATOM      8  C   UNL     1      20.354  -4.603 -36.872  1.00  0.00     0.201 C 
ATOM      9  O   UNL     1      20.537  -3.436 -36.433  1.00  0.00    -0.288 OA
ATOM     10  C   UNL     1      19.431  -5.518 -36.151  1.00  0.00     0.076 A 
ATOM     11  C   UNL     1      18.913  -6.644 -36.826  1.00  0.00     0.041 A 
ATOM     12  C   UNL     1      19.320  -6.917 -38.223  1.00  0.00     0.194 C 
ATOM     13  O   UNL     1      18.764  -7.848 -38.869  1.00  0.00    -0.289 OA
ATOM     14  C   UNL     1      18.010  -7.499 -36.169  1.00  0.00     0.059 A 
ATOM     15  C   UNL     1      17.627  -7.246 -34.849  1.00  0.00     0.120 A 
ATOM     16  C   UNL     1      18.143  -6.139 -34.176  1.00  0.00     0.093 A 
ATOM     17  C   UNL     1      19.043  -5.274 -34.812  1.00  0.00     0.131 A 
ENDROOT
BRANCH   6  18
ATOM     18  O   UNL     1      22.800  -3.360 -38.072  1.00  0.00    -0.507 OA
ATOM     19  H   UNL     1      22.712  -3.176 -37.083  1.00  0.00     0.293 HD
ENDBRANCH   6  18
BRANCH  17  20
ATOM     20  O   UNL     1      19.553  -4.182 -34.111  1.00  0.00    -0.507 OA
ATOM     21  H   UNL     1      20.110  -3.467 -34.567  1.00  0.00     0.293 HD
ENDBRANCH  17  20
BRANCH  15  22
ATOM     22  O   UNL     1      16.732  -8.091 -34.195  1.00  0.00    -0.508 OA
ATOM     23  H   UNL     1      17.046  -8.754 -33.494  1.00  0.00     0.293 HD
ENDBRANCH  15  22
TORSDOF 3
ENDMDL
