MODEL 1
REMARK VINA RESULT:    -5.536      0.000      0.000
REMARK INTER + INTRA:         -20.507
REMARK INTER:                 -14.597
REMARK INTRA:                  -5.910
REMARK UNBOUND:                -5.910
REMARK SMILES CCCCCCCCCCCCCCCCCCCCCCCCCCCCCC(=O)[O-]
REMARK SMILES IDX 16 1 17 2 18 3 19 4 20 5 21 6 22 7 23 8 24 9 25 10 26 11
REMARK SMILES IDX 27 12 28 13 29 14 30 15 31 16 32 17 15 18 14 19 13 20 12 21
REMARK SMILES IDX 11 22 10 23 9 24 8 25 7 26 6 27 5 28 4 29 3 30 2 31 1 32
REMARK H PARENT
REMARK Flexibility Score: inf
ROOT
ATOM      1  C   UNL     1     -15.141   3.511 -20.817  1.00  0.00     0.000 C 
ENDROOT
BRANCH   1   2
ATOM      2  C   UNL     1     -16.679   3.565 -20.786  1.00  0.00     0.000 C 
BRANCH   2   3
ATOM      3  C   UNL     1     -17.212   4.920 -20.294  1.00  0.00     0.000 C 
BRANCH   3   4
ATOM      4  C   UNL     1     -17.889   5.729 -21.412  1.00  0.00     0.000 C 
BRANCH   4   5
ATOM      5  C   UNL     1     -17.971   4.913 -22.712  1.00  0.00     0.000 C 
BRANCH   5   6
ATOM      6  C   UNL     1     -18.704   5.665 -23.836  1.00  0.00     0.000 C 
BRANCH   6   7
ATOM      7  C   UNL     1     -18.664   4.909 -25.175  1.00  0.00     0.000 C 
BRANCH   7   8
ATOM      8  C   UNL     1     -17.262   4.895 -25.811  1.00  0.00     0.000 C 
BRANCH   8   9
ATOM      9  C   UNL     1     -16.364   3.718 -25.387  1.00  0.00     0.000 C 
BRANCH   9  10
ATOM     10  C   UNL     1     -17.122   2.384 -25.307  1.00  0.00     0.000 C 
BRANCH  10  11
ATOM     11  C   UNL     1     -16.504   1.461 -24.251  1.00  0.00     0.000 C 
BRANCH  11  12
ATOM     12  C   UNL     1     -17.576   0.910 -23.303  1.00  0.00     0.000 C 
BRANCH  12  13
ATOM     13  C   UNL     1     -16.995  -0.172 -22.383  1.00  0.00     0.006 C 
BRANCH  13  14
ATOM     14  C   UNL     1     -15.496   0.047 -22.157  1.00  0.00     0.053 C 
BRANCH  14  15
ATOM     15  C   UNL     1     -15.044  -0.627 -20.898  1.00  0.00     0.041 C 
ATOM     16  O   UNL     1     -14.851  -1.872 -20.880  1.00  0.00    -0.550 OA
ATOM     17  O   UNL     1     -14.831   0.120 -19.745  1.00  0.00    -0.550 OA
ENDBRANCH  14  15
ENDBRANCH  13  14
ENDBRANCH  12  13
ENDBRANCH  11  12
ENDBRANCH  10  11
ENDBRANCH   9  10
ENDBRANCH   8   9
ENDBRANCH   7   8
ENDBRANCH   6   7
ENDBRANCH   5   6
ENDBRANCH   4   5
ENDBRANCH   3   4
ENDBRANCH   2   3
ENDBRANCH   1   2
BRANCH   1  18
ATOM     18  C   UNL     1     -14.557   3.969 -22.164  1.00  0.00     0.000 C 
BRANCH  18  19
ATOM     19  C   UNL     1     -14.017   5.408 -22.111  1.00  0.00     0.000 C 
BRANCH  19  20
ATOM     20  C   UNL     1     -13.723   5.880 -20.679  1.00  0.00     0.000 C 
BRANCH  20  21
ATOM     21  C   UNL     1     -12.830   7.131 -20.635  1.00  0.00     0.000 C 
BRANCH  21  22
ATOM     22  C   UNL     1     -13.650   8.379 -20.273  1.00  0.00     0.000 C 
BRANCH  22  23
ATOM     23  C   UNL     1     -15.094   8.048 -19.860  1.00  0.00     0.000 C 
BRANCH  23  24
ATOM     24  C   UNL     1     -16.140   8.703 -20.779  1.00  0.00    -0.000 C 
BRANCH  24  25
ATOM     25  C   UNL     1     -15.563   9.111 -22.147  1.00  0.00    -0.000 C 
BRANCH  25  26
ATOM     26  C   UNL     1     -16.069   8.286 -23.350  1.00  0.00    -0.000 C 
BRANCH  26  27
ATOM     27  C   UNL     1     -16.485   9.114 -24.579  1.00  0.00    -0.000 C 
BRANCH  27  28
ATOM     28  C   UNL     1     -17.999   9.057 -24.850  1.00  0.00    -0.000 C 
BRANCH  28  29
ATOM     29  C   UNL     1     -18.717  10.365 -24.482  1.00  0.00    -0.000 C 
BRANCH  29  30
ATOM     30  C   UNL     1     -19.245  10.358 -23.037  1.00  0.00    -0.000 C 
BRANCH  30  31
ATOM     31  C   UNL     1     -19.637   8.953 -22.559  1.00  0.00    -0.003 C 
ATOM     32  C   UNL     1     -19.964   8.904 -21.066  1.00  0.00     0.004 C 
ENDBRANCH  30  31
ENDBRANCH  29  30
ENDBRANCH  28  29
ENDBRANCH  27  28
ENDBRANCH  26  27
ENDBRANCH  25  26
ENDBRANCH  24  25
ENDBRANCH  23  24
ENDBRANCH  22  23
ENDBRANCH  21  22
ENDBRANCH  20  21
ENDBRANCH  19  20
ENDBRANCH  18  19
ENDBRANCH   1  18
TORSDOF 28
ENDMDL
MODEL 2
REMARK VINA RESULT:    -5.422      1.686      5.068
REMARK INTER + INTRA:         -20.208
REMARK INTER:                 -15.872
REMARK INTRA:                  -4.336
REMARK UNBOUND:                -5.910
REMARK SMILES CCCCCCCCCCCCCCCCCCCCCCCCCCCCCC(=O)[O-]
REMARK SMILES IDX 16 1 17 2 18 3 19 4 20 5 21 6 22 7 23 8 24 9 25 10 26 11
REMARK SMILES IDX 27 12 28 13 29 14 30 15 31 16 32 17 15 18 14 19 13 20 12 21
REMARK SMILES IDX 11 22 10 23 9 24 8 25 7 26 6 27 5 28 4 29 3 30 2 31 1 32
REMARK H PARENT
REMARK Flexibility Score: inf
ROOT
ATOM      1  C   UNL     1     -15.893   7.909 -24.579  1.00  0.00     0.000 C 
ENDROOT
BRANCH   1   2
ATOM      2  C   UNL     1     -16.045   6.657 -25.461  1.00  0.00     0.000 C 
BRANCH   2   3
ATOM      3  C   UNL     1     -15.735   5.357 -24.701  1.00  0.00     0.000 C 
BRANCH   3   4
ATOM      4  C   UNL     1     -16.753   4.245 -24.994  1.00  0.00     0.000 C 
BRANCH   4   5
ATOM      5  C   UNL     1     -16.154   2.858 -24.710  1.00  0.00     0.000 C 
BRANCH   5   6
ATOM      6  C   UNL     1     -17.228   1.763 -24.592  1.00  0.00     0.000 C 
BRANCH   6   7
ATOM      7  C   UNL     1     -17.513   1.373 -23.132  1.00  0.00     0.000 C 
BRANCH   7   8
ATOM      8  C   UNL     1     -17.376  -0.140 -22.881  1.00  0.00     0.000 C 
BRANCH   8   9
ATOM      9  C   UNL     1     -16.250  -0.542 -21.910  1.00  0.00     0.000 C 
BRANCH   9  10
ATOM     10  C   UNL     1     -14.927   0.185 -22.193  1.00  0.00     0.000 C 
BRANCH  10  11
ATOM     11  C   UNL     1     -14.005   0.148 -20.968  1.00  0.00     0.000 C 
BRANCH  11  12
ATOM     12  C   UNL     1     -14.692  -0.541 -19.782  1.00  0.00     0.000 C 
BRANCH  12  13
ATOM     13  C   UNL     1     -13.841  -1.704 -19.253  1.00  0.00     0.006 C 
BRANCH  13  14
ATOM     14  C   UNL     1     -13.512  -2.696 -20.374  1.00  0.00     0.053 C 
BRANCH  14  15
ATOM     15  C   UNL     1     -12.521  -3.717 -19.904  1.00  0.00     0.041 C 
ATOM     16  O   UNL     1     -11.359  -3.743 -20.390  1.00  0.00    -0.550 OA
ATOM     17  O   UNL     1     -12.879  -4.637 -18.924  1.00  0.00    -0.550 OA
ENDBRANCH  14  15
ENDBRANCH  13  14
ENDBRANCH  12  13
ENDBRANCH  11  12
ENDBRANCH  10  11
ENDBRANCH   9  10
ENDBRANCH   8   9
ENDBRANCH   7   8
ENDBRANCH   6   7
ENDBRANCH   5   6
ENDBRANCH   4   5
ENDBRANCH   3   4
ENDBRANCH   2   3
ENDBRANCH   1   2
BRANCH   1  18
ATOM     18  C   UNL     1     -17.214   8.675 -24.403  1.00  0.00     0.000 C 
BRANCH  18  19
ATOM     19  C   UNL     1     -18.233   7.899 -23.551  1.00  0.00     0.000 C 
BRANCH  19  20
ATOM     20  C   UNL     1     -19.007   8.804 -22.580  1.00  0.00     0.000 C 
BRANCH  20  21
ATOM     21  C   UNL     1     -18.615   8.575 -21.111  1.00  0.00     0.000 C 
BRANCH  21  22
ATOM     22  C   UNL     1     -17.209   7.963 -21.007  1.00  0.00     0.000 C 
BRANCH  22  23
ATOM     23  C   UNL     1     -16.123   9.007 -20.699  1.00  0.00     0.000 C 
BRANCH  23  24
ATOM     24  C   UNL     1     -15.037   8.472 -19.750  1.00  0.00    -0.000 C 
BRANCH  24  25
ATOM     25  C   UNL     1     -13.623   8.544 -20.357  1.00  0.00    -0.000 C 
BRANCH  25  26
ATOM     26  C   UNL     1     -12.962   7.181 -20.655  1.00  0.00    -0.000 C 
BRANCH  26  27
ATOM     27  C   UNL     1     -13.864   6.163 -21.376  1.00  0.00    -0.000 C 
BRANCH  27  28
ATOM     28  C   UNL     1     -14.125   4.900 -20.537  1.00  0.00    -0.000 C 
BRANCH  28  29
ATOM     29  C   UNL     1     -15.126   3.942 -21.203  1.00  0.00    -0.000 C 
BRANCH  29  30
ATOM     30  C   UNL     1     -16.089   3.301 -20.188  1.00  0.00    -0.000 C 
BRANCH  30  31
ATOM     31  C   UNL     1     -17.553   3.693 -20.435  1.00  0.00    -0.003 C 
ATOM     32  C   UNL     1     -17.711   4.722 -21.556  1.00  0.00     0.004 C 
ENDBRANCH  30  31
ENDBRANCH  29  30
ENDBRANCH  28  29
ENDBRANCH  27  28
ENDBRANCH  26  27
ENDBRANCH  25  26
ENDBRANCH  24  25
ENDBRANCH  23  24
ENDBRANCH  22  23
ENDBRANCH  21  22
ENDBRANCH  20  21
ENDBRANCH  19  20
ENDBRANCH  18  19
ENDBRANCH   1  18
TORSDOF 28
ENDMDL
MODEL 3
REMARK VINA RESULT:    -5.399      1.319      4.167
REMARK INTER + INTRA:         -20.145
REMARK INTER:                 -14.913
REMARK INTRA:                  -5.232
REMARK UNBOUND:                -5.910
REMARK SMILES CCCCCCCCCCCCCCCCCCCCCCCCCCCCCC(=O)[O-]
REMARK SMILES IDX 16 1 17 2 18 3 19 4 20 5 21 6 22 7 23 8 24 9 25 10 26 11
REMARK SMILES IDX 27 12 28 13 29 14 30 15 31 16 32 17 15 18 14 19 13 20 12 21
REMARK SMILES IDX 11 22 10 23 9 24 8 25 7 26 6 27 5 28 4 29 3 30 2 31 1 32
REMARK H PARENT
REMARK Flexibility Score: inf
ROOT
ATOM      1  C   UNL     1     -13.894   7.742 -20.135  1.00  0.00     0.000 C 
ENDROOT
BRANCH   1   2
ATOM      2  C   UNL     1     -13.022   6.732 -20.903  1.00  0.00     0.000 C 
BRANCH   2   3
ATOM      3  C   UNL     1     -13.811   5.491 -21.351  1.00  0.00     0.000 C 
BRANCH   3   4
ATOM      4  C   UNL     1     -13.692   5.229 -22.860  1.00  0.00     0.000 C 
BRANCH   4   5
ATOM      5  C   UNL     1     -13.993   3.758 -23.191  1.00  0.00     0.000 C 
BRANCH   5   6
ATOM      6  C   UNL     1     -15.396   3.563 -23.788  1.00  0.00     0.000 C 
BRANCH   6   7
ATOM      7  C   UNL     1     -16.056   2.252 -23.326  1.00  0.00     0.000 C 
BRANCH   7   8
ATOM      8  C   UNL     1     -17.290   2.487 -22.435  1.00  0.00     0.000 C 
BRANCH   8   9
ATOM      9  C   UNL     1     -17.225   3.745 -21.549  1.00  0.00     0.000 C 
BRANCH   9  10
ATOM     10  C   UNL     1     -16.819   3.437 -20.100  1.00  0.00     0.000 C 
BRANCH  10  11
ATOM     11  C   UNL     1     -15.462   2.724 -20.048  1.00  0.00     0.000 C 
BRANCH  11  12
ATOM     12  C   UNL     1     -15.420   1.701 -18.906  1.00  0.00     0.000 C 
BRANCH  12  13
ATOM     13  C   UNL     1     -14.808   0.375 -19.377  1.00  0.00     0.006 C 
BRANCH  13  14
ATOM     14  C   UNL     1     -14.493   0.418 -20.876  1.00  0.00     0.053 C 
BRANCH  14  15
ATOM     15  C   UNL     1     -14.664  -0.936 -21.494  1.00  0.00     0.041 C 
ATOM     16  O   UNL     1     -14.833  -1.049 -22.737  1.00  0.00    -0.550 OA
ATOM     17  O   UNL     1     -14.630  -2.075 -20.696  1.00  0.00    -0.550 OA
ENDBRANCH  14  15
ENDBRANCH  13  14
ENDBRANCH  12  13
ENDBRANCH  11  12
ENDBRANCH  10  11
ENDBRANCH   9  10
ENDBRANCH   8   9
ENDBRANCH   7   8
ENDBRANCH   6   7
ENDBRANCH   5   6
ENDBRANCH   4   5
ENDBRANCH   3   4
ENDBRANCH   2   3
ENDBRANCH   1   2
BRANCH   1  18
ATOM     18  C   UNL     1     -14.538   8.791 -21.056  1.00  0.00     0.000 C 
BRANCH  18  19
ATOM     19  C   UNL     1     -15.622   9.615 -20.340  1.00  0.00     0.000 C 
BRANCH  19  20
ATOM     20  C   UNL     1     -17.045   9.207 -20.751  1.00  0.00     0.000 C 
BRANCH  20  21
ATOM     21  C   UNL     1     -17.171   7.706 -21.058  1.00  0.00     0.000 C 
BRANCH  21  22
ATOM     22  C   UNL     1     -18.626   7.331 -21.382  1.00  0.00     0.000 C 
BRANCH  22  23
ATOM     23  C   UNL     1     -19.493   8.550 -21.734  1.00  0.00     0.000 C 
BRANCH  23  24
ATOM     24  C   UNL     1     -19.793   8.650 -23.240  1.00  0.00    -0.000 C 
BRANCH  24  25
ATOM     25  C   UNL     1     -19.732  10.095 -23.768  1.00  0.00    -0.000 C 
BRANCH  25  26
ATOM     26  C   UNL     1     -18.362  10.537 -24.325  1.00  0.00    -0.000 C 
BRANCH  26  27
ATOM     27  C   UNL     1     -17.589   9.449 -25.093  1.00  0.00    -0.000 C 
BRANCH  27  28
ATOM     28  C   UNL     1     -16.259   9.073 -24.416  1.00  0.00    -0.000 C 
BRANCH  28  29
ATOM     29  C   UNL     1     -16.101   7.558 -24.220  1.00  0.00    -0.000 C 
BRANCH  29  30
ATOM     30  C   UNL     1     -15.875   6.815 -25.548  1.00  0.00    -0.000 C 
BRANCH  30  31
ATOM     31  C   UNL     1     -17.002   5.822 -25.869  1.00  0.00    -0.003 C 
ATOM     32  C   UNL     1     -18.079   5.776 -24.784  1.00  0.00     0.004 C 
ENDBRANCH  30  31
ENDBRANCH  29  30
ENDBRANCH  28  29
ENDBRANCH  27  28
ENDBRANCH  26  27
ENDBRANCH  25  26
ENDBRANCH  24  25
ENDBRANCH  23  24
ENDBRANCH  22  23
ENDBRANCH  21  22
ENDBRANCH  20  21
ENDBRANCH  19  20
ENDBRANCH  18  19
ENDBRANCH   1  18
TORSDOF 28
ENDMDL
MODEL 4
REMARK VINA RESULT:    -5.377      1.354      4.661
REMARK INTER + INTRA:         -20.089
REMARK INTER:                 -14.575
REMARK INTRA:                  -5.514
REMARK UNBOUND:                -5.910
REMARK SMILES CCCCCCCCCCCCCCCCCCCCCCCCCCCCCC(=O)[O-]
REMARK SMILES IDX 16 1 17 2 18 3 19 4 20 5 21 6 22 7 23 8 24 9 25 10 26 11
REMARK SMILES IDX 27 12 28 13 29 14 30 15 31 16 32 17 15 18 14 19 13 20 12 21
REMARK SMILES IDX 11 22 10 23 9 24 8 25 7 26 6 27 5 28 4 29 3 30 2 31 1 32
REMARK H PARENT
REMARK Flexibility Score: inf
ROOT
ATOM      1  C   UNL     1     -17.835   4.877 -25.272  1.00  0.00     0.000 C 
ENDROOT
BRANCH   1   2
ATOM      2  C   UNL     1     -18.052   3.426 -25.737  1.00  0.00     0.000 C 
BRANCH   2   3
ATOM      3  C   UNL     1     -16.733   2.649 -25.885  1.00  0.00     0.000 C 
BRANCH   3   4
ATOM      4  C   UNL     1     -16.225   2.088 -24.548  1.00  0.00     0.000 C 
BRANCH   4   5
ATOM      5  C   UNL     1     -17.372   1.456 -23.743  1.00  0.00     0.000 C 
BRANCH   5   6
ATOM      6  C   UNL     1     -17.326   1.834 -22.253  1.00  0.00     0.000 C 
BRANCH   6   7
ATOM      7  C   UNL     1     -18.139   3.102 -21.940  1.00  0.00     0.000 C 
BRANCH   7   8
ATOM      8  C   UNL     1     -17.250   4.328 -21.661  1.00  0.00     0.000 C 
BRANCH   8   9
ATOM      9  C   UNL     1     -16.418   4.250 -20.367  1.00  0.00     0.000 C 
BRANCH   9  10
ATOM     10  C   UNL     1     -14.906   4.193 -20.630  1.00  0.00     0.000 C 
BRANCH  10  11
ATOM     11  C   UNL     1     -14.254   3.045 -19.850  1.00  0.00     0.000 C 
BRANCH  11  12
ATOM     12  C   UNL     1     -15.309   2.058 -19.337  1.00  0.00     0.000 C 
BRANCH  12  13
ATOM     13  C   UNL     1     -14.896   0.609 -19.629  1.00  0.00     0.006 C 
BRANCH  13  14
ATOM     14  C   UNL     1     -14.182   0.505 -20.981  1.00  0.00     0.053 C 
BRANCH  14  15
ATOM     15  C   UNL     1     -14.390  -0.849 -21.588  1.00  0.00     0.041 C 
ATOM     16  O   UNL     1     -13.925  -1.875 -21.024  1.00  0.00    -0.550 OA
ATOM     17  O   UNL     1     -15.104  -0.979 -22.775  1.00  0.00    -0.550 OA
ENDBRANCH  14  15
ENDBRANCH  13  14
ENDBRANCH  12  13
ENDBRANCH  11  12
ENDBRANCH  10  11
ENDBRANCH   9  10
ENDBRANCH   8   9
ENDBRANCH   7   8
ENDBRANCH   6   7
ENDBRANCH   5   6
ENDBRANCH   4   5
ENDBRANCH   3   4
ENDBRANCH   2   3
ENDBRANCH   1   2
BRANCH   1  18
ATOM     18  C   UNL     1     -16.690   5.576 -26.023  1.00  0.00     0.000 C 
BRANCH  18  19
ATOM     19  C   UNL     1     -15.655   6.197 -25.070  1.00  0.00     0.000 C 
BRANCH  19  20
ATOM     20  C   UNL     1     -16.284   7.174 -24.064  1.00  0.00     0.000 C 
BRANCH  20  21
ATOM     21  C   UNL     1     -15.825   8.626 -24.277  1.00  0.00     0.000 C 
BRANCH  21  22
ATOM     22  C   UNL     1     -17.000   9.514 -24.716  1.00  0.00     0.000 C 
BRANCH  22  23
ATOM     23  C   UNL     1     -18.333   8.753 -24.783  1.00  0.00     0.000 C 
BRANCH  23  24
ATOM     24  C   UNL     1     -19.420   9.378 -23.891  1.00  0.00    -0.000 C 
BRANCH  24  25
ATOM     25  C   UNL     1     -19.984   8.390 -22.852  1.00  0.00    -0.000 C 
BRANCH  25  26
ATOM     26  C   UNL     1     -19.013   8.001 -21.717  1.00  0.00    -0.000 C 
BRANCH  26  27
ATOM     27  C   UNL     1     -18.436   9.184 -20.918  1.00  0.00    -0.000 C 
BRANCH  27  28
ATOM     28  C   UNL     1     -16.898   9.228 -20.949  1.00  0.00    -0.000 C 
BRANCH  28  29
ATOM     29  C   UNL     1     -16.258   7.918 -20.463  1.00  0.00    -0.000 C 
BRANCH  29  30
ATOM     30  C   UNL     1     -14.726   7.924 -20.610  1.00  0.00    -0.000 C 
BRANCH  30  31
ATOM     31  C   UNL     1     -14.131   9.337 -20.525  1.00  0.00    -0.003 C 
ATOM     32  C   UNL     1     -12.822   9.383 -19.735  1.00  0.00     0.004 C 
ENDBRANCH  30  31
ENDBRANCH  29  30
ENDBRANCH  28  29
ENDBRANCH  27  28
ENDBRANCH  26  27
ENDBRANCH  25  26
ENDBRANCH  24  25
ENDBRANCH  23  24
ENDBRANCH  22  23
ENDBRANCH  21  22
ENDBRANCH  20  21
ENDBRANCH  19  20
ENDBRANCH  18  19
ENDBRANCH   1  18
TORSDOF 28
ENDMDL
MODEL 5
REMARK VINA RESULT:    -5.367      3.213      8.074
REMARK INTER + INTRA:         -20.063
REMARK INTER:                 -14.715
REMARK INTRA:                  -5.348
REMARK UNBOUND:                -5.910
REMARK SMILES CCCCCCCCCCCCCCCCCCCCCCCCCCCCCC(=O)[O-]
REMARK SMILES IDX 16 1 17 2 18 3 19 4 20 5 21 6 22 7 23 8 24 9 25 10 26 11
REMARK SMILES IDX 27 12 28 13 29 14 30 15 31 16 32 17 15 18 14 19 13 20 12 21
REMARK SMILES IDX 11 22 10 23 9 24 8 25 7 26 6 27 5 28 4 29 3 30 2 31 1 32
REMARK H PARENT
REMARK Flexibility Score: inf
ROOT
ATOM      1  C   UNL     1     -15.467   3.600 -20.481  1.00  0.00     0.000 C 
ENDROOT
BRANCH   1   2
ATOM      2  C   UNL     1     -14.546   4.716 -19.954  1.00  0.00     0.000 C 
BRANCH   2   3
ATOM      3  C   UNL     1     -13.941   5.565 -21.084  1.00  0.00     0.000 C 
BRANCH   3   4
ATOM      4  C   UNL     1     -13.854   7.055 -20.719  1.00  0.00     0.000 C 
BRANCH   4   5
ATOM      5  C   UNL     1     -15.065   7.491 -19.879  1.00  0.00     0.000 C 
BRANCH   5   6
ATOM      6  C   UNL     1     -16.158   8.166 -20.724  1.00  0.00     0.000 C 
BRANCH   6   7
ATOM      7  C   UNL     1     -15.589   8.870 -21.968  1.00  0.00     0.000 C 
BRANCH   7   8
ATOM      8  C   UNL     1     -15.945   8.145 -23.279  1.00  0.00     0.000 C 
BRANCH   8   9
ATOM      9  C   UNL     1     -16.400   9.062 -24.430  1.00  0.00     0.000 C 
BRANCH   9  10
ATOM     10  C   UNL     1     -17.835   8.774 -24.894  1.00  0.00     0.000 C 
BRANCH  10  11
ATOM     11  C   UNL     1     -18.857   9.486 -23.999  1.00  0.00     0.000 C 
BRANCH  11  12
ATOM     12  C   UNL     1     -19.796   8.480 -23.323  1.00  0.00     0.000 C 
BRANCH  12  13
ATOM     13  C   UNL     1     -19.440   8.305 -21.841  1.00  0.00     0.006 C 
BRANCH  13  14
ATOM     14  C   UNL     1     -20.356   9.155 -20.954  1.00  0.00     0.053 C 
BRANCH  14  15
ATOM     15  C   UNL     1     -19.789  10.529 -20.768  1.00  0.00     0.041 C 
ATOM     16  O   UNL     1     -18.804  10.710 -20.003  1.00  0.00    -0.550 OA
ATOM     17  O   UNL     1     -20.344  11.610 -21.444  1.00  0.00    -0.550 OA
ENDBRANCH  14  15
ENDBRANCH  13  14
ENDBRANCH  12  13
ENDBRANCH  11  12
ENDBRANCH  10  11
ENDBRANCH   9  10
ENDBRANCH   8   9
ENDBRANCH   7   8
ENDBRANCH   6   7
ENDBRANCH   5   6
ENDBRANCH   4   5
ENDBRANCH   3   4
ENDBRANCH   2   3
ENDBRANCH   1   2
BRANCH   1  18
ATOM     18  C   UNL     1     -16.936   3.800 -20.074  1.00  0.00     0.000 C 
BRANCH  18  19
ATOM     19  C   UNL     1     -17.865   3.961 -21.288  1.00  0.00     0.000 C 
BRANCH  19  20
ATOM     20  C   UNL     1     -17.462   5.136 -22.193  1.00  0.00     0.000 C 
BRANCH  20  21
ATOM     21  C   UNL     1     -18.153   5.094 -23.566  1.00  0.00     0.000 C 
BRANCH  21  22
ATOM     22  C   UNL     1     -17.164   4.674 -24.665  1.00  0.00     0.000 C 
BRANCH  22  23
ATOM     23  C   UNL     1     -15.754   4.388 -24.125  1.00  0.00     0.000 C 
BRANCH  23  24
ATOM     24  C   UNL     1     -15.450   2.883 -24.024  1.00  0.00    -0.000 C 
BRANCH  24  25
ATOM     25  C   UNL     1     -16.521   2.010 -24.704  1.00  0.00    -0.000 C 
BRANCH  25  26
ATOM     26  C   UNL     1     -17.415   1.196 -23.745  1.00  0.00    -0.000 C 
BRANCH  26  27
ATOM     27  C   UNL     1     -16.697   0.628 -22.507  1.00  0.00    -0.000 C 
BRANCH  27  28
ATOM     28  C   UNL     1     -15.793  -0.572 -22.843  1.00  0.00    -0.000 C 
BRANCH  28  29
ATOM     29  C   UNL     1     -14.988  -1.065 -21.631  1.00  0.00    -0.000 C 
BRANCH  29  30
ATOM     30  C   UNL     1     -15.039  -0.077 -20.452  1.00  0.00    -0.000 C 
BRANCH  30  31
ATOM     31  C   UNL     1     -14.512  -0.690 -19.146  1.00  0.00    -0.003 C 
ATOM     32  C   UNL     1     -13.785  -2.018 -19.364  1.00  0.00     0.004 C 
ENDBRANCH  30  31
ENDBRANCH  29  30
ENDBRANCH  28  29
ENDBRANCH  27  28
ENDBRANCH  26  27
ENDBRANCH  25  26
ENDBRANCH  24  25
ENDBRANCH  23  24
ENDBRANCH  22  23
ENDBRANCH  21  22
ENDBRANCH  20  21
ENDBRANCH  19  20
ENDBRANCH  18  19
ENDBRANCH   1  18
TORSDOF 28
ENDMDL
MODEL 6
REMARK VINA RESULT:    -5.360      2.782      5.407
REMARK INTER + INTRA:         -20.044
REMARK INTER:                 -15.371
REMARK INTRA:                  -4.673
REMARK UNBOUND:                -5.910
REMARK SMILES CCCCCCCCCCCCCCCCCCCCCCCCCCCCCC(=O)[O-]
REMARK SMILES IDX 16 1 17 2 18 3 19 4 20 5 21 6 22 7 23 8 24 9 25 10 26 11
REMARK SMILES IDX 27 12 28 13 29 14 30 15 31 16 32 17 15 18 14 19 13 20 12 21
REMARK SMILES IDX 11 22 10 23 9 24 8 25 7 26 6 27 5 28 4 29 3 30 2 31 1 32
REMARK H PARENT
REMARK Flexibility Score: inf
ROOT
ATOM      1  C   UNL     1     -15.207   0.915 -19.505  1.00  0.00     0.000 C 
ENDROOT
BRANCH   1   2
ATOM      2  C   UNL     1     -14.334   0.140 -20.508  1.00  0.00     0.000 C 
BRANCH   2   3
ATOM      3  C   UNL     1     -14.994  -1.165 -20.982  1.00  0.00     0.000 C 
BRANCH   3   4
ATOM      4  C   UNL     1     -15.490  -1.083 -22.433  1.00  0.00     0.000 C 
BRANCH   4   5
ATOM      5  C   UNL     1     -16.890  -0.451 -22.504  1.00  0.00     0.000 C 
BRANCH   5   6
ATOM      6  C   UNL     1     -16.963   0.710 -23.510  1.00  0.00     0.000 C 
BRANCH   6   7
ATOM      7  C   UNL     1     -15.695   0.823 -24.373  1.00  0.00     0.000 C 
BRANCH   7   8
ATOM      8  C   UNL     1     -15.115   2.250 -24.398  1.00  0.00     0.000 C 
BRANCH   8   9
ATOM      9  C   UNL     1     -14.260   2.629 -23.175  1.00  0.00     0.000 C 
BRANCH   9  10
ATOM     10  C   UNL     1     -13.522   3.965 -23.351  1.00  0.00     0.000 C 
BRANCH  10  11
ATOM     11  C   UNL     1     -14.329   5.123 -22.752  1.00  0.00     0.000 C 
BRANCH  11  12
ATOM     12  C   UNL     1     -13.835   5.469 -21.342  1.00  0.00     0.000 C 
BRANCH  12  13
ATOM     13  C   UNL     1     -14.422   6.804 -20.864  1.00  0.00     0.006 C 
BRANCH  13  14
ATOM     14  C   UNL     1     -13.311   7.813 -20.557  1.00  0.00     0.053 C 
BRANCH  14  15
ATOM     15  C   UNL     1     -13.854   8.988 -19.802  1.00  0.00     0.041 C 
ATOM     16  O   UNL     1     -15.078   9.042 -19.511  1.00  0.00    -0.550 OA
ATOM     17  O   UNL     1     -13.006  10.019 -19.414  1.00  0.00    -0.550 OA
ENDBRANCH  14  15
ENDBRANCH  13  14
ENDBRANCH  12  13
ENDBRANCH  11  12
ENDBRANCH  10  11
ENDBRANCH   9  10
ENDBRANCH   8   9
ENDBRANCH   7   8
ENDBRANCH   6   7
ENDBRANCH   5   6
ENDBRANCH   4   5
ENDBRANCH   3   4
ENDBRANCH   2   3
ENDBRANCH   1   2
BRANCH   1  18
ATOM     18  C   UNL     1     -14.975   2.433 -19.564  1.00  0.00     0.000 C 
BRANCH  18  19
ATOM     19  C   UNL     1     -16.285   3.221 -19.731  1.00  0.00     0.000 C 
BRANCH  19  20
ATOM     20  C   UNL     1     -16.853   3.135 -21.156  1.00  0.00     0.000 C 
BRANCH  20  21
ATOM     21  C   UNL     1     -17.687   4.368 -21.541  1.00  0.00     0.000 C 
BRANCH  21  22
ATOM     22  C   UNL     1     -17.883   4.444 -23.064  1.00  0.00     0.000 C 
BRANCH  22  23
ATOM     23  C   UNL     1     -17.906   5.887 -23.593  1.00  0.00     0.000 C 
BRANCH  23  24
ATOM     24  C   UNL     1     -17.291   6.015 -24.997  1.00  0.00    -0.000 C 
BRANCH  24  25
ATOM     25  C   UNL     1     -16.036   6.907 -25.023  1.00  0.00    -0.000 C 
BRANCH  25  26
ATOM     26  C   UNL     1     -16.074   8.126 -24.077  1.00  0.00    -0.000 C 
BRANCH  26  27
ATOM     27  C   UNL     1     -16.827   9.353 -24.623  1.00  0.00    -0.000 C 
BRANCH  27  28
ATOM     28  C   UNL     1     -18.340   9.293 -24.346  1.00  0.00    -0.000 C 
BRANCH  28  29
ATOM     29  C   UNL     1     -18.893  10.615 -23.791  1.00  0.00    -0.000 C 
BRANCH  29  30
ATOM     30  C   UNL     1     -20.230  10.428 -23.054  1.00  0.00    -0.000 C 
BRANCH  30  31
ATOM     31  C   UNL     1     -20.422   8.996 -22.534  1.00  0.00    -0.003 C 
ATOM     32  C   UNL     1     -20.139   8.865 -21.037  1.00  0.00     0.004 C 
ENDBRANCH  30  31
ENDBRANCH  29  30
ENDBRANCH  28  29
ENDBRANCH  27  28
ENDBRANCH  26  27
ENDBRANCH  25  26
ENDBRANCH  24  25
ENDBRANCH  23  24
ENDBRANCH  22  23
ENDBRANCH  21  22
ENDBRANCH  20  21
ENDBRANCH  19  20
ENDBRANCH  18  19
ENDBRANCH   1  18
TORSDOF 28
ENDMDL
MODEL 7
REMARK VINA RESULT:    -5.331      1.564      3.874
REMARK INTER + INTRA:         -19.968
REMARK INTER:                 -15.631
REMARK INTRA:                  -4.337
REMARK UNBOUND:                -5.910
REMARK SMILES CCCCCCCCCCCCCCCCCCCCCCCCCCCCCC(=O)[O-]
REMARK SMILES IDX 16 1 17 2 18 3 19 4 20 5 21 6 22 7 23 8 24 9 25 10 26 11
REMARK SMILES IDX 27 12 28 13 29 14 30 15 31 16 32 17 15 18 14 19 13 20 12 21
REMARK SMILES IDX 11 22 10 23 9 24 8 25 7 26 6 27 5 28 4 29 3 30 2 31 1 32
REMARK H PARENT
REMARK Flexibility Score: inf
ROOT
ATOM      1  C   UNL     1     -13.970   5.628 -21.723  1.00  0.00     0.000 C 
ENDROOT
BRANCH   1   2
ATOM      2  C   UNL     1     -14.648   5.178 -20.416  1.00  0.00     0.000 C 
BRANCH   2   3
ATOM      3  C   UNL     1     -14.718   3.647 -20.284  1.00  0.00     0.000 C 
BRANCH   3   4
ATOM      4  C   UNL     1     -16.152   3.138 -20.076  1.00  0.00     0.000 C 
BRANCH   4   5
ATOM      5  C   UNL     1     -17.174   4.077 -20.737  1.00  0.00     0.000 C 
BRANCH   5   6
ATOM      6  C   UNL     1     -17.850   3.444 -21.964  1.00  0.00     0.000 C 
BRANCH   6   7
ATOM      7  C   UNL     1     -17.135   2.167 -22.437  1.00  0.00     0.000 C 
BRANCH   7   8
ATOM      8  C   UNL     1     -17.292   1.919 -23.949  1.00  0.00     0.000 C 
BRANCH   8   9
ATOM      9  C   UNL     1     -15.976   1.910 -24.749  1.00  0.00     0.000 C 
BRANCH   9  10
ATOM     10  C   UNL     1     -15.296   0.533 -24.767  1.00  0.00     0.000 C 
BRANCH  10  11
ATOM     11  C   UNL     1     -14.690   0.199 -23.398  1.00  0.00     0.000 C 
BRANCH  11  12
ATOM     12  C   UNL     1     -14.318  -1.286 -23.307  1.00  0.00     0.000 C 
BRANCH  12  13
ATOM     13  C   UNL     1     -14.794  -1.892 -21.981  1.00  0.00     0.006 C 
BRANCH  13  14
ATOM     14  C   UNL     1     -15.041  -0.799 -20.935  1.00  0.00     0.053 C 
BRANCH  14  15
ATOM     15  C   UNL     1     -14.417  -1.169 -19.624  1.00  0.00     0.041 C 
ATOM     16  O   UNL     1     -13.545  -2.077 -19.570  1.00  0.00    -0.550 OA
ATOM     17  O   UNL     1     -14.793  -0.505 -18.461  1.00  0.00    -0.550 OA
ENDBRANCH  14  15
ENDBRANCH  13  14
ENDBRANCH  12  13
ENDBRANCH  11  12
ENDBRANCH  10  11
ENDBRANCH   9  10
ENDBRANCH   8   9
ENDBRANCH   7   8
ENDBRANCH   6   7
ENDBRANCH   5   6
ENDBRANCH   4   5
ENDBRANCH   3   4
ENDBRANCH   2   3
ENDBRANCH   1   2
BRANCH   1  18
ATOM     18  C   UNL     1     -14.207   4.648 -22.883  1.00  0.00     0.000 C 
BRANCH  18  19
ATOM     19  C   UNL     1     -15.148   5.223 -23.955  1.00  0.00     0.000 C 
BRANCH  19  20
ATOM     20  C   UNL     1     -15.600   6.657 -23.641  1.00  0.00     0.000 C 
BRANCH  20  21
ATOM     21  C   UNL     1     -15.952   7.461 -24.904  1.00  0.00     0.000 C 
BRANCH  21  22
ATOM     22  C   UNL     1     -16.402   8.885 -24.541  1.00  0.00     0.000 C 
BRANCH  22  23
ATOM     23  C   UNL     1     -17.873   9.156 -24.892  1.00  0.00     0.000 C 
BRANCH  23  24
ATOM     24  C   UNL     1     -18.750   9.379 -23.647  1.00  0.00    -0.000 C 
BRANCH  24  25
ATOM     25  C   UNL     1     -19.225   8.062 -23.005  1.00  0.00    -0.000 C 
BRANCH  25  26
ATOM     26  C   UNL     1     -18.675   7.781 -21.591  1.00  0.00    -0.000 C 
BRANCH  26  27
ATOM     27  C   UNL     1     -17.751   8.874 -21.021  1.00  0.00    -0.000 C 
BRANCH  27  28
ATOM     28  C   UNL     1     -16.277   8.436 -20.964  1.00  0.00    -0.000 C 
BRANCH  28  29
ATOM     29  C   UNL     1     -15.414   9.370 -20.101  1.00  0.00    -0.000 C 
BRANCH  29  30
ATOM     30  C   UNL     1     -13.926   8.979 -20.120  1.00  0.00    -0.000 C 
BRANCH  30  31
ATOM     31  C   UNL     1     -13.050   9.951 -19.316  1.00  0.00    -0.003 C 
ATOM     32  C   UNL     1     -13.854  11.083 -18.676  1.00  0.00     0.004 C 
ENDBRANCH  30  31
ENDBRANCH  29  30
ENDBRANCH  28  29
ENDBRANCH  27  28
ENDBRANCH  26  27
ENDBRANCH  25  26
ENDBRANCH  24  25
ENDBRANCH  23  24
ENDBRANCH  22  23
ENDBRANCH  21  22
ENDBRANCH  20  21
ENDBRANCH  19  20
ENDBRANCH  18  19
ENDBRANCH   1  18
TORSDOF 28
ENDMDL
MODEL 8
REMARK VINA RESULT:    -5.320      1.041      2.003
REMARK INTER + INTRA:         -19.939
REMARK INTER:                 -14.561
REMARK INTRA:                  -5.379
REMARK UNBOUND:                -5.910
REMARK SMILES CCCCCCCCCCCCCCCCCCCCCCCCCCCCCC(=O)[O-]
REMARK SMILES IDX 16 1 17 2 18 3 19 4 20 5 21 6 22 7 23 8 24 9 25 10 26 11
REMARK SMILES IDX 27 12 28 13 29 14 30 15 31 16 32 17 15 18 14 19 13 20 12 21
REMARK SMILES IDX 11 22 10 23 9 24 8 25 7 26 6 27 5 28 4 29 3 30 2 31 1 32
REMARK H PARENT
REMARK Flexibility Score: inf
ROOT
ATOM      1  C   UNL     1     -14.481   4.583 -21.621  1.00  0.00     0.000 C 
ENDROOT
BRANCH   1   2
ATOM      2  C   UNL     1     -15.126   4.526 -20.225  1.00  0.00     0.000 C 
BRANCH   2   3
ATOM      3  C   UNL     1     -16.651   4.343 -20.286  1.00  0.00     0.000 C 
BRANCH   3   4
ATOM      4  C   UNL     1     -17.306   5.206 -21.376  1.00  0.00     0.000 C 
BRANCH   4   5
ATOM      5  C   UNL     1     -17.863   4.332 -22.512  1.00  0.00     0.000 C 
BRANCH   5   6
ATOM      6  C   UNL     1     -17.611   4.940 -23.902  1.00  0.00     0.000 C 
BRANCH   6   7
ATOM      7  C   UNL     1     -16.388   4.323 -24.602  1.00  0.00     0.000 C 
BRANCH   7   8
ATOM      8  C   UNL     1     -16.751   3.111 -25.481  1.00  0.00     0.000 C 
BRANCH   8   9
ATOM      9  C   UNL     1     -16.119   1.776 -25.046  1.00  0.00     0.000 C 
BRANCH   9  10
ATOM     10  C   UNL     1     -15.329   1.886 -23.733  1.00  0.00     0.000 C 
BRANCH  10  11
ATOM     11  C   UNL     1     -15.573   0.665 -22.839  1.00  0.00     0.000 C 
BRANCH  11  12
ATOM     12  C   UNL     1     -15.914   1.090 -21.405  1.00  0.00     0.000 C 
BRANCH  12  13
ATOM     13  C   UNL     1     -14.732   0.838 -20.460  1.00  0.00     0.006 C 
BRANCH  13  14
ATOM     14  C   UNL     1     -13.830  -0.278 -20.996  1.00  0.00     0.053 C 
BRANCH  14  15
ATOM     15  C   UNL     1     -14.010  -1.535 -20.201  1.00  0.00     0.041 C 
ATOM     16  O   UNL     1     -13.990  -2.656 -20.775  1.00  0.00    -0.550 OA
ATOM     17  O   UNL     1     -14.194  -1.469 -18.824  1.00  0.00    -0.550 OA
ENDBRANCH  14  15
ENDBRANCH  13  14
ENDBRANCH  12  13
ENDBRANCH  11  12
ENDBRANCH  10  11
ENDBRANCH   9  10
ENDBRANCH   8   9
ENDBRANCH   7   8
ENDBRANCH   6   7
ENDBRANCH   5   6
ENDBRANCH   4   5
ENDBRANCH   3   4
ENDBRANCH   2   3
ENDBRANCH   1   2
BRANCH   1  18
ATOM     18  C   UNL     1     -13.641   5.853 -21.836  1.00  0.00     0.000 C 
BRANCH  18  19
ATOM     19  C   UNL     1     -13.172   6.477 -20.510  1.00  0.00     0.000 C 
BRANCH  19  20
ATOM     20  C   UNL     1     -13.613   7.940 -20.354  1.00  0.00     0.000 C 
BRANCH  20  21
ATOM     21  C   UNL     1     -15.068   8.075 -19.874  1.00  0.00     0.000 C 
BRANCH  21  22
ATOM     22  C   UNL     1     -15.830   9.110 -20.717  1.00  0.00     0.000 C 
BRANCH  22  23
ATOM     23  C   UNL     1     -15.315   9.202 -22.163  1.00  0.00     0.000 C 
BRANCH  23  24
ATOM     24  C   UNL     1     -16.034   8.229 -23.113  1.00  0.00    -0.000 C 
BRANCH  24  25
ATOM     25  C   UNL     1     -16.252   8.817 -24.519  1.00  0.00    -0.000 C 
BRANCH  25  26
ATOM     26  C   UNL     1     -17.711   9.187 -24.861  1.00  0.00    -0.000 C 
BRANCH  26  27
ATOM     27  C   UNL     1     -17.940  10.665 -25.229  1.00  0.00    -0.000 C 
BRANCH  27  28
ATOM     28  C   UNL     1     -19.141  11.282 -24.492  1.00  0.00    -0.000 C 
BRANCH  28  29
ATOM     29  C   UNL     1     -19.714  10.353 -23.410  1.00  0.00    -0.000 C 
BRANCH  29  30
ATOM     30  C   UNL     1     -19.282  10.766 -21.992  1.00  0.00    -0.000 C 
BRANCH  30  31
ATOM     31  C   UNL     1     -19.466   9.637 -20.967  1.00  0.00    -0.003 C 
ATOM     32  C   UNL     1     -19.407   8.246 -21.599  1.00  0.00     0.004 C 
ENDBRANCH  30  31
ENDBRANCH  29  30
ENDBRANCH  28  29
ENDBRANCH  27  28
ENDBRANCH  26  27
ENDBRANCH  25  26
ENDBRANCH  24  25
ENDBRANCH  23  24
ENDBRANCH  22  23
ENDBRANCH  21  22
ENDBRANCH  20  21
ENDBRANCH  19  20
ENDBRANCH  18  19
ENDBRANCH   1  18
TORSDOF 28
ENDMDL
MODEL 9
REMARK VINA RESULT:    -5.258      1.802      3.966
REMARK INTER + INTRA:         -19.773
REMARK INTER:                 -14.433
REMARK INTRA:                  -5.341
REMARK UNBOUND:                -5.910
REMARK SMILES CCCCCCCCCCCCCCCCCCCCCCCCCCCCCC(=O)[O-]
REMARK SMILES IDX 16 1 17 2 18 3 19 4 20 5 21 6 22 7 23 8 24 9 25 10 26 11
REMARK SMILES IDX 27 12 28 13 29 14 30 15 31 16 32 17 15 18 14 19 13 20 12 21
REMARK SMILES IDX 11 22 10 23 9 24 8 25 7 26 6 27 5 28 4 29 3 30 2 31 1 32
REMARK H PARENT
REMARK Flexibility Score: inf
ROOT
ATOM      1  C   UNL     1     -14.703   7.008 -19.834  1.00  0.00     0.000 C 
ENDROOT
BRANCH   1   2
ATOM      2  C   UNL     1     -15.161   7.936 -20.973  1.00  0.00     0.000 C 
BRANCH   2   3
ATOM      3  C   UNL     1     -16.687   8.123 -21.005  1.00  0.00     0.000 C 
BRANCH   3   4
ATOM      4  C   UNL     1     -17.446   6.837 -20.642  1.00  0.00     0.000 C 
BRANCH   4   5
ATOM      5  C   UNL     1     -17.649   5.947 -21.879  1.00  0.00     0.000 C 
BRANCH   5   6
ATOM      6  C   UNL     1     -17.852   4.467 -21.514  1.00  0.00     0.000 C 
BRANCH   6   7
ATOM      7  C   UNL     1     -17.024   4.043 -20.289  1.00  0.00     0.000 C 
BRANCH   7   8
ATOM      8  C   UNL     1     -16.391   2.649 -20.450  1.00  0.00     0.000 C 
BRANCH   8   9
ATOM      9  C   UNL     1     -14.984   2.495 -19.842  1.00  0.00     0.000 C 
BRANCH   9  10
ATOM     10  C   UNL     1     -14.181   1.348 -20.472  1.00  0.00     0.000 C 
BRANCH  10  11
ATOM     11  C   UNL     1     -15.093   0.166 -20.826  1.00  0.00     0.000 C 
BRANCH  11  12
ATOM     12  C   UNL     1     -14.697  -1.091 -20.042  1.00  0.00     0.000 C 
BRANCH  12  13
ATOM     13  C   UNL     1     -14.170  -2.183 -20.982  1.00  0.00     0.006 C 
BRANCH  13  14
ATOM     14  C   UNL     1     -13.101  -3.034 -20.288  1.00  0.00     0.053 C 
BRANCH  14  15
ATOM     15  C   UNL     1     -13.264  -4.481 -20.641  1.00  0.00     0.041 C 
ATOM     16  O   UNL     1     -12.845  -5.375 -19.859  1.00  0.00    -0.550 OA
ATOM     17  O   UNL     1     -13.886  -4.843 -21.831  1.00  0.00    -0.550 OA
ENDBRANCH  14  15
ENDBRANCH  13  14
ENDBRANCH  12  13
ENDBRANCH  11  12
ENDBRANCH  10  11
ENDBRANCH   9  10
ENDBRANCH   8   9
ENDBRANCH   7   8
ENDBRANCH   6   7
ENDBRANCH   5   6
ENDBRANCH   4   5
ENDBRANCH   3   4
ENDBRANCH   2   3
ENDBRANCH   1   2
BRANCH   1  18
ATOM     18  C   UNL     1     -13.773   5.885 -20.321  1.00  0.00     0.000 C 
BRANCH  18  19
ATOM     19  C   UNL     1     -13.617   5.873 -21.851  1.00  0.00     0.000 C 
BRANCH  19  20
ATOM     20  C   UNL     1     -14.108   4.564 -22.488  1.00  0.00     0.000 C 
BRANCH  20  21
ATOM     21  C   UNL     1     -14.585   4.750 -23.938  1.00  0.00     0.000 C 
BRANCH  21  22
ATOM     22  C   UNL     1     -15.690   3.739 -24.286  1.00  0.00     0.000 C 
BRANCH  22  23
ATOM     23  C   UNL     1     -16.886   4.384 -25.005  1.00  0.00     0.000 C 
BRANCH  23  24
ATOM     24  C   UNL     1     -16.475   5.571 -25.893  1.00  0.00    -0.000 C 
BRANCH  24  25
ATOM     25  C   UNL     1     -17.062   6.911 -25.410  1.00  0.00    -0.000 C 
BRANCH  25  26
ATOM     26  C   UNL     1     -16.103   7.790 -24.580  1.00  0.00    -0.000 C 
BRANCH  26  27
ATOM     27  C   UNL     1     -16.512   9.270 -24.462  1.00  0.00    -0.000 C 
BRANCH  27  28
ATOM     28  C   UNL     1     -18.008   9.497 -24.739  1.00  0.00    -0.000 C 
BRANCH  28  29
ATOM     29  C   UNL     1     -18.795   9.869 -23.473  1.00  0.00    -0.000 C 
BRANCH  29  30
ATOM     30  C   UNL     1     -19.841   8.804 -23.098  1.00  0.00    -0.000 C 
BRANCH  30  31
ATOM     31  C   UNL     1     -20.310   8.926 -21.640  1.00  0.00    -0.003 C 
ATOM     32  C   UNL     1     -19.791  10.189 -20.953  1.00  0.00     0.004 C 
ENDBRANCH  30  31
ENDBRANCH  29  30
ENDBRANCH  28  29
ENDBRANCH  27  28
ENDBRANCH  26  27
ENDBRANCH  25  26
ENDBRANCH  24  25
ENDBRANCH  23  24
ENDBRANCH  22  23
ENDBRANCH  21  22
ENDBRANCH  20  21
ENDBRANCH  19  20
ENDBRANCH  18  19
ENDBRANCH   1  18
TORSDOF 28
ENDMDL
