MODEL 1
REMARK VINA RESULT:    -5.611      0.000      0.000
REMARK INTER + INTRA:          -6.376
REMARK INTER:                  -6.103
REMARK INTRA:                  -0.274
REMARK UNBOUND:                -0.274
REMARK SMILES CC1=C[C@@H]2[C@@H](C(C)C)CC[C@@](C)(O)[C@H]2CC1
REMARK SMILES IDX 1 1 2 2 3 3 4 4 5 5 9 6 10 7 11 8 14 9 15 10 16 11 12 12
REMARK SMILES IDX 6 13 7 14 8 15 13 16
REMARK H PARENT 13 17
REMARK Flexibility Score: inf
ROOT
ATOM      1  C   UNL     1     149.473 143.652 141.368  1.00  0.00     0.039 C 
ATOM      2  C   UNL     1     149.020 142.227 141.192  1.00  0.00    -0.077 C 
ATOM      3  C   UNL     1     148.503 141.845 140.005  1.00  0.00    -0.024 C 
ATOM      4  C   UNL     1     148.091 140.410 139.693  1.00  0.00     0.021 C 
ATOM      5  C   UNL     1     146.855 140.322 138.736  1.00  0.00    -0.001 C 
ATOM      6  C   UNL     1     146.541 138.834 138.441  1.00  0.00     0.007 C 
ATOM      7  C   UNL     1     146.309 138.034 139.727  1.00  0.00     0.035 C 
ATOM      8  C   UNL     1     147.515 138.106 140.688  1.00  0.00     0.065 C 
ATOM      9  C   UNL     1     147.811 139.611 141.000  1.00  0.00     0.028 C 
ATOM     10  C   UNL     1     148.980 139.824 141.982  1.00  0.00     0.011 C 
ATOM     11  C   UNL     1     149.065 141.298 142.383  1.00  0.00     0.031 C 
ATOM     12  C   UNL     1     147.140 137.315 141.966  1.00  0.00     0.042 C 
ENDROOT
BRANCH   5  13
ATOM     13  C   UNL     1     146.985 141.164 137.418  1.00  0.00    -0.014 C 
ATOM     14  C   UNL     1     148.006 140.599 136.415  1.00  0.00     0.007 C 
ATOM     15  C   UNL     1     145.630 141.379 136.720  1.00  0.00     0.007 C 
ENDBRANCH   5  13
BRANCH   8  16
ATOM     16  O   UNL     1     148.617 137.495 140.056  1.00  0.00    -0.390 OA
ATOM     17  H   UNL     1     148.278 136.916 139.325  1.00  0.00     0.211 HD
ENDBRANCH   8  16
TORSDOF 2
ENDMDL
MODEL 2
REMARK VINA RESULT:    -5.428      1.772      2.143
REMARK INTER + INTRA:          -6.177
REMARK INTER:                  -5.913
REMARK INTRA:                  -0.265
REMARK UNBOUND:                -0.274
REMARK SMILES CC1=C[C@@H]2[C@@H](C(C)C)CC[C@@](C)(O)[C@H]2CC1
REMARK SMILES IDX 1 1 2 2 3 3 4 4 5 5 9 6 10 7 11 8 14 9 15 10 16 11 12 12
REMARK SMILES IDX 6 13 7 14 8 15 13 16
REMARK H PARENT 13 17
REMARK Flexibility Score: inf
ROOT
ATOM      1  C   UNL     1     148.809 141.604 142.502  1.00  0.00     0.039 C 
ATOM      2  C   UNL     1     148.929 140.525 141.458  1.00  0.00    -0.077 C 
ATOM      3  C   UNL     1     148.269 140.667 140.289  1.00  0.00    -0.024 C 
ATOM      4  C   UNL     1     148.386 139.676 139.135  1.00  0.00     0.021 C 
ATOM      5  C   UNL     1     147.058 139.525 138.320  1.00  0.00    -0.001 C 
ATOM      6  C   UNL     1     147.287 138.540 137.146  1.00  0.00     0.007 C 
ATOM      7  C   UNL     1     147.798 137.181 137.635  1.00  0.00     0.035 C 
ATOM      8  C   UNL     1     149.108 137.303 138.443  1.00  0.00     0.065 C 
ATOM      9  C   UNL     1     148.863 138.282 139.639  1.00  0.00     0.028 C 
ATOM     10  C   UNL     1     150.091 138.468 140.553  1.00  0.00     0.011 C 
ATOM     11  C   UNL     1     149.702 139.271 141.795  1.00  0.00     0.031 C 
ATOM     12  C   UNL     1     149.490 135.883 138.929  1.00  0.00     0.042 C 
ENDROOT
BRANCH   5  13
ATOM     13  C   UNL     1     146.431 140.879 137.832  1.00  0.00    -0.014 C 
ATOM     14  C   UNL     1     147.326 141.665 136.857  1.00  0.00     0.007 C 
ATOM     15  C   UNL     1     145.030 140.695 137.223  1.00  0.00     0.007 C 
ENDBRANCH   5  13
BRANCH   8  16
ATOM     16  O   UNL     1     150.110 137.798 137.583  1.00  0.00    -0.390 OA
ATOM     17  H   UNL     1     150.995 137.543 137.952  1.00  0.00     0.211 HD
ENDBRANCH   8  16
TORSDOF 2
ENDMDL
MODEL 3
REMARK VINA RESULT:    -5.409      1.699      4.447
REMARK INTER + INTRA:          -6.157
REMARK INTER:                  -5.887
REMARK INTRA:                  -0.270
REMARK UNBOUND:                -0.274
REMARK SMILES CC1=C[C@@H]2[C@@H](C(C)C)CC[C@@](C)(O)[C@H]2CC1
REMARK SMILES IDX 1 1 2 2 3 3 4 4 5 5 9 6 10 7 11 8 14 9 15 10 16 11 12 12
REMARK SMILES IDX 6 13 7 14 8 15 13 16
REMARK H PARENT 13 17
REMARK Flexibility Score: inf
ROOT
ATOM      1  C   UNL     1     144.893 141.499 136.609  1.00  0.00     0.039 C 
ATOM      2  C   UNL     1     145.932 140.575 137.186  1.00  0.00    -0.077 C 
ATOM      3  C   UNL     1     146.455 140.852 138.399  1.00  0.00    -0.024 C 
ATOM      4  C   UNL     1     147.450 139.942 139.111  1.00  0.00     0.021 C 
ATOM      5  C   UNL     1     148.495 140.729 139.970  1.00  0.00    -0.001 C 
ATOM      6  C   UNL     1     149.430 139.723 140.689  1.00  0.00     0.007 C 
ATOM      7  C   UNL     1     150.120 138.779 139.699  1.00  0.00     0.035 C 
ATOM      8  C   UNL     1     149.109 137.991 138.838  1.00  0.00     0.065 C 
ATOM      9  C   UNL     1     148.184 139.013 138.098  1.00  0.00     0.028 C 
ATOM     10  C   UNL     1     147.143 138.354 137.171  1.00  0.00     0.011 C 
ATOM     11  C   UNL     1     146.428 139.423 136.344  1.00  0.00     0.031 C 
ATOM     12  C   UNL     1     149.921 137.123 137.845  1.00  0.00     0.042 C 
ENDROOT
BRANCH   5  13
ATOM     13  C   UNL     1     147.873 141.765 140.972  1.00  0.00    -0.014 C 
ATOM     14  C   UNL     1     147.474 141.160 142.329  1.00  0.00     0.007 C 
ATOM     15  C   UNL     1     148.779 142.990 141.191  1.00  0.00     0.007 C 
ENDBRANCH   5  13
BRANCH   8  16
ATOM     16  O   UNL     1     148.358 137.159 139.695  1.00  0.00    -0.390 OA
ATOM     17  H   UNL     1     147.510 136.921 139.237  1.00  0.00     0.211 HD
ENDBRANCH   8  16
TORSDOF 2
ENDMDL
MODEL 4
REMARK VINA RESULT:    -5.352      1.915      5.067
REMARK INTER + INTRA:          -6.095
REMARK INTER:                  -5.820
REMARK INTRA:                  -0.274
REMARK UNBOUND:                -0.274
REMARK SMILES CC1=C[C@@H]2[C@@H](C(C)C)CC[C@@](C)(O)[C@H]2CC1
REMARK SMILES IDX 1 1 2 2 3 3 4 4 5 5 9 6 10 7 11 8 14 9 15 10 16 11 12 12
REMARK SMILES IDX 6 13 7 14 8 15 13 16
REMARK H PARENT 13 17
REMARK Flexibility Score: inf
ROOT
ATOM      1  C   UNL     1     148.011 135.154 140.700  1.00  0.00     0.039 C 
ATOM      2  C   UNL     1     148.194 136.416 139.900  1.00  0.00    -0.077 C 
ATOM      3  C   UNL     1     148.277 137.597 140.549  1.00  0.00    -0.024 C 
ATOM      4  C   UNL     1     148.543 138.923 139.844  1.00  0.00     0.021 C 
ATOM      5  C   UNL     1     147.817 140.134 140.520  1.00  0.00    -0.001 C 
ATOM      6  C   UNL     1     148.183 141.437 139.767  1.00  0.00     0.007 C 
ATOM      7  C   UNL     1     147.844 141.347 138.275  1.00  0.00     0.035 C 
ATOM      8  C   UNL     1     148.549 140.160 137.584  1.00  0.00     0.065 C 
ATOM      9  C   UNL     1     148.156 138.845 138.337  1.00  0.00     0.028 C 
ATOM     10  C   UNL     1     148.770 137.570 137.724  1.00  0.00     0.011 C 
ATOM     11  C   UNL     1     148.175 136.329 138.392  1.00  0.00     0.031 C 
ATOM     12  C   UNL     1     148.085 140.139 136.106  1.00  0.00     0.042 C 
ENDROOT
BRANCH   5  13
ATOM     13  C   UNL     1     148.062 140.264 142.066  1.00  0.00    -0.014 C 
ATOM     14  C   UNL     1     148.982 141.435 142.454  1.00  0.00     0.007 C 
ATOM     15  C   UNL     1     146.750 140.341 142.866  1.00  0.00     0.007 C 
ENDBRANCH   5  13
BRANCH   8  16
ATOM     16  O   UNL     1     149.941 140.380 137.645  1.00  0.00    -0.390 OA
ATOM     17  H   UNL     1     150.328 139.758 138.313  1.00  0.00     0.211 HD
ENDBRANCH   8  16
TORSDOF 2
ENDMDL
MODEL 5
REMARK VINA RESULT:    -5.175      1.929      4.924
REMARK INTER + INTRA:          -5.903
REMARK INTER:                  -5.630
REMARK INTRA:                  -0.273
REMARK UNBOUND:                -0.274
REMARK SMILES CC1=C[C@@H]2[C@@H](C(C)C)CC[C@@](C)(O)[C@H]2CC1
REMARK SMILES IDX 1 1 2 2 3 3 4 4 5 5 9 6 10 7 11 8 14 9 15 10 16 11 12 12
REMARK SMILES IDX 6 13 7 14 8 15 13 16
REMARK H PARENT 13 17
REMARK Flexibility Score: inf
ROOT
ATOM      1  C   UNL     1     145.560 138.966 135.784  1.00  0.00     0.039 C 
ATOM      2  C   UNL     1     146.429 139.583 136.848  1.00  0.00    -0.077 C 
ATOM      3  C   UNL     1     147.213 138.781 137.601  1.00  0.00    -0.024 C 
ATOM      4  C   UNL     1     148.189 139.307 138.648  1.00  0.00     0.021 C 
ATOM      5  C   UNL     1     148.337 138.355 139.881  1.00  0.00    -0.001 C 
ATOM      6  C   UNL     1     149.379 138.946 140.863  1.00  0.00     0.007 C 
ATOM      7  C   UNL     1     149.009 140.368 141.299  1.00  0.00     0.035 C 
ATOM      8  C   UNL     1     148.856 141.328 140.099  1.00  0.00     0.065 C 
ATOM      9  C   UNL     1     147.786 140.735 139.123  1.00  0.00     0.028 C 
ATOM     10  C   UNL     1     147.511 141.619 137.890  1.00  0.00     0.011 C 
ATOM     11  C   UNL     1     146.318 141.067 137.107  1.00  0.00     0.031 C 
ATOM     12  C   UNL     1     148.427 142.707 140.658  1.00  0.00     0.042 C 
ENDROOT
BRANCH   5  13
ATOM     13  C   UNL     1     148.657 136.861 139.521  1.00  0.00    -0.014 C 
ATOM     14  C   UNL     1     150.123 136.616 139.122  1.00  0.00     0.007 C 
ATOM     15  C   UNL     1     148.248 135.884 140.637  1.00  0.00     0.007 C 
ENDBRANCH   5  13
BRANCH   8  16
ATOM     16  O   UNL     1     150.111 141.440 139.464  1.00  0.00    -0.390 OA
ATOM     17  H   UNL     1     150.819 141.253 140.134  1.00  0.00     0.211 HD
ENDBRANCH   8  16
TORSDOF 2
ENDMDL
MODEL 6
REMARK VINA RESULT:    -5.105      1.512      4.954
REMARK INTER + INTRA:          -5.827
REMARK INTER:                  -5.553
REMARK INTRA:                  -0.274
REMARK UNBOUND:                -0.274
REMARK SMILES CC1=C[C@@H]2[C@@H](C(C)C)CC[C@@](C)(O)[C@H]2CC1
REMARK SMILES IDX 1 1 2 2 3 3 4 4 5 5 9 6 10 7 11 8 14 9 15 10 16 11 12 12
REMARK SMILES IDX 6 13 7 14 8 15 13 16
REMARK H PARENT 13 17
REMARK Flexibility Score: inf
ROOT
ATOM      1  C   UNL     1     144.650 139.168 136.779  1.00  0.00     0.039 C 
ATOM      2  C   UNL     1     145.773 139.776 137.576  1.00  0.00    -0.077 C 
ATOM      3  C   UNL     1     146.419 139.014 138.485  1.00  0.00    -0.024 C 
ATOM      4  C   UNL     1     147.621 139.503 139.287  1.00  0.00     0.021 C 
ATOM      5  C   UNL     1     147.680 138.902 140.731  1.00  0.00    -0.001 C 
ATOM      6  C   UNL     1     148.953 139.417 141.448  1.00  0.00     0.007 C 
ATOM      7  C   UNL     1     149.010 140.948 141.479  1.00  0.00     0.035 C 
ATOM      8  C   UNL     1     148.953 141.566 140.065  1.00  0.00     0.065 C 
ATOM      9  C   UNL     1     147.653 141.059 139.355  1.00  0.00     0.028 C 
ATOM     10  C   UNL     1     147.455 141.631 137.937  1.00  0.00     0.011 C 
ATOM     11  C   UNL     1     146.073 141.247 137.407  1.00  0.00     0.031 C 
ATOM     12  C   UNL     1     148.958 143.106 140.229  1.00  0.00     0.042 C 
ENDROOT
BRANCH   5  13
ATOM     13  C   UNL     1     147.566 137.338 140.795  1.00  0.00    -0.014 C 
ATOM     14  C   UNL     1     148.790 136.600 140.223  1.00  0.00     0.007 C 
ATOM     15  C   UNL     1     147.263 136.826 142.214  1.00  0.00     0.007 C 
ENDBRANCH   5  13
BRANCH   8  16
ATOM     16  O   UNL     1     150.104 141.157 139.361  1.00  0.00    -0.390 OA
ATOM     17  H   UNL     1     150.681 141.951 139.215  1.00  0.00     0.211 HD
ENDBRANCH   8  16
TORSDOF 2
ENDMDL
MODEL 7
REMARK VINA RESULT:    -5.044      1.888      3.949
REMARK INTER + INTRA:          -5.760
REMARK INTER:                  -5.644
REMARK INTRA:                  -0.116
REMARK UNBOUND:                -0.274
REMARK SMILES CC1=C[C@@H]2[C@@H](C(C)C)CC[C@@](C)(O)[C@H]2CC1
REMARK SMILES IDX 1 1 2 2 3 3 4 4 5 5 9 6 10 7 11 8 14 9 15 10 16 11 12 12
REMARK SMILES IDX 6 13 7 14 8 15 13 16
REMARK H PARENT 13 17
REMARK Flexibility Score: inf
ROOT
ATOM      1  C   UNL     1     144.885 138.863 143.531  1.00  0.00     0.039 C 
ATOM      2  C   UNL     1     145.948 138.599 142.498  1.00  0.00    -0.077 C 
ATOM      3  C   UNL     1     146.729 139.621 142.085  1.00  0.00    -0.024 C 
ATOM      4  C   UNL     1     147.886 139.448 141.106  1.00  0.00     0.021 C 
ATOM      5  C   UNL     1     148.087 140.686 140.170  1.00  0.00    -0.001 C 
ATOM      6  C   UNL     1     149.308 140.439 139.248  1.00  0.00     0.007 C 
ATOM      7  C   UNL     1     149.159 139.146 138.439  1.00  0.00     0.035 C 
ATOM      8  C   UNL     1     148.959 137.909 139.342  1.00  0.00     0.065 C 
ATOM      9  C   UNL     1     147.711 138.157 140.253  1.00  0.00     0.028 C 
ATOM     10  C   UNL     1     147.378 136.976 141.187  1.00  0.00     0.011 C 
ATOM     11  C   UNL     1     146.039 137.222 141.885  1.00  0.00     0.031 C 
ATOM     12  C   UNL     1     148.764 136.683 138.416  1.00  0.00     0.042 C 
ENDROOT
BRANCH   5  13
ATOM     13  C   UNL     1     148.187 142.063 140.916  1.00  0.00    -0.014 C 
ATOM     14  C   UNL     1     149.088 142.032 142.163  1.00  0.00     0.007 C 
ATOM     15  C   UNL     1     148.623 143.208 139.984  1.00  0.00     0.007 C 
ENDBRANCH   5  13
BRANCH   8  16
ATOM     16  O   UNL     1     150.125 137.739 140.118  1.00  0.00    -0.390 OA
ATOM     17  H   UNL     1     149.882 137.249 140.946  1.00  0.00     0.211 HD
ENDBRANCH   8  16
TORSDOF 2
ENDMDL
MODEL 8
REMARK VINA RESULT:    -4.884      2.045      3.726
REMARK INTER + INTRA:          -5.586
REMARK INTER:                  -5.364
REMARK INTRA:                  -0.223
REMARK UNBOUND:                -0.274
REMARK SMILES CC1=C[C@@H]2[C@@H](C(C)C)CC[C@@](C)(O)[C@H]2CC1
REMARK SMILES IDX 1 1 2 2 3 3 4 4 5 5 9 6 10 7 11 8 14 9 15 10 16 11 12 12
REMARK SMILES IDX 6 13 7 14 8 15 13 16
REMARK H PARENT 13 17
REMARK Flexibility Score: inf
ROOT
ATOM      1  C   UNL     1     150.087 136.311 137.476  1.00  0.00     0.039 C 
ATOM      2  C   UNL     1     149.565 137.328 138.456  1.00  0.00    -0.077 C 
ATOM      3  C   UNL     1     148.681 138.256 138.029  1.00  0.00    -0.024 C 
ATOM      4  C   UNL     1     148.029 139.279 138.953  1.00  0.00     0.021 C 
ATOM      5  C   UNL     1     147.763 140.654 138.255  1.00  0.00    -0.001 C 
ATOM      6  C   UNL     1     147.059 141.609 139.252  1.00  0.00     0.007 C 
ATOM      7  C   UNL     1     147.870 141.785 140.541  1.00  0.00     0.035 C 
ATOM      8  C   UNL     1     148.145 140.441 141.249  1.00  0.00     0.065 C 
ATOM      9  C   UNL     1     148.876 139.491 140.243  1.00  0.00     0.028 C 
ATOM     10  C   UNL     1     149.242 138.117 140.838  1.00  0.00     0.011 C 
ATOM     11  C   UNL     1     150.125 137.341 139.859  1.00  0.00     0.031 C 
ATOM     12  C   UNL     1     149.014 140.741 142.495  1.00  0.00     0.042 C 
ENDROOT
BRANCH   5  13
ATOM     13  C   UNL     1     146.989 140.559 136.892  1.00  0.00    -0.014 C 
ATOM     14  C   UNL     1     145.743 141.458 136.819  1.00  0.00     0.007 C 
ATOM     15  C   UNL     1     147.898 140.824 135.678  1.00  0.00     0.007 C 
ENDBRANCH   5  13
BRANCH   8  16
ATOM     16  O   UNL     1     146.908 139.895 141.650  1.00  0.00    -0.390 OA
ATOM     17  H   UNL     1     146.917 139.788 142.637  1.00  0.00     0.211 HD
ENDBRANCH   8  16
TORSDOF 2
ENDMDL
MODEL 9
REMARK VINA RESULT:    -4.819      9.423     12.100
REMARK INTER + INTRA:          -5.515
REMARK INTER:                  -5.241
REMARK INTRA:                  -0.274
REMARK UNBOUND:                -0.274
REMARK SMILES CC1=C[C@@H]2[C@@H](C(C)C)CC[C@@](C)(O)[C@H]2CC1
REMARK SMILES IDX 1 1 2 2 3 3 4 4 5 5 9 6 10 7 11 8 14 9 15 10 16 11 12 12
REMARK SMILES IDX 6 13 7 14 8 15 13 16
REMARK H PARENT 13 17
REMARK Flexibility Score: inf
ROOT
ATOM      1  C   UNL     1     143.653 148.511 132.359  1.00  0.00     0.039 C 
ATOM      2  C   UNL     1     144.899 147.983 131.699  1.00  0.00    -0.077 C 
ATOM      3  C   UNL     1     146.067 148.021 132.377  1.00  0.00    -0.024 C 
ATOM      4  C   UNL     1     147.369 147.440 131.836  1.00  0.00     0.021 C 
ATOM      5  C   UNL     1     148.633 148.248 132.283  1.00  0.00    -0.001 C 
ATOM      6  C   UNL     1     149.904 147.559 131.727  1.00  0.00     0.007 C 
ATOM      7  C   UNL     1     149.850 147.407 130.203  1.00  0.00     0.035 C 
ATOM      8  C   UNL     1     148.611 146.613 129.737  1.00  0.00     0.065 C 
ATOM      9  C   UNL     1     147.330 147.327 130.283  1.00  0.00     0.028 C 
ATOM     10  C   UNL     1     146.011 146.651 129.858  1.00  0.00     0.011 C 
ATOM     11  C   UNL     1     144.822 147.524 130.262  1.00  0.00     0.031 C 
ATOM     12  C   UNL     1     148.636 146.577 128.188  1.00  0.00     0.042 C 
ENDROOT
BRANCH   5  13
ATOM     13  C   UNL     1     148.735 148.503 133.829  1.00  0.00    -0.014 C 
ATOM     14  C   UNL     1     149.030 147.236 134.651  1.00  0.00     0.007 C 
ATOM     15  C   UNL     1     149.753 149.603 134.179  1.00  0.00     0.007 C 
ENDBRANCH   5  13
BRANCH   8  16
ATOM     16  O   UNL     1     148.713 145.301 130.246  1.00  0.00    -0.390 OA
ATOM     17  H   UNL     1     147.907 145.113 130.793  1.00  0.00     0.211 HD
ENDBRANCH   8  16
TORSDOF 2
ENDMDL
