MODEL 1
REMARK VINA RESULT:    -3.702      0.000      0.000
REMARK INTER + INTRA:          -4.078
REMARK INTER:                  -4.027
REMARK INTRA:                  -0.051
REMARK UNBOUND:                -0.051
REMARK SMILES CCc1cccc(O)c1
REMARK SMILES IDX 3 1 9 2 7 3 6 4 5 5 4 6 2 7 1 8 8 9
REMARK H PARENT 8 10
REMARK Flexibility Score: inf
ROOT
ATOM      1  C   UNL     1      11.160   7.765  18.496  1.00  0.00    -0.045 A 
ATOM      2  C   UNL     1      11.248   6.374  18.681  1.00  0.00     0.049 A 
ATOM      3  C   UNL     1      11.160   5.508  17.583  1.00  0.00     0.115 A 
ATOM      4  C   UNL     1      10.976   6.029  16.298  1.00  0.00     0.046 A 
ATOM      5  C   UNL     1      10.875   7.410  16.109  1.00  0.00     0.004 A 
ATOM      6  C   UNL     1      10.961   8.276  17.203  1.00  0.00     0.004 A 
ENDROOT
BRANCH   1   7
ATOM      7  C   UNL     1      11.221   8.694  19.679  1.00  0.00     0.032 C 
ATOM      8  C   UNL     1      11.625   7.937  20.939  1.00  0.00     0.009 C 
ENDBRANCH   1   7
BRANCH   3   9
ATOM      9  O   UNL     1      11.252   4.128  17.758  1.00  0.00    -0.508 OA
ATOM     10  H   UNL     1      10.426   3.543  17.795  1.00  0.00     0.293 HD
ENDBRANCH   3   9
TORSDOF 2
ENDMDL
MODEL 2
REMARK VINA RESULT:    -3.690      2.798      4.232
REMARK INTER + INTRA:          -4.064
REMARK INTER:                  -3.993
REMARK INTRA:                  -0.071
REMARK UNBOUND:                -0.051
REMARK SMILES CCc1cccc(O)c1
REMARK SMILES IDX 3 1 9 2 7 3 6 4 5 5 4 6 2 7 1 8 8 9
REMARK H PARENT 8 10
REMARK Flexibility Score: inf
ROOT
ATOM      1  C   UNL     1      12.860   5.351  16.931  1.00  0.00    -0.045 A 
ATOM      2  C   UNL     1      13.927   4.497  16.603  1.00  0.00     0.049 A 
ATOM      3  C   UNL     1      14.398   3.562  17.536  1.00  0.00     0.115 A 
ATOM      4  C   UNL     1      13.808   3.485  18.801  1.00  0.00     0.046 A 
ATOM      5  C   UNL     1      12.755   4.341  19.138  1.00  0.00     0.004 A 
ATOM      6  C   UNL     1      12.285   5.273  18.210  1.00  0.00     0.004 A 
ENDROOT
BRANCH   1   7
ATOM      7  C   UNL     1      12.377   6.377  15.941  1.00  0.00     0.032 C 
ATOM      8  C   UNL     1      10.887   6.642  16.123  1.00  0.00     0.009 C 
ENDBRANCH   1   7
BRANCH   3   9
ATOM      9  O   UNL     1      15.452   2.708  17.215  1.00  0.00    -0.508 OA
ATOM     10  H   UNL     1      15.530   2.285  16.299  1.00  0.00     0.293 HD
ENDBRANCH   3   9
TORSDOF 2
ENDMDL
MODEL 3
REMARK VINA RESULT:    -3.671      2.992      3.731
REMARK INTER + INTRA:          -4.044
REMARK INTER:                  -3.970
REMARK INTRA:                  -0.074
REMARK UNBOUND:                -0.051
REMARK SMILES CCc1cccc(O)c1
REMARK SMILES IDX 3 1 9 2 7 3 6 4 5 5 4 6 2 7 1 8 8 9
REMARK H PARENT 8 10
REMARK Flexibility Score: inf
ROOT
ATOM      1  C   UNL     1      12.638   5.183  17.337  1.00  0.00    -0.045 A 
ATOM      2  C   UNL     1      13.351   4.011  17.643  1.00  0.00     0.049 A 
ATOM      3  C   UNL     1      14.612   3.782  17.074  1.00  0.00     0.115 A 
ATOM      4  C   UNL     1      15.158   4.720  16.193  1.00  0.00     0.046 A 
ATOM      5  C   UNL     1      14.448   5.881  15.875  1.00  0.00     0.004 A 
ATOM      6  C   UNL     1      13.191   6.111  16.440  1.00  0.00     0.004 A 
ENDROOT
BRANCH   1   7
ATOM      7  C   UNL     1      11.270   5.414  17.922  1.00  0.00     0.032 C 
ATOM      8  C   UNL     1      10.882   6.884  17.823  1.00  0.00     0.009 C 
ENDBRANCH   1   7
BRANCH   3   9
ATOM      9  O   UNL     1      15.327   2.624  17.377  1.00  0.00    -0.508 OA
ATOM     10  H   UNL     1      15.297   1.811  16.774  1.00  0.00     0.293 HD
ENDBRANCH   3   9
TORSDOF 2
ENDMDL
MODEL 4
REMARK VINA RESULT:    -3.591      2.339      3.476
REMARK INTER + INTRA:          -3.957
REMARK INTER:                  -3.884
REMARK INTRA:                  -0.073
REMARK UNBOUND:                -0.051
REMARK SMILES CCc1cccc(O)c1
REMARK SMILES IDX 3 1 9 2 7 3 6 4 5 5 4 6 2 7 1 8 8 9
REMARK H PARENT 8 10
REMARK Flexibility Score: inf
ROOT
ATOM      1  C   UNL     1      12.731   4.694  18.952  1.00  0.00    -0.045 A 
ATOM      2  C   UNL     1      12.223   4.647  17.643  1.00  0.00     0.049 A 
ATOM      3  C   UNL     1      11.379   5.664  17.175  1.00  0.00     0.115 A 
ATOM      4  C   UNL     1      11.037   6.727  18.016  1.00  0.00     0.046 A 
ATOM      5  C   UNL     1      11.529   6.773  19.324  1.00  0.00     0.004 A 
ATOM      6  C   UNL     1      12.369   5.760  19.793  1.00  0.00     0.004 A 
ENDROOT
BRANCH   1   7
ATOM      7  C   UNL     1      13.610   3.585  19.467  1.00  0.00     0.032 C 
ATOM      8  C   UNL     1      13.380   3.362  20.957  1.00  0.00     0.009 C 
ENDBRANCH   1   7
BRANCH   3   9
ATOM      9  O   UNL     1      10.875   5.625  15.876  1.00  0.00    -0.508 OA
ATOM     10  H   UNL     1      10.277   6.360  15.518  1.00  0.00     0.293 HD
ENDBRANCH   3   9
TORSDOF 2
ENDMDL
MODEL 5
REMARK VINA RESULT:    -3.450      3.903      4.810
REMARK INTER + INTRA:          -3.803
REMARK INTER:                  -3.729
REMARK INTRA:                  -0.074
REMARK UNBOUND:                -0.051
REMARK SMILES CCc1cccc(O)c1
REMARK SMILES IDX 3 1 9 2 7 3 6 4 5 5 4 6 2 7 1 8 8 9
REMARK H PARENT 8 10
REMARK Flexibility Score: inf
ROOT
ATOM      1  C   UNL     1      14.023   3.369  19.480  1.00  0.00    -0.045 A 
ATOM      2  C   UNL     1      14.669   3.108  18.260  1.00  0.00     0.049 A 
ATOM      3  C   UNL     1      14.256   3.758  17.088  1.00  0.00     0.115 A 
ATOM      4  C   UNL     1      13.191   4.663  17.133  1.00  0.00     0.046 A 
ATOM      5  C   UNL     1      12.536   4.917  18.341  1.00  0.00     0.004 A 
ATOM      6  C   UNL     1      12.945   4.269  19.510  1.00  0.00     0.004 A 
ENDROOT
BRANCH   1   7
ATOM      7  C   UNL     1      14.444   2.647  20.732  1.00  0.00     0.032 C 
ATOM      8  C   UNL     1      13.285   2.554  21.718  1.00  0.00     0.009 C 
ENDBRANCH   1   7
BRANCH   3   9
ATOM      9  O   UNL     1      14.896   3.508  15.875  1.00  0.00    -0.508 OA
ATOM     10  H   UNL     1      15.690   2.883  15.815  1.00  0.00     0.293 HD
ENDBRANCH   3   9
TORSDOF 2
ENDMDL
MODEL 6
REMARK VINA RESULT:    -3.446      2.539      3.612
REMARK INTER + INTRA:          -3.799
REMARK INTER:                  -3.750
REMARK INTRA:                  -0.049
REMARK UNBOUND:                -0.051
REMARK SMILES CCc1cccc(O)c1
REMARK SMILES IDX 3 1 9 2 7 3 6 4 5 5 4 6 2 7 1 8 8 9
REMARK H PARENT 8 10
REMARK Flexibility Score: inf
ROOT
ATOM      1  C   UNL     1      13.478   5.903  16.494  1.00  0.00    -0.045 A 
ATOM      2  C   UNL     1      13.411   5.202  17.710  1.00  0.00     0.049 A 
ATOM      3  C   UNL     1      12.170   4.915  18.295  1.00  0.00     0.115 A 
ATOM      4  C   UNL     1      10.992   5.335  17.668  1.00  0.00     0.046 A 
ATOM      5  C   UNL     1      11.053   6.044  16.464  1.00  0.00     0.004 A 
ATOM      6  C   UNL     1      12.289   6.332  15.881  1.00  0.00     0.004 A 
ENDROOT
BRANCH   1   7
ATOM      7  C   UNL     1      14.812   6.240  15.884  1.00  0.00     0.032 C 
ATOM      8  C   UNL     1      15.867   5.220  16.294  1.00  0.00     0.009 C 
ENDBRANCH   1   7
BRANCH   3   9
ATOM      9  O   UNL     1      12.096   4.216  19.498  1.00  0.00    -0.508 OA
ATOM     10  H   UNL     1      12.787   3.519  19.748  1.00  0.00     0.293 HD
ENDBRANCH   3   9
TORSDOF 2
ENDMDL
MODEL 7
REMARK VINA RESULT:    -3.446      3.266      4.683
REMARK INTER + INTRA:          -3.799
REMARK INTER:                  -3.747
REMARK INTRA:                  -0.052
REMARK UNBOUND:                -0.051
REMARK SMILES CCc1cccc(O)c1
REMARK SMILES IDX 3 1 9 2 7 3 6 4 5 5 4 6 2 7 1 8 8 9
REMARK H PARENT 8 10
REMARK Flexibility Score: inf
ROOT
ATOM      1  C   UNL     1      12.599   4.475  17.843  1.00  0.00    -0.045 A 
ATOM      2  C   UNL     1      13.499   4.386  16.768  1.00  0.00     0.049 A 
ATOM      3  C   UNL     1      14.746   3.769  16.939  1.00  0.00     0.115 A 
ATOM      4  C   UNL     1      15.099   3.247  18.187  1.00  0.00     0.046 A 
ATOM      5  C   UNL     1      14.213   3.344  19.264  1.00  0.00     0.004 A 
ATOM      6  C   UNL     1      12.970   3.960  19.096  1.00  0.00     0.004 A 
ENDROOT
BRANCH   1   7
ATOM      7  C   UNL     1      11.273   5.167  17.668  1.00  0.00     0.032 C 
ATOM      8  C   UNL     1      11.310   6.109  16.471  1.00  0.00     0.009 C 
ENDBRANCH   1   7
BRANCH   3   9
ATOM      9  O   UNL     1      15.642   3.672  15.875  1.00  0.00    -0.508 OA
ATOM     10  H   UNL     1      15.753   4.425  15.207  1.00  0.00     0.293 HD
ENDBRANCH   3   9
TORSDOF 2
ENDMDL
MODEL 8
REMARK VINA RESULT:    -3.433      2.104      2.815
REMARK INTER + INTRA:          -3.785
REMARK INTER:                  -3.715
REMARK INTRA:                  -0.071
REMARK UNBOUND:                -0.051
REMARK SMILES CCc1cccc(O)c1
REMARK SMILES IDX 3 1 9 2 7 3 6 4 5 5 4 6 2 7 1 8 8 9
REMARK H PARENT 8 10
REMARK Flexibility Score: inf
ROOT
ATOM      1  C   UNL     1      11.568   6.533  18.560  1.00  0.00    -0.045 A 
ATOM      2  C   UNL     1      11.510   7.851  18.074  1.00  0.00     0.049 A 
ATOM      3  C   UNL     1      11.161   8.098  16.739  1.00  0.00     0.115 A 
ATOM      4  C   UNL     1      10.875   7.028  15.885  1.00  0.00     0.046 A 
ATOM      5  C   UNL     1      10.943   5.714  16.359  1.00  0.00     0.004 A 
ATOM      6  C   UNL     1      11.292   5.466  17.689  1.00  0.00     0.004 A 
ENDROOT
BRANCH   1   7
ATOM      7  C   UNL     1      11.975   6.266  19.984  1.00  0.00     0.032 C 
ATOM      8  C   UNL     1      12.958   5.103  20.055  1.00  0.00     0.009 C 
ENDBRANCH   1   7
BRANCH   3   9
ATOM      9  O   UNL     1      11.097   9.402  16.252  1.00  0.00    -0.508 OA
ATOM     10  H   UNL     1      11.914   9.866  15.874  1.00  0.00     0.293 HD
ENDBRANCH   3   9
TORSDOF 2
ENDMDL
MODEL 9
REMARK VINA RESULT:    -3.424      2.706      4.183
REMARK INTER + INTRA:          -3.775
REMARK INTER:                  -3.724
REMARK INTRA:                  -0.051
REMARK UNBOUND:                -0.051
REMARK SMILES CCc1cccc(O)c1
REMARK SMILES IDX 3 1 9 2 7 3 6 4 5 5 4 6 2 7 1 8 8 9
REMARK H PARENT 8 10
REMARK Flexibility Score: inf
ROOT
ATOM      1  C   UNL     1      12.996   5.228  16.950  1.00  0.00    -0.045 A 
ATOM      2  C   UNL     1      12.440   5.058  18.230  1.00  0.00     0.049 A 
ATOM      3  C   UNL     1      12.997   4.135  19.126  1.00  0.00     0.115 A 
ATOM      4  C   UNL     1      14.106   3.374  18.742  1.00  0.00     0.046 A 
ATOM      5  C   UNL     1      14.655   3.529  17.466  1.00  0.00     0.004 A 
ATOM      6  C   UNL     1      14.100   4.447  16.571  1.00  0.00     0.004 A 
ENDROOT
BRANCH   1   7
ATOM      7  C   UNL     1      12.378   6.195  15.976  1.00  0.00     0.032 C 
ATOM      8  C   UNL     1      10.875   6.305  16.206  1.00  0.00     0.009 C 
ENDBRANCH   1   7
BRANCH   3   9
ATOM      9  O   UNL     1      12.455   3.965  20.399  1.00  0.00    -0.508 OA
ATOM     10  H   UNL     1      12.431   3.058  20.848  1.00  0.00     0.293 HD
ENDBRANCH   3   9
TORSDOF 2
ENDMDL
