MODEL 1
REMARK VINA RESULT:    -4.188      0.000      0.000
REMARK INTER + INTRA:          -5.806
REMARK INTER:                  -5.658
REMARK INTRA:                  -0.148
REMARK UNBOUND:                -0.148
REMARK SMILES CCCCCCCC(=O)[O-]
REMARK SMILES IDX 5 1 6 2 7 3 8 4 9 5 10 6 4 7 3 8 2 9 1 10
REMARK H PARENT
REMARK Flexibility Score: inf
ROOT
ATOM      1  C   UNL     1       2.938  43.453  67.768  1.00  0.00     0.000 C 
ENDROOT
BRANCH   1   2
ATOM      2  C   UNL     1       3.341  42.613  68.992  1.00  0.00     0.006 C 
BRANCH   2   3
ATOM      3  C   UNL     1       2.725  43.150  70.291  1.00  0.00     0.053 C 
BRANCH   3   4
ATOM      4  C   UNL     1       3.775  43.581  71.268  1.00  0.00     0.041 C 
ATOM      5  O   UNL     1       3.490  44.383  72.195  1.00  0.00    -0.550 OA
ATOM      6  O   UNL     1       5.079  43.118  71.137  1.00  0.00    -0.550 OA
ENDBRANCH   3   4
ENDBRANCH   2   3
ENDBRANCH   1   2
BRANCH   1   7
ATOM      7  C   UNL     1       3.232  42.740  66.438  1.00  0.00     0.000 C 
BRANCH   7   8
ATOM      8  C   UNL     1       2.590  43.445  65.234  1.00  0.00    -0.000 C 
BRANCH   8   9
ATOM      9  C   UNL     1       3.644  43.784  64.173  1.00  0.00    -0.003 C 
ATOM     10  C   UNL     1       3.682  45.284  63.893  1.00  0.00     0.004 C 
ENDBRANCH   8   9
ENDBRANCH   7   8
ENDBRANCH   1   7
TORSDOF 6
ENDMDL
MODEL 2
REMARK VINA RESULT:    -4.019      3.364      5.781
REMARK INTER + INTRA:          -5.577
REMARK INTER:                  -5.318
REMARK INTRA:                  -0.259
REMARK UNBOUND:                -0.148
REMARK SMILES CCCCCCCC(=O)[O-]
REMARK SMILES IDX 5 1 6 2 7 3 8 4 9 5 10 6 4 7 3 8 2 9 1 10
REMARK H PARENT
REMARK Flexibility Score: inf
ROOT
ATOM      1  C   UNL     1       2.235  44.093  68.086  1.00  0.00     0.000 C 
ENDROOT
BRANCH   1   2
ATOM      2  C   UNL     1       3.178  44.903  67.179  1.00  0.00     0.006 C 
BRANCH   2   3
ATOM      3  C   UNL     1       2.611  45.077  65.764  1.00  0.00     0.053 C 
BRANCH   3   4
ATOM      4  C   UNL     1       3.483  44.429  64.732  1.00  0.00     0.041 C 
ATOM      5  O   UNL     1       4.086  45.130  63.879  1.00  0.00    -0.550 OA
ATOM      6  O   UNL     1       3.606  43.046  64.696  1.00  0.00    -0.550 OA
ENDBRANCH   3   4
ENDBRANCH   2   3
ENDBRANCH   1   2
BRANCH   1   7
ATOM      7  C   UNL     1       2.991  43.137  69.023  1.00  0.00     0.000 C 
BRANCH   7   8
ATOM      8  C   UNL     1       2.342  43.031  70.411  1.00  0.00    -0.000 C 
BRANCH   8   9
ATOM      9  C   UNL     1       3.185  43.755  71.466  1.00  0.00    -0.003 C 
ATOM     10  C   UNL     1       4.671  43.686  71.128  1.00  0.00     0.004 C 
ENDBRANCH   8   9
ENDBRANCH   7   8
ENDBRANCH   1   7
TORSDOF 6
ENDMDL
MODEL 3
REMARK VINA RESULT:    -3.924     12.956     14.713
REMARK INTER + INTRA:          -5.449
REMARK INTER:                  -4.956
REMARK INTRA:                  -0.493
REMARK UNBOUND:                -0.148
REMARK SMILES CCCCCCCC(=O)[O-]
REMARK SMILES IDX 5 1 6 2 7 3 8 4 9 5 10 6 4 7 3 8 2 9 1 10
REMARK H PARENT
REMARK Flexibility Score: inf
ROOT
ATOM      1  C   UNL     1      17.008  42.999  75.181  1.00  0.00     0.000 C 
ENDROOT
BRANCH   1   2
ATOM      2  C   UNL     1      16.207  43.005  73.868  1.00  0.00     0.006 C 
BRANCH   2   3
ATOM      3  C   UNL     1      14.693  42.941  74.115  1.00  0.00     0.053 C 
BRANCH   3   4
ATOM      4  C   UNL     1      14.196  44.153  74.841  1.00  0.00     0.041 C 
ATOM      5  O   UNL     1      13.396  44.032  75.805  1.00  0.00    -0.550 OA
ATOM      6  O   UNL     1      14.596  45.420  74.435  1.00  0.00    -0.550 OA
ENDBRANCH   3   4
ENDBRANCH   2   3
ENDBRANCH   1   2
BRANCH   1   7
ATOM      7  C   UNL     1      17.997  41.825  75.266  1.00  0.00     0.000 C 
BRANCH   7   8
ATOM      8  C   UNL     1      17.897  40.878  74.060  1.00  0.00    -0.000 C 
BRANCH   8   9
ATOM      9  C   UNL     1      17.447  39.480  74.497  1.00  0.00    -0.003 C 
ATOM     10  C   UNL     1      15.969  39.255  74.191  1.00  0.00     0.004 C 
ENDBRANCH   8   9
ENDBRANCH   7   8
ENDBRANCH   1   7
TORSDOF 6
ENDMDL
MODEL 4
REMARK VINA RESULT:    -3.879      8.751      9.718
REMARK INTER + INTRA:          -5.388
REMARK INTER:                  -5.087
REMARK INTRA:                  -0.301
REMARK UNBOUND:                -0.148
REMARK SMILES CCCCCCCC(=O)[O-]
REMARK SMILES IDX 5 1 6 2 7 3 8 4 9 5 10 6 4 7 3 8 2 9 1 10
REMARK H PARENT
REMARK Flexibility Score: inf
ROOT
ATOM      1  C   UNL     1       5.357  34.091  70.741  1.00  0.00     0.000 C 
ENDROOT
BRANCH   1   2
ATOM      2  C   UNL     1       4.845  35.538  70.634  1.00  0.00     0.006 C 
BRANCH   2   3
ATOM      3  C   UNL     1       3.490  35.725  71.329  1.00  0.00     0.053 C 
BRANCH   3   4
ATOM      4  C   UNL     1       2.348  35.557  70.374  1.00  0.00     0.041 C 
ATOM      5  O   UNL     1       1.695  34.481  70.348  1.00  0.00    -0.550 OA
ATOM      6  O   UNL     1       2.022  36.580  69.493  1.00  0.00    -0.550 OA
ENDBRANCH   3   4
ENDBRANCH   2   3
ENDBRANCH   1   2
BRANCH   1   7
ATOM      7  C   UNL     1       6.891  34.001  70.705  1.00  0.00     0.000 C 
BRANCH   7   8
ATOM      8  C   UNL     1       7.422  33.476  69.362  1.00  0.00    -0.000 C 
BRANCH   8   9
ATOM      9  C   UNL     1       7.731  34.633  68.406  1.00  0.00    -0.003 C 
ATOM     10  C   UNL     1       6.955  34.492  67.099  1.00  0.00     0.004 C 
ENDBRANCH   8   9
ENDBRANCH   7   8
ENDBRANCH   1   7
TORSDOF 6
ENDMDL
MODEL 5
REMARK VINA RESULT:    -3.856     10.384     11.794
REMARK INTER + INTRA:          -5.356
REMARK INTER:                  -5.099
REMARK INTRA:                  -0.257
REMARK UNBOUND:                -0.148
REMARK SMILES CCCCCCCC(=O)[O-]
REMARK SMILES IDX 5 1 6 2 7 3 8 4 9 5 10 6 4 7 3 8 2 9 1 10
REMARK H PARENT
REMARK Flexibility Score: inf
ROOT
ATOM      1  C   UNL     1       6.979  34.889  69.061  1.00  0.00     0.000 C 
ENDROOT
BRANCH   1   2
ATOM      2  C   UNL     1       7.620  34.119  67.894  1.00  0.00     0.006 C 
BRANCH   2   3
ATOM      3  C   UNL     1       8.301  32.825  68.360  1.00  0.00     0.053 C 
BRANCH   3   4
ATOM      4  C   UNL     1       8.846  32.037  67.208  1.00  0.00     0.041 C 
ATOM      5  O   UNL     1       8.068  31.407  66.445  1.00  0.00    -0.550 OA
ATOM      6  O   UNL     1      10.217  31.976  66.995  1.00  0.00    -0.550 OA
ENDBRANCH   3   4
ENDBRANCH   2   3
ENDBRANCH   1   2
BRANCH   1   7
ATOM      7  C   UNL     1       6.880  34.047  70.343  1.00  0.00     0.000 C 
BRANCH   7   8
ATOM      8  C   UNL     1       5.464  34.039  70.939  1.00  0.00    -0.000 C 
BRANCH   8   9
ATOM      9  C   UNL     1       4.735  35.352  70.636  1.00  0.00    -0.003 C 
ATOM     10  C   UNL     1       3.659  35.640  71.679  1.00  0.00     0.004 C 
ENDBRANCH   8   9
ENDBRANCH   7   8
ENDBRANCH   1   7
TORSDOF 6
ENDMDL
MODEL 6
REMARK VINA RESULT:    -3.824      9.495     10.912
REMARK INTER + INTRA:          -5.314
REMARK INTER:                  -4.928
REMARK INTRA:                  -0.386
REMARK UNBOUND:                -0.148
REMARK SMILES CCCCCCCC(=O)[O-]
REMARK SMILES IDX 5 1 6 2 7 3 8 4 9 5 10 6 4 7 3 8 2 9 1 10
REMARK H PARENT
REMARK Flexibility Score: inf
ROOT
ATOM      1  C   UNL     1       7.288  33.912  69.913  1.00  0.00     0.000 C 
ENDROOT
BRANCH   1   2
ATOM      2  C   UNL     1       7.379  34.802  68.662  1.00  0.00     0.006 C 
BRANCH   2   3
ATOM      3  C   UNL     1       7.392  33.979  67.367  1.00  0.00     0.053 C 
BRANCH   3   4
ATOM      4  C   UNL     1       6.131  33.187  67.198  1.00  0.00     0.041 C 
ATOM      5  O   UNL     1       6.174  31.931  67.133  1.00  0.00    -0.550 OA
ATOM      6  O   UNL     1       4.911  33.840  67.084  1.00  0.00    -0.550 OA
ENDBRANCH   3   4
ENDBRANCH   2   3
ENDBRANCH   1   2
BRANCH   1   7
ATOM      7  C   UNL     1       5.967  34.097  70.677  1.00  0.00     0.000 C 
BRANCH   7   8
ATOM      8  C   UNL     1       5.369  35.500  70.495  1.00  0.00    -0.000 C 
BRANCH   8   9
ATOM      9  C   UNL     1       3.837  35.447  70.497  1.00  0.00    -0.003 C 
ATOM     10  C   UNL     1       3.277  35.725  71.888  1.00  0.00     0.004 C 
ENDBRANCH   8   9
ENDBRANCH   7   8
ENDBRANCH   1   7
TORSDOF 6
ENDMDL
MODEL 7
REMARK VINA RESULT:    -3.815      8.785     10.319
REMARK INTER + INTRA:          -5.301
REMARK INTER:                  -5.070
REMARK INTRA:                  -0.231
REMARK UNBOUND:                -0.148
REMARK SMILES CCCCCCCC(=O)[O-]
REMARK SMILES IDX 5 1 6 2 7 3 8 4 9 5 10 6 4 7 3 8 2 9 1 10
REMARK H PARENT
REMARK Flexibility Score: inf
ROOT
ATOM      1  C   UNL     1       5.671  34.001  70.561  1.00  0.00     0.000 C 
ENDROOT
BRANCH   1   2
ATOM      2  C   UNL     1       7.049  33.786  69.912  1.00  0.00     0.006 C 
BRANCH   2   3
ATOM      3  C   UNL     1       7.344  34.829  68.826  1.00  0.00     0.053 C 
BRANCH   3   4
ATOM      4  C   UNL     1       7.330  34.224  67.455  1.00  0.00     0.041 C 
ATOM      5  O   UNL     1       8.016  33.198  67.206  1.00  0.00    -0.550 OA
ATOM      6  O   UNL     1       6.578  34.810  66.445  1.00  0.00    -0.550 OA
ENDBRANCH   3   4
ENDBRANCH   2   3
ENDBRANCH   1   2
BRANCH   1   7
ATOM      7  C   UNL     1       5.223  35.471  70.528  1.00  0.00     0.000 C 
BRANCH   7   8
ATOM      8  C   UNL     1       3.804  35.672  71.080  1.00  0.00    -0.000 C 
BRANCH   8   9
ATOM      9  C   UNL     1       2.750  35.312  70.027  1.00  0.00    -0.003 C 
ATOM     10  C   UNL     1       1.664  36.381  69.945  1.00  0.00     0.004 C 
ENDBRANCH   8   9
ENDBRANCH   7   8
ENDBRANCH   1   7
TORSDOF 6
ENDMDL
MODEL 8
REMARK VINA RESULT:    -3.782      8.878      9.898
REMARK INTER + INTRA:          -5.257
REMARK INTER:                  -4.814
REMARK INTRA:                  -0.443
REMARK UNBOUND:                -0.148
REMARK SMILES CCCCCCCC(=O)[O-]
REMARK SMILES IDX 5 1 6 2 7 3 8 4 9 5 10 6 4 7 3 8 2 9 1 10
REMARK H PARENT
REMARK Flexibility Score: inf
ROOT
ATOM      1  C   UNL     1       7.047  33.798  70.593  1.00  0.00     0.000 C 
ENDROOT
BRANCH   1   2
ATOM      2  C   UNL     1       5.563  34.038  70.921  1.00  0.00     0.006 C 
BRANCH   2   3
ATOM      3  C   UNL     1       5.115  35.461  70.564  1.00  0.00     0.053 C 
BRANCH   3   4
ATOM      4  C   UNL     1       3.642  35.647  70.764  1.00  0.00     0.041 C 
ATOM      5  O   UNL     1       2.859  35.626  69.779  1.00  0.00    -0.550 OA
ATOM      6  O   UNL     1       3.137  35.871  72.039  1.00  0.00    -0.550 OA
ENDBRANCH   3   4
ENDBRANCH   2   3
ENDBRANCH   1   2
BRANCH   1   7
ATOM      7  C   UNL     1       7.244  33.001  69.293  1.00  0.00     0.000 C 
BRANCH   7   8
ATOM      8  C   UNL     1       8.017  33.790  68.225  1.00  0.00    -0.000 C 
BRANCH   8   9
ATOM      9  C   UNL     1       7.059  34.409  67.201  1.00  0.00    -0.003 C 
ATOM     10  C   UNL     1       5.800  33.562  67.042  1.00  0.00     0.004 C 
ENDBRANCH   8   9
ENDBRANCH   7   8
ENDBRANCH   1   7
TORSDOF 6
ENDMDL
MODEL 9
REMARK VINA RESULT:    -3.782     10.333     12.172
REMARK INTER + INTRA:          -5.257
REMARK INTER:                  -5.005
REMARK INTRA:                  -0.252
REMARK UNBOUND:                -0.148
REMARK SMILES CCCCCCCC(=O)[O-]
REMARK SMILES IDX 5 1 6 2 7 3 8 4 9 5 10 6 4 7 3 8 2 9 1 10
REMARK H PARENT
REMARK Flexibility Score: inf
ROOT
ATOM      1  C   UNL     1       6.018  33.951  70.905  1.00  0.00     0.000 C 
ENDROOT
BRANCH   1   2
ATOM      2  C   UNL     1       6.041  34.726  69.577  1.00  0.00     0.006 C 
BRANCH   2   3
ATOM      3  C   UNL     1       7.416  34.667  68.897  1.00  0.00     0.053 C 
BRANCH   3   4
ATOM      4  C   UNL     1       7.318  34.168  67.488  1.00  0.00     0.041 C 
ATOM      5  O   UNL     1       6.570  34.750  66.658  1.00  0.00    -0.550 OA
ATOM      6  O   UNL     1       8.032  33.042  67.098  1.00  0.00    -0.550 OA
ENDBRANCH   3   4
ENDBRANCH   2   3
ENDBRANCH   1   2
BRANCH   1   7
ATOM      7  C   UNL     1       7.360  33.267  71.215  1.00  0.00     0.000 C 
BRANCH   7   8
ATOM      8  C   UNL     1       7.202  32.034  72.117  1.00  0.00    -0.000 C 
BRANCH   8   9
ATOM      9  C   UNL     1       7.240  32.430  73.597  1.00  0.00    -0.003 C 
ATOM     10  C   UNL     1       8.544  33.142  73.944  1.00  0.00     0.004 C 
ENDBRANCH   8   9
ENDBRANCH   7   8
ENDBRANCH   1   7
TORSDOF 6
ENDMDL
