MODEL 1
REMARK VINA RESULT:    -6.294      0.000      0.000
REMARK INTER + INTRA:          -7.802
REMARK INTER:                  -7.582
REMARK INTRA:                  -0.220
REMARK UNBOUND:                -0.220
REMARK SMILES O=c1c(O)c(-c2ccc(O)c(O)c2)oc2cc(O)cc(O)c12
REMARK SMILES IDX 5 1 3 2 2 3 1 4 22 5 20 6 19 7 17 8 16 9 15 10 14 11 6 12
REMARK SMILES IDX 7 13 8 14 9 15 13 16 11 17 10 18 12 20 4 22 21 24 18 26
REMARK H PARENT 10 19 12 21 4 23 21 25 18 27
REMARK Flexibility Score: inf
ROOT
ATOM      1  C   UNL     1      26.596  24.858 -12.639  1.00  0.00     0.180 A 
ATOM      2  C   UNL     1      26.419  25.305 -13.963  1.00  0.00     0.208 A 
ATOM      3  C   UNL     1      26.381  26.686 -14.213  1.00  0.00     0.238 A 
ATOM      4  O   UNL     1      26.233  27.097 -15.397  1.00  0.00    -0.285 OA
ATOM      5  C   UNL     1      26.500  27.592 -13.140  1.00  0.00     0.111 A 
ATOM      6  C   UNL     1      26.469  28.998 -13.307  1.00  0.00     0.134 A 
ATOM      7  C   UNL     1      26.585  29.834 -12.187  1.00  0.00     0.093 A 
ATOM      8  C   UNL     1      26.731  29.292 -10.905  1.00  0.00     0.123 A 
ATOM      9  C   UNL     1      26.764  27.906 -10.736  1.00  0.00     0.094 A 
ATOM     10  C   UNL     1      26.651  27.056 -11.839  1.00  0.00     0.146 A 
ATOM     11  O   UNL     1      26.690  25.743 -11.651  1.00  0.00    -0.452 OA
ENDROOT
BRANCH   1  12
ATOM     12  C   UNL     1      26.665  23.419 -12.297  1.00  0.00     0.025 A 
ATOM     13  C   UNL     1      25.534  22.589 -12.389  1.00  0.00     0.016 A 
ATOM     14  C   UNL     1      25.630  21.229 -12.085  1.00  0.00     0.051 A 
ATOM     15  C   UNL     1      26.857  20.675 -11.699  1.00  0.00     0.157 A 
ATOM     16  C   UNL     1      27.898  22.855 -11.931  1.00  0.00     0.062 A 
ATOM     17  C   UNL     1      27.998  21.493 -11.625  1.00  0.00     0.158 A 
BRANCH  15  18
ATOM     18  O   UNL     1      26.950  19.318 -11.394  1.00  0.00    -0.504 OA
ATOM     19  H   UNL     1      27.724  18.946 -10.856  1.00  0.00     0.293 HD
ENDBRANCH  15  18
BRANCH  17  20
ATOM     20  O   UNL     1      29.235  20.972 -11.251  1.00  0.00    -0.504 OA
ATOM     21  H   UNL     1      29.341  20.020 -10.919  1.00  0.00     0.293 HD
ENDBRANCH  17  20
ENDBRANCH   1  12
BRANCH   2  22
ATOM     22  O   UNL     1      26.253  24.386 -15.003  1.00  0.00    -0.502 OA
ATOM     23  H   UNL     1      26.866  23.590 -15.126  1.00  0.00     0.293 HD
ENDBRANCH   2  22
BRANCH   6  24
ATOM     24  O   UNL     1      26.323  29.568 -14.573  1.00  0.00    -0.507 OA
ATOM     25  H   UNL     1      27.055  30.129 -14.993  1.00  0.00     0.293 HD
ENDBRANCH   6  24
BRANCH   8  26
ATOM     26  O   UNL     1      26.846  30.122  -9.792  1.00  0.00    -0.508 OA
ATOM     27  H   UNL     1      27.254  31.047  -9.861  1.00  0.00     0.293 HD
ENDBRANCH   8  26
TORSDOF 6
ENDMDL
MODEL 2
REMARK VINA RESULT:    -6.151      6.200      7.989
REMARK INTER + INTRA:          -7.629
REMARK INTER:                  -7.301
REMARK INTRA:                  -0.328
REMARK UNBOUND:                -0.220
REMARK SMILES O=c1c(O)c(-c2ccc(O)c(O)c2)oc2cc(O)cc(O)c12
REMARK SMILES IDX 5 1 3 2 2 3 1 4 22 5 20 6 19 7 17 8 16 9 15 10 14 11 6 12
REMARK SMILES IDX 7 13 8 14 9 15 13 16 11 17 10 18 12 20 4 22 21 24 18 26
REMARK H PARENT 10 19 12 21 4 23 21 25 18 27
REMARK Flexibility Score: inf
ROOT
ATOM      1  C   UNL     1      24.280  30.911 -11.738  1.00  0.00     0.180 A 
ATOM      2  C   UNL     1      24.138  30.858 -13.138  1.00  0.00     0.208 A 
ATOM      3  C   UNL     1      25.280  30.653 -13.928  1.00  0.00     0.238 A 
ATOM      4  O   UNL     1      25.164  30.594 -15.182  1.00  0.00    -0.285 OA
ATOM      5  C   UNL     1      26.540  30.526 -13.310  1.00  0.00     0.111 A 
ATOM      6  C   UNL     1      27.741  30.321 -14.034  1.00  0.00     0.134 A 
ATOM      7  C   UNL     1      28.958  30.212 -13.346  1.00  0.00     0.093 A 
ATOM      8  C   UNL     1      28.999  30.305 -11.950  1.00  0.00     0.123 A 
ATOM      9  C   UNL     1      27.818  30.506 -11.232  1.00  0.00     0.094 A 
ATOM     10  C   UNL     1      26.595  30.615 -11.899  1.00  0.00     0.146 A 
ATOM     11  O   UNL     1      25.487  30.801 -11.192  1.00  0.00    -0.452 OA
ENDROOT
BRANCH   1  12
ATOM     12  C   UNL     1      23.120  31.105 -10.837  1.00  0.00     0.025 A 
ATOM     13  C   UNL     1      22.436  30.012 -10.278  1.00  0.00     0.016 A 
ATOM     14  C   UNL     1      21.360  30.221  -9.411  1.00  0.00     0.051 A 
ATOM     15  C   UNL     1      20.961  31.522  -9.079  1.00  0.00     0.157 A 
ATOM     16  C   UNL     1      22.731  32.407 -10.484  1.00  0.00     0.062 A 
ATOM     17  C   UNL     1      21.653  32.621  -9.616  1.00  0.00     0.158 A 
BRANCH  15  18
ATOM     18  O   UNL     1      19.886  31.727  -8.216  1.00  0.00    -0.504 OA
ATOM     19  H   UNL     1      19.204  32.458  -8.381  1.00  0.00     0.293 HD
ENDBRANCH  15  18
BRANCH  17  20
ATOM     20  O   UNL     1      21.286  33.928  -9.300  1.00  0.00    -0.504 OA
ATOM     21  H   UNL     1      20.753  34.507  -9.938  1.00  0.00     0.293 HD
ENDBRANCH  17  20
ENDBRANCH   1  12
BRANCH   2  22
ATOM     22  O   UNL     1      22.884  31.037 -13.728  1.00  0.00    -0.502 OA
ATOM     23  H   UNL     1      22.348  30.267 -14.110  1.00  0.00     0.293 HD
ENDBRANCH   2  22
BRANCH   6  24
ATOM     24  O   UNL     1      27.731  30.225 -15.427  1.00  0.00    -0.507 OA
ATOM     25  H   UNL     1      28.467  29.744 -15.932  1.00  0.00     0.293 HD
ENDBRANCH   6  24
BRANCH   8  26
ATOM     26  O   UNL     1      30.208  30.198 -11.266  1.00  0.00    -0.508 OA
ATOM     27  H   UNL     1      30.717  31.020 -10.960  1.00  0.00     0.293 HD
ENDBRANCH   8  26
TORSDOF 6
ENDMDL
MODEL 3
REMARK VINA RESULT:    -6.041      6.120      7.408
REMARK INTER + INTRA:          -7.497
REMARK INTER:                  -7.197
REMARK INTRA:                  -0.300
REMARK UNBOUND:                -0.220
REMARK SMILES O=c1c(O)c(-c2ccc(O)c(O)c2)oc2cc(O)cc(O)c12
REMARK SMILES IDX 5 1 3 2 2 3 1 4 22 5 20 6 19 7 17 8 16 9 15 10 14 11 6 12
REMARK SMILES IDX 7 13 8 14 9 15 13 16 11 17 10 18 12 20 4 22 21 24 18 26
REMARK H PARENT 10 19 12 21 4 23 21 25 18 27
REMARK Flexibility Score: inf
ROOT
ATOM      1  C   UNL     1      24.323  30.633 -11.516  1.00  0.00     0.180 A 
ATOM      2  C   UNL     1      24.161  30.704 -12.913  1.00  0.00     0.208 A 
ATOM      3  C   UNL     1      25.299  30.634 -13.732  1.00  0.00     0.238 A 
ATOM      4  O   UNL     1      25.165  30.686 -14.985  1.00  0.00    -0.285 OA
ATOM      5  C   UNL     1      26.574  30.513 -13.143  1.00  0.00     0.111 A 
ATOM      6  C   UNL     1      27.771  30.439 -13.898  1.00  0.00     0.134 A 
ATOM      7  C   UNL     1      29.003  30.329 -13.237  1.00  0.00     0.093 A 
ATOM      8  C   UNL     1      29.062  30.293 -11.840  1.00  0.00     0.123 A 
ATOM      9  C   UNL     1      27.885  30.365 -11.092  1.00  0.00     0.094 A 
ATOM     10  C   UNL     1      26.647  30.473 -11.731  1.00  0.00     0.146 A 
ATOM     11  O   UNL     1      25.543  30.534 -10.996  1.00  0.00    -0.452 OA
ENDROOT
BRANCH   1  12
ATOM     12  C   UNL     1      23.170  30.681 -10.587  1.00  0.00     0.025 A 
ATOM     13  C   UNL     1      22.565  31.900 -10.233  1.00  0.00     0.016 A 
ATOM     14  C   UNL     1      21.463  31.918  -9.374  1.00  0.00     0.051 A 
ATOM     15  C   UNL     1      20.942  30.721  -8.868  1.00  0.00     0.157 A 
ATOM     16  C   UNL     1      22.630  29.483 -10.094  1.00  0.00     0.062 A 
ATOM     17  C   UNL     1      21.527  29.496  -9.232  1.00  0.00     0.158 A 
BRANCH  15  18
ATOM     18  O   UNL     1      19.843  30.742  -8.009  1.00  0.00    -0.504 OA
ATOM     19  H   UNL     1      18.925  30.438  -8.314  1.00  0.00     0.293 HD
ENDBRANCH  15  18
BRANCH  17  20
ATOM     20  O   UNL     1      21.028  28.287  -8.751  1.00  0.00    -0.504 OA
ATOM     21  H   UNL     1      20.345  28.245  -8.004  1.00  0.00     0.293 HD
ENDBRANCH  17  20
ENDBRANCH   1  12
BRANCH   2  22
ATOM     22  O   UNL     1      22.890  30.873 -13.469  1.00  0.00    -0.502 OA
ATOM     23  H   UNL     1      22.690  31.586 -14.160  1.00  0.00     0.293 HD
ENDBRANCH   2  22
BRANCH   6  24
ATOM     24  O   UNL     1      27.743  30.475 -15.293  1.00  0.00    -0.507 OA
ATOM     25  H   UNL     1      28.084  31.276 -15.812  1.00  0.00     0.293 HD
ENDBRANCH   6  24
BRANCH   8  26
ATOM     26  O   UNL     1      30.286  30.185 -11.183  1.00  0.00    -0.508 OA
ATOM     27  H   UNL     1      30.510  30.763 -10.381  1.00  0.00     0.293 HD
ENDBRANCH   8  26
TORSDOF 6
ENDMDL
MODEL 4
REMARK VINA RESULT:    -5.805      4.488      7.877
REMARK INTER + INTRA:          -7.213
REMARK INTER:                  -6.912
REMARK INTRA:                  -0.301
REMARK UNBOUND:                -0.220
REMARK SMILES O=c1c(O)c(-c2ccc(O)c(O)c2)oc2cc(O)cc(O)c12
REMARK SMILES IDX 5 1 3 2 2 3 1 4 22 5 20 6 19 7 17 8 16 9 15 10 14 11 6 12
REMARK SMILES IDX 7 13 8 14 9 15 13 16 11 17 10 18 12 20 4 22 21 24 18 26
REMARK H PARENT 10 19 12 21 4 23 21 25 18 27
REMARK Flexibility Score: inf
ROOT
ATOM      1  C   UNL     1      25.549  29.363 -10.947  1.00  0.00     0.180 A 
ATOM      2  C   UNL     1      26.558  29.478  -9.971  1.00  0.00     0.208 A 
ATOM      3  C   UNL     1      26.620  28.522  -8.945  1.00  0.00     0.238 A 
ATOM      4  O   UNL     1      27.525  28.609  -8.071  1.00  0.00    -0.285 OA
ATOM      5  C   UNL     1      25.668  27.484  -8.901  1.00  0.00     0.111 A 
ATOM      6  C   UNL     1      25.659  26.482  -7.899  1.00  0.00     0.134 A 
ATOM      7  C   UNL     1      24.672  25.487  -7.920  1.00  0.00     0.093 A 
ATOM      8  C   UNL     1      23.693  25.473  -8.920  1.00  0.00     0.123 A 
ATOM      9  C   UNL     1      23.699  26.458  -9.910  1.00  0.00     0.094 A 
ATOM     10  C   UNL     1      24.675  27.458  -9.909  1.00  0.00     0.146 A 
ATOM     11  O   UNL     1      24.659  28.379 -10.865  1.00  0.00    -0.452 OA
ENDROOT
BRANCH   1  12
ATOM     12  C   UNL     1      25.429  30.321 -12.070  1.00  0.00     0.025 A 
ATOM     13  C   UNL     1      24.534  31.404 -12.017  1.00  0.00     0.016 A 
ATOM     14  C   UNL     1      24.456  32.308 -13.079  1.00  0.00     0.051 A 
ATOM     15  C   UNL     1      25.280  32.153 -14.202  1.00  0.00     0.157 A 
ATOM     16  C   UNL     1      26.268  30.183 -13.188  1.00  0.00     0.062 A 
ATOM     17  C   UNL     1      26.193  31.086 -14.254  1.00  0.00     0.158 A 
BRANCH  15  18
ATOM     18  O   UNL     1      25.199  33.057 -15.261  1.00  0.00    -0.504 OA
ATOM     19  H   UNL     1      25.030  34.044 -15.104  1.00  0.00     0.293 HD
ENDBRANCH  15  18
BRANCH  17  20
ATOM     20  O   UNL     1      27.031  30.909 -15.353  1.00  0.00    -0.504 OA
ATOM     21  H   UNL     1      28.012  30.680 -15.252  1.00  0.00     0.293 HD
ENDBRANCH  17  20
ENDBRANCH   1  12
BRANCH   2  22
ATOM     22  O   UNL     1      27.459  30.545 -10.009  1.00  0.00    -0.502 OA
ATOM     23  H   UNL     1      28.158  30.640 -10.736  1.00  0.00     0.293 HD
ENDBRANCH   2  22
BRANCH   6  24
ATOM     24  O   UNL     1      26.622  26.471  -6.888  1.00  0.00    -0.507 OA
ATOM     25  H   UNL     1      27.105  25.620  -6.622  1.00  0.00     0.293 HD
ENDBRANCH   6  24
BRANCH   8  26
ATOM     26  O   UNL     1      22.712  24.485  -8.940  1.00  0.00    -0.508 OA
ATOM     27  H   UNL     1      22.118  24.345  -9.750  1.00  0.00     0.293 HD
ENDBRANCH   8  26
TORSDOF 6
ENDMDL
MODEL 5
REMARK VINA RESULT:    -5.739      2.839      4.537
REMARK INTER + INTRA:          -7.132
REMARK INTER:                  -6.844
REMARK INTRA:                  -0.288
REMARK UNBOUND:                -0.220
REMARK SMILES O=c1c(O)c(-c2ccc(O)c(O)c2)oc2cc(O)cc(O)c12
REMARK SMILES IDX 5 1 3 2 2 3 1 4 22 5 20 6 19 7 17 8 16 9 15 10 14 11 6 12
REMARK SMILES IDX 7 13 8 14 9 15 13 16 11 17 10 18 12 20 4 22 21 24 18 26
REMARK H PARENT 10 19 12 21 4 23 21 25 18 27
REMARK Flexibility Score: inf
ROOT
ATOM      1  C   UNL     1      25.774  27.990 -13.508  1.00  0.00     0.180 A 
ATOM      2  C   UNL     1      26.640  29.099 -13.583  1.00  0.00     0.208 A 
ATOM      3  C   UNL     1      26.169  30.290 -14.156  1.00  0.00     0.238 A 
ATOM      4  O   UNL     1      26.932  31.292 -14.219  1.00  0.00    -0.285 OA
ATOM      5  C   UNL     1      24.853  30.348 -14.659  1.00  0.00     0.111 A 
ATOM      6  C   UNL     1      24.302  31.510 -15.254  1.00  0.00     0.134 A 
ATOM      7  C   UNL     1      22.987  31.485 -15.739  1.00  0.00     0.093 A 
ATOM      8  C   UNL     1      22.212  30.323 -15.642  1.00  0.00     0.123 A 
ATOM      9  C   UNL     1      22.752  29.176 -15.055  1.00  0.00     0.094 A 
ATOM     10  C   UNL     1      24.059  29.181 -14.564  1.00  0.00     0.146 A 
ATOM     11  O   UNL     1      24.545  28.078 -14.006  1.00  0.00    -0.452 OA
ENDROOT
BRANCH   1  12
ATOM     12  C   UNL     1      26.192  26.706 -12.902  1.00  0.00     0.025 A 
ATOM     13  C   UNL     1      25.778  26.336 -11.610  1.00  0.00     0.016 A 
ATOM     14  C   UNL     1      26.166  25.108 -11.069  1.00  0.00     0.051 A 
ATOM     15  C   UNL     1      26.959  24.226 -11.813  1.00  0.00     0.157 A 
ATOM     16  C   UNL     1      26.970  25.809 -13.652  1.00  0.00     0.062 A 
ATOM     17  C   UNL     1      27.361  24.577 -13.113  1.00  0.00     0.158 A 
BRANCH  15  18
ATOM     18  O   UNL     1      27.346  23.001 -11.269  1.00  0.00    -0.504 OA
ATOM     19  H   UNL     1      26.955  22.660 -10.398  1.00  0.00     0.293 HD
ENDBRANCH  15  18
BRANCH  17  20
ATOM     20  O   UNL     1      28.144  23.719 -13.882  1.00  0.00    -0.504 OA
ATOM     21  H   UNL     1      28.214  22.728 -13.683  1.00  0.00     0.293 HD
ENDBRANCH  17  20
ENDBRANCH   1  12
BRANCH   2  22
ATOM     22  O   UNL     1      27.956  29.000 -13.122  1.00  0.00    -0.502 OA
ATOM     23  H   UNL     1      28.365  29.683 -12.497  1.00  0.00     0.293 HD
ENDBRANCH   2  22
BRANCH   6  24
ATOM     24  O   UNL     1      25.051  32.683 -15.366  1.00  0.00    -0.507 OA
ATOM     25  H   UNL     1      24.799  33.414 -16.021  1.00  0.00     0.293 HD
ENDBRANCH   6  24
BRANCH   8  26
ATOM     26  O   UNL     1      20.906  30.298 -16.125  1.00  0.00    -0.508 OA
ATOM     27  H   UNL     1      20.582  30.969 -16.813  1.00  0.00     0.293 HD
ENDBRANCH   8  26
TORSDOF 6
ENDMDL
MODEL 6
REMARK VINA RESULT:    -5.734     14.408     16.770
REMARK INTER + INTRA:          -7.126
REMARK INTER:                  -6.794
REMARK INTRA:                  -0.333
REMARK UNBOUND:                -0.220
REMARK SMILES O=c1c(O)c(-c2ccc(O)c(O)c2)oc2cc(O)cc(O)c12
REMARK SMILES IDX 5 1 3 2 2 3 1 4 22 5 20 6 19 7 17 8 16 9 15 10 14 11 6 12
REMARK SMILES IDX 7 13 8 14 9 15 13 16 11 17 10 18 12 20 4 22 21 24 18 26
REMARK H PARENT 10 19 12 21 4 23 21 25 18 27
REMARK Flexibility Score: inf
ROOT
ATOM      1  C   UNL     1      21.236  19.352   1.006  1.00  0.00     0.180 A 
ATOM      2  C   UNL     1      22.066  19.689   2.093  1.00  0.00     0.208 A 
ATOM      3  C   UNL     1      23.408  19.280   2.073  1.00  0.00     0.238 A 
ATOM      4  O   UNL     1      24.163  19.586   3.037  1.00  0.00    -0.285 OA
ATOM      5  C   UNL     1      23.892  18.529   0.983  1.00  0.00     0.111 A 
ATOM      6  C   UNL     1      25.231  18.075   0.889  1.00  0.00     0.134 A 
ATOM      7  C   UNL     1      25.633  17.324  -0.225  1.00  0.00     0.093 A 
ATOM      8  C   UNL     1      24.724  17.017  -1.244  1.00  0.00     0.123 A 
ATOM      9  C   UNL     1      23.404  17.462  -1.155  1.00  0.00     0.094 A 
ATOM     10  C   UNL     1      22.984  18.214  -0.055  1.00  0.00     0.146 A 
ATOM     11  O   UNL     1      21.724  18.629   0.002  1.00  0.00    -0.452 OA
ENDROOT
BRANCH   1  12
ATOM     12  C   UNL     1      19.815  19.763   0.944  1.00  0.00     0.025 A 
ATOM     13  C   UNL     1      19.429  20.983   0.363  1.00  0.00     0.016 A 
ATOM     14  C   UNL     1      18.080  21.338   0.295  1.00  0.00     0.051 A 
ATOM     15  C   UNL     1      17.095  20.474   0.793  1.00  0.00     0.157 A 
ATOM     16  C   UNL     1      18.823  18.891   1.422  1.00  0.00     0.062 A 
ATOM     17  C   UNL     1      17.470  19.242   1.356  1.00  0.00     0.158 A 
BRANCH  15  18
ATOM     18  O   UNL     1      15.749  20.832   0.725  1.00  0.00    -0.504 OA
ATOM     19  H   UNL     1      15.449  21.793   0.839  1.00  0.00     0.293 HD
ENDBRANCH  15  18
BRANCH  17  20
ATOM     20  O   UNL     1      16.515  18.358   1.853  1.00  0.00    -0.504 OA
ATOM     21  H   UNL     1      16.123  18.454   2.783  1.00  0.00     0.293 HD
ENDBRANCH  17  20
ENDBRANCH   1  12
BRANCH   2  22
ATOM     22  O   UNL     1      21.549  20.393   3.184  1.00  0.00    -0.502 OA
ATOM     23  H   UNL     1      21.703  21.385   3.312  1.00  0.00     0.293 HD
ENDBRANCH   2  22
BRANCH   6  24
ATOM     24  O   UNL     1      26.159  18.365   1.890  1.00  0.00    -0.507 OA
ATOM     25  H   UNL     1      27.118  18.614   1.672  1.00  0.00     0.293 HD
ENDBRANCH   6  24
BRANCH   8  26
ATOM     26  O   UNL     1      25.123  16.269  -2.350  1.00  0.00    -0.508 OA
ATOM     27  H   UNL     1      24.850  16.529  -3.291  1.00  0.00     0.293 HD
ENDBRANCH   8  26
TORSDOF 6
ENDMDL
MODEL 7
REMARK VINA RESULT:    -5.552      2.329      6.689
REMARK INTER + INTRA:          -6.908
REMARK INTER:                  -6.648
REMARK INTRA:                  -0.261
REMARK UNBOUND:                -0.220
REMARK SMILES O=c1c(O)c(-c2ccc(O)c(O)c2)oc2cc(O)cc(O)c12
REMARK SMILES IDX 5 1 3 2 2 3 1 4 22 5 20 6 19 7 17 8 16 9 15 10 14 11 6 12
REMARK SMILES IDX 7 13 8 14 9 15 13 16 11 17 10 18 12 20 4 22 21 24 18 26
REMARK H PARENT 10 19 12 21 4 23 21 25 18 27
REMARK Flexibility Score: inf
ROOT
ATOM      1  C   UNL     1      26.549  26.590 -12.340  1.00  0.00     0.180 A 
ATOM      2  C   UNL     1      27.112  25.454 -12.954  1.00  0.00     0.208 A 
ATOM      3  C   UNL     1      27.045  24.221 -12.287  1.00  0.00     0.238 A 
ATOM      4  O   UNL     1      27.537  23.194 -12.831  1.00  0.00    -0.285 OA
ATOM      5  C   UNL     1      26.439  24.147 -11.017  1.00  0.00     0.111 A 
ATOM      6  C   UNL     1      26.333  22.943 -10.277  1.00  0.00     0.134 A 
ATOM      7  C   UNL     1      25.723  22.954  -9.015  1.00  0.00     0.093 A 
ATOM      8  C   UNL     1      25.216  24.143  -8.478  1.00  0.00     0.123 A 
ATOM      9  C   UNL     1      25.317  25.331  -9.204  1.00  0.00     0.094 A 
ATOM     10  C   UNL     1      25.920  25.342 -10.464  1.00  0.00     0.146 A 
ATOM     11  O   UNL     1      25.998  26.485 -11.135  1.00  0.00    -0.452 OA
ENDROOT
BRANCH   1  12
ATOM     12  C   UNL     1      26.563  27.922 -12.988  1.00  0.00     0.025 A 
ATOM     13  C   UNL     1      27.465  28.922 -12.586  1.00  0.00     0.016 A 
ATOM     14  C   UNL     1      27.475  30.163 -13.229  1.00  0.00     0.051 A 
ATOM     15  C   UNL     1      26.597  30.417 -14.290  1.00  0.00     0.157 A 
ATOM     16  C   UNL     1      25.700  28.173 -14.066  1.00  0.00     0.062 A 
ATOM     17  C   UNL     1      25.707  29.415 -14.713  1.00  0.00     0.158 A 
BRANCH  15  18
ATOM     18  O   UNL     1      26.608  31.656 -14.929  1.00  0.00    -0.504 OA
ATOM     19  H   UNL     1      25.750  32.122 -15.200  1.00  0.00     0.293 HD
ENDBRANCH  15  18
BRANCH  17  20
ATOM     20  O   UNL     1      24.825  29.633 -15.770  1.00  0.00    -0.504 OA
ATOM     21  H   UNL     1      25.078  30.192 -16.577  1.00  0.00     0.293 HD
ENDBRANCH  17  20
ENDBRANCH   1  12
BRANCH   2  22
ATOM     22  O   UNL     1      27.752  25.564 -14.191  1.00  0.00    -0.502 OA
ATOM     23  H   UNL     1      27.285  25.351 -15.064  1.00  0.00     0.293 HD
ENDBRANCH   2  22
BRANCH   6  24
ATOM     24  O   UNL     1      26.831  21.742 -10.787  1.00  0.00    -0.507 OA
ATOM     25  H   UNL     1      26.895  21.573 -11.784  1.00  0.00     0.293 HD
ENDBRANCH   6  24
BRANCH   8  26
ATOM     26  O   UNL     1      24.610  24.154  -7.223  1.00  0.00    -0.508 OA
ATOM     27  H   UNL     1      24.942  24.760  -6.481  1.00  0.00     0.293 HD
ENDBRANCH   8  26
TORSDOF 6
ENDMDL
MODEL 8
REMARK VINA RESULT:    -5.444      5.455      7.199
REMARK INTER + INTRA:          -6.777
REMARK INTER:                  -6.455
REMARK INTRA:                  -0.322
REMARK UNBOUND:                -0.220
REMARK SMILES O=c1c(O)c(-c2ccc(O)c(O)c2)oc2cc(O)cc(O)c12
REMARK SMILES IDX 5 1 3 2 2 3 1 4 22 5 20 6 19 7 17 8 16 9 15 10 14 11 6 12
REMARK SMILES IDX 7 13 8 14 9 15 13 16 11 17 10 18 12 20 4 22 21 24 18 26
REMARK H PARENT 10 19 12 21 4 23 21 25 18 27
REMARK Flexibility Score: inf
ROOT
ATOM      1  C   UNL     1      24.424  30.093 -13.528  1.00  0.00     0.180 A 
ATOM      2  C   UNL     1      25.451  30.523 -14.391  1.00  0.00     0.208 A 
ATOM      3  C   UNL     1      26.779  30.484 -13.936  1.00  0.00     0.238 A 
ATOM      4  O   UNL     1      27.708  30.858 -14.704  1.00  0.00    -0.285 OA
ATOM      5  C   UNL     1      27.055  30.037 -12.629  1.00  0.00     0.111 A 
ATOM      6  C   UNL     1      28.365  29.971 -12.093  1.00  0.00     0.134 A 
ATOM      7  C   UNL     1      28.556  29.523 -10.778  1.00  0.00     0.093 A 
ATOM      8  C   UNL     1      27.465  29.141  -9.989  1.00  0.00     0.123 A 
ATOM      9  C   UNL     1      26.173  29.204 -10.513  1.00  0.00     0.094 A 
ATOM     10  C   UNL     1      25.960  29.646 -11.821  1.00  0.00     0.146 A 
ATOM     11  O   UNL     1      24.721  29.691 -12.297  1.00  0.00    -0.452 OA
ENDROOT
BRANCH   1  12
ATOM     12  C   UNL     1      23.002  30.086 -13.941  1.00  0.00     0.025 A 
ATOM     13  C   UNL     1      22.164  31.187 -13.699  1.00  0.00     0.016 A 
ATOM     14  C   UNL     1      20.831  31.167 -14.120  1.00  0.00     0.051 A 
ATOM     15  C   UNL     1      20.322  30.054 -14.800  1.00  0.00     0.157 A 
ATOM     16  C   UNL     1      22.492  28.981 -14.643  1.00  0.00     0.062 A 
ATOM     17  C   UNL     1      21.158  28.956 -15.065  1.00  0.00     0.158 A 
BRANCH  15  18
ATOM     18  O   UNL     1      18.991  30.035 -15.217  1.00  0.00    -0.504 OA
ATOM     19  H   UNL     1      18.552  29.185 -15.552  1.00  0.00     0.293 HD
ENDBRANCH  15  18
BRANCH  17  20
ATOM     20  O   UNL     1      20.684  27.836 -15.746  1.00  0.00    -0.504 OA
ATOM     21  H   UNL     1      19.706  27.572 -15.734  1.00  0.00     0.293 HD
ENDBRANCH  17  20
ENDBRANCH   1  12
BRANCH   2  22
ATOM     22  O   UNL     1      25.146  31.009 -15.665  1.00  0.00    -0.502 OA
ATOM     23  H   UNL     1      24.910  30.397 -16.437  1.00  0.00     0.293 HD
ENDBRANCH   2  22
BRANCH   6  24
ATOM     24  O   UNL     1      29.472  30.347 -12.856  1.00  0.00    -0.507 OA
ATOM     25  H   UNL     1      29.418  31.093 -13.540  1.00  0.00     0.293 HD
ENDBRANCH   6  24
BRANCH   8  26
ATOM     26  O   UNL     1      27.655  28.696  -8.682  1.00  0.00    -0.508 OA
ATOM     27  H   UNL     1      27.275  27.812  -8.363  1.00  0.00     0.293 HD
ENDBRANCH   8  26
TORSDOF 6
ENDMDL
MODEL 9
REMARK VINA RESULT:    -5.406      1.418      2.988
REMARK INTER + INTRA:          -6.731
REMARK INTER:                  -6.476
REMARK INTRA:                  -0.256
REMARK UNBOUND:                -0.220
REMARK SMILES O=c1c(O)c(-c2ccc(O)c(O)c2)oc2cc(O)cc(O)c12
REMARK SMILES IDX 5 1 3 2 2 3 1 4 22 5 20 6 19 7 17 8 16 9 15 10 14 11 6 12
REMARK SMILES IDX 7 13 8 14 9 15 13 16 11 17 10 18 12 20 4 22 21 24 18 26
REMARK H PARENT 10 19 12 21 4 23 21 25 18 27
REMARK Flexibility Score: inf
ROOT
ATOM      1  C   UNL     1      26.299  25.934 -11.969  1.00  0.00     0.180 A 
ATOM      2  C   UNL     1      26.111  26.544 -10.713  1.00  0.00     0.208 A 
ATOM      3  C   UNL     1      26.127  27.945 -10.631  1.00  0.00     0.238 A 
ATOM      4  O   UNL     1      25.949  28.502  -9.514  1.00  0.00    -0.285 OA
ATOM      5  C   UNL     1      26.348  28.708 -11.795  1.00  0.00     0.111 A 
ATOM      6  C   UNL     1      26.382  30.125 -11.797  1.00  0.00     0.134 A 
ATOM      7  C   UNL     1      26.617  30.812 -12.996  1.00  0.00     0.093 A 
ATOM      8  C   UNL     1      26.820  30.114 -14.192  1.00  0.00     0.123 A 
ATOM      9  C   UNL     1      26.786  28.718 -14.194  1.00  0.00     0.094 A 
ATOM     10  C   UNL     1      26.552  28.013 -13.010  1.00  0.00     0.146 A 
ATOM     11  O   UNL     1      26.520  26.686 -13.042  1.00  0.00    -0.452 OA
ENDROOT
BRANCH   1  12
ATOM     12  C   UNL     1      26.277  24.463 -12.140  1.00  0.00     0.025 A 
ATOM     13  C   UNL     1      25.197  23.814 -12.761  1.00  0.00     0.016 A 
ATOM     14  C   UNL     1      25.210  22.427 -12.933  1.00  0.00     0.051 A 
ATOM     15  C   UNL     1      26.307  21.671 -12.500  1.00  0.00     0.157 A 
ATOM     16  C   UNL     1      27.384  23.704 -11.727  1.00  0.00     0.062 A 
ATOM     17  C   UNL     1      27.401  22.314 -11.897  1.00  0.00     0.158 A 
BRANCH  15  18
ATOM     18  O   UNL     1      26.317  20.288 -12.671  1.00  0.00    -0.504 OA
ATOM     19  H   UNL     1      26.402  19.656 -11.882  1.00  0.00     0.293 HD
ENDBRANCH  15  18
BRANCH  17  20
ATOM     20  O   UNL     1      28.511  21.592 -11.461  1.00  0.00    -0.504 OA
ATOM     21  H   UNL     1      28.438  20.858 -10.766  1.00  0.00     0.293 HD
ENDBRANCH  17  20
ENDBRANCH   1  12
BRANCH   2  22
ATOM     22  O   UNL     1      25.943  25.762  -9.567  1.00  0.00    -0.502 OA
ATOM     23  H   UNL     1      26.606  25.046  -9.297  1.00  0.00     0.293 HD
ENDBRANCH   2  22
BRANCH   6  24
ATOM     24  O   UNL     1      26.185  30.849 -10.620  1.00  0.00    -0.507 OA
ATOM     25  H   UNL     1      26.923  30.960  -9.934  1.00  0.00     0.293 HD
ENDBRANCH   6  24
BRANCH   8  26
ATOM     26  O   UNL     1      27.054  30.797 -15.383  1.00  0.00    -0.508 OA
ATOM     27  H   UNL     1      27.631  31.630 -15.411  1.00  0.00     0.293 HD
ENDBRANCH   8  26
TORSDOF 6
ENDMDL
