MODEL 1
REMARK VINA RESULT:    -6.138      0.000      0.000
REMARK INTER + INTRA:         -10.735
REMARK INTER:                  -9.547
REMARK INTRA:                  -1.188
REMARK UNBOUND:                -1.188
REMARK SMILES COc1cc(CNC(=O)CCCCC=CC(C)C)ccc1O
REMARK SMILES IDX 11 1 12 2 13 3 14 4 15 5 16 6 17 7 18 8 10 9 8 10 9 11 7 12
REMARK SMILES IDX 6 14 5 15 4 16 19 17 3 18 20 19 21 20 2 21 1 22 22 23
REMARK H PARENT 7 13 22 24
REMARK Flexibility Score: inf
ROOT
ATOM      1  C   UNL     1     111.008 120.743 121.011  1.00  0.00     0.010 C 
ENDROOT
BRANCH   1   2
ATOM      2  C   UNL     1     110.394 120.517 122.405  1.00  0.00     0.005 C 
BRANCH   2   3
ATOM      3  C   UNL     1     109.552 121.709 122.885  1.00  0.00     0.027 C 
BRANCH   3   4
ATOM      4  C   UNL     1     108.085 121.445 122.687  1.00  0.00    -0.031 C 
ATOM      5  C   UNL     1     107.613 120.197 122.542  1.00  0.00    -0.028 C 
BRANCH   5   6
ATOM      6  C   UNL     1     106.140 119.930 122.341  1.00  0.00     0.005 C 
ATOM      7  C   UNL     1     105.424 121.196 121.855  1.00  0.00     0.012 C 
ATOM      8  C   UNL     1     105.506 119.423 123.641  1.00  0.00     0.012 C 
ENDBRANCH   5   6
ENDBRANCH   3   4
ENDBRANCH   2   3
ENDBRANCH   1   2
BRANCH   1   9
ATOM      9  C   UNL     1     110.800 119.577 120.032  1.00  0.00     0.100 C 
BRANCH   9  10
ATOM     10  C   UNL     1     109.471 119.656 119.337  1.00  0.00     0.220 C 
ATOM     11  O   UNL     1     109.111 118.714 118.581  1.00  0.00    -0.275 OA
ATOM     12  N   UNL     1     108.642 120.816 119.496  1.00  0.00    -0.352 N 
ATOM     13  H   UNL     1     108.962 121.590 120.121  1.00  0.00     0.163 HD
BRANCH  12  14
ATOM     14  C   UNL     1     107.381 120.984 118.778  1.00  0.00     0.151 C 
BRANCH  14  15
ATOM     15  C   UNL     1     107.106 122.444 118.542  1.00  0.00    -0.025 A 
ATOM     16  C   UNL     1     105.797 122.938 118.654  1.00  0.00     0.056 A 
ATOM     17  C   UNL     1     108.144 123.317 118.185  1.00  0.00     0.009 A 
ATOM     18  C   UNL     1     105.522 124.300 118.418  1.00  0.00     0.160 A 
ATOM     19  C   UNL     1     107.878 124.668 117.950  1.00  0.00     0.050 A 
ATOM     20  C   UNL     1     106.572 125.161 118.066  1.00  0.00     0.157 A 
BRANCH  18  21
ATOM     21  O   UNL     1     104.227 124.831 118.523  1.00  0.00    -0.493 OA
ATOM     22  C   UNL     1     103.060 124.222 117.980  1.00  0.00     0.278 C 
ENDBRANCH  18  21
BRANCH  20  23
ATOM     23  O   UNL     1     106.308 126.510 117.833  1.00  0.00    -0.504 OA
ATOM     24  H   UNL     1     106.336 126.903 116.899  1.00  0.00     0.293 HD
ENDBRANCH  20  23
ENDBRANCH  14  15
ENDBRANCH  12  14
ENDBRANCH   9  10
ENDBRANCH   1   9
TORSDOF 10
ENDMDL
MODEL 2
REMARK VINA RESULT:    -5.669      2.521      4.966
REMARK INTER + INTRA:         -10.006
REMARK INTER:                  -8.294
REMARK INTRA:                  -1.712
REMARK UNBOUND:                -1.188
REMARK SMILES COc1cc(CNC(=O)CCCCC=CC(C)C)ccc1O
REMARK SMILES IDX 11 1 12 2 13 3 14 4 15 5 16 6 17 7 18 8 10 9 8 10 9 11 7 12
REMARK SMILES IDX 6 14 5 15 4 16 19 17 3 18 20 19 21 20 2 21 1 22 22 23
REMARK H PARENT 7 13 22 24
REMARK Flexibility Score: inf
ROOT
ATOM      1  C   UNL     1     110.821 119.725 120.492  1.00  0.00     0.010 C 
ENDROOT
BRANCH   1   2
ATOM      2  C   UNL     1     110.020 120.211 119.269  1.00  0.00     0.005 C 
BRANCH   2   3
ATOM      3  C   UNL     1     108.678 119.482 119.110  1.00  0.00     0.027 C 
BRANCH   3   4
ATOM      4  C   UNL     1     107.540 120.462 119.029  1.00  0.00    -0.031 C 
ATOM      5  C   UNL     1     107.752 121.785 119.103  1.00  0.00    -0.028 C 
BRANCH   5   6
ATOM      6  C   UNL     1     106.611 122.772 119.024  1.00  0.00     0.005 C 
ATOM      7  C   UNL     1     105.298 122.052 118.695  1.00  0.00     0.012 C 
ATOM      8  C   UNL     1     106.907 123.848 117.974  1.00  0.00     0.012 C 
ENDBRANCH   5   6
ENDBRANCH   3   4
ENDBRANCH   2   3
ENDBRANCH   1   2
BRANCH   1   9
ATOM      9  C   UNL     1     111.413 120.855 121.349  1.00  0.00     0.100 C 
BRANCH   9  10
ATOM     10  C   UNL     1     110.366 121.536 122.182  1.00  0.00     0.220 C 
ATOM     11  O   UNL     1     110.691 122.516 122.906  1.00  0.00    -0.275 OA
ATOM     12  N   UNL     1     109.018 121.045 122.191  1.00  0.00    -0.352 N 
ATOM     13  H   UNL     1     108.771 120.226 121.591  1.00  0.00     0.163 HD
BRANCH  12  14
ATOM     14  C   UNL     1     107.980 121.613 123.047  1.00  0.00     0.151 C 
BRANCH  14  15
ATOM     15  C   UNL     1     106.639 121.028 122.700  1.00  0.00    -0.025 A 
ATOM     16  C   UNL     1     105.524 121.868 122.554  1.00  0.00     0.056 A 
ATOM     17  C   UNL     1     106.484 119.643 122.543  1.00  0.00     0.009 A 
ATOM     18  C   UNL     1     104.258 121.332 122.247  1.00  0.00     0.160 A 
ATOM     19  C   UNL     1     105.231 119.106 122.237  1.00  0.00     0.050 A 
ATOM     20  C   UNL     1     104.119 119.945 122.089  1.00  0.00     0.157 A 
BRANCH  18  21
ATOM     21  O   UNL     1     103.120 122.140 122.092  1.00  0.00    -0.493 OA
ATOM     22  C   UNL     1     103.094 123.546 122.312  1.00  0.00     0.278 C 
ENDBRANCH  18  21
BRANCH  20  23
ATOM     23  O   UNL     1     102.870 119.407 121.783  1.00  0.00    -0.504 OA
ATOM     24  H   UNL     1     102.151 119.300 122.489  1.00  0.00     0.293 HD
ENDBRANCH  20  23
ENDBRANCH  14  15
ENDBRANCH  12  14
ENDBRANCH   9  10
ENDBRANCH   1   9
TORSDOF 10
ENDMDL
MODEL 3
REMARK VINA RESULT:    -5.638      2.566      7.586
REMARK INTER + INTRA:          -9.958
REMARK INTER:                  -9.247
REMARK INTRA:                  -0.711
REMARK UNBOUND:                -1.188
REMARK SMILES COc1cc(CNC(=O)CCCCC=CC(C)C)ccc1O
REMARK SMILES IDX 11 1 12 2 13 3 14 4 15 5 16 6 17 7 18 8 10 9 8 10 9 11 7 12
REMARK SMILES IDX 6 14 5 15 4 16 19 17 3 18 20 19 21 20 2 21 1 22 22 23
REMARK H PARENT 7 13 22 24
REMARK Flexibility Score: inf
ROOT
ATOM      1  C   UNL     1     103.606 124.171 118.904  1.00  0.00     0.010 C 
ENDROOT
BRANCH   1   2
ATOM      2  C   UNL     1     103.052 124.936 117.686  1.00  0.00     0.005 C 
BRANCH   2   3
ATOM      3  C   UNL     1     101.572 124.628 117.414  1.00  0.00     0.027 C 
BRANCH   3   4
ATOM      4  C   UNL     1     101.413 123.841 116.143  1.00  0.00    -0.031 C 
ATOM      5  C   UNL     1     102.451 123.623 115.321  1.00  0.00    -0.028 C 
BRANCH   5   6
ATOM      6  C   UNL     1     102.292 122.833 114.043  1.00  0.00     0.005 C 
ATOM      7  C   UNL     1     101.105 121.869 114.149  1.00  0.00     0.012 C 
ATOM      8  C   UNL     1     103.579 122.062 113.728  1.00  0.00     0.012 C 
ENDBRANCH   5   6
ENDBRANCH   3   4
ENDBRANCH   2   3
ENDBRANCH   1   2
BRANCH   1   9
ATOM      9  C   UNL     1     105.111 123.869 118.829  1.00  0.00     0.100 C 
BRANCH   9  10
ATOM     10  C   UNL     1     105.382 122.402 118.662  1.00  0.00     0.220 C 
ATOM     11  O   UNL     1     104.511 121.669 118.121  1.00  0.00    -0.275 OA
ATOM     12  N   UNL     1     106.603 121.833 119.157  1.00  0.00    -0.352 N 
ATOM     13  H   UNL     1     107.309 122.455 119.610  1.00  0.00     0.163 HD
BRANCH  12  14
ATOM     14  C   UNL     1     106.881 120.400 119.099  1.00  0.00     0.151 C 
BRANCH  14  15
ATOM     15  C   UNL     1     108.310 120.130 119.484  1.00  0.00    -0.025 A 
ATOM     16  C   UNL     1     108.868 120.773 120.599  1.00  0.00     0.056 A 
ATOM     17  C   UNL     1     109.101 119.257 118.723  1.00  0.00     0.009 A 
ATOM     18  C   UNL     1     110.211 120.544 120.961  1.00  0.00     0.160 A 
ATOM     19  C   UNL     1     110.432 119.025 119.078  1.00  0.00     0.050 A 
ATOM     20  C   UNL     1     110.988 119.665 120.193  1.00  0.00     0.157 A 
BRANCH  18  21
ATOM     21  O   UNL     1     110.804 121.168 122.070  1.00  0.00    -0.493 OA
ATOM     22  C   UNL     1     110.229 122.256 122.785  1.00  0.00     0.278 C 
ENDBRANCH  18  21
BRANCH  20  23
ATOM     23  O   UNL     1     112.316 119.432 120.546  1.00  0.00    -0.504 OA
ATOM     24  H   UNL     1     112.982 120.190 120.638  1.00  0.00     0.293 HD
ENDBRANCH  20  23
ENDBRANCH  14  15
ENDBRANCH  12  14
ENDBRANCH   9  10
ENDBRANCH   1   9
TORSDOF 10
ENDMDL
MODEL 4
REMARK VINA RESULT:    -5.567      2.084      3.887
REMARK INTER + INTRA:          -9.846
REMARK INTER:                  -8.615
REMARK INTRA:                  -1.231
REMARK UNBOUND:                -1.188
REMARK SMILES COc1cc(CNC(=O)CCCCC=CC(C)C)ccc1O
REMARK SMILES IDX 11 1 12 2 13 3 14 4 15 5 16 6 17 7 18 8 10 9 8 10 9 11 7 12
REMARK SMILES IDX 6 14 5 15 4 16 19 17 3 18 20 19 21 20 2 21 1 22 22 23
REMARK H PARENT 7 13 22 24
REMARK Flexibility Score: inf
ROOT
ATOM      1  C   UNL     1     107.011 119.358 123.000  1.00  0.00     0.010 C 
ENDROOT
BRANCH   1   2
ATOM      2  C   UNL     1     107.140 120.812 122.508  1.00  0.00     0.005 C 
BRANCH   2   3
ATOM      3  C   UNL     1     108.540 121.397 122.745  1.00  0.00     0.027 C 
BRANCH   3   4
ATOM      4  C   UNL     1     109.569 120.680 121.917  1.00  0.00    -0.031 C 
ATOM      5  C   UNL     1     109.604 120.806 120.581  1.00  0.00    -0.028 C 
BRANCH   5   6
ATOM      6  C   UNL     1     110.637 120.085 119.747  1.00  0.00     0.005 C 
ATOM      7  C   UNL     1     109.991 118.931 118.970  1.00  0.00     0.012 C 
ATOM      8  C   UNL     1     111.771 119.562 120.635  1.00  0.00     0.012 C 
ENDBRANCH   5   6
ENDBRANCH   3   4
ENDBRANCH   2   3
ENDBRANCH   1   2
BRANCH   1   9
ATOM      9  C   UNL     1     105.579 118.801 122.955  1.00  0.00     0.100 C 
BRANCH   9  10
ATOM     10  C   UNL     1     104.770 119.418 121.850  1.00  0.00     0.220 C 
ATOM     11  O   UNL     1     103.774 120.136 122.139  1.00  0.00    -0.275 OA
ATOM     12  N   UNL     1     105.099 119.152 120.480  1.00  0.00    -0.352 N 
ATOM     13  H   UNL     1     105.923 118.547 120.261  1.00  0.00     0.163 HD
BRANCH  12  14
ATOM     14  C   UNL     1     104.296 119.655 119.367  1.00  0.00     0.151 C 
BRANCH  14  15
ATOM     15  C   UNL     1     104.808 120.996 118.919  1.00  0.00    -0.025 A 
ATOM     16  C   UNL     1     103.977 121.851 118.178  1.00  0.00     0.056 A 
ATOM     17  C   UNL     1     106.120 121.393 119.212  1.00  0.00     0.009 A 
ATOM     18  C   UNL     1     104.449 123.103 117.735  1.00  0.00     0.160 A 
ATOM     19  C   UNL     1     106.593 122.634 118.777  1.00  0.00     0.050 A 
ATOM     20  C   UNL     1     105.763 123.488 118.040  1.00  0.00     0.157 A 
BRANCH  18  21
ATOM     21  O   UNL     1     103.648 123.986 116.994  1.00  0.00    -0.493 OA
ATOM     22  C   UNL     1     102.847 125.016 117.562  1.00  0.00     0.278 C 
ENDBRANCH  18  21
BRANCH  20  23
ATOM     23  O   UNL     1     106.236 124.726 117.608  1.00  0.00    -0.504 OA
ATOM     24  H   UNL     1     106.185 125.003 116.634  1.00  0.00     0.293 HD
ENDBRANCH  20  23
ENDBRANCH  14  15
ENDBRANCH  12  14
ENDBRANCH   9  10
ENDBRANCH   1   9
TORSDOF 10
ENDMDL
MODEL 5
REMARK VINA RESULT:    -5.548      2.641      7.740
REMARK INTER + INTRA:          -9.817
REMARK INTER:                  -9.184
REMARK INTRA:                  -0.633
REMARK UNBOUND:                -1.188
REMARK SMILES COc1cc(CNC(=O)CCCCC=CC(C)C)ccc1O
REMARK SMILES IDX 11 1 12 2 13 3 14 4 15 5 16 6 17 7 18 8 10 9 8 10 9 11 7 12
REMARK SMILES IDX 6 14 5 15 4 16 19 17 3 18 20 19 21 20 2 21 1 22 22 23
REMARK H PARENT 7 13 22 24
REMARK Flexibility Score: inf
ROOT
ATOM      1  C   UNL     1     103.730 124.383 118.952  1.00  0.00     0.010 C 
ENDROOT
BRANCH   1   2
ATOM      2  C   UNL     1     103.170 124.934 117.628  1.00  0.00     0.005 C 
BRANCH   2   3
ATOM      3  C   UNL     1     102.144 123.994 116.979  1.00  0.00     0.027 C 
BRANCH   3   4
ATOM      4  C   UNL     1     100.764 124.589 117.027  1.00  0.00    -0.031 C 
ATOM      5  C   UNL     1     100.216 124.991 118.184  1.00  0.00    -0.028 C 
BRANCH   5   6
ATOM      6  C   UNL     1      98.829 125.588 118.235  1.00  0.00     0.005 C 
ATOM      7  C   UNL     1      97.963 125.036 117.097  1.00  0.00     0.012 C 
ATOM      8  C   UNL     1      98.902 127.116 118.158  1.00  0.00     0.012 C 
ENDBRANCH   5   6
ENDBRANCH   3   4
ENDBRANCH   2   3
ENDBRANCH   1   2
BRANCH   1   9
ATOM      9  C   UNL     1     105.216 123.993 118.896  1.00  0.00     0.100 C 
BRANCH   9  10
ATOM     10  C   UNL     1     105.406 122.504 118.862  1.00  0.00     0.220 C 
ATOM     11  O   UNL     1     104.410 121.758 118.660  1.00  0.00    -0.275 OA
ATOM     12  N   UNL     1     106.700 121.935 119.106  1.00  0.00    -0.352 N 
ATOM     13  H   UNL     1     107.511 122.571 119.281  1.00  0.00     0.163 HD
BRANCH  12  14
ATOM     14  C   UNL     1     106.925 120.493 119.171  1.00  0.00     0.151 C 
BRANCH  14  15
ATOM     15  C   UNL     1     108.349 120.204 119.559  1.00  0.00    -0.025 A 
ATOM     16  C   UNL     1     108.940 120.900 120.626  1.00  0.00     0.056 A 
ATOM     17  C   UNL     1     109.105 119.262 118.847  1.00  0.00     0.009 A 
ATOM     18  C   UNL     1     110.279 120.653 120.989  1.00  0.00     0.160 A 
ATOM     19  C   UNL     1     110.433 119.012 119.203  1.00  0.00     0.050 A 
ATOM     20  C   UNL     1     111.021 119.703 120.270  1.00  0.00     0.157 A 
BRANCH  18  21
ATOM     21  O   UNL     1     110.904 121.326 122.050  1.00  0.00    -0.493 OA
ATOM     22  C   UNL     1     110.251 122.254 122.910  1.00  0.00     0.278 C 
ENDBRANCH  18  21
BRANCH  20  23
ATOM     23  O   UNL     1     112.345 119.452 120.624  1.00  0.00    -0.504 OA
ATOM     24  H   UNL     1     112.893 118.738 120.158  1.00  0.00     0.293 HD
ENDBRANCH  20  23
ENDBRANCH  14  15
ENDBRANCH  12  14
ENDBRANCH   9  10
ENDBRANCH   1   9
TORSDOF 10
ENDMDL
MODEL 6
REMARK VINA RESULT:    -5.471      3.614      6.538
REMARK INTER + INTRA:          -9.698
REMARK INTER:                  -8.316
REMARK INTRA:                  -1.382
REMARK UNBOUND:                -1.188
REMARK SMILES COc1cc(CNC(=O)CCCCC=CC(C)C)ccc1O
REMARK SMILES IDX 11 1 12 2 13 3 14 4 15 5 16 6 17 7 18 8 10 9 8 10 9 11 7 12
REMARK SMILES IDX 6 14 5 15 4 16 19 17 3 18 20 19 21 20 2 21 1 22 22 23
REMARK H PARENT 7 13 22 24
REMARK Flexibility Score: inf
ROOT
ATOM      1  C   UNL     1     110.586 120.308 120.973  1.00  0.00     0.010 C 
ENDROOT
BRANCH   1   2
ATOM      2  C   UNL     1     109.617 120.387 119.779  1.00  0.00     0.005 C 
BRANCH   2   3
ATOM      3  C   UNL     1     109.397 121.825 119.285  1.00  0.00     0.027 C 
BRANCH   3   4
ATOM      4  C   UNL     1     107.933 122.108 119.092  1.00  0.00    -0.031 C 
ATOM      5  C   UNL     1     107.015 121.133 119.178  1.00  0.00    -0.028 C 
BRANCH   5   6
ATOM      6  C   UNL     1     105.544 121.415 118.983  1.00  0.00     0.005 C 
ATOM      7  C   UNL     1     105.089 122.559 119.898  1.00  0.00     0.012 C 
ATOM      8  C   UNL     1     104.717 120.154 119.254  1.00  0.00     0.012 C 
ENDBRANCH   5   6
ENDBRANCH   3   4
ENDBRANCH   2   3
ENDBRANCH   1   2
BRANCH   1   9
ATOM      9  C   UNL     1     109.936 119.833 122.283  1.00  0.00     0.100 C 
BRANCH   9  10
ATOM     10  C   UNL     1     108.645 120.548 122.562  1.00  0.00     0.220 C 
ATOM     11  O   UNL     1     108.670 121.762 122.901  1.00  0.00    -0.275 OA
ATOM     12  N   UNL     1     107.399 119.841 122.489  1.00  0.00    -0.352 N 
ATOM     13  H   UNL     1     107.399 118.833 122.214  1.00  0.00     0.163 HD
BRANCH  12  14
ATOM     14  C   UNL     1     106.122 120.463 122.833  1.00  0.00     0.151 C 
BRANCH  14  15
ATOM     15  C   UNL     1     105.110 119.410 123.194  1.00  0.00    -0.025 A 
ATOM     16  C   UNL     1     104.294 119.580 124.324  1.00  0.00     0.056 A 
ATOM     17  C   UNL     1     104.989 118.244 122.426  1.00  0.00     0.009 A 
ATOM     18  C   UNL     1     103.355 118.594 124.685  1.00  0.00     0.160 A 
ATOM     19  C   UNL     1     104.058 117.263 122.778  1.00  0.00     0.050 A 
ATOM     20  C   UNL     1     103.242 117.435 123.903  1.00  0.00     0.157 A 
BRANCH  18  21
ATOM     21  O   UNL     1     102.521 118.729 125.806  1.00  0.00    -0.493 OA
ATOM     22  C   UNL     1     102.884 118.353 127.130  1.00  0.00     0.278 C 
ENDBRANCH  18  21
BRANCH  20  23
ATOM     23  O   UNL     1     102.313 116.456 124.253  1.00  0.00    -0.504 OA
ATOM     24  H   UNL     1     101.341 116.683 124.423  1.00  0.00     0.293 HD
ENDBRANCH  20  23
ENDBRANCH  14  15
ENDBRANCH  12  14
ENDBRANCH   9  10
ENDBRANCH   1   9
TORSDOF 10
ENDMDL
MODEL 7
REMARK VINA RESULT:    -5.411      1.626      2.233
REMARK INTER + INTRA:          -9.604
REMARK INTER:                  -8.139
REMARK INTRA:                  -1.466
REMARK UNBOUND:                -1.188
REMARK SMILES COc1cc(CNC(=O)CCCCC=CC(C)C)ccc1O
REMARK SMILES IDX 11 1 12 2 13 3 14 4 15 5 16 6 17 7 18 8 10 9 8 10 9 11 7 12
REMARK SMILES IDX 6 14 5 15 4 16 19 17 3 18 20 19 21 20 2 21 1 22 22 23
REMARK H PARENT 7 13 22 24
REMARK Flexibility Score: inf
ROOT
ATOM      1  C   UNL     1     110.671 120.864 120.805  1.00  0.00     0.010 C 
ENDROOT
BRANCH   1   2
ATOM      2  C   UNL     1     109.963 121.141 122.145  1.00  0.00     0.005 C 
BRANCH   2   3
ATOM      3  C   UNL     1     109.397 119.869 122.793  1.00  0.00     0.027 C 
BRANCH   3   4
ATOM      4  C   UNL     1     107.894 119.875 122.763  1.00  0.00    -0.031 C 
ATOM      5  C   UNL     1     107.198 121.021 122.833  1.00  0.00    -0.028 C 
BRANCH   5   6
ATOM      6  C   UNL     1     105.688 121.030 122.806  1.00  0.00     0.005 C 
ATOM      7  C   UNL     1     105.157 119.851 121.981  1.00  0.00     0.012 C 
ATOM      8  C   UNL     1     105.171 122.355 122.236  1.00  0.00     0.012 C 
ENDBRANCH   5   6
ENDBRANCH   3   4
ENDBRANCH   2   3
ENDBRANCH   1   2
BRANCH   1   9
ATOM      9  C   UNL     1     110.000 121.522 119.589  1.00  0.00     0.100 C 
BRANCH   9  10
ATOM     10  C   UNL     1     108.641 120.945 119.316  1.00  0.00     0.220 C 
ATOM     11  O   UNL     1     108.525 119.708 119.101  1.00  0.00    -0.275 OA
ATOM     12  N   UNL     1     107.492 121.802 119.254  1.00  0.00    -0.352 N 
ATOM     13  H   UNL     1     107.610 122.826 119.428  1.00  0.00     0.163 HD
BRANCH  12  14
ATOM     14  C   UNL     1     106.161 121.308 118.908  1.00  0.00     0.151 C 
BRANCH  14  15
ATOM     15  C   UNL     1     105.288 122.442 118.446  1.00  0.00    -0.025 A 
ATOM     16  C   UNL     1     104.234 122.196 117.551  1.00  0.00     0.056 A 
ATOM     17  C   UNL     1     105.531 123.753 118.881  1.00  0.00     0.009 A 
ATOM     18  C   UNL     1     103.420 123.252 117.095  1.00  0.00     0.160 A 
ATOM     19  C   UNL     1     104.726 124.804 118.433  1.00  0.00     0.050 A 
ATOM     20  C   UNL     1     103.673 124.557 117.543  1.00  0.00     0.157 A 
BRANCH  18  21
ATOM     21  O   UNL     1     102.357 123.045 116.202  1.00  0.00    -0.493 OA
ATOM     22  C   UNL     1     101.047 122.641 116.589  1.00  0.00     0.278 C 
ENDBRANCH  18  21
BRANCH  20  23
ATOM     23  O   UNL     1     102.870 125.606 117.098  1.00  0.00    -0.504 OA
ATOM     24  H   UNL     1     101.871 125.493 116.970  1.00  0.00     0.293 HD
ENDBRANCH  20  23
ENDBRANCH  14  15
ENDBRANCH  12  14
ENDBRANCH   9  10
ENDBRANCH   1   9
TORSDOF 10
ENDMDL
MODEL 8
REMARK VINA RESULT:    -5.404      2.681      3.801
REMARK INTER + INTRA:          -9.594
REMARK INTER:                  -7.897
REMARK INTRA:                  -1.697
REMARK UNBOUND:                -1.188
REMARK SMILES COc1cc(CNC(=O)CCCCC=CC(C)C)ccc1O
REMARK SMILES IDX 11 1 12 2 13 3 14 4 15 5 16 6 17 7 18 8 10 9 8 10 9 11 7 12
REMARK SMILES IDX 6 14 5 15 4 16 19 17 3 18 20 19 21 20 2 21 1 22 22 23
REMARK H PARENT 7 13 22 24
REMARK Flexibility Score: inf
ROOT
ATOM      1  C   UNL     1     109.629 120.788 119.653  1.00  0.00     0.010 C 
ENDROOT
BRANCH   1   2
ATOM      2  C   UNL     1     110.767 121.092 120.646  1.00  0.00     0.005 C 
BRANCH   2   3
ATOM      3  C   UNL     1     110.486 120.551 122.056  1.00  0.00     0.027 C 
BRANCH   3   4
ATOM      4  C   UNL     1     109.079 120.869 122.482  1.00  0.00    -0.031 C 
ATOM      5  C   UNL     1     108.148 119.909 122.591  1.00  0.00    -0.028 C 
BRANCH   5   6
ATOM      6  C   UNL     1     106.733 120.226 123.017  1.00  0.00     0.005 C 
ATOM      7  C   UNL     1     105.729 119.388 122.218  1.00  0.00     0.012 C 
ATOM      8  C   UNL     1     106.444 121.720 122.837  1.00  0.00     0.012 C 
ENDBRANCH   5   6
ENDBRANCH   3   4
ENDBRANCH   2   3
ENDBRANCH   1   2
BRANCH   1   9
ATOM      9  C   UNL     1     108.893 122.035 119.136  1.00  0.00     0.100 C 
BRANCH   9  10
ATOM     10  C   UNL     1     107.408 121.826 119.073  1.00  0.00     0.220 C 
ATOM     11  O   UNL     1     106.937 120.672 119.265  1.00  0.00    -0.275 OA
ATOM     12  N   UNL     1     106.538 122.919 118.749  1.00  0.00    -0.352 N 
ATOM     13  H   UNL     1     106.948 123.866 118.585  1.00  0.00     0.163 HD
BRANCH  12  14
ATOM     14  C   UNL     1     105.095 122.755 118.590  1.00  0.00     0.151 C 
BRANCH  14  15
ATOM     15  C   UNL     1     104.401 122.922 119.914  1.00  0.00    -0.025 A 
ATOM     16  C   UNL     1     103.606 121.883 120.424  1.00  0.00     0.056 A 
ATOM     17  C   UNL     1     104.520 124.118 120.635  1.00  0.00     0.009 A 
ATOM     18  C   UNL     1     102.936 122.033 121.654  1.00  0.00     0.160 A 
ATOM     19  C   UNL     1     103.858 124.272 121.856  1.00  0.00     0.050 A 
ATOM     20  C   UNL     1     103.068 123.234 122.367  1.00  0.00     0.157 A 
BRANCH  18  21
ATOM     21  O   UNL     1     102.134 121.017 122.199  1.00  0.00    -0.493 OA
ATOM     22  C   UNL     1     100.916 120.557 121.623  1.00  0.00     0.278 C 
ENDBRANCH  18  21
BRANCH  20  23
ATOM     23  O   UNL     1     102.409 123.388 123.586  1.00  0.00    -0.504 OA
ATOM     24  H   UNL     1     102.021 124.280 123.870  1.00  0.00     0.293 HD
ENDBRANCH  20  23
ENDBRANCH  14  15
ENDBRANCH  12  14
ENDBRANCH   9  10
ENDBRANCH   1   9
TORSDOF 10
ENDMDL
MODEL 9
REMARK VINA RESULT:    -5.362      2.423      4.612
REMARK INTER + INTRA:          -9.528
REMARK INTER:                  -7.662
REMARK INTRA:                  -1.866
REMARK UNBOUND:                -1.188
REMARK SMILES COc1cc(CNC(=O)CCCCC=CC(C)C)ccc1O
REMARK SMILES IDX 11 1 12 2 13 3 14 4 15 5 16 6 17 7 18 8 10 9 8 10 9 11 7 12
REMARK SMILES IDX 6 14 5 15 4 16 19 17 3 18 20 19 21 20 2 21 1 22 22 23
REMARK H PARENT 7 13 22 24
REMARK Flexibility Score: inf
ROOT
ATOM      1  C   UNL     1     110.627 120.074 120.770  1.00  0.00     0.010 C 
ENDROOT
BRANCH   1   2
ATOM      2  C   UNL     1     109.874 120.552 119.514  1.00  0.00     0.005 C 
BRANCH   2   3
ATOM      3  C   UNL     1     108.629 119.706 119.209  1.00  0.00     0.027 C 
BRANCH   3   4
ATOM      4  C   UNL     1     107.429 120.582 118.979  1.00  0.00    -0.031 C 
ATOM      5  C   UNL     1     107.504 121.917 119.100  1.00  0.00    -0.028 C 
BRANCH   5   6
ATOM      6  C   UNL     1     106.299 122.799 118.871  1.00  0.00     0.005 C 
ATOM      7  C   UNL     1     105.122 121.975 118.335  1.00  0.00     0.012 C 
ATOM      8  C   UNL     1     106.643 123.933 117.899  1.00  0.00     0.012 C 
ENDBRANCH   5   6
ENDBRANCH   3   4
ENDBRANCH   2   3
ENDBRANCH   1   2
BRANCH   1   9
ATOM      9  C   UNL     1     110.227 120.804 122.062  1.00  0.00     0.100 C 
BRANCH   9  10
ATOM     10  C   UNL     1     108.982 120.226 122.672  1.00  0.00     0.220 C 
ATOM     11  O   UNL     1     109.058 119.160 123.340  1.00  0.00    -0.275 OA
ATOM     12  N   UNL     1     107.713 120.858 122.455  1.00  0.00    -0.352 N 
ATOM     13  H   UNL     1     107.670 121.736 121.891  1.00  0.00     0.163 HD
BRANCH  12  14
ATOM     14  C   UNL     1     106.460 120.293 122.951  1.00  0.00     0.151 C 
BRANCH  14  15
ATOM     15  C   UNL     1     105.288 121.057 122.398  1.00  0.00    -0.025 A 
ATOM     16  C   UNL     1     104.208 120.366 121.826  1.00  0.00     0.056 A 
ATOM     17  C   UNL     1     105.274 122.459 122.424  1.00  0.00     0.009 A 
ATOM     18  C   UNL     1     103.112 121.069 121.287  1.00  0.00     0.160 A 
ATOM     19  C   UNL     1     104.190 123.161 121.893  1.00  0.00     0.050 A 
ATOM     20  C   UNL     1     103.110 122.471 121.326  1.00  0.00     0.157 A 
BRANCH  18  21
ATOM     21  O   UNL     1     102.013 120.414 120.709  1.00  0.00    -0.493 OA
ATOM     22  C   UNL     1     100.843 120.025 121.420  1.00  0.00     0.278 C 
ENDBRANCH  18  21
BRANCH  20  23
ATOM     23  O   UNL     1     102.029 123.174 120.797  1.00  0.00    -0.504 OA
ATOM     24  H   UNL     1     101.757 123.077 119.825  1.00  0.00     0.293 HD
ENDBRANCH  20  23
ENDBRANCH  14  15
ENDBRANCH  12  14
ENDBRANCH   9  10
ENDBRANCH   1   9
TORSDOF 10
ENDMDL
