MODEL 1
REMARK VINA RESULT:    -6.220      0.000      0.000
REMARK INTER + INTRA:         -11.185
REMARK INTER:                  -8.947
REMARK INTRA:                  -2.239
REMARK UNBOUND:                -2.239
REMARK SMILES O=c1c(O[C@@H]2O[C@H](CO)[C@H](O)[C@H](O)[C@@H]2O)c(-c2ccc(O)cc2)oc2cc(O)cc(O)c12
REMARK SMILES IDX 4 1 3 2 16 3 24 4 2 5 25 6 1 7 32 8 26 9 30 10 27 11 29 12
REMARK SMILES IDX 17 13 18 14 19 15 20 16 23 17 22 18 21 19 31 21 28 23 5 25
REMARK SMILES IDX 14 26 6 27 12 28 7 29 10 30 15 31 13 33 8 35 9 36 11 38
REMARK H PARENT 21 20 31 22 28 24 15 32 13 34 9 37 11 39
REMARK Flexibility Score: inf
ROOT
ATOM      1  O   UNL     1      17.234  -3.407 -14.272  1.00  0.00    -0.454 OA
ENDROOT
BRANCH   1   2
ATOM      2  C   UNL     1      17.620  -3.086 -15.592  1.00  0.00     0.214 A 
ATOM      3  C   UNL     1      17.782  -4.142 -16.512  1.00  0.00     0.180 A 
ATOM      4  O   UNL     1      18.428  -3.935 -17.655  1.00  0.00    -0.452 OA
ATOM      5  C   UNL     1      17.952  -1.781 -16.020  1.00  0.00     0.239 A 
ATOM      6  C   UNL     1      18.887  -2.750 -18.030  1.00  0.00     0.146 A 
ATOM      7  O   UNL     1      17.660  -0.781 -15.319  1.00  0.00    -0.285 OA
ATOM      8  C   UNL     1      18.642  -1.605 -17.241  1.00  0.00     0.111 A 
ATOM      9  C   UNL     1      19.609  -2.644 -19.221  1.00  0.00     0.094 A 
ATOM     10  C   UNL     1      19.116  -0.347 -17.686  1.00  0.00     0.134 A 
ATOM     11  C   UNL     1      20.071  -1.401 -19.662  1.00  0.00     0.123 A 
ATOM     12  C   UNL     1      19.816  -0.255 -18.897  1.00  0.00     0.093 A 
BRANCH   3  13
ATOM     13  C   UNL     1      17.211  -5.491 -16.277  1.00  0.00     0.021 A 
ATOM     14  C   UNL     1      15.881  -5.762 -16.640  1.00  0.00     0.016 A 
ATOM     15  C   UNL     1      15.283  -6.978 -16.292  1.00  0.00     0.047 A 
ATOM     16  C   UNL     1      16.000  -7.934 -15.563  1.00  0.00     0.115 A 
ATOM     17  C   UNL     1      17.928  -6.461 -15.554  1.00  0.00     0.016 A 
ATOM     18  C   UNL     1      17.332  -7.679 -15.215  1.00  0.00     0.047 A 
BRANCH  16  19
ATOM     19  O   UNL     1      15.394  -9.122 -15.156  1.00  0.00    -0.508 OA
ATOM     20  H   UNL     1      14.519  -9.119 -14.644  1.00  0.00     0.293 HD
ENDBRANCH  16  19
ENDBRANCH   3  13
BRANCH  10  21
ATOM     21  O   UNL     1      18.914   0.807 -16.925  1.00  0.00    -0.507 OA
ATOM     22  H   UNL     1      19.668   1.454 -16.721  1.00  0.00     0.293 HD
ENDBRANCH  10  21
BRANCH  11  23
ATOM     23  O   UNL     1      20.788  -1.312 -20.852  1.00  0.00    -0.508 OA
ATOM     24  H   UNL     1      21.399  -0.524 -21.043  1.00  0.00     0.293 HD
ENDBRANCH  11  23
ENDBRANCH   1   2
BRANCH   1  25
ATOM     25  C   UNL     1      18.067  -3.779 -13.169  1.00  0.00     0.339 C 
ATOM     26  C   UNL     1      18.282  -2.601 -12.224  1.00  0.00     0.214 C 
ATOM     27  O   UNL     1      17.576  -4.905 -12.479  1.00  0.00    -0.332 OA
ATOM     28  C   UNL     1      16.936  -2.103 -11.696  1.00  0.00     0.180 C 
ATOM     29  C   UNL     1      16.443  -4.717 -11.642  1.00  0.00     0.179 C 
ATOM     30  C   UNL     1      16.036  -3.262 -11.192  1.00  0.00     0.177 C 
BRANCH  26  31
ATOM     31  O   UNL     1      18.965  -1.572 -12.893  1.00  0.00    -0.384 OA
ATOM     32  H   UNL     1      19.206  -0.890 -12.209  1.00  0.00     0.211 HD
ENDBRANCH  26  31
BRANCH  28  33
ATOM     33  O   UNL     1      16.287  -1.340 -12.685  1.00  0.00    -0.387 OA
ATOM     34  H   UNL     1      16.049  -1.974 -13.411  1.00  0.00     0.211 HD
ENDBRANCH  28  33
BRANCH  29  35
ATOM     35  C   UNL     1      15.287  -5.622 -12.132  1.00  0.00     0.191 C 
BRANCH  35  36
ATOM     36  O   UNL     1      14.739  -5.197 -13.353  1.00  0.00    -0.394 OA
ATOM     37  H   UNL     1      13.961  -5.784 -13.550  1.00  0.00     0.210 HD
ENDBRANCH  35  36
ENDBRANCH  29  35
BRANCH  30  38
ATOM     38  O   UNL     1      14.693  -2.970 -11.489  1.00  0.00    -0.387 OA
ATOM     39  H   UNL     1      14.515  -3.288 -12.412  1.00  0.00     0.211 HD
ENDBRANCH  30  38
ENDBRANCH   1  25
TORSDOF 11
ENDMDL
MODEL 2
REMARK VINA RESULT:    -6.020      0.768      2.294
REMARK INTER + INTRA:         -10.899
REMARK INTER:                  -8.954
REMARK INTRA:                  -1.945
REMARK UNBOUND:                -2.239
REMARK SMILES O=c1c(O[C@@H]2O[C@H](CO)[C@H](O)[C@H](O)[C@@H]2O)c(-c2ccc(O)cc2)oc2cc(O)cc(O)c12
REMARK SMILES IDX 4 1 3 2 16 3 24 4 2 5 25 6 1 7 32 8 26 9 30 10 27 11 29 12
REMARK SMILES IDX 17 13 18 14 19 15 20 16 23 17 22 18 21 19 31 21 28 23 5 25
REMARK SMILES IDX 14 26 6 27 12 28 7 29 10 30 15 31 13 33 8 35 9 36 11 38
REMARK H PARENT 21 20 31 22 28 24 15 32 13 34 9 37 11 39
REMARK Flexibility Score: inf
ROOT
ATOM      1  O   UNL     1      17.107  -3.472 -14.209  1.00  0.00    -0.454 OA
ENDROOT
BRANCH   1   2
ATOM      2  C   UNL     1      17.504  -3.125 -15.518  1.00  0.00     0.214 A 
ATOM      3  C   UNL     1      17.658  -4.160 -16.463  1.00  0.00     0.180 A 
ATOM      4  O   UNL     1      18.313  -3.935 -17.597  1.00  0.00    -0.452 OA
ATOM      5  C   UNL     1      17.857  -1.815 -15.913  1.00  0.00     0.239 A 
ATOM      6  C   UNL     1      18.790  -2.748 -17.940  1.00  0.00     0.146 A 
ATOM      7  O   UNL     1      17.574  -0.828 -15.190  1.00  0.00    -0.285 OA
ATOM      8  C   UNL     1      18.556  -1.619 -17.125  1.00  0.00     0.111 A 
ATOM      9  C   UNL     1      19.521  -2.623 -19.125  1.00  0.00     0.094 A 
ATOM     10  C   UNL     1      19.050  -0.357 -17.538  1.00  0.00     0.134 A 
ATOM     11  C   UNL     1      20.002  -1.376 -19.533  1.00  0.00     0.123 A 
ATOM     12  C   UNL     1      19.758  -0.245 -18.742  1.00  0.00     0.093 A 
BRANCH   3  13
ATOM     13  C   UNL     1      17.067  -5.507 -16.263  1.00  0.00     0.021 A 
ATOM     14  C   UNL     1      15.774  -5.782 -16.739  1.00  0.00     0.016 A 
ATOM     15  C   UNL     1      15.147  -6.994 -16.431  1.00  0.00     0.047 A 
ATOM     16  C   UNL     1      15.796  -7.941 -15.631  1.00  0.00     0.115 A 
ATOM     17  C   UNL     1      17.717  -6.468 -15.469  1.00  0.00     0.016 A 
ATOM     18  C   UNL     1      17.092  -7.682 -15.170  1.00  0.00     0.047 A 
BRANCH  16  19
ATOM     19  O   UNL     1      15.156  -9.125 -15.265  1.00  0.00    -0.508 OA
ATOM     20  H   UNL     1      14.161  -9.147 -15.066  1.00  0.00     0.293 HD
ENDBRANCH  16  19
ENDBRANCH   3  13
BRANCH  10  21
ATOM     21  O   UNL     1      18.860   0.781 -16.749  1.00  0.00    -0.507 OA
ATOM     22  H   UNL     1      19.455   1.597 -16.833  1.00  0.00     0.293 HD
ENDBRANCH  10  21
BRANCH  11  23
ATOM     23  O   UNL     1      20.726  -1.268 -20.717  1.00  0.00    -0.508 OA
ATOM     24  H   UNL     1      21.309  -2.030 -21.051  1.00  0.00     0.293 HD
ENDBRANCH  11  23
ENDBRANCH   1   2
BRANCH   1  25
ATOM     25  C   UNL     1      15.908  -3.109 -13.518  1.00  0.00     0.339 C 
ATOM     26  C   UNL     1      15.443  -4.235 -12.599  1.00  0.00     0.214 C 
ATOM     27  O   UNL     1      16.037  -1.895 -12.814  1.00  0.00    -0.332 OA
ATOM     28  C   UNL     1      16.535  -4.560 -11.579  1.00  0.00     0.180 C 
ATOM     29  C   UNL     1      16.798  -1.913 -11.613  1.00  0.00     0.179 C 
ATOM     30  C   UNL     1      17.110  -3.287 -10.906  1.00  0.00     0.177 C 
BRANCH  26  31
ATOM     31  O   UNL     1      15.121  -5.369 -13.362  1.00  0.00    -0.384 OA
ATOM     32  H   UNL     1      14.706  -5.044 -14.206  1.00  0.00     0.211 HD
ENDBRANCH  26  31
BRANCH  28  33
ATOM     33  O   UNL     1      17.549  -5.322 -12.191  1.00  0.00    -0.387 OA
ATOM     34  H   UNL     1      17.885  -4.775 -12.949  1.00  0.00     0.211 HD
ENDBRANCH  28  33
BRANCH  29  35
ATOM     35  C   UNL     1      17.990  -0.935 -11.747  1.00  0.00     0.191 C 
BRANCH  35  36
ATOM     36  O   UNL     1      18.972  -1.385 -12.643  1.00  0.00    -0.394 OA
ATOM     37  H   UNL     1      18.926  -2.378 -12.660  1.00  0.00     0.210 HD
ENDBRANCH  35  36
ENDBRANCH  29  35
BRANCH  30  38
ATOM     38  O   UNL     1      18.485  -3.465 -10.674  1.00  0.00    -0.387 OA
ATOM     39  H   UNL     1      18.760  -4.304 -11.128  1.00  0.00     0.211 HD
ENDBRANCH  30  38
ENDBRANCH   1  25
TORSDOF 11
ENDMDL
MODEL 3
REMARK VINA RESULT:    -5.567      4.351      8.896
REMARK INTER + INTRA:         -10.247
REMARK INTER:                  -8.308
REMARK INTRA:                  -1.939
REMARK UNBOUND:                -2.239
REMARK SMILES O=c1c(O[C@@H]2O[C@H](CO)[C@H](O)[C@H](O)[C@@H]2O)c(-c2ccc(O)cc2)oc2cc(O)cc(O)c12
REMARK SMILES IDX 4 1 3 2 16 3 24 4 2 5 25 6 1 7 32 8 26 9 30 10 27 11 29 12
REMARK SMILES IDX 17 13 18 14 19 15 20 16 23 17 22 18 21 19 31 21 28 23 5 25
REMARK SMILES IDX 14 26 6 27 12 28 7 29 10 30 15 31 13 33 8 35 9 36 11 38
REMARK H PARENT 21 20 31 22 28 24 15 32 13 34 9 37 11 39
REMARK Flexibility Score: inf
ROOT
ATOM      1  O   UNL     1      17.819  -0.823 -11.143  1.00  0.00    -0.454 OA
ENDROOT
BRANCH   1   2
ATOM      2  C   UNL     1      18.662  -0.976 -10.020  1.00  0.00     0.214 A 
ATOM      3  C   UNL     1      20.016  -0.607 -10.151  1.00  0.00     0.180 A 
ATOM      4  O   UNL     1      20.906  -1.009  -9.248  1.00  0.00    -0.452 OA
ATOM      5  C   UNL     1      18.254  -1.571  -8.805  1.00  0.00     0.239 A 
ATOM      6  C   UNL     1      20.583  -1.699  -8.164  1.00  0.00     0.146 A 
ATOM      7  O   UNL     1      17.037  -1.752  -8.555  1.00  0.00    -0.285 OA
ATOM      8  C   UNL     1      19.231  -1.986  -7.873  1.00  0.00     0.111 A 
ATOM      9  C   UNL     1      21.597  -2.130  -7.304  1.00  0.00     0.094 A 
ATOM     10  C   UNL     1      18.918  -2.695  -6.688  1.00  0.00     0.134 A 
ATOM     11  C   UNL     1      21.284  -2.825  -6.132  1.00  0.00     0.123 A 
ATOM     12  C   UNL     1      19.945  -3.098  -5.823  1.00  0.00     0.093 A 
BRANCH   3  13
ATOM     13  C   UNL     1      20.496   0.266 -11.250  1.00  0.00     0.021 A 
ATOM     14  C   UNL     1      21.369  -0.248 -12.224  1.00  0.00     0.016 A 
ATOM     15  C   UNL     1      21.945   0.596 -13.178  1.00  0.00     0.047 A 
ATOM     16  C   UNL     1      21.671   1.969 -13.164  1.00  0.00     0.115 A 
ATOM     17  C   UNL     1      20.217   1.644 -11.250  1.00  0.00     0.016 A 
ATOM     18  C   UNL     1      20.787   2.485 -12.209  1.00  0.00     0.047 A 
BRANCH  16  19
ATOM     19  O   UNL     1      22.289   2.829 -14.071  1.00  0.00    -0.508 OA
ATOM     20  H   UNL     1      22.745   2.476 -14.906  1.00  0.00     0.293 HD
ENDBRANCH  16  19
ENDBRANCH   3  13
BRANCH  10  21
ATOM     21  O   UNL     1      17.595  -3.020  -6.375  1.00  0.00    -0.507 OA
ATOM     22  H   UNL     1      16.812  -2.634  -6.890  1.00  0.00     0.293 HD
ENDBRANCH  10  21
BRANCH  11  23
ATOM     23  O   UNL     1      22.305  -3.246  -5.285  1.00  0.00    -0.508 OA
ATOM     24  H   UNL     1      22.820  -4.104  -5.464  1.00  0.00     0.293 HD
ENDBRANCH  11  23
ENDBRANCH   1   2
BRANCH   1  25
ATOM     25  C   UNL     1      17.411  -1.815 -12.089  1.00  0.00     0.339 C 
ATOM     26  C   UNL     1      15.891  -1.947 -12.124  1.00  0.00     0.214 C 
ATOM     27  O   UNL     1      17.933  -1.581 -13.377  1.00  0.00    -0.332 OA
ATOM     28  C   UNL     1      15.260  -0.604 -12.496  1.00  0.00     0.180 C 
ATOM     29  C   UNL     1      17.354  -0.528 -14.136  1.00  0.00     0.179 C 
ATOM     30  C   UNL     1      15.944   0.047 -13.726  1.00  0.00     0.177 C 
BRANCH  26  31
ATOM     31  O   UNL     1      15.423  -2.388 -10.876  1.00  0.00    -0.384 OA
ATOM     32  H   UNL     1      16.223  -2.594 -10.320  1.00  0.00     0.211 HD
ENDBRANCH  26  31
BRANCH  28  33
ATOM     33  O   UNL     1      15.276   0.256 -11.382  1.00  0.00    -0.387 OA
ATOM     34  H   UNL     1      15.262   1.180 -11.746  1.00  0.00     0.211 HD
ENDBRANCH  28  33
BRANCH  29  35
ATOM     35  C   UNL     1      18.441   0.521 -14.472  1.00  0.00     0.191 C 
BRANCH  35  36
ATOM     36  O   UNL     1      18.154   1.254 -15.635  1.00  0.00    -0.394 OA
ATOM     37  H   UNL     1      17.982   2.193 -15.359  1.00  0.00     0.210 HD
ENDBRANCH  35  36
ENDBRANCH  29  35
BRANCH  30  38
ATOM     38  O   UNL     1      15.969   1.443 -13.559  1.00  0.00    -0.387 OA
ATOM     39  H   UNL     1      15.580   1.850 -14.377  1.00  0.00     0.211 HD
ENDBRANCH  30  38
ENDBRANCH   1  25
TORSDOF 11
ENDMDL
MODEL 4
REMARK VINA RESULT:    -5.278      2.775      6.145
REMARK INTER + INTRA:          -9.831
REMARK INTER:                  -7.686
REMARK INTRA:                  -2.144
REMARK UNBOUND:                -2.239
REMARK SMILES O=c1c(O[C@@H]2O[C@H](CO)[C@H](O)[C@H](O)[C@@H]2O)c(-c2ccc(O)cc2)oc2cc(O)cc(O)c12
REMARK SMILES IDX 4 1 3 2 16 3 24 4 2 5 25 6 1 7 32 8 26 9 30 10 27 11 29 12
REMARK SMILES IDX 17 13 18 14 19 15 20 16 23 17 22 18 21 19 31 21 28 23 5 25
REMARK SMILES IDX 14 26 6 27 12 28 7 29 10 30 15 31 13 33 8 35 9 36 11 38
REMARK H PARENT 21 20 31 22 28 24 15 32 13 34 9 37 11 39
REMARK Flexibility Score: inf
ROOT
ATOM      1  O   UNL     1      17.228  -2.762 -11.785  1.00  0.00    -0.454 OA
ENDROOT
BRANCH   1   2
ATOM      2  C   UNL     1      17.259  -3.540 -12.963  1.00  0.00     0.214 A 
ATOM      3  C   UNL     1      16.935  -2.912 -14.183  1.00  0.00     0.180 A 
ATOM      4  O   UNL     1      16.651  -3.645 -15.255  1.00  0.00    -0.452 OA
ATOM      5  C   UNL     1      17.493  -4.933 -12.980  1.00  0.00     0.239 A 
ATOM      6  C   UNL     1      16.717  -4.968 -15.272  1.00  0.00     0.146 A 
ATOM      7  O   UNL     1      17.962  -5.519 -11.973  1.00  0.00    -0.285 OA
ATOM      8  C   UNL     1      17.175  -5.677 -14.139  1.00  0.00     0.111 A 
ATOM      9  C   UNL     1      16.338  -5.655 -16.428  1.00  0.00     0.094 A 
ATOM     10  C   UNL     1      17.267  -7.089 -14.201  1.00  0.00     0.134 A 
ATOM     11  C   UNL     1      16.436  -7.048 -16.489  1.00  0.00     0.123 A 
ATOM     12  C   UNL     1      16.908  -7.760 -15.378  1.00  0.00     0.093 A 
BRANCH   3  13
ATOM     13  C   UNL     1      16.943  -1.436 -14.339  1.00  0.00     0.021 A 
ATOM     14  C   UNL     1      15.769  -0.701 -14.110  1.00  0.00     0.016 A 
ATOM     15  C   UNL     1      15.720   0.668 -14.395  1.00  0.00     0.047 A 
ATOM     16  C   UNL     1      16.839   1.318 -14.928  1.00  0.00     0.115 A 
ATOM     17  C   UNL     1      18.067  -0.773 -14.865  1.00  0.00     0.016 A 
ATOM     18  C   UNL     1      18.020   0.596 -15.140  1.00  0.00     0.047 A 
BRANCH  16  19
ATOM     19  O   UNL     1      16.782   2.668 -15.275  1.00  0.00    -0.508 OA
ATOM     20  H   UNL     1      17.577   3.282 -15.134  1.00  0.00     0.293 HD
ENDBRANCH  16  19
ENDBRANCH   3  13
BRANCH  10  21
ATOM     21  O   UNL     1      17.693  -7.830 -13.096  1.00  0.00    -0.507 OA
ATOM     22  H   UNL     1      17.252  -7.740 -12.187  1.00  0.00     0.293 HD
ENDBRANCH  10  21
BRANCH  11  23
ATOM     23  O   UNL     1      16.056  -7.717 -17.649  1.00  0.00    -0.508 OA
ATOM     24  H   UNL     1      16.419  -8.639 -17.870  1.00  0.00     0.293 HD
ENDBRANCH  11  23
ENDBRANCH   1   2
BRANCH   1  25
ATOM     25  C   UNL     1      16.145  -2.581 -10.868  1.00  0.00     0.339 C 
ATOM     26  C   UNL     1      16.464  -3.207  -9.513  1.00  0.00     0.214 C 
ATOM     27  O   UNL     1      15.775  -1.229 -10.731  1.00  0.00    -0.332 OA
ATOM     28  C   UNL     1      17.730  -2.576  -8.932  1.00  0.00     0.180 C 
ATOM     29  C   UNL     1      16.637  -0.387  -9.977  1.00  0.00     0.179 C 
ATOM     30  C   UNL     1      17.704  -1.027  -9.009  1.00  0.00     0.177 C 
BRANCH  26  31
ATOM     31  O   UNL     1      16.622  -4.595  -9.656  1.00  0.00    -0.384 OA
ATOM     32  H   UNL     1      16.229  -5.018  -8.844  1.00  0.00     0.211 HD
ENDBRANCH  26  31
BRANCH  28  33
ATOM     33  O   UNL     1      18.866  -3.105  -9.574  1.00  0.00    -0.387 OA
ATOM     34  H   UNL     1      18.566  -3.386 -10.478  1.00  0.00     0.211 HD
ENDBRANCH  28  33
BRANCH  29  35
ATOM     35  C   UNL     1      17.145   0.766 -10.877  1.00  0.00     0.191 C 
BRANCH  35  36
ATOM     36  O   UNL     1      18.235   0.395 -11.679  1.00  0.00    -0.394 OA
ATOM     37  H   UNL     1      17.871  -0.049 -12.490  1.00  0.00     0.210 HD
ENDBRANCH  35  36
ENDBRANCH  29  35
BRANCH  30  38
ATOM     38  O   UNL     1      19.003  -0.553  -9.263  1.00  0.00    -0.387 OA
ATOM     39  H   UNL     1      19.634  -1.113  -8.740  1.00  0.00     0.211 HD
ENDBRANCH  30  38
ENDBRANCH   1  25
TORSDOF 11
ENDMDL
MODEL 5
REMARK VINA RESULT:    -5.265      3.359      6.138
REMARK INTER + INTRA:          -9.813
REMARK INTER:                  -7.652
REMARK INTRA:                  -2.160
REMARK UNBOUND:                -2.239
REMARK SMILES O=c1c(O[C@@H]2O[C@H](CO)[C@H](O)[C@H](O)[C@@H]2O)c(-c2ccc(O)cc2)oc2cc(O)cc(O)c12
REMARK SMILES IDX 4 1 3 2 16 3 24 4 2 5 25 6 1 7 32 8 26 9 30 10 27 11 29 12
REMARK SMILES IDX 17 13 18 14 19 15 20 16 23 17 22 18 21 19 31 21 28 23 5 25
REMARK SMILES IDX 14 26 6 27 12 28 7 29 10 30 15 31 13 33 8 35 9 36 11 38
REMARK H PARENT 21 20 31 22 28 24 15 32 13 34 9 37 11 39
REMARK Flexibility Score: inf
ROOT
ATOM      1  O   UNL     1      17.210  -2.196 -11.417  1.00  0.00    -0.454 OA
ENDROOT
BRANCH   1   2
ATOM      2  C   UNL     1      17.239  -2.921 -12.629  1.00  0.00     0.214 A 
ATOM      3  C   UNL     1      16.336  -2.549 -13.647  1.00  0.00     0.180 A 
ATOM      4  O   UNL     1      16.107  -3.371 -14.666  1.00  0.00    -0.452 OA
ATOM      5  C   UNL     1      18.044  -4.061 -12.846  1.00  0.00     0.239 A 
ATOM      6  C   UNL     1      16.739  -4.523 -14.830  1.00  0.00     0.146 A 
ATOM      7  O   UNL     1      18.990  -4.337 -12.068  1.00  0.00    -0.285 OA
ATOM      8  C   UNL     1      17.766  -4.910 -13.940  1.00  0.00     0.111 A 
ATOM      9  C   UNL     1      16.385  -5.349 -15.900  1.00  0.00     0.094 A 
ATOM     10  C   UNL     1      18.446  -6.132 -14.164  1.00  0.00     0.134 A 
ATOM     11  C   UNL     1      17.062  -6.552 -16.122  1.00  0.00     0.123 A 
ATOM     12  C   UNL     1      18.096  -6.936 -15.257  1.00  0.00     0.093 A 
BRANCH   3  13
ATOM     13  C   UNL     1      15.651  -1.233 -13.654  1.00  0.00     0.021 A 
ATOM     14  C   UNL     1      14.319  -1.134 -13.218  1.00  0.00     0.016 A 
ATOM     15  C   UNL     1      13.613   0.066 -13.356  1.00  0.00     0.047 A 
ATOM     16  C   UNL     1      14.223   1.179 -13.947  1.00  0.00     0.115 A 
ATOM     17  C   UNL     1      16.259  -0.107 -14.237  1.00  0.00     0.016 A 
ATOM     18  C   UNL     1      15.556   1.093 -14.367  1.00  0.00     0.047 A 
BRANCH  16  19
ATOM     19  O   UNL     1      13.508   2.360 -14.148  1.00  0.00    -0.508 OA
ATOM     20  H   UNL     1      12.742   2.406 -14.811  1.00  0.00     0.293 HD
ENDBRANCH  16  19
ENDBRANCH   3  13
BRANCH  10  21
ATOM     21  O   UNL     1      19.452  -6.563 -13.295  1.00  0.00    -0.507 OA
ATOM     22  H   UNL     1      20.122  -7.276 -13.561  1.00  0.00     0.293 HD
ENDBRANCH  10  21
BRANCH  11  23
ATOM     23  O   UNL     1      16.698  -7.362 -17.193  1.00  0.00    -0.508 OA
ATOM     24  H   UNL     1      15.792  -7.820 -17.226  1.00  0.00     0.293 HD
ENDBRANCH  11  23
ENDBRANCH   1   2
BRANCH   1  25
ATOM     25  C   UNL     1      16.245  -2.264 -10.364  1.00  0.00     0.339 C 
ATOM     26  C   UNL     1      16.769  -3.089  -9.192  1.00  0.00     0.214 C 
ATOM     27  O   UNL     1      15.817  -0.990  -9.941  1.00  0.00    -0.332 OA
ATOM     28  C   UNL     1      18.061  -2.470  -8.655  1.00  0.00     0.180 C 
ATOM     29  C   UNL     1      16.719  -0.226  -9.151  1.00  0.00     0.179 C 
ATOM     30  C   UNL     1      17.936  -0.938  -8.445  1.00  0.00     0.177 C 
BRANCH  26  31
ATOM     31  O   UNL     1      16.987  -4.415  -9.603  1.00  0.00    -0.384 OA
ATOM     32  H   UNL     1      17.295  -4.379 -10.549  1.00  0.00     0.211 HD
ENDBRANCH  26  31
BRANCH  28  33
ATOM     33  O   UNL     1      19.133  -2.787  -9.510  1.00  0.00    -0.387 OA
ATOM     34  H   UNL     1      19.942  -2.379  -9.101  1.00  0.00     0.211 HD
ENDBRANCH  28  33
BRANCH  29  35
ATOM     35  C   UNL     1      17.040   1.102  -9.878  1.00  0.00     0.191 C 
BRANCH  35  36
ATOM     36  O   UNL     1      17.653   0.909 -11.126  1.00  0.00    -0.394 OA
ATOM     37  H   UNL     1      17.011   1.210 -11.822  1.00  0.00     0.210 HD
ENDBRANCH  35  36
ENDBRANCH  29  35
BRANCH  30  38
ATOM     38  O   UNL     1      19.162  -0.325  -8.756  1.00  0.00    -0.387 OA
ATOM     39  H   UNL     1      19.233  -0.282  -9.745  1.00  0.00     0.211 HD
ENDBRANCH  30  38
ENDBRANCH   1  25
TORSDOF 11
ENDMDL
MODEL 6
REMARK VINA RESULT:    -5.195      5.048      8.953
REMARK INTER + INTRA:          -9.712
REMARK INTER:                  -7.778
REMARK INTRA:                  -1.934
REMARK UNBOUND:                -2.239
REMARK SMILES O=c1c(O[C@@H]2O[C@H](CO)[C@H](O)[C@H](O)[C@@H]2O)c(-c2ccc(O)cc2)oc2cc(O)cc(O)c12
REMARK SMILES IDX 4 1 3 2 16 3 24 4 2 5 25 6 1 7 32 8 26 9 30 10 27 11 29 12
REMARK SMILES IDX 17 13 18 14 19 15 20 16 23 17 22 18 21 19 31 21 28 23 5 25
REMARK SMILES IDX 14 26 6 27 12 28 7 29 10 30 15 31 13 33 8 35 9 36 11 38
REMARK H PARENT 21 20 31 22 28 24 15 32 13 34 9 37 11 39
REMARK Flexibility Score: inf
ROOT
ATOM      1  O   UNL     1      15.068  -1.035 -10.825  1.00  0.00    -0.454 OA
ENDROOT
BRANCH   1   2
ATOM      2  C   UNL     1      15.882  -0.522  -9.792  1.00  0.00     0.214 A 
ATOM      3  C   UNL     1      15.673   0.810  -9.381  1.00  0.00     0.180 A 
ATOM      4  O   UNL     1      16.591   1.432  -8.647  1.00  0.00    -0.452 OA
ATOM      5  C   UNL     1      16.961  -1.229  -9.216  1.00  0.00     0.239 A 
ATOM      6  C   UNL     1      17.693   0.844  -8.206  1.00  0.00     0.146 A 
ATOM      7  O   UNL     1      17.090  -2.465  -9.397  1.00  0.00    -0.285 OA
ATOM      8  C   UNL     1      17.916  -0.530  -8.444  1.00  0.00     0.111 A 
ATOM      9  C   UNL     1      18.630   1.598  -7.494  1.00  0.00     0.094 A 
ATOM     10  C   UNL     1      19.088  -1.137  -7.930  1.00  0.00     0.134 A 
ATOM     11  C   UNL     1      19.783   0.995  -6.983  1.00  0.00     0.123 A 
ATOM     12  C   UNL     1      20.005  -0.372  -7.195  1.00  0.00     0.093 A 
BRANCH   3  13
ATOM     13  C   UNL     1      14.427   1.550  -9.698  1.00  0.00     0.021 A 
ATOM     14  C   UNL     1      13.275   1.350  -8.919  1.00  0.00     0.016 A 
ATOM     15  C   UNL     1      12.056   1.925  -9.293  1.00  0.00     0.047 A 
ATOM     16  C   UNL     1      11.966   2.694 -10.459  1.00  0.00     0.115 A 
ATOM     17  C   UNL     1      14.331   2.333 -10.862  1.00  0.00     0.016 A 
ATOM     18  C   UNL     1      13.114   2.914 -11.229  1.00  0.00     0.047 A 
BRANCH  16  19
ATOM     19  O   UNL     1      10.743   3.219 -10.874  1.00  0.00    -0.508 OA
ATOM     20  H   UNL     1       9.934   2.623 -11.015  1.00  0.00     0.293 HD
ENDBRANCH  16  19
ENDBRANCH   3  13
BRANCH  10  21
ATOM     21  O   UNL     1      19.358  -2.488  -8.162  1.00  0.00    -0.507 OA
ATOM     22  H   UNL     1      20.300  -2.828  -8.318  1.00  0.00     0.293 HD
ENDBRANCH  10  21
BRANCH  11  23
ATOM     23  O   UNL     1      20.705   1.760  -6.274  1.00  0.00    -0.508 OA
ATOM     24  H   UNL     1      21.013   2.666  -6.614  1.00  0.00     0.293 HD
ENDBRANCH  11  23
ENDBRANCH   1   2
BRANCH   1  25
ATOM     25  C   UNL     1      15.311  -1.026 -12.235  1.00  0.00     0.339 C 
ATOM     26  C   UNL     1      15.604  -2.433 -12.750  1.00  0.00     0.214 C 
ATOM     27  O   UNL     1      14.263  -0.426 -12.960  1.00  0.00    -0.332 OA
ATOM     28  C   UNL     1      14.423  -3.355 -12.446  1.00  0.00     0.180 C 
ATOM     29  C   UNL     1      13.060  -1.169 -13.108  1.00  0.00     0.179 C 
ATOM     30  C   UNL     1      13.064  -2.723 -12.846  1.00  0.00     0.177 C 
BRANCH  26  31
ATOM     31  O   UNL     1      16.781  -2.920 -12.158  1.00  0.00    -0.384 OA
ATOM     32  H   UNL     1      16.996  -2.316 -11.396  1.00  0.00     0.211 HD
ENDBRANCH  26  31
BRANCH  28  33
ATOM     33  O   UNL     1      14.441  -3.723 -11.088  1.00  0.00    -0.387 OA
ATOM     34  H   UNL     1      13.849  -4.517 -11.008  1.00  0.00     0.211 HD
ENDBRANCH  28  33
BRANCH  29  35
ATOM     35  C   UNL     1      11.887  -0.379 -12.478  1.00  0.00     0.191 C 
BRANCH  35  36
ATOM     36  O   UNL     1      10.641  -0.717 -13.028  1.00  0.00    -0.394 OA
ATOM     37  H   UNL     1      10.748  -1.587 -13.497  1.00  0.00     0.210 HD
ENDBRANCH  35  36
ENDBRANCH  29  35
BRANCH  30  38
ATOM     38  O   UNL     1      12.082  -3.107 -11.915  1.00  0.00    -0.387 OA
ATOM     39  H   UNL     1      11.681  -3.957 -12.236  1.00  0.00     0.211 HD
ENDBRANCH  30  38
ENDBRANCH   1  25
TORSDOF 11
ENDMDL
MODEL 7
REMARK VINA RESULT:    -5.161      4.711      8.333
REMARK INTER + INTRA:          -9.663
REMARK INTER:                  -7.674
REMARK INTRA:                  -1.989
REMARK UNBOUND:                -2.239
REMARK SMILES O=c1c(O[C@@H]2O[C@H](CO)[C@H](O)[C@H](O)[C@@H]2O)c(-c2ccc(O)cc2)oc2cc(O)cc(O)c12
REMARK SMILES IDX 4 1 3 2 16 3 24 4 2 5 25 6 1 7 32 8 26 9 30 10 27 11 29 12
REMARK SMILES IDX 17 13 18 14 19 15 20 16 23 17 22 18 21 19 31 21 28 23 5 25
REMARK SMILES IDX 14 26 6 27 12 28 7 29 10 30 15 31 13 33 8 35 9 36 11 38
REMARK H PARENT 21 20 31 22 28 24 15 32 13 34 9 37 11 39
REMARK Flexibility Score: inf
ROOT
ATOM      1  O   UNL     1      16.239  -1.873 -10.725  1.00  0.00    -0.454 OA
ENDROOT
BRANCH   1   2
ATOM      2  C   UNL     1      16.070  -0.555 -10.248  1.00  0.00     0.214 A 
ATOM      3  C   UNL     1      16.754  -0.181  -9.073  1.00  0.00     0.180 A 
ATOM      4  O   UNL     1      16.400   0.920  -8.418  1.00  0.00    -0.452 OA
ATOM      5  C   UNL     1      15.176   0.380 -10.817  1.00  0.00     0.239 A 
ATOM      6  C   UNL     1      15.461   1.752  -8.845  1.00  0.00     0.146 A 
ATOM      7  O   UNL     1      14.679   0.184 -11.953  1.00  0.00    -0.285 OA
ATOM      8  C   UNL     1      14.823   1.537 -10.086  1.00  0.00     0.111 A 
ATOM      9  C   UNL     1      15.114   2.852  -8.055  1.00  0.00     0.094 A 
ATOM     10  C   UNL     1      13.848   2.463 -10.529  1.00  0.00     0.134 A 
ATOM     11  C   UNL     1      14.155   3.768  -8.497  1.00  0.00     0.123 A 
ATOM     12  C   UNL     1      13.531   3.575  -9.737  1.00  0.00     0.093 A 
BRANCH   3  13
ATOM     13  C   UNL     1      17.908  -0.953  -8.549  1.00  0.00     0.021 A 
ATOM     14  C   UNL     1      17.688  -2.055  -7.706  1.00  0.00     0.016 A 
ATOM     15  C   UNL     1      18.763  -2.702  -7.087  1.00  0.00     0.047 A 
ATOM     16  C   UNL     1      20.072  -2.246  -7.289  1.00  0.00     0.115 A 
ATOM     17  C   UNL     1      19.226  -0.509  -8.756  1.00  0.00     0.016 A 
ATOM     18  C   UNL     1      20.299  -1.162  -8.144  1.00  0.00     0.047 A 
BRANCH  16  19
ATOM     19  O   UNL     1      21.144  -2.843  -6.628  1.00  0.00    -0.508 OA
ATOM     20  H   UNL     1      22.097  -2.726  -6.955  1.00  0.00     0.293 HD
ENDBRANCH  16  19
ENDBRANCH   3  13
BRANCH  10  21
ATOM     21  O   UNL     1      13.178   2.275 -11.741  1.00  0.00    -0.507 OA
ATOM     22  H   UNL     1      12.983   3.045 -12.371  1.00  0.00     0.293 HD
ENDBRANCH  10  21
BRANCH  11  23
ATOM     23  O   UNL     1      13.823   4.859  -7.700  1.00  0.00    -0.508 OA
ATOM     24  H   UNL     1      14.259   5.766  -7.836  1.00  0.00     0.293 HD
ENDBRANCH  11  23
ENDBRANCH   1   2
BRANCH   1  25
ATOM     25  C   UNL     1      16.895  -2.308 -11.920  1.00  0.00     0.339 C 
ATOM     26  C   UNL     1      17.695  -3.584 -11.673  1.00  0.00     0.214 C 
ATOM     27  O   UNL     1      16.003  -2.465 -13.000  1.00  0.00    -0.332 OA
ATOM     28  C   UNL     1      16.766  -4.692 -11.174  1.00  0.00     0.180 C 
ATOM     29  C   UNL     1      15.147  -3.599 -12.981  1.00  0.00     0.179 C 
ATOM     30  C   UNL     1      15.482  -4.815 -12.035  1.00  0.00     0.177 C 
BRANCH  26  31
ATOM     31  O   UNL     1      18.715  -3.333 -10.741  1.00  0.00    -0.384 OA
ATOM     32  H   UNL     1      19.389  -2.757 -11.194  1.00  0.00     0.211 HD
ENDBRANCH  26  31
BRANCH  28  33
ATOM     33  O   UNL     1      16.459  -4.483  -9.816  1.00  0.00    -0.387 OA
ATOM     34  H   UNL     1      17.211  -4.875  -9.299  1.00  0.00     0.211 HD
ENDBRANCH  28  33
BRANCH  29  35
ATOM     35  C   UNL     1      13.673  -3.130 -12.986  1.00  0.00     0.191 C 
BRANCH  35  36
ATOM     36  O   UNL     1      13.336  -2.369 -11.856  1.00  0.00    -0.394 OA
ATOM     37  H   UNL     1      13.405  -1.411 -12.110  1.00  0.00     0.210 HD
ENDBRANCH  35  36
ENDBRANCH  29  35
BRANCH  30  38
ATOM     38  O   UNL     1      14.398  -5.155 -11.205  1.00  0.00    -0.387 OA
ATOM     39  H   UNL     1      14.025  -6.014 -11.537  1.00  0.00     0.211 HD
ENDBRANCH  30  38
ENDBRANCH   1  25
TORSDOF 11
ENDMDL
MODEL 8
REMARK VINA RESULT:    -5.138     14.349     17.118
REMARK INTER + INTRA:          -9.629
REMARK INTER:                  -7.697
REMARK INTRA:                  -1.932
REMARK UNBOUND:                -2.239
REMARK SMILES O=c1c(O[C@@H]2O[C@H](CO)[C@H](O)[C@H](O)[C@@H]2O)c(-c2ccc(O)cc2)oc2cc(O)cc(O)c12
REMARK SMILES IDX 4 1 3 2 16 3 24 4 2 5 25 6 1 7 32 8 26 9 30 10 27 11 29 12
REMARK SMILES IDX 17 13 18 14 19 15 20 16 23 17 22 18 21 19 31 21 28 23 5 25
REMARK SMILES IDX 14 26 6 27 12 28 7 29 10 30 15 31 13 33 8 35 9 36 11 38
REMARK H PARENT 21 20 31 22 28 24 15 32 13 34 9 37 11 39
REMARK Flexibility Score: inf
ROOT
ATOM      1  O   UNL     1       5.280   4.693 -13.649  1.00  0.00    -0.454 OA
ENDROOT
BRANCH   1   2
ATOM      2  C   UNL     1       4.840   5.630 -12.688  1.00  0.00     0.214 A 
ATOM      3  C   UNL     1       4.896   6.999 -13.019  1.00  0.00     0.180 A 
ATOM      4  O   UNL     1       4.792   7.920 -12.066  1.00  0.00    -0.452 OA
ATOM      5  C   UNL     1       4.445   5.285 -11.376  1.00  0.00     0.239 A 
ATOM      6  C   UNL     1       4.565   7.630 -10.794  1.00  0.00     0.146 A 
ATOM      7  O   UNL     1       4.197   4.092 -11.072  1.00  0.00    -0.285 OA
ATOM      8  C   UNL     1       4.348   6.294 -10.391  1.00  0.00     0.111 A 
ATOM      9  C   UNL     1       4.534   8.664  -9.854  1.00  0.00     0.094 A 
ATOM     10  C   UNL     1       4.074   6.021  -9.029  1.00  0.00     0.134 A 
ATOM     11  C   UNL     1       4.257   8.392  -8.511  1.00  0.00     0.123 A 
ATOM     12  C   UNL     1       4.020   7.073  -8.104  1.00  0.00     0.093 A 
BRANCH   3  13
ATOM     13  C   UNL     1       5.024   7.469 -14.421  1.00  0.00     0.021 A 
ATOM     14  C   UNL     1       6.282   7.839 -14.925  1.00  0.00     0.016 A 
ATOM     15  C   UNL     1       6.397   8.421 -16.191  1.00  0.00     0.047 A 
ATOM     16  C   UNL     1       5.255   8.657 -16.966  1.00  0.00     0.115 A 
ATOM     17  C   UNL     1       3.883   7.699 -15.210  1.00  0.00     0.016 A 
ATOM     18  C   UNL     1       4.000   8.272 -16.479  1.00  0.00     0.047 A 
BRANCH  16  19
ATOM     19  O   UNL     1       5.351   9.294 -18.203  1.00  0.00    -0.508 OA
ATOM     20  H   UNL     1       4.694   9.097 -18.950  1.00  0.00     0.293 HD
ENDBRANCH  16  19
ENDBRANCH   3  13
BRANCH  10  21
ATOM     21  O   UNL     1       3.875   4.711  -8.585  1.00  0.00    -0.507 OA
ATOM     22  H   UNL     1       3.433   4.507  -7.695  1.00  0.00     0.293 HD
ENDBRANCH  10  21
BRANCH  11  23
ATOM     23  O   UNL     1       4.227   9.434  -7.588  1.00  0.00    -0.508 OA
ATOM     24  H   UNL     1       5.000  10.087  -7.503  1.00  0.00     0.293 HD
ENDBRANCH  11  23
ENDBRANCH   1   2
BRANCH   1  25
ATOM     25  C   UNL     1       6.580   4.115 -13.796  1.00  0.00     0.339 C 
ATOM     26  C   UNL     1       6.552   2.620 -13.489  1.00  0.00     0.214 C 
ATOM     27  O   UNL     1       7.143   4.366 -15.062  1.00  0.00    -0.332 OA
ATOM     28  C   UNL     1       5.575   1.914 -14.431  1.00  0.00     0.180 C 
ATOM     29  C   UNL     1       6.624   3.636 -16.166  1.00  0.00     0.179 C 
ATOM     30  C   UNL     1       5.777   2.331 -15.911  1.00  0.00     0.177 C 
BRANCH  26  31
ATOM     31  O   UNL     1       6.187   2.415 -12.149  1.00  0.00    -0.384 OA
ATOM     32  H   UNL     1       6.096   3.314 -11.731  1.00  0.00     0.211 HD
ENDBRANCH  26  31
BRANCH  28  33
ATOM     33  O   UNL     1       4.252   2.143 -14.006  1.00  0.00    -0.387 OA
ATOM     34  H   UNL     1       4.255   3.031 -13.561  1.00  0.00     0.211 HD
ENDBRANCH  28  33
BRANCH  29  35
ATOM     35  C   UNL     1       6.049   4.623 -17.210  1.00  0.00     0.191 C 
BRANCH  35  36
ATOM     36  O   UNL     1       5.830   4.030 -18.463  1.00  0.00    -0.394 OA
ATOM     37  H   UNL     1       6.390   4.516 -19.125  1.00  0.00     0.210 HD
ENDBRANCH  35  36
ENDBRANCH  29  35
BRANCH  30  38
ATOM     38  O   UNL     1       4.528   2.374 -16.556  1.00  0.00    -0.387 OA
ATOM     39  H   UNL     1       3.978   1.630 -16.194  1.00  0.00     0.211 HD
ENDBRANCH  30  38
ENDBRANCH   1  25
TORSDOF 11
ENDMDL
MODEL 9
REMARK VINA RESULT:    -5.110      3.616      6.139
REMARK INTER + INTRA:          -9.589
REMARK INTER:                  -7.683
REMARK INTRA:                  -1.906
REMARK UNBOUND:                -2.239
REMARK SMILES O=c1c(O[C@@H]2O[C@H](CO)[C@H](O)[C@H](O)[C@@H]2O)c(-c2ccc(O)cc2)oc2cc(O)cc(O)c12
REMARK SMILES IDX 4 1 3 2 16 3 24 4 2 5 25 6 1 7 32 8 26 9 30 10 27 11 29 12
REMARK SMILES IDX 17 13 18 14 19 15 20 16 23 17 22 18 21 19 31 21 28 23 5 25
REMARK SMILES IDX 14 26 6 27 12 28 7 29 10 30 15 31 13 33 8 35 9 36 11 38
REMARK H PARENT 21 20 31 22 28 24 15 32 13 34 9 37 11 39
REMARK Flexibility Score: inf
ROOT
ATOM      1  O   UNL     1      17.114  -1.629 -11.484  1.00  0.00    -0.454 OA
ENDROOT
BRANCH   1   2
ATOM      2  C   UNL     1      17.138  -2.638 -12.472  1.00  0.00     0.214 A 
ATOM      3  C   UNL     1      16.082  -2.680 -13.405  1.00  0.00     0.180 A 
ATOM      4  O   UNL     1      15.892  -3.767 -14.146  1.00  0.00    -0.452 OA
ATOM      5  C   UNL     1      18.101  -3.671 -12.518  1.00  0.00     0.239 A 
ATOM      6  C   UNL     1      16.693  -4.821 -14.114  1.00  0.00     0.146 A 
ATOM      7  O   UNL     1      19.158  -3.595 -11.844  1.00  0.00    -0.285 OA
ATOM      8  C   UNL     1      17.860  -4.810 -13.317  1.00  0.00     0.111 A 
ATOM      9  C   UNL     1      16.376  -5.943 -14.885  1.00  0.00     0.094 A 
ATOM     10  C   UNL     1      18.713  -5.940 -13.331  1.00  0.00     0.134 A 
ATOM     11  C   UNL     1      17.223  -7.054 -14.901  1.00  0.00     0.123 A 
ATOM     12  C   UNL     1      18.394  -7.047 -14.131  1.00  0.00     0.093 A 
BRANCH   3  13
ATOM     13  C   UNL     1      15.182  -1.522 -13.634  1.00  0.00     0.021 A 
ATOM     14  C   UNL     1      13.905  -1.501 -13.049  1.00  0.00     0.016 A 
ATOM     15  C   UNL     1      12.992  -0.492 -13.373  1.00  0.00     0.047 A 
ATOM     16  C   UNL     1      13.336   0.501 -14.298  1.00  0.00     0.115 A 
ATOM     17  C   UNL     1      15.524  -0.515 -14.554  1.00  0.00     0.016 A 
ATOM     18  C   UNL     1      14.614   0.497 -14.869  1.00  0.00     0.047 A 
BRANCH  16  19
ATOM     19  O   UNL     1      12.412   1.475 -14.676  1.00  0.00    -0.508 OA
ATOM     20  H   UNL     1      11.546   1.227 -15.142  1.00  0.00     0.293 HD
ENDBRANCH  16  19
ENDBRANCH   3  13
BRANCH  10  21
ATOM     21  O   UNL     1      19.865  -5.979 -12.541  1.00  0.00    -0.507 OA
ATOM     22  H   UNL     1      20.430  -5.153 -12.375  1.00  0.00     0.293 HD
ENDBRANCH  10  21
BRANCH  11  23
ATOM     23  O   UNL     1      16.894  -8.163 -15.676  1.00  0.00    -0.508 OA
ATOM     24  H   UNL     1      16.149  -8.124 -16.365  1.00  0.00     0.293 HD
ENDBRANCH  11  23
ENDBRANCH   1   2
BRANCH   1  25
ATOM     25  C   UNL     1      17.850  -0.403 -11.448  1.00  0.00     0.339 C 
ATOM     26  C   UNL     1      17.024   0.713 -10.814  1.00  0.00     0.214 C 
ATOM     27  O   UNL     1      19.098  -0.540 -10.810  1.00  0.00    -0.332 OA
ATOM     28  C   UNL     1      16.625   0.321  -9.390  1.00  0.00     0.180 C 
ATOM     29  C   UNL     1      19.100  -0.656  -9.394  1.00  0.00     0.179 C 
ATOM     30  C   UNL     1      17.824  -0.227  -8.573  1.00  0.00     0.177 C 
BRANCH  26  31
ATOM     31  O   UNL     1      15.886   0.968 -11.597  1.00  0.00    -0.384 OA
ATOM     32  H   UNL     1      15.813   1.956 -11.691  1.00  0.00     0.211 HD
ENDBRANCH  26  31
BRANCH  28  33
ATOM     33  O   UNL     1      15.563  -0.601  -9.429  1.00  0.00    -0.387 OA
ATOM     34  H   UNL     1      14.807  -0.173  -8.947  1.00  0.00     0.211 HD
ENDBRANCH  28  33
BRANCH  29  35
ATOM     35  C   UNL     1      19.743  -2.004  -8.989  1.00  0.00     0.191 C 
BRANCH  35  36
ATOM     36  O   UNL     1      18.869  -3.093  -9.133  1.00  0.00    -0.394 OA
ATOM     37  H   UNL     1      19.352  -3.905  -8.823  1.00  0.00     0.210 HD
ENDBRANCH  35  36
ENDBRANCH  29  35
BRANCH  30  38
ATOM     38  O   UNL     1      17.374  -1.249  -7.718  1.00  0.00    -0.387 OA
ATOM     39  H   UNL     1      16.386  -1.296  -7.801  1.00  0.00     0.211 HD
ENDBRANCH  30  38
ENDBRANCH   1  25
TORSDOF 11
ENDMDL
