MODEL 1
REMARK VINA RESULT:    -2.888      0.000      0.000
REMARK INTER + INTRA:         -10.370
REMARK INTER:                  -7.616
REMARK INTRA:                  -2.755
REMARK UNBOUND:                -2.755
REMARK SMILES CCCCCCCCCCCCCCCCCCCCCCCCCCCCCC(=O)[O-]
REMARK SMILES IDX 16 1 17 2 18 3 19 4 20 5 21 6 22 7 23 8 24 9 25 10 26 11
REMARK SMILES IDX 27 12 28 13 29 14 30 15 31 16 32 17 15 18 14 19 13 20 12 21
REMARK SMILES IDX 11 22 10 23 9 24 8 25 7 26 6 27 5 28 4 29 3 30 2 31 1 32
REMARK H PARENT
REMARK Flexibility Score: inf
ROOT
ATOM      1  C   UNL     1     -13.688   7.333   5.288  1.00  0.00     0.000 C 
ENDROOT
BRANCH   1   2
ATOM      2  C   UNL     1     -14.059   5.897   5.696  1.00  0.00     0.000 C 
BRANCH   2   3
ATOM      3  C   UNL     1     -12.858   4.930   5.613  1.00  0.00     0.000 C 
BRANCH   3   4
ATOM      4  C   UNL     1     -12.602   4.128   6.904  1.00  0.00     0.000 C 
BRANCH   4   5
ATOM      5  C   UNL     1     -11.155   3.641   7.104  1.00  0.00     0.000 C 
BRANCH   5   6
ATOM      6  C   UNL     1     -10.158   4.727   7.549  1.00  0.00     0.000 C 
BRANCH   6   7
ATOM      7  C   UNL     1     -10.805   6.111   7.707  1.00  0.00     0.000 C 
BRANCH   7   8
ATOM      8  C   UNL     1      -9.961   7.187   7.013  1.00  0.00     0.000 C 
BRANCH   8   9
ATOM      9  C   UNL     1      -8.826   6.557   6.191  1.00  0.00     0.000 C 
BRANCH   9  10
ATOM     10  C   UNL     1      -8.192   7.543   5.192  1.00  0.00     0.000 C 
BRANCH  10  11
ATOM     11  C   UNL     1      -8.531   9.026   5.438  1.00  0.00     0.000 C 
BRANCH  11  12
ATOM     12  C   UNL     1      -7.503   9.986   4.821  1.00  0.00     0.000 C 
BRANCH  12  13
ATOM     13  C   UNL     1      -7.557  11.358   5.507  1.00  0.00     0.006 C 
BRANCH  13  14
ATOM     14  C   UNL     1      -7.234  11.273   7.005  1.00  0.00     0.053 C 
BRANCH  14  15
ATOM     15  C   UNL     1      -5.780  11.513   7.274  1.00  0.00     0.041 C 
ATOM     16  O   UNL     1      -5.406  11.943   8.397  1.00  0.00    -0.550 OA
ATOM     17  O   UNL     1      -4.840  11.292   6.273  1.00  0.00    -0.550 OA
ENDBRANCH  14  15
ENDBRANCH  13  14
ENDBRANCH  12  13
ENDBRANCH  11  12
ENDBRANCH  10  11
ENDBRANCH   9  10
ENDBRANCH   8   9
ENDBRANCH   7   8
ENDBRANCH   6   7
ENDBRANCH   5   6
ENDBRANCH   4   5
ENDBRANCH   3   4
ENDBRANCH   2   3
ENDBRANCH   1   2
BRANCH   1  18
ATOM     18  C   UNL     1     -14.324   7.752   3.952  1.00  0.00     0.000 C 
BRANCH  18  19
ATOM     19  C   UNL     1     -13.982   9.199   3.564  1.00  0.00     0.000 C 
BRANCH  19  20
ATOM     20  C   UNL     1     -14.904  10.192   4.285  1.00  0.00     0.000 C 
BRANCH  20  21
ATOM     21  C   UNL     1     -15.094   9.865   5.779  1.00  0.00     0.000 C 
BRANCH  21  22
ATOM     22  C   UNL     1     -15.042  11.080   6.726  1.00  0.00     0.000 C 
BRANCH  22  23
ATOM     23  C   UNL     1     -14.846  10.740   8.217  1.00  0.00     0.000 C 
BRANCH  23  24
ATOM     24  C   UNL     1     -13.377  10.632   8.672  1.00  0.00    -0.000 C 
BRANCH  24  25
ATOM     25  C   UNL     1     -12.387  11.494   7.869  1.00  0.00    -0.000 C 
BRANCH  25  26
ATOM     26  C   UNL     1     -11.634  10.693   6.797  1.00  0.00    -0.000 C 
BRANCH  26  27
ATOM     27  C   UNL     1     -10.821  11.618   5.884  1.00  0.00    -0.000 C 
BRANCH  27  28
ATOM     28  C   UNL     1     -11.673  12.124   4.710  1.00  0.00    -0.000 C 
BRANCH  28  29
ATOM     29  C   UNL     1     -11.532  11.235   3.456  1.00  0.00    -0.000 C 
BRANCH  29  30
ATOM     30  C   UNL     1     -11.938  11.939   2.148  1.00  0.00    -0.000 C 
BRANCH  30  31
ATOM     31  C   UNL     1     -12.103  11.005   0.938  1.00  0.00    -0.003 C 
ATOM     32  C   UNL     1     -11.254  11.429  -0.260  1.00  0.00     0.004 C 
ENDBRANCH  30  31
ENDBRANCH  29  30
ENDBRANCH  28  29
ENDBRANCH  27  28
ENDBRANCH  26  27
ENDBRANCH  25  26
ENDBRANCH  24  25
ENDBRANCH  23  24
ENDBRANCH  22  23
ENDBRANCH  21  22
ENDBRANCH  20  21
ENDBRANCH  19  20
ENDBRANCH  18  19
ENDBRANCH   1  18
TORSDOF 28
ENDMDL
MODEL 2
REMARK VINA RESULT:    -2.682      1.332      4.479
REMARK INTER + INTRA:          -9.828
REMARK INTER:                  -6.732
REMARK INTRA:                  -3.096
REMARK UNBOUND:                -2.755
REMARK SMILES CCCCCCCCCCCCCCCCCCCCCCCCCCCCCC(=O)[O-]
REMARK SMILES IDX 16 1 17 2 18 3 19 4 20 5 21 6 22 7 23 8 24 9 25 10 26 11
REMARK SMILES IDX 27 12 28 13 29 14 30 15 31 16 32 17 15 18 14 19 13 20 12 21
REMARK SMILES IDX 11 22 10 23 9 24 8 25 7 26 6 27 5 28 4 29 3 30 2 31 1 32
REMARK H PARENT
REMARK Flexibility Score: inf
ROOT
ATOM      1  C   UNL     1      -9.760   5.032   7.265  1.00  0.00     0.000 C 
ENDROOT
BRANCH   1   2
ATOM      2  C   UNL     1      -9.747   5.116   5.728  1.00  0.00     0.000 C 
BRANCH   2   3
ATOM      3  C   UNL     1      -9.034   6.385   5.212  1.00  0.00     0.000 C 
BRANCH   3   4
ATOM      4  C   UNL     1      -9.110   7.588   6.174  1.00  0.00     0.000 C 
BRANCH   4   5
ATOM      5  C   UNL     1     -10.232   8.600   5.879  1.00  0.00     0.000 C 
BRANCH   5   6
ATOM      6  C   UNL     1     -11.660   8.083   6.137  1.00  0.00     0.000 C 
BRANCH   6   7
ATOM      7  C   UNL     1     -12.684   9.211   6.329  1.00  0.00     0.000 C 
BRANCH   7   8
ATOM      8  C   UNL     1     -12.500   9.884   7.694  1.00  0.00     0.000 C 
BRANCH   8   9
ATOM      9  C   UNL     1     -12.851  11.378   7.628  1.00  0.00     0.000 C 
BRANCH   9  10
ATOM     10  C   UNL     1     -12.117  12.116   6.493  1.00  0.00     0.000 C 
BRANCH  10  11
ATOM     11  C   UNL     1     -10.581  12.125   6.611  1.00  0.00     0.000 C 
BRANCH  11  12
ATOM     12  C   UNL     1      -9.881  11.572   5.360  1.00  0.00     0.000 C 
BRANCH  12  13
ATOM     13  C   UNL     1      -8.380  11.896   5.386  1.00  0.00     0.006 C 
BRANCH  13  14
ATOM     14  C   UNL     1      -7.733  11.545   6.732  1.00  0.00     0.053 C 
BRANCH  14  15
ATOM     15  C   UNL     1      -6.252  11.364   6.606  1.00  0.00     0.041 C 
ATOM     16  O   UNL     1      -5.647  11.777   5.581  1.00  0.00    -0.550 OA
ATOM     17  O   UNL     1      -5.542  10.711   7.608  1.00  0.00    -0.550 OA
ENDBRANCH  14  15
ENDBRANCH  13  14
ENDBRANCH  12  13
ENDBRANCH  11  12
ENDBRANCH  10  11
ENDBRANCH   9  10
ENDBRANCH   8   9
ENDBRANCH   7   8
ENDBRANCH   6   7
ENDBRANCH   5   6
ENDBRANCH   4   5
ENDBRANCH   3   4
ENDBRANCH   2   3
ENDBRANCH   1   2
BRANCH   1  18
ATOM     18  C   UNL     1     -11.170   4.810   7.835  1.00  0.00     0.000 C 
BRANCH  18  19
ATOM     19  C   UNL     1     -12.158   4.292   6.778  1.00  0.00     0.000 C 
BRANCH  19  20
ATOM     20  C   UNL     1     -13.486   5.060   6.849  1.00  0.00     0.000 C 
BRANCH  20  21
ATOM     21  C   UNL     1     -13.961   5.572   5.477  1.00  0.00     0.000 C 
BRANCH  21  22
ATOM     22  C   UNL     1     -12.836   5.990   4.509  1.00  0.00     0.000 C 
BRANCH  22  23
ATOM     23  C   UNL     1     -13.088   5.649   3.026  1.00  0.00     0.000 C 
BRANCH  23  24
ATOM     24  C   UNL     1     -14.092   6.571   2.308  1.00  0.00    -0.000 C 
BRANCH  24  25
ATOM     25  C   UNL     1     -14.620   7.739   3.160  1.00  0.00    -0.000 C 
BRANCH  25  26
ATOM     26  C   UNL     1     -14.117   9.107   2.675  1.00  0.00    -0.000 C 
BRANCH  26  27
ATOM     27  C   UNL     1     -13.920  10.072   3.849  1.00  0.00    -0.000 C 
BRANCH  27  28
ATOM     28  C   UNL     1     -13.905  11.531   3.368  1.00  0.00    -0.000 C 
BRANCH  28  29
ATOM     29  C   UNL     1     -12.522  11.957   2.829  1.00  0.00    -0.000 C 
BRANCH  29  30
ATOM     30  C   UNL     1     -12.458  12.056   1.293  1.00  0.00    -0.000 C 
BRANCH  30  31
ATOM     31  C   UNL     1     -11.659  10.934   0.609  1.00  0.00    -0.003 C 
ATOM     32  C   UNL     1     -11.066  11.362  -0.733  1.00  0.00     0.004 C 
ENDBRANCH  30  31
ENDBRANCH  29  30
ENDBRANCH  28  29
ENDBRANCH  27  28
ENDBRANCH  26  27
ENDBRANCH  25  26
ENDBRANCH  24  25
ENDBRANCH  23  24
ENDBRANCH  22  23
ENDBRANCH  21  22
ENDBRANCH  20  21
ENDBRANCH  19  20
ENDBRANCH  18  19
ENDBRANCH   1  18
TORSDOF 28
ENDMDL
MODEL 3
REMARK VINA RESULT:    -2.659      2.908      6.677
REMARK INTER + INTRA:          -9.767
REMARK INTER:                  -8.836
REMARK INTRA:                  -0.931
REMARK UNBOUND:                -2.755
REMARK SMILES CCCCCCCCCCCCCCCCCCCCCCCCCCCCCC(=O)[O-]
REMARK SMILES IDX 16 1 17 2 18 3 19 4 20 5 21 6 22 7 23 8 24 9 25 10 26 11
REMARK SMILES IDX 27 12 28 13 29 14 30 15 31 16 32 17 15 18 14 19 13 20 12 21
REMARK SMILES IDX 11 22 10 23 9 24 8 25 7 26 6 27 5 28 4 29 3 30 2 31 1 32
REMARK H PARENT
REMARK Flexibility Score: inf
ROOT
ATOM      1  C   UNL     1     -11.093   3.561   6.515  1.00  0.00     0.000 C 
ENDROOT
BRANCH   1   2
ATOM      2  C   UNL     1     -10.824   4.536   5.354  1.00  0.00     0.000 C 
BRANCH   2   3
ATOM      3  C   UNL     1     -12.049   4.707   4.431  1.00  0.00     0.000 C 
BRANCH   3   4
ATOM      4  C   UNL     1     -13.173   5.577   5.029  1.00  0.00     0.000 C 
BRANCH   4   5
ATOM      5  C   UNL     1     -14.344   5.888   4.078  1.00  0.00     0.000 C 
BRANCH   5   6
ATOM      6  C   UNL     1     -15.102   7.193   4.385  1.00  0.00     0.000 C 
BRANCH   6   7
ATOM      7  C   UNL     1     -14.177   8.410   4.524  1.00  0.00     0.000 C 
BRANCH   7   8
ATOM      8  C   UNL     1     -14.586   9.269   5.727  1.00  0.00     0.000 C 
BRANCH   8   9
ATOM      9  C   UNL     1     -14.208  10.742   5.512  1.00  0.00     0.000 C 
BRANCH   9  10
ATOM     10  C   UNL     1     -13.112  11.226   6.480  1.00  0.00     0.000 C 
BRANCH  10  11
ATOM     11  C   UNL     1     -11.670  10.905   6.042  1.00  0.00     0.000 C 
BRANCH  11  12
ATOM     12  C   UNL     1     -11.492  10.913   4.516  1.00  0.00     0.000 C 
BRANCH  12  13
ATOM     13  C   UNL     1     -12.197  12.125   3.891  1.00  0.00     0.006 C 
BRANCH  13  14
ATOM     14  C   UNL     1     -12.258  12.036   2.360  1.00  0.00     0.053 C 
BRANCH  14  15
ATOM     15  C   UNL     1     -13.536  11.413   1.891  1.00  0.00     0.041 C 
ATOM     16  O   UNL     1     -14.623  12.044   1.988  1.00  0.00    -0.550 OA
ATOM     17  O   UNL     1     -13.534  10.123   1.373  1.00  0.00    -0.550 OA
ENDBRANCH  14  15
ENDBRANCH  13  14
ENDBRANCH  12  13
ENDBRANCH  11  12
ENDBRANCH  10  11
ENDBRANCH   9  10
ENDBRANCH   8   9
ENDBRANCH   7   8
ENDBRANCH   6   7
ENDBRANCH   5   6
ENDBRANCH   4   5
ENDBRANCH   3   4
ENDBRANCH   2   3
ENDBRANCH   1   2
BRANCH   1  18
ATOM     18  C   UNL     1     -11.740   4.249   7.728  1.00  0.00     0.000 C 
BRANCH  18  19
ATOM     19  C   UNL     1     -10.744   4.481   8.875  1.00  0.00     0.000 C 
BRANCH  19  20
ATOM     20  C   UNL     1     -10.099   5.869   8.766  1.00  0.00     0.000 C 
BRANCH  20  21
ATOM     21  C   UNL     1     -10.160   6.454   7.342  1.00  0.00     0.000 C 
BRANCH  21  22
ATOM     22  C   UNL     1      -8.828   6.428   6.566  1.00  0.00     0.000 C 
BRANCH  22  23
ATOM     23  C   UNL     1      -8.030   7.747   6.589  1.00  0.00     0.000 C 
BRANCH  23  24
ATOM     24  C   UNL     1      -8.698   8.924   5.851  1.00  0.00    -0.000 C 
BRANCH  24  25
ATOM     25  C   UNL     1      -7.735   9.800   5.029  1.00  0.00    -0.000 C 
BRANCH  25  26
ATOM     26  C   UNL     1      -7.927  11.301   5.288  1.00  0.00    -0.000 C 
BRANCH  26  27
ATOM     27  C   UNL     1      -8.030  11.594   6.790  1.00  0.00    -0.000 C 
BRANCH  27  28
ATOM     28  C   UNL     1      -6.853  10.972   7.556  1.00  0.00    -0.000 C 
BRANCH  28  29
ATOM     29  C   UNL     1      -5.942  12.038   8.200  1.00  0.00    -0.000 C 
BRANCH  29  30
ATOM     30  C   UNL     1      -4.542  12.125   7.563  1.00  0.00    -0.000 C 
BRANCH  30  31
ATOM     31  C   UNL     1      -4.499  11.804   6.059  1.00  0.00    -0.003 C 
ATOM     32  C   UNL     1      -3.083  11.539   5.549  1.00  0.00     0.004 C 
ENDBRANCH  30  31
ENDBRANCH  29  30
ENDBRANCH  28  29
ENDBRANCH  27  28
ENDBRANCH  26  27
ENDBRANCH  25  26
ENDBRANCH  24  25
ENDBRANCH  23  24
ENDBRANCH  22  23
ENDBRANCH  21  22
ENDBRANCH  20  21
ENDBRANCH  19  20
ENDBRANCH  18  19
ENDBRANCH   1  18
TORSDOF 28
ENDMDL
MODEL 4
REMARK VINA RESULT:    -2.550      1.486      3.902
REMARK INTER + INTRA:          -9.477
REMARK INTER:                  -5.877
REMARK INTRA:                  -3.601
REMARK UNBOUND:                -2.755
REMARK SMILES CCCCCCCCCCCCCCCCCCCCCCCCCCCCCC(=O)[O-]
REMARK SMILES IDX 16 1 17 2 18 3 19 4 20 5 21 6 22 7 23 8 24 9 25 10 26 11
REMARK SMILES IDX 27 12 28 13 29 14 30 15 31 16 32 17 15 18 14 19 13 20 12 21
REMARK SMILES IDX 11 22 10 23 9 24 8 25 7 26 6 27 5 28 4 29 3 30 2 31 1 32
REMARK H PARENT
REMARK Flexibility Score: inf
ROOT
ATOM      1  C   UNL     1     -12.541   7.601   5.896  1.00  0.00     0.000 C 
ENDROOT
BRANCH   1   2
ATOM      2  C   UNL     1     -11.773   7.303   7.196  1.00  0.00     0.000 C 
BRANCH   2   3
ATOM      3  C   UNL     1     -11.766   5.800   7.547  1.00  0.00     0.000 C 
BRANCH   3   4
ATOM      4  C   UNL     1     -12.070   4.872   6.353  1.00  0.00     0.000 C 
BRANCH   4   5
ATOM      5  C   UNL     1     -11.017   4.873   5.230  1.00  0.00     0.000 C 
BRANCH   5   6
ATOM      6  C   UNL     1      -9.556   4.980   5.706  1.00  0.00     0.000 C 
BRANCH   6   7
ATOM      7  C   UNL     1      -8.918   6.340   5.391  1.00  0.00     0.000 C 
BRANCH   7   8
ATOM      8  C   UNL     1      -8.399   7.006   6.672  1.00  0.00     0.000 C 
BRANCH   8   9
ATOM      9  C   UNL     1      -8.079   8.489   6.436  1.00  0.00     0.000 C 
BRANCH   9  10
ATOM     10  C   UNL     1      -8.889   9.100   5.277  1.00  0.00     0.000 C 
BRANCH  10  11
ATOM     11  C   UNL     1      -9.174  10.608   5.407  1.00  0.00     0.000 C 
BRANCH  11  12
ATOM     12  C   UNL     1      -7.936  11.418   5.822  1.00  0.00     0.000 C 
BRANCH  12  13
ATOM     13  C   UNL     1      -6.673  10.874   5.137  1.00  0.00     0.006 C 
BRANCH  13  14
ATOM     14  C   UNL     1      -5.467  11.804   5.319  1.00  0.00     0.053 C 
BRANCH  14  15
ATOM     15  C   UNL     1      -4.597  11.370   6.457  1.00  0.00     0.041 C 
ATOM     16  O   UNL     1      -4.810  11.805   7.620  1.00  0.00    -0.550 OA
ATOM     17  O   UNL     1      -3.530  10.507   6.230  1.00  0.00    -0.550 OA
ENDBRANCH  14  15
ENDBRANCH  13  14
ENDBRANCH  12  13
ENDBRANCH  11  12
ENDBRANCH  10  11
ENDBRANCH   9  10
ENDBRANCH   8   9
ENDBRANCH   7   8
ENDBRANCH   6   7
ENDBRANCH   5   6
ENDBRANCH   4   5
ENDBRANCH   3   4
ENDBRANCH   2   3
ENDBRANCH   1   2
BRANCH   1  18
ATOM     18  C   UNL     1     -13.845   8.376   6.142  1.00  0.00     0.000 C 
BRANCH  18  19
ATOM     19  C   UNL     1     -14.930   8.052   5.104  1.00  0.00     0.000 C 
BRANCH  19  20
ATOM     20  C   UNL     1     -15.108   6.534   4.956  1.00  0.00     0.000 C 
BRANCH  20  21
ATOM     21  C   UNL     1     -14.942   6.045   3.504  1.00  0.00     0.000 C 
BRANCH  21  22
ATOM     22  C   UNL     1     -13.629   6.470   2.817  1.00  0.00     0.000 C 
BRANCH  22  23
ATOM     23  C   UNL     1     -13.796   7.421   1.615  1.00  0.00     0.000 C 
BRANCH  23  24
ATOM     24  C   UNL     1     -14.175   8.870   1.980  1.00  0.00    -0.000 C 
BRANCH  24  25
ATOM     25  C   UNL     1     -13.075   9.660   2.711  1.00  0.00    -0.000 C 
BRANCH  25  26
ATOM     26  C   UNL     1     -13.099  11.160   2.381  1.00  0.00    -0.000 C 
BRANCH  26  27
ATOM     27  C   UNL     1     -14.177  11.887   3.192  1.00  0.00    -0.000 C 
BRANCH  27  28
ATOM     28  C   UNL     1     -14.002  11.633   4.697  1.00  0.00    -0.000 C 
BRANCH  28  29
ATOM     29  C   UNL     1     -12.636  12.125   5.221  1.00  0.00    -0.000 C 
BRANCH  29  30
ATOM     30  C   UNL     1     -12.242  11.523   6.584  1.00  0.00    -0.000 C 
BRANCH  30  31
ATOM     31  C   UNL     1     -13.004  12.102   7.787  1.00  0.00    -0.003 C 
ATOM     32  C   UNL     1     -13.639  11.023   8.663  1.00  0.00     0.004 C 
ENDBRANCH  30  31
ENDBRANCH  29  30
ENDBRANCH  28  29
ENDBRANCH  27  28
ENDBRANCH  26  27
ENDBRANCH  25  26
ENDBRANCH  24  25
ENDBRANCH  23  24
ENDBRANCH  22  23
ENDBRANCH  21  22
ENDBRANCH  20  21
ENDBRANCH  19  20
ENDBRANCH  18  19
ENDBRANCH   1  18
TORSDOF 28
ENDMDL
MODEL 5
REMARK VINA RESULT:    -2.374      2.235      6.334
REMARK INTER + INTRA:          -9.015
REMARK INTER:                  -5.823
REMARK INTRA:                  -3.192
REMARK UNBOUND:                -2.755
REMARK SMILES CCCCCCCCCCCCCCCCCCCCCCCCCCCCCC(=O)[O-]
REMARK SMILES IDX 16 1 17 2 18 3 19 4 20 5 21 6 22 7 23 8 24 9 25 10 26 11
REMARK SMILES IDX 27 12 28 13 29 14 30 15 31 16 32 17 15 18 14 19 13 20 12 21
REMARK SMILES IDX 11 22 10 23 9 24 8 25 7 26 6 27 5 28 4 29 3 30 2 31 1 32
REMARK H PARENT
REMARK Flexibility Score: inf
ROOT
ATOM      1  C   UNL     1      -9.985   7.634   5.849  1.00  0.00     0.000 C 
ENDROOT
BRANCH   1   2
ATOM      2  C   UNL     1      -9.021   8.736   5.375  1.00  0.00     0.000 C 
BRANCH   2   3
ATOM      3  C   UNL     1      -7.692   8.736   6.159  1.00  0.00     0.000 C 
BRANCH   3   4
ATOM      4  C   UNL     1      -6.880  10.041   6.025  1.00  0.00     0.000 C 
BRANCH   4   5
ATOM      5  C   UNL     1      -7.709  11.338   6.023  1.00  0.00     0.000 C 
BRANCH   5   6
ATOM      6  C   UNL     1      -8.965  11.310   6.913  1.00  0.00     0.000 C 
BRANCH   6   7
ATOM      7  C   UNL     1     -10.131  12.125   6.336  1.00  0.00     0.000 C 
BRANCH   7   8
ATOM      8  C   UNL     1     -10.087  12.125   4.803  1.00  0.00     0.000 C 
BRANCH   8   9
ATOM      9  C   UNL     1     -11.227  11.279   4.215  1.00  0.00     0.000 C 
BRANCH   9  10
ATOM     10  C   UNL     1     -12.615  11.703   4.731  1.00  0.00     0.000 C 
BRANCH  10  11
ATOM     11  C   UNL     1     -13.404  10.597   5.456  1.00  0.00     0.000 C 
BRANCH  11  12
ATOM     12  C   UNL     1     -14.844  11.012   5.794  1.00  0.00     0.000 C 
BRANCH  12  13
ATOM     13  C   UNL     1     -15.111  10.880   7.300  1.00  0.00     0.006 C 
BRANCH  13  14
ATOM     14  C   UNL     1     -14.333  11.916   8.122  1.00  0.00     0.053 C 
BRANCH  14  15
ATOM     15  C   UNL     1     -13.117  11.318   8.761  1.00  0.00     0.041 C 
ATOM     16  O   UNL     1     -13.086  10.091   9.042  1.00  0.00    -0.550 OA
ATOM     17  O   UNL     1     -12.028  12.124   9.076  1.00  0.00    -0.550 OA
ENDBRANCH  14  15
ENDBRANCH  13  14
ENDBRANCH  12  13
ENDBRANCH  11  12
ENDBRANCH  10  11
ENDBRANCH   9  10
ENDBRANCH   8   9
ENDBRANCH   7   8
ENDBRANCH   6   7
ENDBRANCH   5   6
ENDBRANCH   4   5
ENDBRANCH   3   4
ENDBRANCH   2   3
ENDBRANCH   1   2
BRANCH   1  18
ATOM     18  C   UNL     1      -9.401   6.223   5.679  1.00  0.00     0.000 C 
BRANCH  18  19
ATOM     19  C   UNL     1      -9.210   5.497   7.020  1.00  0.00     0.000 C 
BRANCH  19  20
ATOM     20  C   UNL     1     -10.566   5.155   7.654  1.00  0.00     0.000 C 
BRANCH  20  21
ATOM     21  C   UNL     1     -11.243   3.931   7.008  1.00  0.00     0.000 C 
BRANCH  21  22
ATOM     22  C   UNL     1     -12.494   4.246   6.164  1.00  0.00     0.000 C 
BRANCH  22  23
ATOM     23  C   UNL     1     -13.306   5.473   6.627  1.00  0.00     0.000 C 
BRANCH  23  24
ATOM     24  C   UNL     1     -13.432   6.601   5.584  1.00  0.00    -0.000 C 
BRANCH  24  25
ATOM     25  C   UNL     1     -14.733   6.578   4.762  1.00  0.00    -0.000 C 
BRANCH  25  26
ATOM     26  C   UNL     1     -14.613   5.741   3.480  1.00  0.00    -0.000 C 
BRANCH  26  27
ATOM     27  C   UNL     1     -13.566   6.333   2.529  1.00  0.00    -0.000 C 
BRANCH  27  28
ATOM     28  C   UNL     1     -14.227   7.229   1.470  1.00  0.00    -0.000 C 
BRANCH  28  29
ATOM     29  C   UNL     1     -14.330   8.700   1.927  1.00  0.00    -0.000 C 
BRANCH  29  30
ATOM     30  C   UNL     1     -13.275   9.623   1.289  1.00  0.00    -0.000 C 
BRANCH  30  31
ATOM     31  C   UNL     1     -13.385  11.103   1.695  1.00  0.00    -0.003 C 
ATOM     32  C   UNL     1     -12.372  11.992   0.975  1.00  0.00     0.004 C 
ENDBRANCH  30  31
ENDBRANCH  29  30
ENDBRANCH  28  29
ENDBRANCH  27  28
ENDBRANCH  26  27
ENDBRANCH  25  26
ENDBRANCH  24  25
ENDBRANCH  23  24
ENDBRANCH  22  23
ENDBRANCH  21  22
ENDBRANCH  20  21
ENDBRANCH  19  20
ENDBRANCH  18  19
ENDBRANCH   1  18
TORSDOF 28
ENDMDL
MODEL 6
REMARK VINA RESULT:    -2.153      2.861      7.042
REMARK INTER + INTRA:          -8.431
REMARK INTER:                  -7.234
REMARK INTRA:                  -1.197
REMARK UNBOUND:                -2.755
REMARK SMILES CCCCCCCCCCCCCCCCCCCCCCCCCCCCCC(=O)[O-]
REMARK SMILES IDX 16 1 17 2 18 3 19 4 20 5 21 6 22 7 23 8 24 9 25 10 26 11
REMARK SMILES IDX 27 12 28 13 29 14 30 15 31 16 32 17 15 18 14 19 13 20 12 21
REMARK SMILES IDX 11 22 10 23 9 24 8 25 7 26 6 27 5 28 4 29 3 30 2 31 1 32
REMARK H PARENT
REMARK Flexibility Score: inf
ROOT
ATOM      1  C   UNL     1     -10.756   4.439   6.243  1.00  0.00     0.000 C 
ENDROOT
BRANCH   1   2
ATOM      2  C   UNL     1     -11.652   5.679   6.073  1.00  0.00     0.000 C 
BRANCH   2   3
ATOM      3  C   UNL     1     -12.688   5.508   4.941  1.00  0.00     0.000 C 
BRANCH   3   4
ATOM      4  C   UNL     1     -14.122   5.920   5.331  1.00  0.00     0.000 C 
BRANCH   4   5
ATOM      5  C   UNL     1     -14.936   6.609   4.220  1.00  0.00     0.000 C 
BRANCH   5   6
ATOM      6  C   UNL     1     -14.649   6.105   2.794  1.00  0.00     0.000 C 
BRANCH   6   7
ATOM      7  C   UNL     1     -13.657   6.993   2.029  1.00  0.00     0.000 C 
BRANCH   7   8
ATOM      8  C   UNL     1     -14.220   8.408   1.852  1.00  0.00     0.000 C 
BRANCH   8   9
ATOM      9  C   UNL     1     -13.527   9.404   2.793  1.00  0.00     0.000 C 
BRANCH   9  10
ATOM     10  C   UNL     1     -13.572  10.853   2.272  1.00  0.00     0.000 C 
BRANCH  10  11
ATOM     11  C   UNL     1     -14.289  11.854   3.196  1.00  0.00     0.000 C 
BRANCH  11  12
ATOM     12  C   UNL     1     -13.823  11.761   4.657  1.00  0.00     0.000 C 
BRANCH  12  13
ATOM     13  C   UNL     1     -14.747  10.839   5.467  1.00  0.00     0.006 C 
BRANCH  13  14
ATOM     14  C   UNL     1     -14.229  10.603   6.891  1.00  0.00     0.053 C 
BRANCH  14  15
ATOM     15  C   UNL     1     -12.747  10.389   6.915  1.00  0.00     0.041 C 
ATOM     16  O   UNL     1     -11.974  11.336   7.218  1.00  0.00    -0.550 OA
ATOM     17  O   UNL     1     -12.216   9.150   6.573  1.00  0.00    -0.550 OA
ENDBRANCH  14  15
ENDBRANCH  13  14
ENDBRANCH  12  13
ENDBRANCH  11  12
ENDBRANCH  10  11
ENDBRANCH   9  10
ENDBRANCH   8   9
ENDBRANCH   7   8
ENDBRANCH   6   7
ENDBRANCH   5   6
ENDBRANCH   4   5
ENDBRANCH   3   4
ENDBRANCH   2   3
ENDBRANCH   1   2
BRANCH   1  18
ATOM     18  C   UNL     1      -9.787   4.566   7.429  1.00  0.00     0.000 C 
BRANCH  18  19
ATOM     19  C   UNL     1      -9.698   6.002   7.968  1.00  0.00     0.000 C 
BRANCH  19  20
ATOM     20  C   UNL     1      -8.650   6.812   7.192  1.00  0.00     0.000 C 
BRANCH  20  21
ATOM     21  C   UNL     1      -9.257   7.645   6.046  1.00  0.00     0.000 C 
BRANCH  21  22
ATOM     22  C   UNL     1      -8.249   8.132   4.986  1.00  0.00     0.000 C 
BRANCH  22  23
ATOM     23  C   UNL     1      -7.892   9.631   5.062  1.00  0.00     0.000 C 
BRANCH  23  24
ATOM     24  C   UNL     1      -7.939  10.240   6.477  1.00  0.00    -0.000 C 
BRANCH  24  25
ATOM     25  C   UNL     1      -7.304  11.636   6.600  1.00  0.00    -0.000 C 
BRANCH  25  26
ATOM     26  C   UNL     1      -5.985  11.762   5.823  1.00  0.00    -0.000 C 
BRANCH  26  27
ATOM     27  C   UNL     1      -4.974  10.702   6.274  1.00  0.00    -0.000 C 
BRANCH  27  28
ATOM     28  C   UNL     1      -3.551  11.069   5.826  1.00  0.00    -0.000 C 
BRANCH  28  29
ATOM     29  C   UNL     1      -3.456  11.296   4.302  1.00  0.00    -0.000 C 
BRANCH  29  30
ATOM     30  C   UNL     1      -2.228  12.123   3.874  1.00  0.00    -0.000 C 
BRANCH  30  31
ATOM     31  C   UNL     1      -1.066  12.118   4.881  1.00  0.00    -0.003 C 
ATOM     32  C   UNL     1      -0.155  10.901   4.730  1.00  0.00     0.004 C 
ENDBRANCH  30  31
ENDBRANCH  29  30
ENDBRANCH  28  29
ENDBRANCH  27  28
ENDBRANCH  26  27
ENDBRANCH  25  26
ENDBRANCH  24  25
ENDBRANCH  23  24
ENDBRANCH  22  23
ENDBRANCH  21  22
ENDBRANCH  20  21
ENDBRANCH  19  20
ENDBRANCH  18  19
ENDBRANCH   1  18
TORSDOF 28
ENDMDL
MODEL 7
REMARK VINA RESULT:    -1.959      2.323      6.502
REMARK INTER + INTRA:          -7.920
REMARK INTER:                  -5.039
REMARK INTRA:                  -2.881
REMARK UNBOUND:                -2.755
REMARK SMILES CCCCCCCCCCCCCCCCCCCCCCCCCCCCCC(=O)[O-]
REMARK SMILES IDX 16 1 17 2 18 3 19 4 20 5 21 6 22 7 23 8 24 9 25 10 26 11
REMARK SMILES IDX 27 12 28 13 29 14 30 15 31 16 32 17 15 18 14 19 13 20 12 21
REMARK SMILES IDX 11 22 10 23 9 24 8 25 7 26 6 27 5 28 4 29 3 30 2 31 1 32
REMARK H PARENT
REMARK Flexibility Score: inf
ROOT
ATOM      1  C   UNL     1     -11.457   3.284   5.812  1.00  0.00     0.000 C 
ENDROOT
BRANCH   1   2
ATOM      2  C   UNL     1     -10.560   4.390   5.227  1.00  0.00     0.000 C 
BRANCH   2   3
ATOM      3  C   UNL     1     -11.259   5.766   5.204  1.00  0.00     0.000 C 
BRANCH   3   4
ATOM      4  C   UNL     1     -12.707   5.730   4.676  1.00  0.00     0.000 C 
BRANCH   4   5
ATOM      5  C   UNL     1     -13.730   6.539   5.495  1.00  0.00     0.000 C 
BRANCH   5   6
ATOM      6  C   UNL     1     -13.595   8.069   5.378  1.00  0.00     0.000 C 
BRANCH   6   7
ATOM      7  C   UNL     1     -14.601   8.689   4.398  1.00  0.00     0.000 C 
BRANCH   7   8
ATOM      8  C   UNL     1     -14.706   7.845   3.121  1.00  0.00     0.000 C 
BRANCH   8   9
ATOM      9  C   UNL     1     -13.608   8.221   2.115  1.00  0.00     0.000 C 
BRANCH   9  10
ATOM     10  C   UNL     1     -13.938   9.496   1.317  1.00  0.00     0.000 C 
BRANCH  10  11
ATOM     11  C   UNL     1     -12.992  10.685   1.573  1.00  0.00     0.000 C 
BRANCH  11  12
ATOM     12  C   UNL     1     -13.727  11.937   2.076  1.00  0.00     0.000 C 
BRANCH  12  13
ATOM     13  C   UNL     1     -13.529  12.116   3.588  1.00  0.00     0.006 C 
BRANCH  13  14
ATOM     14  C   UNL     1     -12.153  11.624   4.056  1.00  0.00     0.053 C 
BRANCH  14  15
ATOM     15  C   UNL     1     -12.140  11.325   5.523  1.00  0.00     0.041 C 
ATOM     16  O   UNL     1     -13.038  11.789   6.274  1.00  0.00    -0.550 OA
ATOM     17  O   UNL     1     -11.117  10.557   6.069  1.00  0.00    -0.550 OA
ENDBRANCH  14  15
ENDBRANCH  13  14
ENDBRANCH  12  13
ENDBRANCH  11  12
ENDBRANCH  10  11
ENDBRANCH   9  10
ENDBRANCH   8   9
ENDBRANCH   7   8
ENDBRANCH   6   7
ENDBRANCH   5   6
ENDBRANCH   4   5
ENDBRANCH   3   4
ENDBRANCH   2   3
ENDBRANCH   1   2
BRANCH   1  18
ATOM     18  C   UNL     1     -11.353   3.184   7.342  1.00  0.00     0.000 C 
BRANCH  18  19
ATOM     19  C   UNL     1     -10.231   4.063   7.917  1.00  0.00     0.000 C 
BRANCH  19  20
ATOM     20  C   UNL     1     -10.808   5.318   8.587  1.00  0.00     0.000 C 
BRANCH  20  21
ATOM     21  C   UNL     1      -9.815   6.494   8.623  1.00  0.00     0.000 C 
BRANCH  21  22
ATOM     22  C   UNL     1      -8.711   6.452   7.548  1.00  0.00     0.000 C 
BRANCH  22  23
ATOM     23  C   UNL     1      -8.424   7.797   6.851  1.00  0.00     0.000 C 
BRANCH  23  24
ATOM     24  C   UNL     1      -8.612   7.790   5.321  1.00  0.00    -0.000 C 
BRANCH  24  25
ATOM     25  C   UNL     1      -8.035   9.017   4.593  1.00  0.00    -0.000 C 
BRANCH  25  26
ATOM     26  C   UNL     1      -7.081   9.838   5.474  1.00  0.00    -0.000 C 
BRANCH  26  27
ATOM     27  C   UNL     1      -7.818  10.996   6.158  1.00  0.00    -0.000 C 
BRANCH  27  28
ATOM     28  C   UNL     1      -6.829  12.048   6.683  1.00  0.00    -0.000 C 
BRANCH  28  29
ATOM     29  C   UNL     1      -5.672  11.417   7.486  1.00  0.00    -0.000 C 
BRANCH  29  30
ATOM     30  C   UNL     1      -4.275  11.879   7.029  1.00  0.00    -0.000 C 
BRANCH  30  31
ATOM     31  C   UNL     1      -3.918  11.511   5.579  1.00  0.00    -0.003 C 
ATOM     32  C   UNL     1      -2.438  11.721   5.261  1.00  0.00     0.004 C 
ENDBRANCH  30  31
ENDBRANCH  29  30
ENDBRANCH  28  29
ENDBRANCH  27  28
ENDBRANCH  26  27
ENDBRANCH  25  26
ENDBRANCH  24  25
ENDBRANCH  23  24
ENDBRANCH  22  23
ENDBRANCH  21  22
ENDBRANCH  20  21
ENDBRANCH  19  20
ENDBRANCH  18  19
ENDBRANCH   1  18
TORSDOF 28
ENDMDL
