MODEL 1
REMARK VINA RESULT:    -5.065      0.000      0.000
REMARK INTER + INTRA:          -8.004
REMARK INTER:                  -7.434
REMARK INTRA:                  -0.571
REMARK UNBOUND:                -0.571
REMARK SMILES O=C([O-])CCCCCCCC(=O)[O-]
REMARK SMILES IDX 7 1 6 2 5 3 4 4 2 5 1 6 3 7 8 8 9 9 10 10 11 11 12 12 13 13
REMARK H PARENT
REMARK Flexibility Score: inf
ROOT
ATOM      1  C   UNL     1       7.319  54.744  21.952  1.00  0.00     0.000 C 
ENDROOT
BRANCH   1   2
ATOM      2  C   UNL     1       8.061  54.149  23.159  1.00  0.00     0.000 C 
BRANCH   2   3
ATOM      3  C   UNL     1       9.346  54.936  23.455  1.00  0.00     0.006 C 
BRANCH   3   4
ATOM      4  C   UNL     1      10.573  54.020  23.580  1.00  0.00     0.053 C 
BRANCH   4   5
ATOM      5  C   UNL     1      10.727  53.131  22.385  1.00  0.00     0.041 C 
ATOM      6  O   UNL     1      10.883  53.629  21.240  1.00  0.00    -0.550 OA
ATOM      7  O   UNL     1      10.665  51.750  22.533  1.00  0.00    -0.550 OA
ENDBRANCH   4   5
ENDBRANCH   3   4
ENDBRANCH   2   3
ENDBRANCH   1   2
BRANCH   1   8
ATOM      8  C   UNL     1       7.898  56.098  21.511  1.00  0.00     0.000 C 
BRANCH   8   9
ATOM      9  C   UNL     1       8.552  56.038  20.123  1.00  0.00     0.006 C 
BRANCH   9  10
ATOM     10  C   UNL     1       7.565  56.460  19.032  1.00  0.00     0.053 C 
BRANCH  10  11
ATOM     11  C   UNL     1       7.487  55.417  17.962  1.00  0.00     0.041 C 
ATOM     12  O   UNL     1       7.017  55.704  16.830  1.00  0.00    -0.550 OA
ATOM     13  O   UNL     1       7.977  54.139  18.201  1.00  0.00    -0.550 OA
ENDBRANCH  10  11
ENDBRANCH   9  10
ENDBRANCH   8   9
ENDBRANCH   1   8
TORSDOF 8
ENDMDL
MODEL 2
REMARK VINA RESULT:    -5.017      1.804      5.635
REMARK INTER + INTRA:          -7.934
REMARK INTER:                  -7.336
REMARK INTRA:                  -0.598
REMARK UNBOUND:                -0.571
REMARK SMILES O=C([O-])CCCCCCCC(=O)[O-]
REMARK SMILES IDX 7 1 6 2 5 3 4 4 2 5 1 6 3 7 8 8 9 9 10 10 11 11 12 12 13 13
REMARK H PARENT
REMARK Flexibility Score: inf
ROOT
ATOM      1  C   UNL     1       7.764  54.446  21.822  1.00  0.00     0.000 C 
ENDROOT
BRANCH   1   2
ATOM      2  C   UNL     1       7.917  55.939  21.496  1.00  0.00     0.000 C 
BRANCH   2   3
ATOM      3  C   UNL     1       8.508  56.136  20.092  1.00  0.00     0.006 C 
BRANCH   3   4
ATOM      4  C   UNL     1       7.422  56.365  19.031  1.00  0.00     0.053 C 
BRANCH   4   5
ATOM      5  C   UNL     1       7.503  55.357  17.925  1.00  0.00     0.041 C 
ATOM      6  O   UNL     1       7.047  55.630  16.784  1.00  0.00    -0.550 OA
ATOM      7  O   UNL     1       8.053  54.104  18.166  1.00  0.00    -0.550 OA
ENDBRANCH   4   5
ENDBRANCH   3   4
ENDBRANCH   2   3
ENDBRANCH   1   2
BRANCH   1   8
ATOM      8  C   UNL     1       9.031  53.638  21.502  1.00  0.00     0.000 C 
BRANCH   8   9
ATOM      9  C   UNL     1       9.710  53.077  22.761  1.00  0.00     0.006 C 
BRANCH   9  10
ATOM     10  C   UNL     1      10.810  54.019  23.257  1.00  0.00     0.053 C 
BRANCH  10  11
ATOM     11  C   UNL     1      10.487  54.526  24.627  1.00  0.00     0.041 C 
ATOM     12  O   UNL     1       9.301  54.818  24.932  1.00  0.00    -0.550 OA
ATOM     13  O   UNL     1      11.490  54.633  25.583  1.00  0.00    -0.550 OA
ENDBRANCH  10  11
ENDBRANCH   9  10
ENDBRANCH   8   9
ENDBRANCH   1   8
TORSDOF 8
ENDMDL
MODEL 3
REMARK VINA RESULT:    -5.002      1.808      5.610
REMARK INTER + INTRA:          -7.913
REMARK INTER:                  -7.298
REMARK INTRA:                  -0.615
REMARK UNBOUND:                -0.571
REMARK SMILES O=C([O-])CCCCCCCC(=O)[O-]
REMARK SMILES IDX 7 1 6 2 5 3 4 4 2 5 1 6 3 7 8 8 9 9 10 10 11 11 12 12 13 13
REMARK H PARENT
REMARK Flexibility Score: inf
ROOT
ATOM      1  C   UNL     1       7.506  54.547  21.881  1.00  0.00     0.000 C 
ENDROOT
BRANCH   1   2
ATOM      2  C   UNL     1       7.756  56.041  21.626  1.00  0.00     0.000 C 
BRANCH   2   3
ATOM      3  C   UNL     1       6.992  56.520  20.382  1.00  0.00     0.006 C 
BRANCH   3   4
ATOM      4  C   UNL     1       7.837  56.413  19.104  1.00  0.00     0.053 C 
BRANCH   4   5
ATOM      5  C   UNL     1       7.256  55.430  18.135  1.00  0.00     0.041 C 
ATOM      6  O   UNL     1       6.944  54.272  18.518  1.00  0.00    -0.550 OA
ATOM      7  O   UNL     1       7.092  55.782  16.801  1.00  0.00    -0.550 OA
ENDBRANCH   4   5
ENDBRANCH   3   4
ENDBRANCH   2   3
ENDBRANCH   1   2
BRANCH   1   8
ATOM      8  C   UNL     1       8.727  53.677  21.549  1.00  0.00     0.000 C 
BRANCH   8   9
ATOM      9  C   UNL     1      10.055  54.349  21.931  1.00  0.00     0.006 C 
BRANCH   9  10
ATOM     10  C   UNL     1      10.697  53.651  23.133  1.00  0.00     0.053 C 
BRANCH  10  11
ATOM     11  C   UNL     1      10.606  54.514  24.352  1.00  0.00     0.041 C 
ATOM     12  O   UNL     1       9.513  55.057  24.663  1.00  0.00    -0.550 OA
ATOM     13  O   UNL     1      11.715  54.681  25.171  1.00  0.00    -0.550 OA
ENDBRANCH  10  11
ENDBRANCH   9  10
ENDBRANCH   8   9
ENDBRANCH   1   8
TORSDOF 8
ENDMDL
MODEL 4
REMARK VINA RESULT:    -4.999      0.304      5.063
REMARK INTER + INTRA:          -7.908
REMARK INTER:                  -7.438
REMARK INTRA:                  -0.470
REMARK UNBOUND:                -0.571
REMARK SMILES O=C([O-])CCCCCCCC(=O)[O-]
REMARK SMILES IDX 7 1 6 2 5 3 4 4 2 5 1 6 3 7 8 8 9 9 10 10 11 11 12 12 13 13
REMARK H PARENT
REMARK Flexibility Score: inf
ROOT
ATOM      1  C   UNL     1       7.255  54.751  22.171  1.00  0.00     0.000 C 
ENDROOT
BRANCH   1   2
ATOM      2  C   UNL     1       7.942  55.969  21.535  1.00  0.00     0.000 C 
BRANCH   2   3
ATOM      3  C   UNL     1       8.455  55.635  20.126  1.00  0.00     0.006 C 
BRANCH   3   4
ATOM      4  C   UNL     1       7.617  56.304  19.027  1.00  0.00     0.053 C 
BRANCH   4   5
ATOM      5  C   UNL     1       7.287  55.350  17.921  1.00  0.00     0.041 C 
ATOM      6  O   UNL     1       7.096  55.776  16.752  1.00  0.00    -0.550 OA
ATOM      7  O   UNL     1       7.158  53.992  18.188  1.00  0.00    -0.550 OA
ENDBRANCH   4   5
ENDBRANCH   3   4
ENDBRANCH   2   3
ENDBRANCH   1   2
BRANCH   1   8
ATOM      8  C   UNL     1       8.159  54.019  23.174  1.00  0.00     0.000 C 
BRANCH   8   9
ATOM      9  C   UNL     1       9.332  54.885  23.657  1.00  0.00     0.006 C 
BRANCH   9  10
ATOM     10  C   UNL     1      10.627  54.070  23.719  1.00  0.00     0.053 C 
BRANCH  10  11
ATOM     11  C   UNL     1      10.744  53.179  22.524  1.00  0.00     0.041 C 
ATOM     12  O   UNL     1      10.981  53.669  21.388  1.00  0.00    -0.550 OA
ATOM     13  O   UNL     1      10.638  51.802  22.670  1.00  0.00    -0.550 OA
ENDBRANCH  10  11
ENDBRANCH   9  10
ENDBRANCH   8   9
ENDBRANCH   1   8
TORSDOF 8
ENDMDL
MODEL 5
REMARK VINA RESULT:    -4.946      1.893      2.317
REMARK INTER + INTRA:          -7.829
REMARK INTER:                  -7.338
REMARK INTRA:                  -0.492
REMARK UNBOUND:                -0.571
REMARK SMILES O=C([O-])CCCCCCCC(=O)[O-]
REMARK SMILES IDX 7 1 6 2 5 3 4 4 2 5 1 6 3 7 8 8 9 9 10 10 11 11 12 12 13 13
REMARK H PARENT
REMARK Flexibility Score: inf
ROOT
ATOM      1  C   UNL     1       9.249  54.594  21.201  1.00  0.00     0.000 C 
ENDROOT
BRANCH   1   2
ATOM      2  C   UNL     1       9.902  53.208  21.324  1.00  0.00     0.000 C 
BRANCH   2   3
ATOM      3  C   UNL     1      10.461  52.988  22.737  1.00  0.00     0.006 C 
BRANCH   3   4
ATOM      4  C   UNL     1      11.017  54.282  23.351  1.00  0.00     0.053 C 
BRANCH   4   5
ATOM      5  C   UNL     1      10.495  54.509  24.736  1.00  0.00     0.041 C 
ATOM      6  O   UNL     1      11.289  54.559  25.712  1.00  0.00    -0.550 OA
ATOM      7  O   UNL     1       9.128  54.632  24.953  1.00  0.00    -0.550 OA
ENDBRANCH   4   5
ENDBRANCH   3   4
ENDBRANCH   2   3
ENDBRANCH   1   2
BRANCH   1   8
ATOM      8  C   UNL     1       7.747  54.571  21.521  1.00  0.00     0.000 C 
BRANCH   8   9
ATOM      9  C   UNL     1       6.927  55.465  20.579  1.00  0.00     0.006 C 
BRANCH   9  10
ATOM     10  C   UNL     1       7.766  55.912  19.378  1.00  0.00     0.053 C 
BRANCH  10  11
ATOM     11  C   UNL     1       7.339  55.188  18.141  1.00  0.00     0.041 C 
ATOM     12  O   UNL     1       7.173  55.818  17.063  1.00  0.00    -0.550 OA
ATOM     13  O   UNL     1       7.168  53.810  18.165  1.00  0.00    -0.550 OA
ENDBRANCH  10  11
ENDBRANCH   9  10
ENDBRANCH   8   9
ENDBRANCH   1   8
TORSDOF 8
ENDMDL
MODEL 6
REMARK VINA RESULT:    -4.741      2.822      3.380
REMARK INTER + INTRA:          -7.530
REMARK INTER:                  -7.107
REMARK INTRA:                  -0.422
REMARK UNBOUND:                -0.571
REMARK SMILES O=C([O-])CCCCCCCC(=O)[O-]
REMARK SMILES IDX 7 1 6 2 5 3 4 4 2 5 1 6 3 7 8 8 9 9 10 10 11 11 12 12 13 13
REMARK H PARENT
REMARK Flexibility Score: inf
ROOT
ATOM      1  C   UNL     1       9.265  54.618  21.054  1.00  0.00     0.000 C 
ENDROOT
BRANCH   1   2
ATOM      2  C   UNL     1      10.142  53.370  21.234  1.00  0.00     0.000 C 
BRANCH   2   3
ATOM      3  C   UNL     1      10.622  53.243  22.687  1.00  0.00     0.006 C 
BRANCH   3   4
ATOM      4  C   UNL     1      10.854  54.610  23.346  1.00  0.00     0.053 C 
BRANCH   4   5
ATOM      5  C   UNL     1      10.366  54.636  24.761  1.00  0.00     0.041 C 
ATOM      6  O   UNL     1      11.187  54.684  25.714  1.00  0.00    -0.550 OA
ATOM      7  O   UNL     1       9.004  54.574  25.029  1.00  0.00    -0.550 OA
ENDBRANCH   4   5
ENDBRANCH   3   4
ENDBRANCH   2   3
ENDBRANCH   1   2
BRANCH   1   8
ATOM      8  C   UNL     1       8.274  54.482  19.887  1.00  0.00     0.000 C 
BRANCH   8   9
ATOM      9  C   UNL     1       7.544  55.796  19.574  1.00  0.00     0.006 C 
BRANCH   9  10
ATOM     10  C   UNL     1       7.374  56.644  20.838  1.00  0.00     0.053 C 
BRANCH  10  11
ATOM     11  C   UNL     1       6.006  56.458  21.414  1.00  0.00     0.041 C 
ATOM     12  O   UNL     1       5.738  55.430  22.090  1.00  0.00    -0.550 OA
ATOM     13  O   UNL     1       5.040  57.442  21.245  1.00  0.00    -0.550 OA
ENDBRANCH  10  11
ENDBRANCH   9  10
ENDBRANCH   8   9
ENDBRANCH   1   8
TORSDOF 8
ENDMDL
MODEL 7
REMARK VINA RESULT:    -4.738      2.723      5.847
REMARK INTER + INTRA:          -7.525
REMARK INTER:                  -7.047
REMARK INTRA:                  -0.478
REMARK UNBOUND:                -0.571
REMARK SMILES O=C([O-])CCCCCCCC(=O)[O-]
REMARK SMILES IDX 7 1 6 2 5 3 4 4 2 5 1 6 3 7 8 8 9 9 10 10 11 11 12 12 13 13
REMARK H PARENT
REMARK Flexibility Score: inf
ROOT
ATOM      1  C   UNL     1       8.431  54.212  20.850  1.00  0.00     0.000 C 
ENDROOT
BRANCH   1   2
ATOM      2  C   UNL     1       8.167  54.903  19.503  1.00  0.00     0.000 C 
BRANCH   2   3
ATOM      3  C   UNL     1       7.852  56.393  19.703  1.00  0.00     0.006 C 
BRANCH   3   4
ATOM      4  C   UNL     1       7.448  56.713  21.150  1.00  0.00     0.053 C 
BRANCH   4   5
ATOM      5  C   UNL     1       5.961  56.692  21.329  1.00  0.00     0.041 C 
ATOM      6  O   UNL     1       5.402  55.705  21.875  1.00  0.00    -0.550 OA
ATOM      7  O   UNL     1       5.189  57.750  20.863  1.00  0.00    -0.550 OA
ENDBRANCH   4   5
ENDBRANCH   3   4
ENDBRANCH   2   3
ENDBRANCH   1   2
BRANCH   1   8
ATOM      8  C   UNL     1       9.868  53.683  20.972  1.00  0.00     0.000 C 
BRANCH   8   9
ATOM      9  C   UNL     1      10.353  53.616  22.428  1.00  0.00     0.006 C 
BRANCH   9  10
ATOM     10  C   UNL     1       9.865  54.830  23.225  1.00  0.00     0.053 C 
BRANCH  10  11
ATOM     11  C   UNL     1      10.364  54.767  24.633  1.00  0.00     0.041 C 
ATOM     12  O   UNL     1       9.550  54.721  25.593  1.00  0.00    -0.550 OA
ATOM     13  O   UNL     1      11.729  54.712  24.886  1.00  0.00    -0.550 OA
ENDBRANCH  10  11
ENDBRANCH   9  10
ENDBRANCH   8   9
ENDBRANCH   1   8
TORSDOF 8
ENDMDL
MODEL 8
REMARK VINA RESULT:    -4.729      2.096      5.869
REMARK INTER + INTRA:          -7.511
REMARK INTER:                  -7.035
REMARK INTRA:                  -0.476
REMARK UNBOUND:                -0.571
REMARK SMILES O=C([O-])CCCCCCCC(=O)[O-]
REMARK SMILES IDX 7 1 6 2 5 3 4 4 2 5 1 6 3 7 8 8 9 9 10 10 11 11 12 12 13 13
REMARK H PARENT
REMARK Flexibility Score: inf
ROOT
ATOM      1  C   UNL     1       9.539  54.452  21.014  1.00  0.00     0.000 C 
ENDROOT
BRANCH   1   2
ATOM      2  C   UNL     1       8.116  53.974  21.343  1.00  0.00     0.000 C 
BRANCH   2   3
ATOM      3  C   UNL     1       7.079  54.703  20.475  1.00  0.00     0.006 C 
BRANCH   3   4
ATOM      4  C   UNL     1       7.196  54.330  18.991  1.00  0.00     0.053 C 
BRANCH   4   5
ATOM      5  C   UNL     1       7.328  55.542  18.121  1.00  0.00     0.041 C 
ATOM      6  O   UNL     1       7.644  56.652  18.624  1.00  0.00    -0.550 OA
ATOM      7  O   UNL     1       7.069  55.451  16.758  1.00  0.00    -0.550 OA
ENDBRANCH   4   5
ENDBRANCH   3   4
ENDBRANCH   2   3
ENDBRANCH   1   2
BRANCH   1   8
ATOM      8  C   UNL     1      10.617  53.454  21.463  1.00  0.00     0.000 C 
BRANCH   8   9
ATOM      9  C   UNL     1      10.534  53.128  22.962  1.00  0.00     0.006 C 
BRANCH   9  10
ATOM     10  C   UNL     1      10.857  54.361  23.810  1.00  0.00     0.053 C 
BRANCH  10  11
ATOM     11  C   UNL     1       9.905  54.471  24.959  1.00  0.00     0.041 C 
ATOM     12  O   UNL     1      10.334  54.734  26.114  1.00  0.00    -0.550 OA
ATOM     13  O   UNL     1       8.540  54.327  24.748  1.00  0.00    -0.550 OA
ENDBRANCH  10  11
ENDBRANCH   9  10
ENDBRANCH   8   9
ENDBRANCH   1   8
TORSDOF 8
ENDMDL
MODEL 9
REMARK VINA RESULT:    -4.352      1.247      1.942
REMARK INTER + INTRA:          -6.958
REMARK INTER:                  -6.565
REMARK INTRA:                  -0.393
REMARK UNBOUND:                -0.571
REMARK SMILES O=C([O-])CCCCCCCC(=O)[O-]
REMARK SMILES IDX 7 1 6 2 5 3 4 4 2 5 1 6 3 7 8 8 9 9 10 10 11 11 12 12 13 13
REMARK H PARENT
REMARK Flexibility Score: inf
ROOT
ATOM      1  C   UNL     1       7.629  54.074  24.042  1.00  0.00     0.000 C 
ENDROOT
BRANCH   1   2
ATOM      2  C   UNL     1       9.044  54.367  24.563  1.00  0.00     0.000 C 
BRANCH   2   3
ATOM      3  C   UNL     1       9.953  54.864  23.429  1.00  0.00     0.006 C 
BRANCH   3   4
ATOM      4  C   UNL     1      11.118  53.903  23.154  1.00  0.00     0.053 C 
BRANCH   4   5
ATOM      5  C   UNL     1      10.728  52.812  22.205  1.00  0.00     0.041 C 
ATOM      6  O   UNL     1      10.459  53.082  21.006  1.00  0.00    -0.550 OA
ATOM      7  O   UNL     1      10.629  51.501  22.655  1.00  0.00    -0.550 OA
ENDBRANCH   4   5
ENDBRANCH   3   4
ENDBRANCH   2   3
ENDBRANCH   1   2
BRANCH   1   8
ATOM      8  C   UNL     1       7.542  54.116  22.509  1.00  0.00     0.000 C 
BRANCH   8   9
ATOM      9  C   UNL     1       6.474  55.097  22.002  1.00  0.00     0.006 C 
BRANCH   9  10
ATOM     10  C   UNL     1       7.120  56.323  21.351  1.00  0.00     0.053 C 
BRANCH  10  11
ATOM     11  C   UNL     1       7.401  56.062  19.905  1.00  0.00     0.041 C 
ATOM     12  O   UNL     1       6.972  55.013  19.355  1.00  0.00    -0.550 OA
ATOM     13  O   UNL     1       8.098  56.999  19.152  1.00  0.00    -0.550 OA
ENDBRANCH  10  11
ENDBRANCH   9  10
ENDBRANCH   8   9
ENDBRANCH   1   8
TORSDOF 8
ENDMDL
