MODEL 1
REMARK VINA RESULT:    -4.426      0.000      0.000
REMARK INTER + INTRA:          -4.507
REMARK INTER:                  -4.944
REMARK INTRA:                   0.437
REMARK UNBOUND:                 0.437
REMARK SMILES O=C([O-])c1ccccc1C(=O)[O-]
REMARK SMILES IDX 4 1 9 2 5 3 8 4 6 5 7 6 2 7 1 8 3 9 10 10 11 11 12 12
REMARK H PARENT
REMARK Flexibility Score: inf
ROOT
ATOM      1  C   UNL     1       4.663 -36.650  22.869  1.00  0.00     0.006 A 
ATOM      2  C   UNL     1       4.619 -37.680  21.888  1.00  0.00     0.006 A 
ATOM      3  C   UNL     1       4.895 -36.994  24.213  1.00  0.00     0.010 A 
ATOM      4  C   UNL     1       4.874 -39.008  22.279  1.00  0.00     0.010 A 
ATOM      5  C   UNL     1       5.124 -38.321  24.581  1.00  0.00     0.001 A 
ATOM      6  C   UNL     1       5.125 -39.323  23.615  1.00  0.00     0.001 A 
ENDROOT
BRANCH   1   7
ATOM      7  C   UNL     1       4.545 -35.213  22.525  1.00  0.00     0.072 C 
ATOM      8  O   UNL     1       3.864 -34.855  21.528  1.00  0.00    -0.545 OA
ATOM      9  O   UNL     1       5.125 -34.242  23.332  1.00  0.00    -0.545 OA
ENDBRANCH   1   7
BRANCH   2  10
ATOM     10  C   UNL     1       4.247 -37.434  20.475  1.00  0.00     0.072 C 
ATOM     11  O   UNL     1       5.125 -37.152  19.618  1.00  0.00    -0.545 OA
ATOM     12  O   UNL     1       2.910 -37.445  20.094  1.00  0.00    -0.545 OA
ENDBRANCH   2  10
TORSDOF 2
ENDMDL
MODEL 2
REMARK VINA RESULT:    -3.474      1.856      3.372
REMARK INTER + INTRA:          -3.444
REMARK INTER:                  -3.649
REMARK INTRA:                   0.206
REMARK UNBOUND:                 0.437
REMARK SMILES O=C([O-])c1ccccc1C(=O)[O-]
REMARK SMILES IDX 4 1 9 2 5 3 8 4 6 5 7 6 2 7 1 8 3 9 10 10 11 11 12 12
REMARK H PARENT
REMARK Flexibility Score: inf
ROOT
ATOM      1  C   UNL     1       4.437 -36.314  21.507  1.00  0.00     0.006 A 
ATOM      2  C   UNL     1       4.763 -37.201  22.571  1.00  0.00     0.006 A 
ATOM      3  C   UNL     1       4.422 -34.929  21.752  1.00  0.00     0.010 A 
ATOM      4  C   UNL     1       5.125 -36.665  23.822  1.00  0.00     0.010 A 
ATOM      5  C   UNL     1       4.762 -34.421  23.006  1.00  0.00     0.001 A 
ATOM      6  C   UNL     1       5.124 -35.287  24.034  1.00  0.00     0.001 A 
ENDROOT
BRANCH   1   7
ATOM      7  C   UNL     1       4.181 -36.783  20.125  1.00  0.00     0.072 C 
ATOM      8  O   UNL     1       5.110 -36.783  19.275  1.00  0.00    -0.545 OA
ATOM      9  O   UNL     1       2.938 -37.289  19.768  1.00  0.00    -0.545 OA
ENDBRANCH   1   7
BRANCH   2  10
ATOM     10  C   UNL     1       4.674 -38.675  22.449  1.00  0.00     0.072 C 
ATOM     11  O   UNL     1       4.249 -39.376  23.405  1.00  0.00    -0.545 OA
ATOM     12  O   UNL     1       5.125 -39.307  21.295  1.00  0.00    -0.545 OA
ENDBRANCH   2  10
TORSDOF 2
ENDMDL
MODEL 3
REMARK VINA RESULT:    -3.099      1.872      3.155
REMARK INTER + INTRA:          -3.025
REMARK INTER:                  -3.041
REMARK INTRA:                   0.017
REMARK UNBOUND:                 0.437
REMARK SMILES O=C([O-])c1ccccc1C(=O)[O-]
REMARK SMILES IDX 4 1 9 2 5 3 8 4 6 5 7 6 2 7 1 8 3 9 10 10 11 11 12 12
REMARK H PARENT
REMARK Flexibility Score: inf
ROOT
ATOM      1  C   UNL     1       4.676 -37.496  22.944  1.00  0.00     0.006 A 
ATOM      2  C   UNL     1       4.446 -36.731  21.766  1.00  0.00     0.006 A 
ATOM      3  C   UNL     1       5.036 -36.832  24.131  1.00  0.00     0.010 A 
ATOM      4  C   UNL     1       4.519 -35.327  21.837  1.00  0.00     0.010 A 
ATOM      5  C   UNL     1       5.125 -35.440  24.172  1.00  0.00     0.001 A 
ATOM      6  C   UNL     1       4.855 -34.689  23.031  1.00  0.00     0.001 A 
ENDROOT
BRANCH   1   7
ATOM      7  C   UNL     1       4.484 -38.964  22.994  1.00  0.00     0.072 C 
ATOM      8  O   UNL     1       3.688 -39.469  23.829  1.00  0.00    -0.545 OA
ATOM      9  O   UNL     1       5.125 -39.794  22.083  1.00  0.00    -0.545 OA
ENDBRANCH   1   7
BRANCH   2  10
ATOM     10  C   UNL     1       4.197 -37.345  20.441  1.00  0.00     0.072 C 
ATOM     11  O   UNL     1       5.120 -37.435  19.589  1.00  0.00    -0.545 OA
ATOM     12  O   UNL     1       2.918 -37.769  20.098  1.00  0.00    -0.545 OA
ENDBRANCH   2  10
TORSDOF 2
ENDMDL
MODEL 4
REMARK VINA RESULT:    -2.891      2.617      3.674
REMARK INTER + INTRA:          -2.793
REMARK INTER:                  -4.005
REMARK INTRA:                   1.212
REMARK UNBOUND:                 0.437
REMARK SMILES O=C([O-])c1ccccc1C(=O)[O-]
REMARK SMILES IDX 4 1 9 2 5 3 8 4 6 5 7 6 2 7 1 8 3 9 10 10 11 11 12 12
REMARK H PARENT
REMARK Flexibility Score: inf
ROOT
ATOM      1  C   UNL     1       4.366 -35.837  19.486  1.00  0.00     0.006 A 
ATOM      2  C   UNL     1       3.585 -37.026  19.467  1.00  0.00     0.006 A 
ATOM      3  C   UNL     1       5.112 -35.527  20.638  1.00  0.00     0.010 A 
ATOM      4  C   UNL     1       3.631 -37.894  20.575  1.00  0.00     0.010 A 
ATOM      5  C   UNL     1       5.125 -36.391  21.735  1.00  0.00     0.001 A 
ATOM      6  C   UNL     1       4.396 -37.577  21.697  1.00  0.00     0.001 A 
ENDROOT
BRANCH   1   7
ATOM      7  C   UNL     1       4.487 -34.940  18.313  1.00  0.00     0.072 C 
ATOM      8  O   UNL     1       5.120 -33.855  18.409  1.00  0.00    -0.545 OA
ATOM      9  O   UNL     1       3.964 -35.311  17.080  1.00  0.00    -0.545 OA
ENDBRANCH   1   7
BRANCH   2  10
ATOM     10  C   UNL     1       2.664 -37.368  18.358  1.00  0.00     0.072 C 
ATOM     11  O   UNL     1       1.420 -37.425  18.548  1.00  0.00    -0.545 OA
ATOM     12  O   UNL     1       3.171 -37.697  17.106  1.00  0.00    -0.545 OA
ENDBRANCH   2  10
TORSDOF 2
ENDMDL
MODEL 5
REMARK VINA RESULT:    -2.877      2.793      4.407
REMARK INTER + INTRA:          -2.776
REMARK INTER:                  -3.730
REMARK INTRA:                   0.954
REMARK UNBOUND:                 0.437
REMARK SMILES O=C([O-])c1ccccc1C(=O)[O-]
REMARK SMILES IDX 4 1 9 2 5 3 8 4 6 5 7 6 2 7 1 8 3 9 10 10 11 11 12 12
REMARK H PARENT
REMARK Flexibility Score: inf
ROOT
ATOM      1  C   UNL     1       3.614 -37.011  19.183  1.00  0.00     0.006 A 
ATOM      2  C   UNL     1       4.384 -35.816  19.243  1.00  0.00     0.006 A 
ATOM      3  C   UNL     1       3.657 -37.907  20.267  1.00  0.00     0.010 A 
ATOM      4  C   UNL     1       5.115 -35.531  20.411  1.00  0.00     0.010 A 
ATOM      5  C   UNL     1       4.408 -37.615  21.406  1.00  0.00     0.001 A 
ATOM      6  C   UNL     1       5.125 -36.424  21.483  1.00  0.00     0.001 A 
ENDROOT
BRANCH   1   7
ATOM      7  C   UNL     1       2.707 -37.322  18.054  1.00  0.00     0.072 C 
ATOM      8  O   UNL     1       1.467 -37.131  18.166  1.00  0.00    -0.545 OA
ATOM      9  O   UNL     1       3.215 -37.765  16.838  1.00  0.00    -0.545 OA
ENDBRANCH   1   7
BRANCH   2  10
ATOM     10  C   UNL     1       4.510 -34.880  18.101  1.00  0.00     0.072 C 
ATOM     11  O   UNL     1       5.124 -33.788  18.229  1.00  0.00    -0.545 OA
ATOM     12  O   UNL     1       3.891 -35.169  16.891  1.00  0.00    -0.545 OA
ENDBRANCH   2  10
TORSDOF 2
ENDMDL
MODEL 6
REMARK VINA RESULT:    -2.822      0.489      3.052
REMARK INTER + INTRA:          -2.715
REMARK INTER:                  -3.228
REMARK INTRA:                   0.513
REMARK UNBOUND:                 0.437
REMARK SMILES O=C([O-])c1ccccc1C(=O)[O-]
REMARK SMILES IDX 4 1 9 2 5 3 8 4 6 5 7 6 2 7 1 8 3 9 10 10 11 11 12 12
REMARK H PARENT
REMARK Flexibility Score: inf
ROOT
ATOM      1  C   UNL     1       4.594 -37.768  21.729  1.00  0.00     0.006 A 
ATOM      2  C   UNL     1       4.865 -36.700  22.630  1.00  0.00     0.006 A 
ATOM      3  C   UNL     1       4.640 -39.091  22.204  1.00  0.00     0.010 A 
ATOM      4  C   UNL     1       5.107 -36.993  23.986  1.00  0.00     0.010 A 
ATOM      5  C   UNL     1       4.904 -39.360  23.548  1.00  0.00     0.001 A 
ATOM      6  C   UNL     1       5.125 -38.312  24.438  1.00  0.00     0.001 A 
ENDROOT
BRANCH   1   7
ATOM      7  C   UNL     1       4.193 -37.543  20.321  1.00  0.00     0.072 C 
ATOM      8  O   UNL     1       5.062 -37.534  19.409  1.00  0.00    -0.545 OA
ATOM      9  O   UNL     1       2.853 -37.408  19.978  1.00  0.00    -0.545 OA
ENDBRANCH   1   7
BRANCH   2  10
ATOM     10  C   UNL     1       4.974 -35.287  22.197  1.00  0.00     0.072 C 
ATOM     11  O   UNL     1       5.118 -34.996  20.981  1.00  0.00    -0.545 OA
ATOM     12  O   UNL     1       4.986 -34.268  23.142  1.00  0.00    -0.545 OA
ENDBRANCH   2  10
TORSDOF 2
ENDMDL
MODEL 7
REMARK VINA RESULT:    -2.528      3.822      5.043
REMARK INTER + INTRA:          -2.387
REMARK INTER:                  -2.677
REMARK INTRA:                   0.290
REMARK UNBOUND:                 0.437
REMARK SMILES O=C([O-])c1ccccc1C(=O)[O-]
REMARK SMILES IDX 4 1 9 2 5 3 8 4 6 5 7 6 2 7 1 8 3 9 10 10 11 11 12 12
REMARK H PARENT
REMARK Flexibility Score: inf
ROOT
ATOM      1  C   UNL     1       2.780 -37.114  18.913  1.00  0.00     0.006 A 
ATOM      2  C   UNL     1       3.611 -36.390  18.012  1.00  0.00     0.006 A 
ATOM      3  C   UNL     1       3.172 -37.235  20.258  1.00  0.00     0.010 A 
ATOM      4  C   UNL     1       4.768 -35.759  18.506  1.00  0.00     0.010 A 
ATOM      5  C   UNL     1       4.336 -36.619  20.721  1.00  0.00     0.001 A 
ATOM      6  C   UNL     1       5.125 -35.874  19.849  1.00  0.00     0.001 A 
ENDROOT
BRANCH   1   7
ATOM      7  C   UNL     1       1.476 -37.690  18.510  1.00  0.00     0.072 C 
ATOM      8  O   UNL     1       0.998 -38.673  19.136  1.00  0.00    -0.545 OA
ATOM      9  O   UNL     1       0.733 -37.116  17.486  1.00  0.00    -0.545 OA
ENDBRANCH   1   7
BRANCH   2  10
ATOM     10  C   UNL     1       3.354 -36.323  16.554  1.00  0.00     0.072 C 
ATOM     11  O   UNL     1       2.863 -35.286  16.034  1.00  0.00    -0.545 OA
ATOM     12  O   UNL     1       3.591 -37.434  15.753  1.00  0.00    -0.545 OA
ENDBRANCH   2  10
TORSDOF 2
ENDMDL
MODEL 8
REMARK VINA RESULT:    -2.449      3.838      5.081
REMARK INTER + INTRA:          -2.298
REMARK INTER:                  -2.565
REMARK INTRA:                   0.267
REMARK UNBOUND:                 0.437
REMARK SMILES O=C([O-])c1ccccc1C(=O)[O-]
REMARK SMILES IDX 4 1 9 2 5 3 8 4 6 5 7 6 2 7 1 8 3 9 10 10 11 11 12 12
REMARK H PARENT
REMARK Flexibility Score: inf
ROOT
ATOM      1  C   UNL     1       3.579 -36.428  18.014  1.00  0.00     0.006 A 
ATOM      2  C   UNL     1       2.751 -37.126  18.937  1.00  0.00     0.006 A 
ATOM      3  C   UNL     1       4.751 -35.804  18.481  1.00  0.00     0.010 A 
ATOM      4  C   UNL     1       3.160 -37.229  20.281  1.00  0.00     0.010 A 
ATOM      5  C   UNL     1       5.125 -35.901  19.823  1.00  0.00     0.001 A 
ATOM      6  C   UNL     1       4.337 -36.621  20.716  1.00  0.00     0.001 A 
ENDROOT
BRANCH   1   7
ATOM      7  C   UNL     1       3.299 -36.389  16.560  1.00  0.00     0.072 C 
ATOM      8  O   UNL     1       2.870 -35.332  16.026  1.00  0.00    -0.545 OA
ATOM      9  O   UNL     1       3.567 -37.490  15.756  1.00  0.00    -0.545 OA
ENDBRANCH   1   7
BRANCH   2  10
ATOM     10  C   UNL     1       1.434 -37.696  18.569  1.00  0.00     0.072 C 
ATOM     11  O   UNL     1       1.005 -38.739  19.128  1.00  0.00    -0.545 OA
ATOM     12  O   UNL     1       0.687 -37.120  17.548  1.00  0.00    -0.545 OA
ENDBRANCH   2  10
TORSDOF 2
ENDMDL
MODEL 9
REMARK VINA RESULT:    -2.149      2.133      4.224
REMARK INTER + INTRA:          -1.964
REMARK INTER:                  -4.820
REMARK INTRA:                   2.857
REMARK UNBOUND:                 0.437
REMARK SMILES O=C([O-])c1ccccc1C(=O)[O-]
REMARK SMILES IDX 4 1 9 2 5 3 8 4 6 5 7 6 2 7 1 8 3 9 10 10 11 11 12 12
REMARK H PARENT
REMARK Flexibility Score: inf
ROOT
ATOM      1  C   UNL     1       4.827 -37.288  22.211  1.00  0.00     0.006 A 
ATOM      2  C   UNL     1       5.037 -35.884  22.307  1.00  0.00     0.006 A 
ATOM      3  C   UNL     1       4.641 -37.866  20.943  1.00  0.00     0.010 A 
ATOM      4  C   UNL     1       5.119 -35.121  21.126  1.00  0.00     0.010 A 
ATOM      5  C   UNL     1       4.703 -37.087  19.786  1.00  0.00     0.001 A 
ATOM      6  C   UNL     1       4.953 -35.721  19.878  1.00  0.00     0.001 A 
ENDROOT
BRANCH   1   7
ATOM      7  C   UNL     1       4.867 -38.185  23.390  1.00  0.00     0.072 C 
ATOM      8  O   UNL     1       4.670 -37.722  24.544  1.00  0.00    -0.545 OA
ATOM      9  O   UNL     1       5.055 -39.553  23.233  1.00  0.00    -0.545 OA
ENDBRANCH   1   7
BRANCH   2  10
ATOM     10  C   UNL     1       5.108 -35.165  23.601  1.00  0.00     0.072 C 
ATOM     11  O   UNL     1       5.091 -35.797  24.691  1.00  0.00    -0.545 OA
ATOM     12  O   UNL     1       5.125 -33.775  23.627  1.00  0.00    -0.545 OA
ENDBRANCH   2  10
TORSDOF 2
ENDMDL
