MODEL 1
REMARK VINA RESULT:    -3.792      0.000      0.000
REMARK INTER + INTRA:          -5.182
REMARK INTER:                  -4.900
REMARK INTRA:                  -0.282
REMARK UNBOUND:                -0.282
REMARK SMILES CCCCCCC(=O)[O-]
REMARK SMILES IDX 5 1 6 2 7 3 8 4 9 5 4 6 3 7 2 8 1 9
REMARK H PARENT
REMARK Flexibility Score: inf
ROOT
ATOM      1  C   UNL     1      -9.389 -11.214  14.199  1.00  0.00     0.006 C 
ENDROOT
BRANCH   1   2
ATOM      2  C   UNL     1      -8.064 -10.499  13.886  1.00  0.00     0.053 C 
BRANCH   2   3
ATOM      3  C   UNL     1      -6.904 -11.137  14.585  1.00  0.00     0.041 C 
ATOM      4  O   UNL     1      -6.806 -11.074  15.839  1.00  0.00    -0.550 OA
ATOM      5  O   UNL     1      -5.947 -11.829  13.853  1.00  0.00    -0.550 OA
ENDBRANCH   2   3
ENDBRANCH   1   2
BRANCH   1   6
ATOM      6  C   UNL     1      -9.335 -12.745  14.044  1.00  0.00     0.000 C 
BRANCH   6   7
ATOM      7  C   UNL     1      -9.792 -13.488  15.307  1.00  0.00    -0.000 C 
BRANCH   7   8
ATOM      8  C   UNL     1     -10.864 -12.688  16.056  1.00  0.00    -0.003 C 
ATOM      9  C   UNL     1     -12.267 -13.100  15.619  1.00  0.00     0.004 C 
ENDBRANCH   7   8
ENDBRANCH   6   7
ENDBRANCH   1   6
TORSDOF 5
ENDMDL
MODEL 2
REMARK VINA RESULT:    -3.704      1.516      2.005
REMARK INTER + INTRA:          -5.068
REMARK INTER:                  -4.845
REMARK INTRA:                  -0.223
REMARK UNBOUND:                -0.282
REMARK SMILES CCCCCCC(=O)[O-]
REMARK SMILES IDX 5 1 6 2 7 3 8 4 9 5 4 6 3 7 2 8 1 9
REMARK H PARENT
REMARK Flexibility Score: inf
ROOT
ATOM      1  C   UNL     1      -8.698 -12.757  15.916  1.00  0.00     0.006 C 
ENDROOT
BRANCH   1   2
ATOM      2  C   UNL     1      -7.956 -11.650  15.151  1.00  0.00     0.053 C 
BRANCH   2   3
ATOM      3  C   UNL     1      -7.302 -12.169  13.908  1.00  0.00     0.041 C 
ATOM      4  O   UNL     1      -7.989 -12.738  13.020  1.00  0.00    -0.550 OA
ATOM      5  O   UNL     1      -5.937 -11.994  13.717  1.00  0.00    -0.550 OA
ENDBRANCH   2   3
ENDBRANCH   1   2
BRANCH   1   6
ATOM      6  C   UNL     1     -10.226 -12.743  15.727  1.00  0.00     0.000 C 
BRANCH   6   7
ATOM      7  C   UNL     1     -10.745 -13.983  14.983  1.00  0.00    -0.000 C 
BRANCH   7   8
ATOM      8  C   UNL     1     -12.188 -13.773  14.508  1.00  0.00    -0.003 C 
ATOM      9  C   UNL     1     -12.381 -12.375  13.929  1.00  0.00     0.004 C 
ENDBRANCH   7   8
ENDBRANCH   6   7
ENDBRANCH   1   6
TORSDOF 5
ENDMDL
MODEL 3
REMARK VINA RESULT:    -3.652      5.556      7.050
REMARK INTER + INTRA:          -5.000
REMARK INTER:                  -4.717
REMARK INTRA:                  -0.284
REMARK UNBOUND:                -0.282
REMARK SMILES CCCCCCC(=O)[O-]
REMARK SMILES IDX 5 1 6 2 7 3 8 4 9 5 4 6 3 7 2 8 1 9
REMARK H PARENT
REMARK Flexibility Score: inf
ROOT
ATOM      1  C   UNL     1     -14.152 -13.533  13.611  1.00  0.00     0.006 C 
ENDROOT
BRANCH   1   2
ATOM      2  C   UNL     1     -15.105 -12.458  14.156  1.00  0.00     0.053 C 
BRANCH   2   3
ATOM      3  C   UNL     1     -16.415 -13.038  14.591  1.00  0.00     0.041 C 
ATOM      4  O   UNL     1     -17.388 -13.078  13.793  1.00  0.00    -0.550 OA
ATOM      5  O   UNL     1     -16.551 -13.565  15.870  1.00  0.00    -0.550 OA
ENDBRANCH   2   3
ENDBRANCH   1   2
BRANCH   1   6
ATOM      6  C   UNL     1     -13.235 -14.165  14.675  1.00  0.00     0.000 C 
BRANCH   6   7
ATOM      7  C   UNL     1     -12.854 -13.183  15.792  1.00  0.00    -0.000 C 
BRANCH   7   8
ATOM      8  C   UNL     1     -11.350 -12.887  15.773  1.00  0.00    -0.003 C 
ATOM      9  C   UNL     1     -10.573 -14.014  15.099  1.00  0.00     0.004 C 
ENDBRANCH   7   8
ENDBRANCH   6   7
ENDBRANCH   1   6
TORSDOF 5
ENDMDL
MODEL 4
REMARK VINA RESULT:    -3.625      4.111      5.581
REMARK INTER + INTRA:          -4.966
REMARK INTER:                  -4.792
REMARK INTRA:                  -0.174
REMARK UNBOUND:                -0.282
REMARK SMILES CCCCCCC(=O)[O-]
REMARK SMILES IDX 5 1 6 2 7 3 8 4 9 5 4 6 3 7 2 8 1 9
REMARK H PARENT
REMARK Flexibility Score: inf
ROOT
ATOM      1  C   UNL     1     -11.569 -13.774  14.778  1.00  0.00     0.006 C 
ENDROOT
BRANCH   1   2
ATOM      2  C   UNL     1     -13.030 -14.248  14.829  1.00  0.00     0.053 C 
BRANCH   2   3
ATOM      3  C   UNL     1     -13.830 -13.723  13.677  1.00  0.00     0.041 C 
ATOM      4  O   UNL     1     -13.789 -12.500  13.381  1.00  0.00    -0.550 OA
ATOM      5  O   UNL     1     -14.597 -14.591  12.910  1.00  0.00    -0.550 OA
ENDBRANCH   2   3
ENDBRANCH   1   2
BRANCH   1   6
ATOM      6  C   UNL     1     -11.166 -12.837  15.932  1.00  0.00     0.000 C 
BRANCH   6   7
ATOM      7  C   UNL     1      -9.694 -12.407  15.863  1.00  0.00    -0.000 C 
BRANCH   7   8
ATOM      8  C   UNL     1      -9.286 -12.076  14.423  1.00  0.00    -0.003 C 
ATOM      9  C   UNL     1      -8.864 -10.616  14.290  1.00  0.00     0.004 C 
ENDBRANCH   7   8
ENDBRANCH   6   7
ENDBRANCH   1   6
TORSDOF 5
ENDMDL
MODEL 5
REMARK VINA RESULT:    -3.542      2.045      3.330
REMARK INTER + INTRA:          -4.859
REMARK INTER:                  -4.615
REMARK INTRA:                  -0.244
REMARK UNBOUND:                -0.282
REMARK SMILES CCCCCCC(=O)[O-]
REMARK SMILES IDX 5 1 6 2 7 3 8 4 9 5 4 6 3 7 2 8 1 9
REMARK H PARENT
REMARK Flexibility Score: inf
ROOT
ATOM      1  C   UNL     1     -11.153 -12.827  16.030  1.00  0.00     0.006 C 
ENDROOT
BRANCH   1   2
ATOM      2  C   UNL     1     -10.106 -13.522  15.144  1.00  0.00     0.053 C 
BRANCH   2   3
ATOM      3  C   UNL     1      -9.406 -12.556  14.240  1.00  0.00     0.041 C 
ATOM      4  O   UNL     1      -9.392 -11.327  14.514  1.00  0.00    -0.550 OA
ATOM      5  O   UNL     1      -8.741 -13.017  13.111  1.00  0.00    -0.550 OA
ENDBRANCH   2   3
ENDBRANCH   1   2
BRANCH   1   6
ATOM      6  C   UNL     1     -12.612 -13.146  15.657  1.00  0.00     0.000 C 
BRANCH   6   7
ATOM      7  C   UNL     1     -12.729 -14.274  14.622  1.00  0.00    -0.000 C 
BRANCH   7   8
ATOM      8  C   UNL     1     -13.982 -14.099  13.757  1.00  0.00    -0.003 C 
ATOM      9  C   UNL     1     -14.195 -12.634  13.384  1.00  0.00     0.004 C 
ENDBRANCH   7   8
ENDBRANCH   6   7
ENDBRANCH   1   6
TORSDOF 5
ENDMDL
MODEL 6
REMARK VINA RESULT:    -3.540      4.819      6.412
REMARK INTER + INTRA:          -4.856
REMARK INTER:                  -4.556
REMARK INTRA:                  -0.300
REMARK UNBOUND:                -0.282
REMARK SMILES CCCCCCC(=O)[O-]
REMARK SMILES IDX 5 1 6 2 7 3 8 4 9 5 4 6 3 7 2 8 1 9
REMARK H PARENT
REMARK Flexibility Score: inf
ROOT
ATOM      1  C   UNL     1     -13.873 -12.721  13.589  1.00  0.00     0.006 C 
ENDROOT
BRANCH   1   2
ATOM      2  C   UNL     1     -13.565 -13.816  14.623  1.00  0.00     0.053 C 
BRANCH   2   3
ATOM      3  C   UNL     1     -13.135 -13.241  15.937  1.00  0.00     0.041 C 
ATOM      4  O   UNL     1     -13.962 -13.125  16.880  1.00  0.00    -0.550 OA
ATOM      5  O   UNL     1     -11.813 -12.862  16.131  1.00  0.00    -0.550 OA
ENDBRANCH   2   3
ENDBRANCH   1   2
BRANCH   1   6
ATOM      6  C   UNL     1     -15.334 -12.702  13.103  1.00  0.00     0.000 C 
BRANCH   6   7
ATOM      7  C   UNL     1     -16.343 -12.590  14.255  1.00  0.00    -0.000 C 
BRANCH   7   8
ATOM      8  C   UNL     1     -17.330 -13.764  14.236  1.00  0.00    -0.003 C 
ATOM      9  C   UNL     1     -17.353 -14.444  12.870  1.00  0.00     0.004 C 
ENDBRANCH   7   8
ENDBRANCH   6   7
ENDBRANCH   1   6
TORSDOF 5
ENDMDL
MODEL 7
REMARK VINA RESULT:    -3.536      4.094      5.667
REMARK INTER + INTRA:          -4.851
REMARK INTER:                  -4.579
REMARK INTRA:                  -0.272
REMARK UNBOUND:                -0.282
REMARK SMILES CCCCCCC(=O)[O-]
REMARK SMILES IDX 5 1 6 2 7 3 8 4 9 5 4 6 3 7 2 8 1 9
REMARK H PARENT
REMARK Flexibility Score: inf
ROOT
ATOM      1  C   UNL     1     -13.525 -13.468  15.527  1.00  0.00     0.006 C 
ENDROOT
BRANCH   1   2
ATOM      2  C   UNL     1     -14.707 -12.865  14.752  1.00  0.00     0.053 C 
BRANCH   2   3
ATOM      3  C   UNL     1     -14.274 -12.257  13.454  1.00  0.00     0.041 C 
ATOM      4  O   UNL     1     -14.919 -12.488  12.398  1.00  0.00    -0.550 OA
ATOM      5  O   UNL     1     -13.175 -11.407  13.417  1.00  0.00    -0.550 OA
ENDBRANCH   2   3
ENDBRANCH   1   2
BRANCH   1   6
ATOM      6  C   UNL     1     -12.660 -14.443  14.706  1.00  0.00     0.000 C 
BRANCH   6   7
ATOM      7  C   UNL     1     -11.155 -14.185  14.869  1.00  0.00    -0.000 C 
BRANCH   7   8
ATOM      8  C   UNL     1     -10.901 -12.909  15.680  1.00  0.00    -0.003 C 
ATOM      9  C   UNL     1      -9.416 -12.730  15.978  1.00  0.00     0.004 C 
ENDBRANCH   7   8
ENDBRANCH   6   7
ENDBRANCH   1   6
TORSDOF 5
ENDMDL
MODEL 8
REMARK VINA RESULT:    -3.533      4.889      6.053
REMARK INTER + INTRA:          -4.847
REMARK INTER:                  -4.641
REMARK INTRA:                  -0.206
REMARK UNBOUND:                -0.282
REMARK SMILES CCCCCCC(=O)[O-]
REMARK SMILES IDX 5 1 6 2 7 3 8 4 9 5 4 6 3 7 2 8 1 9
REMARK H PARENT
REMARK Flexibility Score: inf
ROOT
ATOM      1  C   UNL     1     -13.091 -11.655  13.826  1.00  0.00     0.006 C 
ENDROOT
BRANCH   1   2
ATOM      2  C   UNL     1     -14.170 -12.031  12.799  1.00  0.00     0.053 C 
BRANCH   2   3
ATOM      3  C   UNL     1     -15.153 -13.015  13.353  1.00  0.00     0.041 C 
ATOM      4  O   UNL     1     -16.127 -12.619  14.045  1.00  0.00    -0.550 OA
ATOM      5  O   UNL     1     -15.011 -14.370  13.076  1.00  0.00    -0.550 OA
ENDBRANCH   2   3
ENDBRANCH   1   2
BRANCH   1   6
ATOM      6  C   UNL     1     -11.967 -12.696  13.975  1.00  0.00     0.000 C 
BRANCH   6   7
ATOM      7  C   UNL     1     -11.762 -13.149  15.427  1.00  0.00    -0.000 C 
BRANCH   7   8
ATOM      8  C   UNL     1     -10.418 -12.651  15.973  1.00  0.00    -0.003 C 
ATOM      9  C   UNL     1      -9.555 -12.061  14.861  1.00  0.00     0.004 C 
ENDBRANCH   7   8
ENDBRANCH   6   7
ENDBRANCH   1   6
TORSDOF 5
ENDMDL
MODEL 9
REMARK VINA RESULT:    -3.520      6.374      7.859
REMARK INTER + INTRA:          -4.831
REMARK INTER:                  -4.564
REMARK INTRA:                  -0.266
REMARK UNBOUND:                -0.282
REMARK SMILES CCCCCCC(=O)[O-]
REMARK SMILES IDX 5 1 6 2 7 3 8 4 9 5 4 6 3 7 2 8 1 9
REMARK H PARENT
REMARK Flexibility Score: inf
ROOT
ATOM      1  C   UNL     1     -14.798 -13.251  15.668  1.00  0.00     0.006 C 
ENDROOT
BRANCH   1   2
ATOM      2  C   UNL     1     -16.198 -13.827  15.935  1.00  0.00     0.053 C 
BRANCH   2   3
ATOM      3  C   UNL     1     -17.063 -13.785  14.714  1.00  0.00     0.041 C 
ATOM      4  O   UNL     1     -17.255 -12.698  14.109  1.00  0.00    -0.550 OA
ATOM      5  O   UNL     1     -17.632 -14.955  14.224  1.00  0.00    -0.550 OA
ENDBRANCH   2   3
ENDBRANCH   1   2
BRANCH   1   6
ATOM      6  C   UNL     1     -14.060 -13.901  14.483  1.00  0.00     0.000 C 
BRANCH   6   7
ATOM      7  C   UNL     1     -12.905 -13.039  13.956  1.00  0.00    -0.000 C 
BRANCH   7   8
ATOM      8  C   UNL     1     -13.424 -11.714  13.386  1.00  0.00    -0.003 C 
ATOM      9  C   UNL     1     -14.458 -11.951  12.289  1.00  0.00     0.004 C 
ENDBRANCH   7   8
ENDBRANCH   6   7
ENDBRANCH   1   6
TORSDOF 5
ENDMDL
