MODEL 1
REMARK VINA RESULT:    -5.035      0.000      0.000
REMARK INTER + INTRA:          -5.353
REMARK INTER:                  -5.329
REMARK INTRA:                  -0.024
REMARK UNBOUND:                -0.024
REMARK SMILES O=C([O-])c1cccnc1
REMARK SMILES IDX 4 1 5 2 9 3 6 4 8 5 7 6 2 7 1 8 3 9
REMARK H PARENT
REMARK Flexibility Score: inf
ROOT
ATOM      1  C   UNL     1      14.987  70.629  74.119  1.00  0.00     0.016 A 
ATOM      2  C   UNL     1      14.080  69.974  74.967  1.00  0.00     0.013 A 
ATOM      3  C   UNL     1      16.077  71.302  74.698  1.00  0.00     0.120 A 
ATOM      4  C   UNL     1      14.269  69.998  76.350  1.00  0.00     0.021 A 
ATOM      5  N   UNL     1      16.239  71.311  76.049  1.00  0.00    -0.264 NA
ATOM      6  C   UNL     1      15.367  70.679  76.878  1.00  0.00     0.111 A 
ENDROOT
BRANCH   1   7
ATOM      7  C   UNL     1      14.796  70.611  72.653  1.00  0.00     0.073 C 
ATOM      8  O   UNL     1      15.630  71.168  71.891  1.00  0.00    -0.545 OA
ATOM      9  O   UNL     1      13.692  69.976  72.094  1.00  0.00    -0.545 OA
ENDBRANCH   1   7
TORSDOF 1
ENDMDL
MODEL 2
REMARK VINA RESULT:    -4.896      2.096      2.689
REMARK INTER + INTRA:          -5.206
REMARK INTER:                  -5.190
REMARK INTRA:                  -0.016
REMARK UNBOUND:                -0.024
REMARK SMILES O=C([O-])c1cccnc1
REMARK SMILES IDX 4 1 5 2 9 3 6 4 8 5 7 6 2 7 1 8 3 9
REMARK H PARENT
REMARK Flexibility Score: inf
ROOT
ATOM      1  C   UNL     1      15.984  71.371  72.955  1.00  0.00     0.016 A 
ATOM      2  C   UNL     1      15.015  70.527  72.390  1.00  0.00     0.013 A 
ATOM      3  C   UNL     1      16.025  71.499  74.355  1.00  0.00     0.120 A 
ATOM      4  C   UNL     1      14.121  69.837  73.211  1.00  0.00     0.021 A 
ATOM      5  N   UNL     1      15.143  70.815  75.133  1.00  0.00    -0.264 NA
ATOM      6  C   UNL     1      14.202  69.995  74.595  1.00  0.00     0.111 A 
ENDROOT
BRANCH   1   7
ATOM      7  C   UNL     1      16.935  72.108  72.096  1.00  0.00     0.073 C 
ATOM      8  O   UNL     1      16.670  73.274  71.699  1.00  0.00    -0.545 OA
ATOM      9  O   UNL     1      18.138  71.523  71.714  1.00  0.00    -0.545 OA
ENDBRANCH   1   7
TORSDOF 1
ENDMDL
MODEL 3
REMARK VINA RESULT:    -4.700      6.614      7.651
REMARK INTER + INTRA:          -4.999
REMARK INTER:                  -4.980
REMARK INTRA:                  -0.019
REMARK UNBOUND:                -0.024
REMARK SMILES O=C([O-])c1cccnc1
REMARK SMILES IDX 4 1 5 2 9 3 6 4 8 5 7 6 2 7 1 8 3 9
REMARK H PARENT
REMARK Flexibility Score: inf
ROOT
ATOM      1  C   UNL     1      21.742  70.753  72.077  1.00  0.00     0.016 A 
ATOM      2  C   UNL     1      22.189  71.996  71.603  1.00  0.00     0.013 A 
ATOM      3  C   UNL     1      22.390  70.189  73.190  1.00  0.00     0.120 A 
ATOM      4  C   UNL     1      23.251  72.646  72.233  1.00  0.00     0.021 A 
ATOM      5  N   UNL     1      23.423  70.843  73.786  1.00  0.00    -0.264 NA
ATOM      6  C   UNL     1      23.862  72.047  73.336  1.00  0.00     0.111 A 
ENDROOT
BRANCH   1   7
ATOM      7  C   UNL     1      20.618  70.055  71.416  1.00  0.00     0.073 C 
ATOM      8  O   UNL     1      19.516  70.639  71.240  1.00  0.00    -0.545 OA
ATOM      9  O   UNL     1      20.763  68.742  70.979  1.00  0.00    -0.545 OA
ENDBRANCH   1   7
TORSDOF 1
ENDMDL
MODEL 4
REMARK VINA RESULT:    -4.698      6.619      7.500
REMARK INTER + INTRA:          -4.996
REMARK INTER:                  -4.972
REMARK INTRA:                  -0.024
REMARK UNBOUND:                -0.024
REMARK SMILES O=C([O-])c1cccnc1
REMARK SMILES IDX 4 1 5 2 9 3 6 4 8 5 7 6 2 7 1 8 3 9
REMARK H PARENT
REMARK Flexibility Score: inf
ROOT
ATOM      1  C   UNL     1      20.613  69.248  77.789  1.00  0.00     0.016 A 
ATOM      2  C   UNL     1      19.963  69.974  76.778  1.00  0.00     0.013 A 
ATOM      3  C   UNL     1      21.975  68.943  77.623  1.00  0.00     0.120 A 
ATOM      4  C   UNL     1      20.666  70.377  75.642  1.00  0.00     0.021 A 
ATOM      5  N   UNL     1      22.638  69.347  76.506  1.00  0.00    -0.264 NA
ATOM      6  C   UNL     1      22.018  70.050  75.523  1.00  0.00     0.111 A 
ENDROOT
BRANCH   1   7
ATOM      7  C   UNL     1      19.877  68.815  78.997  1.00  0.00     0.073 C 
ATOM      8  O   UNL     1      20.485  68.266  79.954  1.00  0.00    -0.545 OA
ATOM      9  O   UNL     1      18.504  69.010  79.093  1.00  0.00    -0.545 OA
ENDBRANCH   1   7
TORSDOF 1
ENDMDL
MODEL 5
REMARK VINA RESULT:    -4.655      7.941      8.857
REMARK INTER + INTRA:          -4.950
REMARK INTER:                  -4.928
REMARK INTRA:                  -0.022
REMARK UNBOUND:                -0.024
REMARK SMILES O=C([O-])c1cccnc1
REMARK SMILES IDX 4 1 5 2 9 3 6 4 8 5 7 6 2 7 1 8 3 9
REMARK H PARENT
REMARK Flexibility Score: inf
ROOT
ATOM      1  C   UNL     1      22.800  71.821  72.716  1.00  0.00     0.016 A 
ATOM      2  C   UNL     1      22.940  72.611  71.564  1.00  0.00     0.013 A 
ATOM      3  C   UNL     1      21.901  70.740  72.681  1.00  0.00     0.120 A 
ATOM      4  C   UNL     1      22.198  72.318  70.419  1.00  0.00     0.021 A 
ATOM      5  N   UNL     1      21.189  70.476  71.552  1.00  0.00    -0.264 NA
ATOM      6  C   UNL     1      21.319  71.234  70.432  1.00  0.00     0.111 A 
ENDROOT
BRANCH   1   7
ATOM      7  C   UNL     1      23.580  72.122  73.936  1.00  0.00     0.073 C 
ATOM      8  O   UNL     1      23.811  71.223  74.787  1.00  0.00    -0.545 OA
ATOM      9  O   UNL     1      24.070  73.404  74.159  1.00  0.00    -0.545 OA
ENDBRANCH   1   7
TORSDOF 1
ENDMDL
MODEL 6
REMARK VINA RESULT:    -4.643     13.061     13.716
REMARK INTER + INTRA:          -4.938
REMARK INTER:                  -4.918
REMARK INTRA:                  -0.020
REMARK UNBOUND:                -0.024
REMARK SMILES O=C([O-])c1cccnc1
REMARK SMILES IDX 4 1 5 2 9 3 6 4 8 5 7 6 2 7 1 8 3 9
REMARK H PARENT
REMARK Flexibility Score: inf
ROOT
ATOM      1  C   UNL     1      12.794  57.059  74.396  1.00  0.00     0.016 A 
ATOM      2  C   UNL     1      12.378  57.623  75.613  1.00  0.00     0.013 A 
ATOM      3  C   UNL     1      13.249  57.919  73.381  1.00  0.00     0.120 A 
ATOM      4  C   UNL     1      12.424  59.006  75.796  1.00  0.00     0.021 A 
ATOM      5  N   UNL     1      13.283  59.264  73.585  1.00  0.00    -0.264 NA
ATOM      6  C   UNL     1      12.884  59.819  74.760  1.00  0.00     0.111 A 
ENDROOT
BRANCH   1   7
ATOM      7  C   UNL     1      12.750  55.595  74.190  1.00  0.00     0.073 C 
ATOM      8  O   UNL     1      11.772  54.919  74.607  1.00  0.00    -0.545 OA
ATOM      9  O   UNL     1      13.787  54.945  73.531  1.00  0.00    -0.545 OA
ENDBRANCH   1   7
TORSDOF 1
ENDMDL
MODEL 7
REMARK VINA RESULT:    -4.602      7.122      8.272
REMARK INTER + INTRA:          -4.895
REMARK INTER:                  -4.875
REMARK INTRA:                  -0.020
REMARK UNBOUND:                -0.024
REMARK SMILES O=C([O-])c1cccnc1
REMARK SMILES IDX 4 1 5 2 9 3 6 4 8 5 7 6 2 7 1 8 3 9
REMARK H PARENT
REMARK Flexibility Score: inf
ROOT
ATOM      1  C   UNL     1      22.135  71.312  72.441  1.00  0.00     0.016 A 
ATOM      2  C   UNL     1      21.480  71.231  71.202  1.00  0.00     0.013 A 
ATOM      3  C   UNL     1      23.192  72.228  72.581  1.00  0.00     0.120 A 
ATOM      4  C   UNL     1      21.880  72.049  70.144  1.00  0.00     0.021 A 
ATOM      5  N   UNL     1      23.563  73.013  71.533  1.00  0.00    -0.264 NA
ATOM      6  C   UNL     1      22.935  72.943  70.331  1.00  0.00     0.111 A 
ENDROOT
BRANCH   1   7
ATOM      7  C   UNL     1      21.720  70.450  73.570  1.00  0.00     0.073 C 
ATOM      8  O   UNL     1      22.580  69.936  74.332  1.00  0.00    -0.545 OA
ATOM      9  O   UNL     1      20.373  70.197  73.805  1.00  0.00    -0.545 OA
ENDBRANCH   1   7
TORSDOF 1
ENDMDL
MODEL 8
REMARK VINA RESULT:    -4.554      2.006      3.206
REMARK INTER + INTRA:          -4.843
REMARK INTER:                  -4.825
REMARK INTRA:                  -0.018
REMARK UNBOUND:                -0.024
REMARK SMILES O=C([O-])c1cccnc1
REMARK SMILES IDX 4 1 5 2 9 3 6 4 8 5 7 6 2 7 1 8 3 9
REMARK H PARENT
REMARK Flexibility Score: inf
ROOT
ATOM      1  C   UNL     1      15.313  70.973  73.829  1.00  0.00     0.016 A 
ATOM      2  C   UNL     1      15.494  71.122  72.444  1.00  0.00     0.013 A 
ATOM      3  C   UNL     1      16.383  71.297  74.681  1.00  0.00     0.120 A 
ATOM      4  C   UNL     1      16.712  71.582  71.941  1.00  0.00     0.021 A 
ATOM      5  N   UNL     1      17.561  71.743  74.165  1.00  0.00    -0.264 NA
ATOM      6  C   UNL     1      17.745  71.891  72.827  1.00  0.00     0.111 A 
ENDROOT
BRANCH   1   7
ATOM      7  C   UNL     1      14.028  70.486  74.373  1.00  0.00     0.073 C 
ATOM      8  O   UNL     1      13.992  69.476  75.124  1.00  0.00    -0.545 OA
ATOM      9  O   UNL     1      12.839  71.139  74.063  1.00  0.00    -0.545 OA
ENDBRANCH   1   7
TORSDOF 1
ENDMDL
MODEL 9
REMARK VINA RESULT:    -4.513      5.532      6.447
REMARK INTER + INTRA:          -4.800
REMARK INTER:                  -4.779
REMARK INTRA:                  -0.021
REMARK UNBOUND:                -0.024
REMARK SMILES O=C([O-])c1cccnc1
REMARK SMILES IDX 4 1 5 2 9 3 6 4 8 5 7 6 2 7 1 8 3 9
REMARK H PARENT
REMARK Flexibility Score: inf
ROOT
ATOM      1  C   UNL     1      20.530  69.782  76.951  1.00  0.00     0.016 A 
ATOM      2  C   UNL     1      21.120  68.940  77.906  1.00  0.00     0.013 A 
ATOM      3  C   UNL     1      19.314  70.411  77.273  1.00  0.00     0.120 A 
ATOM      4  C   UNL     1      20.503  68.741  79.143  1.00  0.00     0.021 A 
ATOM      5  N   UNL     1      18.733  70.200  78.485  1.00  0.00    -0.264 NA
ATOM      6  C   UNL     1      19.297  69.387  79.416  1.00  0.00     0.111 A 
ENDROOT
BRANCH   1   7
ATOM      7  C   UNL     1      21.175  70.000  75.638  1.00  0.00     0.073 C 
ATOM      8  O   UNL     1      20.478  70.175  74.603  1.00  0.00    -0.545 OA
ATOM      9  O   UNL     1      22.561  70.015  75.528  1.00  0.00    -0.545 OA
ENDBRANCH   1   7
TORSDOF 1
ENDMDL
