MODEL 1
REMARK VINA RESULT:    -4.619      0.000      0.000
REMARK INTER + INTRA:          -7.195
REMARK INTER:                  -6.780
REMARK INTRA:                  -0.415
REMARK UNBOUND:                -0.415
REMARK SMILES O=C([O-])CCCCCCCC(=O)[O-]
REMARK SMILES IDX 7 1 6 2 5 3 4 4 2 5 1 6 3 7 8 8 9 9 10 10 11 11 12 12 13 13
REMARK H PARENT
REMARK Flexibility Score: inf
ROOT
ATOM      1  C   UNL     1       7.223 -12.907  -1.470  1.00  0.00     0.000 C 
ENDROOT
BRANCH   1   2
ATOM      2  C   UNL     1       7.661 -13.754  -2.678  1.00  0.00     0.000 C 
BRANCH   2   3
ATOM      3  C   UNL     1       7.139 -13.196  -4.015  1.00  0.00     0.006 C 
BRANCH   3   4
ATOM      4  C   UNL     1       5.606 -13.142  -4.126  1.00  0.00     0.053 C 
BRANCH   4   5
ATOM      5  C   UNL     1       5.135 -11.886  -4.791  1.00  0.00     0.041 C 
ATOM      6  O   UNL     1       5.187 -10.787  -4.180  1.00  0.00    -0.550 OA
ATOM      7  O   UNL     1       4.668 -11.924  -6.099  1.00  0.00    -0.550 OA
ENDBRANCH   4   5
ENDBRANCH   3   4
ENDBRANCH   2   3
ENDBRANCH   1   2
BRANCH   1   8
ATOM      8  C   UNL     1       8.378 -12.634  -0.491  1.00  0.00     0.000 C 
BRANCH   8   9
ATOM      9  C   UNL     1       8.749 -11.143  -0.416  1.00  0.00     0.006 C 
BRANCH   9  10
ATOM     10  C   UNL     1       7.705 -10.325   0.356  1.00  0.00     0.053 C 
BRANCH  10  11
ATOM     11  C   UNL     1       7.237  -9.136  -0.425  1.00  0.00     0.041 C 
ATOM     12  O   UNL     1       6.844  -9.274  -1.614  1.00  0.00    -0.550 OA
ATOM     13  O   UNL     1       7.203  -7.881   0.169  1.00  0.00    -0.550 OA
ENDBRANCH  10  11
ENDBRANCH   9  10
ENDBRANCH   8   9
ENDBRANCH   1   8
TORSDOF 8
ENDMDL
MODEL 2
REMARK VINA RESULT:    -4.538      2.151      5.726
REMARK INTER + INTRA:          -7.076
REMARK INTER:                  -6.747
REMARK INTRA:                  -0.329
REMARK UNBOUND:                -0.415
REMARK SMILES O=C([O-])CCCCCCCC(=O)[O-]
REMARK SMILES IDX 7 1 6 2 5 3 4 4 2 5 1 6 3 7 8 8 9 9 10 10 11 11 12 12 13 13
REMARK H PARENT
REMARK Flexibility Score: inf
ROOT
ATOM      1  C   UNL     1       6.064 -12.422  -4.169  1.00  0.00     0.000 C 
ENDROOT
BRANCH   1   2
ATOM      2  C   UNL     1       7.274 -13.355  -3.989  1.00  0.00     0.000 C 
BRANCH   2   3
ATOM      3  C   UNL     1       7.530 -13.720  -2.514  1.00  0.00     0.006 C 
BRANCH   3   4
ATOM      4  C   UNL     1       6.918 -12.738  -1.502  1.00  0.00     0.053 C 
BRANCH   4   5
ATOM      5  C   UNL     1       7.966 -11.965  -0.764  1.00  0.00     0.041 C 
ATOM      6  O   UNL     1       8.848 -12.568  -0.097  1.00  0.00    -0.550 OA
ATOM      7  O   UNL     1       7.991 -10.578  -0.839  1.00  0.00    -0.550 OA
ENDBRANCH   4   5
ENDBRANCH   3   4
ENDBRANCH   2   3
ENDBRANCH   1   2
BRANCH   1   8
ATOM      8  C   UNL     1       4.964 -13.044  -5.045  1.00  0.00     0.000 C 
BRANCH   8   9
ATOM      9  C   UNL     1       4.101 -11.985  -5.753  1.00  0.00     0.006 C 
BRANCH   9  10
ATOM     10  C   UNL     1       4.948 -11.007  -6.580  1.00  0.00     0.053 C 
BRANCH  10  11
ATOM     11  C   UNL     1       4.177  -9.779  -6.955  1.00  0.00     0.041 C 
ATOM     12  O   UNL     1       4.610  -8.639  -6.640  1.00  0.00    -0.550 OA
ATOM     13  O   UNL     1       2.998  -9.891  -7.680  1.00  0.00    -0.550 OA
ENDBRANCH  10  11
ENDBRANCH   9  10
ENDBRANCH   8   9
ENDBRANCH   1   8
TORSDOF 8
ENDMDL
MODEL 3
REMARK VINA RESULT:    -4.514      2.747      3.919
REMARK INTER + INTRA:          -7.040
REMARK INTER:                  -6.415
REMARK INTRA:                  -0.625
REMARK UNBOUND:                -0.415
REMARK SMILES O=C([O-])CCCCCCCC(=O)[O-]
REMARK SMILES IDX 7 1 6 2 5 3 4 4 2 5 1 6 3 7 8 8 9 9 10 10 11 11 12 12 13 13
REMARK H PARENT
REMARK Flexibility Score: inf
ROOT
ATOM      1  C   UNL     1       5.914 -12.490  -4.197  1.00  0.00     0.000 C 
ENDROOT
BRANCH   1   2
ATOM      2  C   UNL     1       4.954 -13.095  -5.237  1.00  0.00     0.000 C 
BRANCH   2   3
ATOM      3  C   UNL     1       3.550 -13.364  -4.664  1.00  0.00     0.006 C 
BRANCH   3   4
ATOM      4  C   UNL     1       3.463 -13.284  -3.131  1.00  0.00     0.053 C 
BRANCH   4   5
ATOM      5  C   UNL     1       3.217 -14.625  -2.511  1.00  0.00     0.041 C 
ATOM      6  O   UNL     1       2.678 -15.544  -3.181  1.00  0.00    -0.550 OA
ATOM      7  O   UNL     1       3.614 -14.870  -1.202  1.00  0.00    -0.550 OA
ENDBRANCH   4   5
ENDBRANCH   3   4
ENDBRANCH   2   3
ENDBRANCH   1   2
BRANCH   1   8
ATOM      8  C   UNL     1       7.259 -13.232  -4.134  1.00  0.00     0.000 C 
BRANCH   8   9
ATOM      9  C   UNL     1       7.592 -13.735  -2.719  1.00  0.00     0.006 C 
BRANCH   9  10
ATOM     10  C   UNL     1       6.857 -12.937  -1.633  1.00  0.00     0.053 C 
BRANCH  10  11
ATOM     11  C   UNL     1       7.787 -12.043  -0.871  1.00  0.00     0.041 C 
ATOM     12  O   UNL     1       7.628 -10.794  -0.897  1.00  0.00    -0.550 OA
ATOM     13  O   UNL     1       8.808 -12.591  -0.106  1.00  0.00    -0.550 OA
ENDBRANCH  10  11
ENDBRANCH   9  10
ENDBRANCH   8   9
ENDBRANCH   1   8
TORSDOF 8
ENDMDL
MODEL 4
REMARK VINA RESULT:    -4.505      0.665      5.046
REMARK INTER + INTRA:          -7.027
REMARK INTER:                  -6.535
REMARK INTRA:                  -0.491
REMARK UNBOUND:                -0.415
REMARK SMILES O=C([O-])CCCCCCCC(=O)[O-]
REMARK SMILES IDX 7 1 6 2 5 3 4 4 2 5 1 6 3 7 8 8 9 9 10 10 11 11 12 12 13 13
REMARK H PARENT
REMARK Flexibility Score: inf
ROOT
ATOM      1  C   UNL     1       7.278 -12.973  -1.334  1.00  0.00     0.000 C 
ENDROOT
BRANCH   1   2
ATOM      2  C   UNL     1       8.498 -12.666  -0.448  1.00  0.00     0.000 C 
BRANCH   2   3
ATOM      3  C   UNL     1       8.874 -11.172  -0.450  1.00  0.00     0.006 C 
BRANCH   3   4
ATOM      4  C   UNL     1       7.923 -10.278   0.363  1.00  0.00     0.053 C 
BRANCH   4   5
ATOM      5  C   UNL     1       7.283  -9.222  -0.484  1.00  0.00     0.041 C 
ATOM      6  O   UNL     1       7.070  -9.432  -1.707  1.00  0.00    -0.550 OA
ATOM      7  O   UNL     1       6.891  -8.016   0.085  1.00  0.00    -0.550 OA
ENDBRANCH   4   5
ENDBRANCH   3   4
ENDBRANCH   2   3
ENDBRANCH   1   2
BRANCH   1   8
ATOM      8  C   UNL     1       7.653 -13.747  -2.608  1.00  0.00     0.000 C 
BRANCH   8   9
ATOM      9  C   UNL     1       7.331 -12.963  -3.893  1.00  0.00     0.006 C 
BRANCH   9  10
ATOM     10  C   UNL     1       5.988 -12.227  -3.800  1.00  0.00     0.053 C 
BRANCH  10  11
ATOM     11  C   UNL     1       5.241 -12.259  -5.098  1.00  0.00     0.041 C 
ATOM     12  O   UNL     1       4.650 -13.310  -5.463  1.00  0.00    -0.550 OA
ATOM     13  O   UNL     1       5.172 -11.120  -5.890  1.00  0.00    -0.550 OA
ENDBRANCH  10  11
ENDBRANCH   9  10
ENDBRANCH   8   9
ENDBRANCH   1   8
TORSDOF 8
ENDMDL
MODEL 5
REMARK VINA RESULT:    -4.501      1.753      2.822
REMARK INTER + INTRA:          -7.022
REMARK INTER:                  -6.697
REMARK INTRA:                  -0.325
REMARK UNBOUND:                -0.415
REMARK SMILES O=C([O-])CCCCCCCC(=O)[O-]
REMARK SMILES IDX 7 1 6 2 5 3 4 4 2 5 1 6 3 7 8 8 9 9 10 10 11 11 12 12 13 13
REMARK H PARENT
REMARK Flexibility Score: inf
ROOT
ATOM      1  C   UNL     1       6.670 -13.051  -4.391  1.00  0.00     0.000 C 
ENDROOT
BRANCH   1   2
ATOM      2  C   UNL     1       5.151 -13.269  -4.283  1.00  0.00     0.000 C 
BRANCH   2   3
ATOM      3  C   UNL     1       4.373 -12.618  -5.443  1.00  0.00     0.006 C 
BRANCH   3   4
ATOM      4  C   UNL     1       5.094 -11.431  -6.104  1.00  0.00     0.053 C 
BRANCH   4   5
ATOM      5  C   UNL     1       4.132 -10.457  -6.711  1.00  0.00     0.041 C 
ATOM      6  O   UNL     1       4.540  -9.346  -7.139  1.00  0.00    -0.550 OA
ATOM      7  O   UNL     1       2.789 -10.791  -6.835  1.00  0.00    -0.550 OA
ENDBRANCH   4   5
ENDBRANCH   3   4
ENDBRANCH   2   3
ENDBRANCH   1   2
BRANCH   1   8
ATOM      8  C   UNL     1       7.419 -13.482  -3.119  1.00  0.00     0.000 C 
BRANCH   8   9
ATOM      9  C   UNL     1       6.892 -12.779  -1.855  1.00  0.00     0.006 C 
BRANCH   9  10
ATOM     10  C   UNL     1       7.974 -12.642  -0.775  1.00  0.00     0.053 C 
BRANCH  10  11
ATOM     11  C   UNL     1       8.368 -11.214  -0.557  1.00  0.00     0.041 C 
ATOM     12  O   UNL     1       7.747 -10.288  -1.145  1.00  0.00    -0.550 OA
ATOM     13  O   UNL     1       9.400 -10.902   0.318  1.00  0.00    -0.550 OA
ENDBRANCH  10  11
ENDBRANCH   9  10
ENDBRANCH   8   9
ENDBRANCH   1   8
TORSDOF 8
ENDMDL
MODEL 6
REMARK VINA RESULT:    -4.482      1.851      5.376
REMARK INTER + INTRA:          -6.994
REMARK INTER:                  -6.468
REMARK INTRA:                  -0.526
REMARK UNBOUND:                -0.415
REMARK SMILES O=C([O-])CCCCCCCC(=O)[O-]
REMARK SMILES IDX 7 1 6 2 5 3 4 4 2 5 1 6 3 7 8 8 9 9 10 10 11 11 12 12 13 13
REMARK H PARENT
REMARK Flexibility Score: inf
ROOT
ATOM      1  C   UNL     1       7.192 -13.350  -3.150  1.00  0.00     0.000 C 
ENDROOT
BRANCH   1   2
ATOM      2  C   UNL     1       6.155 -13.305  -2.014  1.00  0.00     0.000 C 
BRANCH   2   3
ATOM      3  C   UNL     1       6.210 -11.993  -1.210  1.00  0.00     0.006 C 
BRANCH   3   4
ATOM      4  C   UNL     1       7.541 -11.232  -1.328  1.00  0.00     0.053 C 
BRANCH   4   5
ATOM      5  C   UNL     1       8.462 -11.530  -0.185  1.00  0.00     0.041 C 
ATOM      6  O   UNL     1       8.584 -10.709   0.762  1.00  0.00    -0.550 OA
ATOM      7  O   UNL     1       9.161 -12.730  -0.149  1.00  0.00    -0.550 OA
ENDBRANCH   4   5
ENDBRANCH   3   4
ENDBRANCH   2   3
ENDBRANCH   1   2
BRANCH   1   8
ATOM      8  C   UNL     1       6.553 -13.185  -4.539  1.00  0.00     0.000 C 
BRANCH   8   9
ATOM      9  C   UNL     1       5.017 -13.280  -4.499  1.00  0.00     0.006 C 
BRANCH   9  10
ATOM     10  C   UNL     1       4.361 -12.540  -5.673  1.00  0.00     0.053 C 
BRANCH  10  11
ATOM     11  C   UNL     1       4.624 -11.066  -5.622  1.00  0.00     0.041 C 
ATOM     12  O   UNL     1       4.582 -10.453  -4.523  1.00  0.00    -0.550 OA
ATOM     13  O   UNL     1       4.946 -10.376  -6.783  1.00  0.00    -0.550 OA
ENDBRANCH  10  11
ENDBRANCH   9  10
ENDBRANCH   8   9
ENDBRANCH   1   8
TORSDOF 8
ENDMDL
MODEL 7
REMARK VINA RESULT:    -4.476      1.540      2.675
REMARK INTER + INTRA:          -6.985
REMARK INTER:                  -6.561
REMARK INTRA:                  -0.424
REMARK UNBOUND:                -0.415
REMARK SMILES O=C([O-])CCCCCCCC(=O)[O-]
REMARK SMILES IDX 7 1 6 2 5 3 4 4 2 5 1 6 3 7 8 8 9 9 10 10 11 11 12 12 13 13
REMARK H PARENT
REMARK Flexibility Score: inf
ROOT
ATOM      1  C   UNL     1       7.009 -13.218  -4.159  1.00  0.00     0.000 C 
ENDROOT
BRANCH   1   2
ATOM      2  C   UNL     1       5.529 -12.836  -3.974  1.00  0.00     0.000 C 
BRANCH   2   3
ATOM      3  C   UNL     1       4.708 -12.992  -5.267  1.00  0.00     0.006 C 
BRANCH   3   4
ATOM      4  C   UNL     1       4.618 -11.716  -6.120  1.00  0.00     0.053 C 
BRANCH   4   5
ATOM      5  C   UNL     1       3.911 -10.609  -5.401  1.00  0.00     0.041 C 
ATOM      6  O   UNL     1       2.724 -10.762  -5.011  1.00  0.00    -0.550 OA
ATOM      7  O   UNL     1       4.574  -9.418  -5.133  1.00  0.00    -0.550 OA
ENDBRANCH   4   5
ENDBRANCH   3   4
ENDBRANCH   2   3
ENDBRANCH   1   2
BRANCH   1   8
ATOM      8  C   UNL     1       7.648 -13.745  -2.864  1.00  0.00     0.000 C 
BRANCH   8   9
ATOM      9  C   UNL     1       7.082 -13.065  -1.604  1.00  0.00     0.006 C 
BRANCH   9  10
ATOM     10  C   UNL     1       8.190 -12.603  -0.649  1.00  0.00     0.053 C 
BRANCH  10  11
ATOM     11  C   UNL     1       8.349 -11.113  -0.656  1.00  0.00     0.041 C 
ATOM     12  O   UNL     1       9.023 -10.544   0.244  1.00  0.00    -0.550 OA
ATOM     13  O   UNL     1       7.780 -10.357  -1.672  1.00  0.00    -0.550 OA
ENDBRANCH  10  11
ENDBRANCH   9  10
ENDBRANCH   8   9
ENDBRANCH   1   8
TORSDOF 8
ENDMDL
MODEL 8
REMARK VINA RESULT:    -4.471      2.175      5.790
REMARK INTER + INTRA:          -6.978
REMARK INTER:                  -6.635
REMARK INTRA:                  -0.343
REMARK UNBOUND:                -0.415
REMARK SMILES O=C([O-])CCCCCCCC(=O)[O-]
REMARK SMILES IDX 7 1 6 2 5 3 4 4 2 5 1 6 3 7 8 8 9 9 10 10 11 11 12 12 13 13
REMARK H PARENT
REMARK Flexibility Score: inf
ROOT
ATOM      1  C   UNL     1       6.104 -12.359  -4.406  1.00  0.00     0.000 C 
ENDROOT
BRANCH   1   2
ATOM      2  C   UNL     1       7.264 -13.346  -4.189  1.00  0.00     0.000 C 
BRANCH   2   3
ATOM      3  C   UNL     1       7.511 -13.656  -2.700  1.00  0.00     0.006 C 
BRANCH   3   4
ATOM      4  C   UNL     1       6.814 -12.692  -1.727  1.00  0.00     0.053 C 
BRANCH   4   5
ATOM      5  C   UNL     1       7.796 -11.896  -0.923  1.00  0.00     0.041 C 
ATOM      6  O   UNL     1       7.801 -10.639  -0.990  1.00  0.00    -0.550 OA
ATOM      7  O   UNL     1       8.686 -12.543  -0.074  1.00  0.00    -0.550 OA
ENDBRANCH   4   5
ENDBRANCH   3   4
ENDBRANCH   2   3
ENDBRANCH   1   2
BRANCH   1   8
ATOM      8  C   UNL     1       4.885 -13.019  -5.072  1.00  0.00     0.000 C 
BRANCH   8   9
ATOM      9  C   UNL     1       3.953 -11.996  -5.745  1.00  0.00     0.006 C 
BRANCH   9  10
ATOM     10  C   UNL     1       4.718 -10.773  -6.268  1.00  0.00     0.053 C 
BRANCH  10  11
ATOM     11  C   UNL     1       3.895  -9.964  -7.224  1.00  0.00     0.041 C 
ATOM     12  O   UNL     1       2.686 -10.257  -7.422  1.00  0.00    -0.550 OA
ATOM     13  O   UNL     1       4.453  -8.869  -7.870  1.00  0.00    -0.550 OA
ENDBRANCH  10  11
ENDBRANCH   9  10
ENDBRANCH   8   9
ENDBRANCH   1   8
TORSDOF 8
ENDMDL
MODEL 9
REMARK VINA RESULT:    -4.384      2.876      5.952
REMARK INTER + INTRA:          -6.849
REMARK INTER:                  -6.294
REMARK INTRA:                  -0.555
REMARK UNBOUND:                -0.415
REMARK SMILES O=C([O-])CCCCCCCC(=O)[O-]
REMARK SMILES IDX 7 1 6 2 5 3 4 4 2 5 1 6 3 7 8 8 9 9 10 10 11 11 12 12 13 13
REMARK H PARENT
REMARK Flexibility Score: inf
ROOT
ATOM      1  C   UNL     1       5.788 -12.519  -4.133  1.00  0.00     0.000 C 
ENDROOT
BRANCH   1   2
ATOM      2  C   UNL     1       7.187 -13.158  -4.148  1.00  0.00     0.000 C 
BRANCH   2   3
ATOM      3  C   UNL     1       7.588 -13.746  -2.781  1.00  0.00     0.006 C 
BRANCH   3   4
ATOM      4  C   UNL     1       6.933 -13.052  -1.576  1.00  0.00     0.053 C 
BRANCH   4   5
ATOM      5  C   UNL     1       7.872 -12.104  -0.895  1.00  0.00     0.041 C 
ATOM      6  O   UNL     1       8.710 -12.531  -0.059  1.00  0.00    -0.550 OA
ATOM      7  O   UNL     1       7.843 -10.751  -1.210  1.00  0.00    -0.550 OA
ENDBRANCH   4   5
ENDBRANCH   3   4
ENDBRANCH   2   3
ENDBRANCH   1   2
BRANCH   1   8
ATOM      8  C   UNL     1       4.885 -13.047  -5.259  1.00  0.00     0.000 C 
BRANCH   8   9
ATOM      9  C   UNL     1       3.601 -13.708  -4.728  1.00  0.00     0.006 C 
BRANCH   9  10
ATOM     10  C   UNL     1       3.658 -13.946  -3.213  1.00  0.00     0.053 C 
BRANCH  10  11
ATOM     11  C   UNL     1       2.656 -14.968  -2.769  1.00  0.00     0.041 C 
ATOM     12  O   UNL     1       2.191 -14.931  -1.599  1.00  0.00    -0.550 OA
ATOM     13  O   UNL     1       2.212 -15.939  -3.656  1.00  0.00    -0.550 OA
ENDBRANCH  10  11
ENDBRANCH   9  10
ENDBRANCH   8   9
ENDBRANCH   1   8
TORSDOF 8
ENDMDL
