MODEL 1
REMARK VINA RESULT:    -6.158      0.000      0.000
REMARK INTER + INTRA:         -11.432
REMARK INTER:                  -9.397
REMARK INTRA:                  -2.035
REMARK UNBOUND:                -2.035
REMARK SMILES CC(=O)CCC=C(C)CCC=C(C)CCC=C(C)C
REMARK SMILES IDX 10 1 11 2 12 3 13 4 14 5 15 6 16 7 18 8 17 9 19 10 9 11 7 12
REMARK SMILES IDX 6 13 8 14 5 15 4 16 2 17 3 18 1 19
REMARK H PARENT
REMARK Flexibility Score: inf
ROOT
ATOM      1  C   UNL     1      10.102 -16.506 -29.600  1.00  0.00     0.032 C 
ENDROOT
BRANCH   1   2
ATOM      2  C   UNL     1      11.376 -16.251 -28.829  1.00  0.00    -0.028 C 
ATOM      3  C   UNL     1      11.727 -16.872 -27.680  1.00  0.00    -0.077 C 
ATOM      4  C   UNL     1      10.878 -17.957 -27.063  1.00  0.00     0.039 C 
BRANCH   3   5
ATOM      5  C   UNL     1      13.009 -16.465 -26.989  1.00  0.00     0.034 C 
BRANCH   5   6
ATOM      6  C   UNL     1      14.107 -16.157 -28.014  1.00  0.00     0.032 C 
BRANCH   6   7
ATOM      7  C   UNL     1      14.531 -14.713 -27.926  1.00  0.00    -0.028 C 
ATOM      8  C   UNL     1      15.167 -14.584 -30.345  1.00  0.00     0.039 C 
ATOM      9  C   UNL     1      15.032 -13.999 -28.959  1.00  0.00    -0.080 C 
ATOM     10  C   UNL     1      15.451 -12.573 -28.710  1.00  0.00     0.039 C 
ENDBRANCH   6   7
ENDBRANCH   5   6
ENDBRANCH   3   5
ENDBRANCH   1   2
BRANCH   1  11
ATOM     11  C   UNL     1      10.346 -17.488 -30.754  1.00  0.00     0.034 C 
BRANCH  11  12
ATOM     12  C   UNL     1      10.907 -16.793 -31.982  1.00  0.00    -0.077 C 
ATOM     13  C   UNL     1      12.217 -16.826 -32.322  1.00  0.00    -0.028 C 
ATOM     14  C   UNL     1       9.963 -16.027 -32.873  1.00  0.00     0.039 C 
BRANCH  13  15
ATOM     15  C   UNL     1      13.314 -17.542 -31.561  1.00  0.00     0.035 C 
BRANCH  15  16
ATOM     16  C   UNL     1      13.434 -19.010 -31.989  1.00  0.00     0.079 C 
BRANCH  16  17
ATOM     17  C   UNL     1      13.133 -19.959 -30.858  1.00  0.00     0.130 C 
ATOM     18  O   UNL     1      12.566 -21.015 -31.090  1.00  0.00    -0.300 OA
ATOM     19  C   UNL     1      13.548 -19.641 -29.453  1.00  0.00     0.087 C 
ENDBRANCH  16  17
ENDBRANCH  15  16
ENDBRANCH  13  15
ENDBRANCH  11  12
ENDBRANCH   1  11
TORSDOF 9
ENDMDL
MODEL 2
REMARK VINA RESULT:    -6.002      1.399      2.920
REMARK INTER + INTRA:         -11.194
REMARK INTER:                  -8.669
REMARK INTRA:                  -2.526
REMARK UNBOUND:                -2.035
REMARK SMILES CC(=O)CCC=C(C)CCC=C(C)CCC=C(C)C
REMARK SMILES IDX 10 1 11 2 12 3 13 4 14 5 15 6 16 7 18 8 17 9 19 10 9 11 7 12
REMARK SMILES IDX 6 13 8 14 5 15 4 16 2 17 3 18 1 19
REMARK H PARENT
REMARK Flexibility Score: inf
ROOT
ATOM      1  C   UNL     1       9.556 -18.577 -32.864  1.00  0.00     0.032 C 
ENDROOT
BRANCH   1   2
ATOM      2  C   UNL     1       9.867 -18.547 -31.386  1.00  0.00    -0.028 C 
ATOM      3  C   UNL     1       9.715 -17.472 -30.580  1.00  0.00    -0.077 C 
ATOM      4  C   UNL     1       9.148 -16.166 -31.085  1.00  0.00     0.039 C 
BRANCH   3   5
ATOM      5  C   UNL     1      10.129 -17.578 -29.130  1.00  0.00     0.034 C 
BRANCH   5   6
ATOM      6  C   UNL     1      11.005 -16.388 -28.724  1.00  0.00     0.032 C 
BRANCH   6   7
ATOM      7  C   UNL     1      12.012 -16.797 -27.679  1.00  0.00    -0.028 C 
ATOM      8  C   UNL     1      13.767 -15.222 -28.522  1.00  0.00     0.039 C 
ATOM      9  C   UNL     1      13.266 -16.300 -27.590  1.00  0.00    -0.080 C 
ATOM     10  C   UNL     1      14.176 -16.835 -26.515  1.00  0.00     0.039 C 
ENDBRANCH   6   7
ENDBRANCH   5   6
ENDBRANCH   3   5
ENDBRANCH   1   2
BRANCH   1  11
ATOM     11  C   UNL     1      10.843 -18.541 -33.698  1.00  0.00     0.034 C 
BRANCH  11  12
ATOM     12  C   UNL     1      11.460 -17.154 -33.730  1.00  0.00    -0.077 C 
ATOM     13  C   UNL     1      12.686 -16.872 -33.227  1.00  0.00    -0.028 C 
ATOM     14  C   UNL     1      10.675 -16.028 -34.353  1.00  0.00     0.039 C 
BRANCH  13  15
ATOM     15  C   UNL     1      13.623 -17.863 -32.569  1.00  0.00     0.035 C 
BRANCH  15  16
ATOM     16  C   UNL     1      13.397 -17.936 -31.053  1.00  0.00     0.079 C 
BRANCH  16  17
ATOM     17  C   UNL     1      13.298 -19.356 -30.559  1.00  0.00     0.130 C 
ATOM     18  O   UNL     1      12.932 -20.236 -31.322  1.00  0.00    -0.300 OA
ATOM     19  C   UNL     1      13.675 -19.712 -29.153  1.00  0.00     0.087 C 
ENDBRANCH  16  17
ENDBRANCH  15  16
ENDBRANCH  13  15
ENDBRANCH  11  12
ENDBRANCH   1  11
TORSDOF 9
ENDMDL
MODEL 3
REMARK VINA RESULT:    -5.712      5.021      7.102
REMARK INTER + INTRA:         -10.753
REMARK INTER:                  -9.697
REMARK INTRA:                  -1.056
REMARK UNBOUND:                -2.035
REMARK SMILES CC(=O)CCC=C(C)CCC=C(C)CCC=C(C)C
REMARK SMILES IDX 10 1 11 2 12 3 13 4 14 5 15 6 16 7 18 8 17 9 19 10 9 11 7 12
REMARK SMILES IDX 6 13 8 14 5 15 4 16 2 17 3 18 1 19
REMARK H PARENT
REMARK Flexibility Score: inf
ROOT
ATOM      1  C   UNL     1       9.423 -14.820 -33.915  1.00  0.00     0.032 C 
ENDROOT
BRANCH   1   2
ATOM      2  C   UNL     1       9.350 -14.930 -32.410  1.00  0.00    -0.028 C 
ATOM      3  C   UNL     1       9.834 -15.961 -31.681  1.00  0.00    -0.077 C 
ATOM      4  C   UNL     1      10.568 -17.118 -32.316  1.00  0.00     0.039 C 
BRANCH   3   5
ATOM      5  C   UNL     1       9.631 -15.958 -30.182  1.00  0.00     0.034 C 
BRANCH   5   6
ATOM      6  C   UNL     1      10.657 -16.864 -29.491  1.00  0.00     0.032 C 
BRANCH   6   7
ATOM      7  C   UNL     1      11.680 -16.043 -28.748  1.00  0.00    -0.028 C 
ATOM      8  C   UNL     1      13.571 -16.774 -30.219  1.00  0.00     0.039 C 
ATOM      9  C   UNL     1      12.998 -16.011 -29.048  1.00  0.00    -0.080 C 
ATOM     10  C   UNL     1      13.910 -15.172 -28.191  1.00  0.00     0.039 C 
ENDBRANCH   6   7
ENDBRANCH   5   6
ENDBRANCH   3   5
ENDBRANCH   1   2
BRANCH   1  11
ATOM     11  C   UNL     1       9.399 -13.352 -34.360  1.00  0.00     0.034 C 
BRANCH  11  12
ATOM     12  C   UNL     1      10.572 -13.013 -35.262  1.00  0.00    -0.077 C 
ATOM     13  C   UNL     1      10.864 -11.752 -35.661  1.00  0.00    -0.028 C 
ATOM     14  C   UNL     1      11.463 -14.130 -35.740  1.00  0.00     0.039 C 
BRANCH  13  15
ATOM     15  C   UNL     1      10.094 -10.502 -35.286  1.00  0.00     0.035 C 
BRANCH  15  16
ATOM     16  C   UNL     1      10.701  -9.811 -34.058  1.00  0.00     0.079 C 
BRANCH  16  17
ATOM     17  C   UNL     1      10.573  -8.311 -34.129  1.00  0.00     0.130 C 
ATOM     18  O   UNL     1      10.068  -7.794 -35.113  1.00  0.00    -0.300 OA
ATOM     19  C   UNL     1      11.024  -7.444 -32.993  1.00  0.00     0.087 C 
ENDBRANCH  16  17
ENDBRANCH  15  16
ENDBRANCH  13  15
ENDBRANCH  11  12
ENDBRANCH   1  11
TORSDOF 9
ENDMDL
MODEL 4
REMARK VINA RESULT:    -5.569      2.020      5.209
REMARK INTER + INTRA:         -10.534
REMARK INTER:                  -8.087
REMARK INTRA:                  -2.448
REMARK UNBOUND:                -2.035
REMARK SMILES CC(=O)CCC=C(C)CCC=C(C)CCC=C(C)C
REMARK SMILES IDX 10 1 11 2 12 3 13 4 14 5 15 6 16 7 18 8 17 9 19 10 9 11 7 12
REMARK SMILES IDX 6 13 8 14 5 15 4 16 2 17 3 18 1 19
REMARK H PARENT
REMARK Flexibility Score: inf
ROOT
ATOM      1  C   UNL     1       9.354 -16.138 -32.196  1.00  0.00     0.032 C 
ENDROOT
BRANCH   1   2
ATOM      2  C   UNL     1      10.853 -16.182 -32.386  1.00  0.00    -0.028 C 
ATOM      3  C   UNL     1      11.491 -16.818 -33.395  1.00  0.00    -0.077 C 
ATOM      4  C   UNL     1      10.740 -17.523 -34.499  1.00  0.00     0.039 C 
BRANCH   3   5
ATOM      5  C   UNL     1      13.003 -16.825 -33.417  1.00  0.00     0.034 C 
BRANCH   5   6
ATOM      6  C   UNL     1      13.564 -17.450 -32.135  1.00  0.00     0.032 C 
BRANCH   6   7
ATOM      7  C   UNL     1      13.022 -18.843 -31.938  1.00  0.00    -0.028 C 
ATOM      8  C   UNL     1      13.985 -19.067 -29.637  1.00  0.00     0.039 C 
ATOM      9  C   UNL     1      13.223 -19.592 -30.831  1.00  0.00    -0.080 C 
ATOM     10  C   UNL     1      12.652 -20.986 -30.793  1.00  0.00     0.039 C 
ENDBRANCH   6   7
ENDBRANCH   5   6
ENDBRANCH   3   5
ENDBRANCH   1   2
BRANCH   1  11
ATOM     11  C   UNL     1       8.977 -16.426 -30.736  1.00  0.00     0.034 C 
BRANCH  11  12
ATOM     12  C   UNL     1       9.619 -17.703 -30.226  1.00  0.00    -0.077 C 
ATOM     13  C   UNL     1      10.593 -17.720 -29.284  1.00  0.00    -0.028 C 
ATOM     14  C   UNL     1       9.154 -19.021 -30.788  1.00  0.00     0.039 C 
BRANCH  13  15
ATOM     15  C   UNL     1      11.188 -16.507 -28.600  1.00  0.00     0.035 C 
BRANCH  15  16
ATOM     16  C   UNL     1      12.088 -16.905 -27.423  1.00  0.00     0.079 C 
BRANCH  16  17
ATOM     17  C   UNL     1      13.405 -16.173 -27.441  1.00  0.00     0.130 C 
ATOM     18  O   UNL     1      14.184 -16.309 -26.511  1.00  0.00    -0.300 OA
ATOM     19  C   UNL     1      13.789 -15.304 -28.600  1.00  0.00     0.087 C 
ENDBRANCH  16  17
ENDBRANCH  15  16
ENDBRANCH  13  15
ENDBRANCH  11  12
ENDBRANCH   1  11
TORSDOF 9
ENDMDL
MODEL 5
REMARK VINA RESULT:    -5.538      2.620      6.228
REMARK INTER + INTRA:         -10.486
REMARK INTER:                  -8.555
REMARK INTRA:                  -1.931
REMARK UNBOUND:                -2.035
REMARK SMILES CC(=O)CCC=C(C)CCC=C(C)CCC=C(C)C
REMARK SMILES IDX 10 1 11 2 12 3 13 4 14 5 15 6 16 7 18 8 17 9 19 10 9 11 7 12
REMARK SMILES IDX 6 13 8 14 5 15 4 16 2 17 3 18 1 19
REMARK H PARENT
REMARK Flexibility Score: inf
ROOT
ATOM      1  C   UNL     1      12.494 -19.927 -31.304  1.00  0.00     0.032 C 
ENDROOT
BRANCH   1   2
ATOM      2  C   UNL     1      11.795 -18.930 -32.199  1.00  0.00    -0.028 C 
ATOM      3  C   UNL     1      12.224 -17.671 -32.446  1.00  0.00    -0.077 C 
ATOM      4  C   UNL     1      13.518 -17.139 -31.877  1.00  0.00     0.039 C 
BRANCH   3   5
ATOM      5  C   UNL     1      11.382 -16.767 -33.318  1.00  0.00     0.034 C 
BRANCH   5   6
ATOM      6  C   UNL     1      12.224 -16.157 -34.444  1.00  0.00     0.032 C 
BRANCH   6   7
ATOM      7  C   UNL     1      11.342 -15.494 -35.472  1.00  0.00    -0.028 C 
ATOM      8  C   UNL     1      11.280 -17.510 -36.956  1.00  0.00     0.039 C 
ATOM      9  C   UNL     1      10.929 -16.080 -36.617  1.00  0.00    -0.080 C 
ATOM     10  C   UNL     1      10.080 -15.278 -37.570  1.00  0.00     0.039 C 
ENDBRANCH   6   7
ENDBRANCH   5   6
ENDBRANCH   3   5
ENDBRANCH   1   2
BRANCH   1  11
ATOM     11  C   UNL     1      11.923 -19.883 -29.881  1.00  0.00     0.034 C 
BRANCH  11  12
ATOM     12  C   UNL     1      12.885 -19.233 -28.903  1.00  0.00    -0.077 C 
ATOM     13  C   UNL     1      12.551 -18.180 -28.119  1.00  0.00    -0.028 C 
ATOM     14  C   UNL     1      14.283 -19.783 -28.791  1.00  0.00     0.039 C 
BRANCH  13  15
ATOM     15  C   UNL     1      11.202 -17.492 -28.084  1.00  0.00     0.035 C 
BRANCH  15  16
ATOM     16  C   UNL     1      11.138 -16.320 -29.071  1.00  0.00     0.079 C 
BRANCH  16  17
ATOM     17  C   UNL     1       9.841 -16.292 -29.838  1.00  0.00     0.130 C 
ATOM     18  O   UNL     1       9.348 -17.338 -30.228  1.00  0.00    -0.300 OA
ATOM     19  C   UNL     1       9.128 -15.000 -30.102  1.00  0.00     0.087 C 
ENDBRANCH  16  17
ENDBRANCH  15  16
ENDBRANCH  13  15
ENDBRANCH  11  12
ENDBRANCH   1  11
TORSDOF 9
ENDMDL
MODEL 6
REMARK VINA RESULT:    -5.469      2.172      5.720
REMARK INTER + INTRA:         -10.381
REMARK INTER:                  -8.254
REMARK INTRA:                  -2.128
REMARK UNBOUND:                -2.035
REMARK SMILES CC(=O)CCC=C(C)CCC=C(C)CCC=C(C)C
REMARK SMILES IDX 10 1 11 2 12 3 13 4 14 5 15 6 16 7 18 8 17 9 19 10 9 11 7 12
REMARK SMILES IDX 6 13 8 14 5 15 4 16 2 17 3 18 1 19
REMARK H PARENT
REMARK Flexibility Score: inf
ROOT
ATOM      1  C   UNL     1      13.276 -19.275 -31.526  1.00  0.00     0.032 C 
ENDROOT
BRANCH   1   2
ATOM      2  C   UNL     1      12.446 -18.470 -32.499  1.00  0.00    -0.028 C 
ATOM      3  C   UNL     1      12.759 -17.235 -32.953  1.00  0.00    -0.077 C 
ATOM      4  C   UNL     1      14.040 -16.538 -32.561  1.00  0.00     0.039 C 
BRANCH   3   5
ATOM      5  C   UNL     1      11.795 -16.529 -33.880  1.00  0.00     0.034 C 
BRANCH   5   6
ATOM      6  C   UNL     1      10.350 -16.706 -33.401  1.00  0.00     0.032 C 
BRANCH   6   7
ATOM      7  C   UNL     1      10.093 -15.886 -32.162  1.00  0.00    -0.028 C 
ATOM      8  C   UNL     1       9.148 -17.820 -30.882  1.00  0.00     0.039 C 
ATOM      9  C   UNL     1       9.532 -16.366 -31.031  1.00  0.00    -0.080 C 
ATOM     10  C   UNL     1       9.301 -15.416 -29.884  1.00  0.00     0.039 C 
ENDBRANCH   6   7
ENDBRANCH   5   6
ENDBRANCH   3   5
ENDBRANCH   1   2
BRANCH   1  11
ATOM     11  C   UNL     1      12.385 -19.967 -30.485  1.00  0.00     0.034 C 
BRANCH  11  12
ATOM     12  C   UNL     1      12.997 -19.924 -29.097  1.00  0.00    -0.077 C 
ATOM     13  C   UNL     1      12.673 -18.991 -28.169  1.00  0.00    -0.028 C 
ATOM     14  C   UNL     1      14.014 -20.970 -28.723  1.00  0.00     0.039 C 
BRANCH  13  15
ATOM     15  C   UNL     1      11.675 -17.867 -28.352  1.00  0.00     0.035 C 
BRANCH  15  16
ATOM     16  C   UNL     1      11.959 -16.697 -27.401  1.00  0.00     0.079 C 
BRANCH  16  17
ATOM     17  C   UNL     1      13.298 -16.059 -27.669  1.00  0.00     0.130 C 
ATOM     18  O   UNL     1      14.074 -15.874 -26.744  1.00  0.00    -0.300 OA
ATOM     19  C   UNL     1      13.707 -15.676 -29.059  1.00  0.00     0.087 C 
ENDBRANCH  16  17
ENDBRANCH  15  16
ENDBRANCH  13  15
ENDBRANCH  11  12
ENDBRANCH   1  11
TORSDOF 9
ENDMDL
MODEL 7
REMARK VINA RESULT:    -5.466      2.694      4.494
REMARK INTER + INTRA:         -10.377
REMARK INTER:                  -8.158
REMARK INTRA:                  -2.219
REMARK UNBOUND:                -2.035
REMARK SMILES CC(=O)CCC=C(C)CCC=C(C)CCC=C(C)C
REMARK SMILES IDX 10 1 11 2 12 3 13 4 14 5 15 6 16 7 18 8 17 9 19 10 9 11 7 12
REMARK SMILES IDX 6 13 8 14 5 15 4 16 2 17 3 18 1 19
REMARK H PARENT
REMARK Flexibility Score: inf
ROOT
ATOM      1  C   UNL     1       9.251 -16.311 -29.877  1.00  0.00     0.032 C 
ENDROOT
BRANCH   1   2
ATOM      2  C   UNL     1      10.716 -16.012 -29.659  1.00  0.00    -0.028 C 
ATOM      3  C   UNL     1      11.495 -16.587 -28.715  1.00  0.00    -0.077 C 
ATOM      4  C   UNL     1      10.974 -17.660 -27.790  1.00  0.00     0.039 C 
BRANCH   3   5
ATOM      5  C   UNL     1      12.933 -16.138 -28.579  1.00  0.00     0.034 C 
BRANCH   5   6
ATOM      6  C   UNL     1      13.719 -16.431 -29.862  1.00  0.00     0.032 C 
BRANCH   6   7
ATOM      7  C   UNL     1      13.470 -17.842 -30.331  1.00  0.00    -0.028 C 
ATOM      8  C   UNL     1      12.807 -17.129 -32.639  1.00  0.00     0.039 C 
ATOM      9  C   UNL     1      13.036 -18.170 -31.568  1.00  0.00    -0.080 C 
ATOM     10  C   UNL     1      12.793 -19.624 -31.882  1.00  0.00     0.039 C 
ENDBRANCH   6   7
ENDBRANCH   5   6
ENDBRANCH   3   5
ENDBRANCH   1   2
BRANCH   1  11
ATOM     11  C   UNL     1       8.970 -16.638 -31.349  1.00  0.00     0.034 C 
BRANCH  11  12
ATOM     12  C   UNL     1       9.109 -18.122 -31.637  1.00  0.00    -0.077 C 
ATOM     13  C   UNL     1       9.342 -18.622 -32.875  1.00  0.00    -0.028 C 
ATOM     14  C   UNL     1       8.986 -19.095 -30.493  1.00  0.00     0.039 C 
BRANCH  13  15
ATOM     15  C   UNL     1       9.500 -17.810 -34.144  1.00  0.00     0.035 C 
BRANCH  15  16
ATOM     16  C   UNL     1       9.717 -18.709 -35.368  1.00  0.00     0.079 C 
BRANCH  16  17
ATOM     17  C   UNL     1      10.588 -18.054 -36.408  1.00  0.00     0.130 C 
ATOM     18  O   UNL     1      11.195 -17.031 -36.130  1.00  0.00    -0.300 OA
ATOM     19  C   UNL     1      10.749 -18.657 -37.771  1.00  0.00     0.087 C 
ENDBRANCH  16  17
ENDBRANCH  15  16
ENDBRANCH  13  15
ENDBRANCH  11  12
ENDBRANCH   1  11
TORSDOF 9
ENDMDL
MODEL 8
REMARK VINA RESULT:    -5.457      2.979      5.444
REMARK INTER + INTRA:         -10.363
REMARK INTER:                  -8.058
REMARK INTRA:                  -2.305
REMARK UNBOUND:                -2.035
REMARK SMILES CC(=O)CCC=C(C)CCC=C(C)CCC=C(C)C
REMARK SMILES IDX 10 1 11 2 12 3 13 4 14 5 15 6 16 7 18 8 17 9 19 10 9 11 7 12
REMARK SMILES IDX 6 13 8 14 5 15 4 16 2 17 3 18 1 19
REMARK H PARENT
REMARK Flexibility Score: inf
ROOT
ATOM      1  C   UNL     1      13.502 -17.321 -32.806  1.00  0.00     0.032 C 
ENDROOT
BRANCH   1   2
ATOM      2  C   UNL     1      13.556 -16.857 -31.369  1.00  0.00    -0.028 C 
ATOM      3  C   UNL     1      13.411 -17.657 -30.288  1.00  0.00    -0.077 C 
ATOM      4  C   UNL     1      13.229 -19.150 -30.414  1.00  0.00     0.039 C 
BRANCH   3   5
ATOM      5  C   UNL     1      13.428 -17.035 -28.909  1.00  0.00     0.034 C 
BRANCH   5   6
ATOM      6  C   UNL     1      12.050 -17.142 -28.246  1.00  0.00     0.032 C 
BRANCH   6   7
ATOM      7  C   UNL     1      11.110 -16.100 -28.796  1.00  0.00    -0.028 C 
ATOM      8  C   UNL     1       9.644 -17.786 -29.927  1.00  0.00     0.039 C 
ATOM      9  C   UNL     1      10.038 -16.371 -29.574  1.00  0.00    -0.080 C 
ATOM     10  C   UNL     1       9.210 -15.220 -30.084  1.00  0.00     0.039 C 
ENDBRANCH   6   7
ENDBRANCH   5   6
ENDBRANCH   3   5
ENDBRANCH   1   2
BRANCH   1  11
ATOM     11  C   UNL     1      12.445 -16.538 -33.597  1.00  0.00     0.034 C 
BRANCH  11  12
ATOM     12  C   UNL     1      11.066 -17.158 -33.468  1.00  0.00    -0.077 C 
ATOM     13  C   UNL     1       9.919 -16.437 -33.509  1.00  0.00    -0.028 C 
ATOM     14  C   UNL     1      10.957 -18.650 -33.287  1.00  0.00     0.039 C 
BRANCH  13  15
ATOM     15  C   UNL     1       9.821 -14.936 -33.687  1.00  0.00     0.035 C 
BRANCH  15  16
ATOM     16  C   UNL     1       9.915 -14.534 -35.165  1.00  0.00     0.079 C 
BRANCH  16  17
ATOM     17  C   UNL     1      10.608 -13.209 -35.351  1.00  0.00     0.130 C 
ATOM     18  O   UNL     1      10.206 -12.227 -34.747  1.00  0.00    -0.300 OA
ATOM     19  C   UNL     1      11.808 -13.084 -36.241  1.00  0.00     0.087 C 
ENDBRANCH  16  17
ENDBRANCH  15  16
ENDBRANCH  13  15
ENDBRANCH  11  12
ENDBRANCH   1  11
TORSDOF 9
ENDMDL
MODEL 9
REMARK VINA RESULT:    -5.450      2.861      6.567
REMARK INTER + INTRA:         -10.353
REMARK INTER:                  -8.994
REMARK INTRA:                  -1.359
REMARK UNBOUND:                -2.035
REMARK SMILES CC(=O)CCC=C(C)CCC=C(C)CCC=C(C)C
REMARK SMILES IDX 10 1 11 2 12 3 13 4 14 5 15 6 16 7 18 8 17 9 19 10 9 11 7 12
REMARK SMILES IDX 6 13 8 14 5 15 4 16 2 17 3 18 1 19
REMARK H PARENT
REMARK Flexibility Score: inf
ROOT
ATOM      1  C   UNL     1      12.350 -19.510 -31.703  1.00  0.00     0.032 C 
ENDROOT
BRANCH   1   2
ATOM      2  C   UNL     1      11.529 -18.496 -32.466  1.00  0.00    -0.028 C 
ATOM      3  C   UNL     1      12.006 -17.342 -32.986  1.00  0.00    -0.077 C 
ATOM      4  C   UNL     1      13.466 -16.966 -32.899  1.00  0.00     0.039 C 
BRANCH   3   5
ATOM      5  C   UNL     1      11.047 -16.396 -33.673  1.00  0.00     0.034 C 
BRANCH   5   6
ATOM      6  C   UNL     1      11.555 -16.024 -35.070  1.00  0.00     0.032 C 
BRANCH   6   7
ATOM      7  C   UNL     1      11.550 -17.228 -35.978  1.00  0.00    -0.028 C 
ATOM      8  C   UNL     1       9.590 -16.419 -37.310  1.00  0.00     0.039 C 
ATOM      9  C   UNL     1      10.659 -17.432 -36.973  1.00  0.00    -0.080 C 
ATOM     10  C   UNL     1      10.755 -18.705 -37.775  1.00  0.00     0.039 C 
ENDBRANCH   6   7
ENDBRANCH   5   6
ENDBRANCH   3   5
ENDBRANCH   1   2
BRANCH   1  11
ATOM     11  C   UNL     1      11.988 -19.499 -30.212  1.00  0.00     0.034 C 
BRANCH  11  12
ATOM     12  C   UNL     1      13.212 -19.312 -29.333  1.00  0.00    -0.077 C 
ATOM     13  C   UNL     1      13.668 -18.099 -28.940  1.00  0.00    -0.028 C 
ATOM     14  C   UNL     1      13.961 -20.534 -28.867  1.00  0.00     0.039 C 
BRANCH  13  15
ATOM     15  C   UNL     1      13.053 -16.762 -29.298  1.00  0.00     0.035 C 
BRANCH  15  16
ATOM     16  C   UNL     1      11.868 -16.421 -28.385  1.00  0.00     0.079 C 
BRANCH  16  17
ATOM     17  C   UNL     1      12.057 -16.946 -26.986  1.00  0.00     0.130 C 
ATOM     18  O   UNL     1      12.978 -16.526 -26.303  1.00  0.00    -0.300 OA
ATOM     19  C   UNL     1      11.111 -17.953 -26.406  1.00  0.00     0.087 C 
ENDBRANCH  16  17
ENDBRANCH  15  16
ENDBRANCH  13  15
ENDBRANCH  11  12
ENDBRANCH   1  11
TORSDOF 9
ENDMDL
