MODEL 1
REMARK VINA RESULT:    -2.890      0.000      0.000
REMARK INTER + INTRA:          -4.852
REMARK INTER:                  -4.411
REMARK INTRA:                  -0.441
REMARK UNBOUND:                -0.441
REMARK SMILES CCCCCCCCCCC(=O)[O-]
REMARK SMILES IDX 7 1 8 2 9 3 10 4 11 5 12 6 13 7 6 8 5 9 4 10 3 11 2 12 1 13
REMARK H PARENT
REMARK Flexibility Score: inf
ROOT
ATOM      1  C   UNL     1      66.151  56.705   9.779  1.00  0.00     0.000 C 
ENDROOT
BRANCH   1   2
ATOM      2  C   UNL     1      65.082  57.757  10.101  1.00  0.00     0.000 C 
BRANCH   2   3
ATOM      3  C   UNL     1      64.051  57.208  11.094  1.00  0.00     0.006 C 
BRANCH   3   4
ATOM      4  C   UNL     1      62.734  57.984  11.002  1.00  0.00     0.053 C 
BRANCH   4   5
ATOM      5  C   UNL     1      62.156  57.873   9.626  1.00  0.00     0.041 C 
ATOM      6  O   UNL     1      61.879  58.910   8.969  1.00  0.00    -0.550 OA
ATOM      7  O   UNL     1      61.876  56.622   9.089  1.00  0.00    -0.550 OA
ENDBRANCH   4   5
ENDBRANCH   3   4
ENDBRANCH   2   3
ENDBRANCH   1   2
BRANCH   1   8
ATOM      8  C   UNL     1      66.207  55.626  10.870  1.00  0.00     0.000 C 
BRANCH   8   9
ATOM      9  C   UNL     1      67.402  54.669  10.708  1.00  0.00    -0.000 C 
BRANCH   9  10
ATOM     10  C   UNL     1      68.787  55.330  10.835  1.00  0.00    -0.000 C 
BRANCH  10  11
ATOM     11  C   UNL     1      69.943  54.325  10.729  1.00  0.00    -0.000 C 
BRANCH  11  12
ATOM     12  C   UNL     1      71.288  55.002  11.022  1.00  0.00    -0.003 C 
ATOM     13  C   UNL     1      71.144  56.520  11.058  1.00  0.00     0.004 C 
ENDBRANCH  11  12
ENDBRANCH  10  11
ENDBRANCH   9  10
ENDBRANCH   8   9
ENDBRANCH   1   8
TORSDOF 9
ENDMDL
MODEL 2
REMARK VINA RESULT:     0.027      2.092      3.541
REMARK INTER + INTRA:          -0.400
REMARK INTER:                   0.053
REMARK INTRA:                  -0.453
REMARK UNBOUND:                -0.441
REMARK SMILES CCCCCCCCCCC(=O)[O-]
REMARK SMILES IDX 7 1 8 2 9 3 10 4 11 5 12 6 13 7 6 8 5 9 4 10 3 11 2 12 1 13
REMARK H PARENT
REMARK Flexibility Score: inf
ROOT
ATOM      1  C   UNL     1      66.303  56.492   8.067  1.00  0.00     0.000 C 
ENDROOT
BRANCH   1   2
ATOM      2  C   UNL     1      64.935  57.110   8.375  1.00  0.00     0.000 C 
BRANCH   2   3
ATOM      3  C   UNL     1      64.998  57.992   9.628  1.00  0.00     0.006 C 
BRANCH   3   4
ATOM      4  C   UNL     1      64.004  57.510  10.689  1.00  0.00     0.053 C 
BRANCH   4   5
ATOM      5  C   UNL     1      62.624  57.991  10.369  1.00  0.00     0.041 C 
ATOM      6  O   UNL     1      62.087  58.888  11.070  1.00  0.00    -0.550 OA
ATOM      7  O   UNL     1      61.910  57.413   9.326  1.00  0.00    -0.550 OA
ENDBRANCH   4   5
ENDBRANCH   3   4
ENDBRANCH   2   3
ENDBRANCH   1   2
BRANCH   1   8
ATOM      8  C   UNL     1      67.150  56.365   9.341  1.00  0.00     0.000 C 
BRANCH   8   9
ATOM      9  C   UNL     1      67.236  54.920   9.865  1.00  0.00    -0.000 C 
BRANCH   9  10
ATOM     10  C   UNL     1      66.046  54.471  10.732  1.00  0.00    -0.000 C 
BRANCH  10  11
ATOM     11  C   UNL     1      66.116  52.987  11.125  1.00  0.00    -0.000 C 
BRANCH  11  12
ATOM     12  C   UNL     1      65.263  52.129  10.183  1.00  0.00    -0.003 C 
ATOM     13  C   UNL     1      65.101  50.711  10.725  1.00  0.00     0.004 C 
ENDBRANCH  11  12
ENDBRANCH  10  11
ENDBRANCH   9  10
ENDBRANCH   8   9
ENDBRANCH   1   8
TORSDOF 9
ENDMDL
