MODEL 1
REMARK VINA RESULT:    -6.360      0.000      0.000
REMARK INTER + INTRA:         -10.899
REMARK INTER:                  -9.893
REMARK INTRA:                  -1.006
REMARK UNBOUND:                -1.006
REMARK SMILES C[C@@]12C[C@@]3(O)O[C@@H](O1)[C@]1(COC(=O)c4ccccc4)[C@H]3C[C@@]12O[C@@H]1O[C@H](CO)[C@@H](O)[C@H](O)[C@@H]1O
REMARK SMILES IDX 1 1 2 2 3 3 4 4 20 5 21 6 22 7 9 8 7 9 8 10 6 11 23 12 24 13
REMARK SMILES IDX 33 14 25 15 31 16 26 17 29 18 34 19 32 21 27 23 28 24 30 26
REMARK SMILES IDX 5 28 10 30 11 31 12 32 13 33 14 34 15 35 19 36 16 37 18 38
REMARK SMILES IDX 17 39
REMARK H PARENT 34 20 32 22 28 25 30 27 5 29
REMARK Flexibility Score: inf
ROOT
ATOM      1  C   UNL     1      15.398  51.003  18.675  1.00  0.00     0.046 C 
ATOM      2  C   UNL     1      14.264  52.012  18.383  1.00  0.00     0.104 C 
ATOM      3  C   UNL     1      14.629  52.954  17.170  1.00  0.00     0.104 C 
ATOM      4  C   UNL     1      13.427  53.950  17.112  1.00  0.00     0.175 C 
ATOM      5  C   UNL     1      13.144  54.535  18.536  1.00  0.00     0.070 C 
ATOM      6  C   UNL     1      14.312  54.325  19.536  1.00  0.00     0.050 C 
ATOM      7  C   UNL     1      13.818  52.863  19.635  1.00  0.00     0.115 C 
ATOM      8  C   UNL     1      12.445  53.313  19.124  1.00  0.00     0.096 C 
ATOM      9  C   UNL     1      12.104  52.385  17.969  1.00  0.00     0.267 C 
ATOM     10  O   UNL     1      13.076  51.347  17.993  1.00  0.00    -0.342 OA
ATOM     11  O   UNL     1      12.280  53.173  16.800  1.00  0.00    -0.320 OA
ENDROOT
BRANCH   7  12
ATOM     12  O   UNL     1      13.802  52.083  20.837  1.00  0.00    -0.339 OA
BRANCH  12  13
ATOM     13  C   UNL     1      14.272  52.695  22.024  1.00  0.00     0.282 C 
ATOM     14  C   UNL     1      13.727  51.893  23.265  1.00  0.00     0.202 C 
ATOM     15  O   UNL     1      15.671  52.897  21.904  1.00  0.00    -0.341 OA
ATOM     16  C   UNL     1      14.707  51.723  24.459  1.00  0.00     0.179 C 
ATOM     17  C   UNL     1      16.493  52.037  22.661  1.00  0.00     0.178 C 
ATOM     18  C   UNL     1      16.172  52.093  24.162  1.00  0.00     0.177 C 
BRANCH  14  19
ATOM     19  O   UNL     1      13.203  50.641  22.883  1.00  0.00    -0.385 OA
ATOM     20  H   UNL     1      13.842  50.228  22.232  1.00  0.00     0.211 HD
ENDBRANCH  14  19
BRANCH  16  21
ATOM     21  O   UNL     1      14.642  50.403  24.951  1.00  0.00    -0.387 OA
ATOM     22  H   UNL     1      13.715  50.236  25.273  1.00  0.00     0.211 HD
ENDBRANCH  16  21
BRANCH  17  23
ATOM     23  C   UNL     1      16.675  50.642  22.012  1.00  0.00     0.191 C 
BRANCH  23  24
ATOM     24  O   UNL     1      16.766  49.596  22.946  1.00  0.00    -0.394 OA
ATOM     25  H   UNL     1      15.985  49.679  23.552  1.00  0.00     0.210 HD
ENDBRANCH  23  24
ENDBRANCH  17  23
BRANCH  18  26
ATOM     26  O   UNL     1      16.409  53.404  24.618  1.00  0.00    -0.387 OA
ATOM     27  H   UNL     1      15.768  54.003  24.149  1.00  0.00     0.211 HD
ENDBRANCH  18  26
ENDBRANCH  12  13
ENDBRANCH   7  12
BRANCH   4  28
ATOM     28  O   UNL     1      13.630  54.973  16.172  1.00  0.00    -0.365 OA
ATOM     29  H   UNL     1      13.190  55.782  16.541  1.00  0.00     0.214 HD
ENDBRANCH   4  28
BRANCH   8  30
ATOM     30  C   UNL     1      11.300  53.644  20.099  1.00  0.00     0.249 C 
BRANCH  30  31
ATOM     31  O   UNL     1      10.553  52.461  20.396  1.00  0.00    -0.461 OA
BRANCH  31  32
ATOM     32  C   UNL     1       9.266  52.482  20.941  1.00  0.00     0.338 C 
ATOM     33  O   UNL     1       8.266  52.657  20.185  1.00  0.00    -0.246 OA
BRANCH  32  34
ATOM     34  C   UNL     1       9.077  52.254  22.396  1.00  0.00     0.060 A 
ATOM     35  C   UNL     1      10.185  52.215  23.259  1.00  0.00     0.015 A 
ATOM     36  C   UNL     1       7.790  52.019  22.923  1.00  0.00     0.015 A 
ATOM     37  C   UNL     1      10.014  51.921  24.618  1.00  0.00     0.001 A 
ATOM     38  C   UNL     1       7.627  51.730  24.283  1.00  0.00     0.001 A 
ATOM     39  C   UNL     1       8.741  51.674  25.124  1.00  0.00     0.000 A 
ENDBRANCH  32  34
ENDBRANCH  31  32
ENDBRANCH  30  31
ENDBRANCH   8  30
TORSDOF 12
ENDMDL
MODEL 2
REMARK VINA RESULT:    -6.269      1.830      5.543
REMARK INTER + INTRA:         -10.758
REMARK INTER:                  -9.138
REMARK INTRA:                  -1.620
REMARK UNBOUND:                -1.006
REMARK SMILES C[C@@]12C[C@@]3(O)O[C@@H](O1)[C@]1(COC(=O)c4ccccc4)[C@H]3C[C@@]12O[C@@H]1O[C@H](CO)[C@@H](O)[C@H](O)[C@@H]1O
REMARK SMILES IDX 1 1 2 2 3 3 4 4 20 5 21 6 22 7 9 8 7 9 8 10 6 11 23 12 24 13
REMARK SMILES IDX 33 14 25 15 31 16 26 17 29 18 34 19 32 21 27 23 28 24 30 26
REMARK SMILES IDX 5 28 10 30 11 31 12 32 13 33 14 34 15 35 19 36 16 37 18 38
REMARK SMILES IDX 17 39
REMARK H PARENT 34 20 32 22 28 25 30 27 5 29
REMARK Flexibility Score: inf
ROOT
ATOM      1  C   UNL     1      15.467  55.335  19.758  1.00  0.00     0.046 C 
ATOM      2  C   UNL     1      15.992  54.248  20.725  1.00  0.00     0.104 C 
ATOM      3  C   UNL     1      17.569  54.178  20.710  1.00  0.00     0.104 C 
ATOM      4  C   UNL     1      17.885  52.971  21.650  1.00  0.00     0.175 C 
ATOM      5  C   UNL     1      17.014  51.734  21.247  1.00  0.00     0.070 C 
ATOM      6  C   UNL     1      16.382  51.853  19.835  1.00  0.00     0.050 C 
ATOM      7  C   UNL     1      15.367  52.819  20.493  1.00  0.00     0.115 C 
ATOM      8  C   UNL     1      15.697  52.204  21.857  1.00  0.00     0.096 C 
ATOM      9  C   UNL     1      16.013  53.372  22.776  1.00  0.00     0.267 C 
ATOM     10  O   UNL     1      15.646  54.548  22.066  1.00  0.00    -0.342 OA
ATOM     11  O   UNL     1      17.424  53.339  22.941  1.00  0.00    -0.320 OA
ENDROOT
BRANCH   7  12
ATOM     12  O   UNL     1      13.974  52.887  20.169  1.00  0.00    -0.339 OA
BRANCH  12  13
ATOM     13  C   UNL     1      13.494  52.034  19.145  1.00  0.00     0.282 C 
ATOM     14  C   UNL     1      12.258  51.223  19.690  1.00  0.00     0.202 C 
ATOM     15  O   UNL     1      13.338  52.797  17.959  1.00  0.00    -0.341 OA
ATOM     16  C   UNL     1      11.088  50.999  18.692  1.00  0.00     0.179 C 
ATOM     17  C   UNL     1      12.015  53.104  17.583  1.00  0.00     0.178 C 
ATOM     18  C   UNL     1      11.150  51.846  17.409  1.00  0.00     0.177 C 
BRANCH  14  19
ATOM     19  O   UNL     1      11.773  51.768  20.896  1.00  0.00    -0.385 OA
ATOM     20  H   UNL     1      11.847  51.061  21.603  1.00  0.00     0.211 HD
ENDBRANCH  14  19
BRANCH  16  21
ATOM     21  O   UNL     1       9.854  51.212  19.342  1.00  0.00    -0.387 OA
ATOM     22  H   UNL     1       9.229  51.635  18.692  1.00  0.00     0.211 HD
ENDBRANCH  16  21
BRANCH  17  23
ATOM     23  C   UNL     1      11.414  54.289  18.380  1.00  0.00     0.191 C 
BRANCH  23  24
ATOM     24  O   UNL     1      10.017  54.227  18.512  1.00  0.00    -0.394 OA
ATOM     25  H   UNL     1       9.665  55.129  18.295  1.00  0.00     0.210 HD
ENDBRANCH  23  24
ENDBRANCH  17  23
BRANCH  18  26
ATOM     26  O   UNL     1      11.706  51.065  16.377  1.00  0.00    -0.387 OA
ATOM     27  H   UNL     1      11.109  50.281  16.243  1.00  0.00     0.211 HD
ENDBRANCH  18  26
ENDBRANCH  12  13
ENDBRANCH   7  12
BRANCH   4  28
ATOM     28  O   UNL     1      19.251  52.650  21.660  1.00  0.00    -0.365 OA
ATOM     29  H   UNL     1      19.684  53.249  20.997  1.00  0.00     0.214 HD
ENDBRANCH   4  28
BRANCH   8  30
ATOM     30  C   UNL     1      14.834  51.076  22.453  1.00  0.00     0.249 C 
BRANCH  30  31
ATOM     31  O   UNL     1      13.738  51.632  23.183  1.00  0.00    -0.461 OA
BRANCH  31  32
ATOM     32  C   UNL     1      13.112  50.976  24.248  1.00  0.00     0.338 C 
ATOM     33  O   UNL     1      13.812  50.392  25.124  1.00  0.00    -0.246 OA
BRANCH  32  34
ATOM     34  C   UNL     1      11.633  51.010  24.367  1.00  0.00     0.060 A 
ATOM     35  C   UNL     1      10.989  52.130  24.921  1.00  0.00     0.015 A 
ATOM     36  C   UNL     1      10.857  49.899  23.975  1.00  0.00     0.015 A 
ATOM     37  C   UNL     1       9.601  52.128  25.106  1.00  0.00     0.001 A 
ATOM     38  C   UNL     1       9.470  49.908  24.160  1.00  0.00     0.001 A 
ATOM     39  C   UNL     1       8.847  51.019  24.732  1.00  0.00     0.000 A 
ENDBRANCH  32  34
ENDBRANCH  31  32
ENDBRANCH  30  31
ENDBRANCH   8  30
TORSDOF 12
ENDMDL
MODEL 3
REMARK VINA RESULT:    -6.175      2.057      5.754
REMARK INTER + INTRA:         -10.611
REMARK INTER:                  -9.217
REMARK INTRA:                  -1.394
REMARK UNBOUND:                -1.006
REMARK SMILES C[C@@]12C[C@@]3(O)O[C@@H](O1)[C@]1(COC(=O)c4ccccc4)[C@H]3C[C@@]12O[C@@H]1O[C@H](CO)[C@@H](O)[C@H](O)[C@@H]1O
REMARK SMILES IDX 1 1 2 2 3 3 4 4 20 5 21 6 22 7 9 8 7 9 8 10 6 11 23 12 24 13
REMARK SMILES IDX 33 14 25 15 31 16 26 17 29 18 34 19 32 21 27 23 28 24 30 26
REMARK SMILES IDX 5 28 10 30 11 31 12 32 13 33 14 34 15 35 19 36 16 37 18 38
REMARK SMILES IDX 17 39
REMARK H PARENT 34 20 32 22 28 25 30 27 5 29
REMARK Flexibility Score: inf
ROOT
ATOM      1  C   UNL     1       9.995  53.787  19.894  1.00  0.00     0.046 C 
ATOM      2  C   UNL     1      10.982  53.225  18.844  1.00  0.00     0.104 C 
ATOM      3  C   UNL     1      10.236  52.815  17.515  1.00  0.00     0.104 C 
ATOM      4  C   UNL     1      11.371  52.182  16.646  1.00  0.00     0.175 C 
ATOM      5  C   UNL     1      12.168  51.130  17.486  1.00  0.00     0.070 C 
ATOM      6  C   UNL     1      11.433  50.680  18.777  1.00  0.00     0.050 C 
ATOM      7  C   UNL     1      11.879  52.038  19.370  1.00  0.00     0.115 C 
ATOM      8  C   UNL     1      12.989  52.110  18.316  1.00  0.00     0.096 C 
ATOM      9  C   UNL     1      12.859  53.478  17.665  1.00  0.00     0.267 C 
ATOM     10  O   UNL     1      11.926  54.206  18.453  1.00  0.00    -0.342 OA
ATOM     11  O   UNL     1      12.300  53.223  16.384  1.00  0.00    -0.320 OA
ENDROOT
BRANCH   7  12
ATOM     12  O   UNL     1      12.300  52.241  20.724  1.00  0.00    -0.339 OA
BRANCH  12  13
ATOM     13  C   UNL     1      12.482  51.095  21.535  1.00  0.00     0.282 C 
ATOM     14  C   UNL     1      13.526  51.427  22.666  1.00  0.00     0.202 C 
ATOM     15  O   UNL     1      11.205  50.602  21.910  1.00  0.00    -0.341 OA
ATOM     16  C   UNL     1      13.235  50.827  24.070  1.00  0.00     0.179 C 
ATOM     17  C   UNL     1      10.817  50.825  23.247  1.00  0.00     0.178 C 
ATOM     18  C   UNL     1      11.822  50.243  24.252  1.00  0.00     0.177 C 
BRANCH  14  19
ATOM     19  O   UNL     1      13.756  52.815  22.768  1.00  0.00    -0.385 OA
ATOM     20  H   UNL     1      13.269  53.147  23.578  1.00  0.00     0.211 HD
ENDBRANCH  14  19
BRANCH  16  21
ATOM     21  O   UNL     1      13.479  51.794  25.067  1.00  0.00    -0.387 OA
ATOM     22  H   UNL     1      14.342  52.245  24.859  1.00  0.00     0.211 HD
ENDBRANCH  16  21
BRANCH  17  23
ATOM     23  C   UNL     1      10.295  52.261  23.498  1.00  0.00     0.191 C 
BRANCH  23  24
ATOM     24  O   UNL     1      10.820  52.856  24.657  1.00  0.00    -0.394 OA
ATOM     25  H   UNL     1      11.253  52.134  25.183  1.00  0.00     0.210 HD
ENDBRANCH  23  24
ENDBRANCH  17  23
BRANCH  18  26
ATOM     26  O   UNL     1      11.882  48.848  24.063  1.00  0.00    -0.387 OA
ATOM     27  H   UNL     1      11.821  48.423  24.960  1.00  0.00     0.211 HD
ENDBRANCH  18  26
ENDBRANCH  12  13
ENDBRANCH   7  12
BRANCH   4  28
ATOM     28  O   UNL     1      10.877  51.618  15.459  1.00  0.00    -0.365 OA
ATOM     29  H   UNL     1       9.997  52.046  15.291  1.00  0.00     0.214 HD
ENDBRANCH   4  28
BRANCH   8  30
ATOM     30  C   UNL     1      14.420  51.635  18.631  1.00  0.00     0.249 C 
BRANCH  30  31
ATOM     31  O   UNL     1      15.177  52.705  19.202  1.00  0.00    -0.461 OA
BRANCH  31  32
ATOM     32  C   UNL     1      16.114  52.523  20.223  1.00  0.00     0.338 C 
ATOM     33  O   UNL     1      16.191  53.365  21.164  1.00  0.00    -0.246 OA
BRANCH  32  34
ATOM     34  C   UNL     1      16.982  51.318  20.221  1.00  0.00     0.060 A 
ATOM     35  C   UNL     1      18.118  51.260  19.396  1.00  0.00     0.015 A 
ATOM     36  C   UNL     1      16.648  50.194  21.005  1.00  0.00     0.015 A 
ATOM     37  C   UNL     1      18.891  50.094  19.335  1.00  0.00     0.001 A 
ATOM     38  C   UNL     1      17.428  49.033  20.941  1.00  0.00     0.001 A 
ATOM     39  C   UNL     1      18.541  48.984  20.100  1.00  0.00     0.000 A 
ENDBRANCH  32  34
ENDBRANCH  31  32
ENDBRANCH  30  31
ENDBRANCH   8  30
TORSDOF 12
ENDMDL
MODEL 4
REMARK VINA RESULT:    -6.137      2.171      5.579
REMARK INTER + INTRA:         -10.552
REMARK INTER:                  -9.049
REMARK INTRA:                  -1.503
REMARK UNBOUND:                -1.006
REMARK SMILES C[C@@]12C[C@@]3(O)O[C@@H](O1)[C@]1(COC(=O)c4ccccc4)[C@H]3C[C@@]12O[C@@H]1O[C@H](CO)[C@@H](O)[C@H](O)[C@@H]1O
REMARK SMILES IDX 1 1 2 2 3 3 4 4 20 5 21 6 22 7 9 8 7 9 8 10 6 11 23 12 24 13
REMARK SMILES IDX 33 14 25 15 31 16 26 17 29 18 34 19 32 21 27 23 28 24 30 26
REMARK SMILES IDX 5 28 10 30 11 31 12 32 13 33 14 34 15 35 19 36 16 37 18 38
REMARK SMILES IDX 17 39
REMARK H PARENT 34 20 32 22 28 25 30 27 5 29
REMARK Flexibility Score: inf
ROOT
ATOM      1  C   UNL     1       9.769  53.562  19.925  1.00  0.00     0.046 C 
ATOM      2  C   UNL     1      10.863  53.150  18.914  1.00  0.00     0.104 C 
ATOM      3  C   UNL     1      10.236  52.723  17.529  1.00  0.00     0.104 C 
ATOM      4  C   UNL     1      11.474  52.248  16.703  1.00  0.00     0.175 C 
ATOM      5  C   UNL     1      12.332  51.248  17.548  1.00  0.00     0.070 C 
ATOM      6  C   UNL     1      11.582  50.670  18.777  1.00  0.00     0.050 C 
ATOM      7  C   UNL     1      11.851  52.040  19.445  1.00  0.00     0.115 C 
ATOM      8  C   UNL     1      13.002  52.271  18.459  1.00  0.00     0.096 C 
ATOM      9  C   UNL     1      12.762  53.644  17.853  1.00  0.00     0.267 C 
ATOM     10  O   UNL     1      11.718  54.239  18.613  1.00  0.00    -0.342 OA
ATOM     11  O   UNL     1      12.302  53.388  16.534  1.00  0.00    -0.320 OA
ENDROOT
BRANCH   7  12
ATOM     12  O   UNL     1      12.177  52.227  20.827  1.00  0.00    -0.339 OA
BRANCH  12  13
ATOM     13  C   UNL     1      12.387  51.071  21.616  1.00  0.00     0.282 C 
ATOM     14  C   UNL     1      13.465  51.390  22.719  1.00  0.00     0.202 C 
ATOM     15  O   UNL     1      11.125  50.567  22.023  1.00  0.00    -0.341 OA
ATOM     16  C   UNL     1      13.220  50.769  24.122  1.00  0.00     0.179 C 
ATOM     17  C   UNL     1      10.778  50.770  23.375  1.00  0.00     0.178 C 
ATOM     18  C   UNL     1      11.815  50.177  24.340  1.00  0.00     0.177 C 
BRANCH  14  19
ATOM     19  O   UNL     1      13.693  52.777  22.833  1.00  0.00    -0.385 OA
ATOM     20  H   UNL     1      14.358  52.918  23.570  1.00  0.00     0.211 HD
ENDBRANCH  14  19
BRANCH  16  21
ATOM     21  O   UNL     1      13.492  51.723  25.125  1.00  0.00    -0.387 OA
ATOM     22  H   UNL     1      14.349  52.176  24.899  1.00  0.00     0.211 HD
ENDBRANCH  16  21
BRANCH  17  23
ATOM     23  C   UNL     1      10.259  52.201  23.662  1.00  0.00     0.191 C 
BRANCH  23  24
ATOM     24  O   UNL     1      11.019  52.893  24.619  1.00  0.00    -0.394 OA
ATOM     25  H   UNL     1      10.529  53.731  24.828  1.00  0.00     0.210 HD
ENDBRANCH  23  24
ENDBRANCH  17  23
BRANCH  18  26
ATOM     26  O   UNL     1      11.874  48.786  24.129  1.00  0.00    -0.387 OA
ATOM     27  H   UNL     1      11.182  48.368  24.708  1.00  0.00     0.211 HD
ENDBRANCH  18  26
ENDBRANCH  12  13
ENDBRANCH   7  12
BRANCH   4  28
ATOM     28  O   UNL     1      11.106  51.687  15.470  1.00  0.00    -0.365 OA
ATOM     29  H   UNL     1      11.942  51.597  14.944  1.00  0.00     0.214 HD
ENDBRANCH   4  28
BRANCH   8  30
ATOM     30  C   UNL     1      14.455  51.932  18.837  1.00  0.00     0.249 C 
BRANCH  30  31
ATOM     31  O   UNL     1      15.214  53.134  18.991  1.00  0.00    -0.461 OA
BRANCH  31  32
ATOM     32  C   UNL     1      15.836  53.502  20.189  1.00  0.00     0.338 C 
ATOM     33  O   UNL     1      16.212  52.609  21.001  1.00  0.00    -0.246 OA
BRANCH  32  34
ATOM     34  C   UNL     1      16.091  54.936  20.476  1.00  0.00     0.060 A 
ATOM     35  C   UNL     1      15.718  55.492  21.711  1.00  0.00     0.015 A 
ATOM     36  C   UNL     1      16.663  55.772  19.494  1.00  0.00     0.015 A 
ATOM     37  C   UNL     1      15.887  56.861  21.952  1.00  0.00     0.001 A 
ATOM     38  C   UNL     1      16.832  57.139  19.744  1.00  0.00     0.001 A 
ATOM     39  C   UNL     1      16.436  57.680  20.969  1.00  0.00     0.000 A 
ENDBRANCH  32  34
ENDBRANCH  31  32
ENDBRANCH  30  31
ENDBRANCH   8  30
TORSDOF 12
ENDMDL
MODEL 5
REMARK VINA RESULT:    -6.085      1.958      2.875
REMARK INTER + INTRA:         -10.471
REMARK INTER:                  -9.187
REMARK INTRA:                  -1.285
REMARK UNBOUND:                -1.006
REMARK SMILES C[C@@]12C[C@@]3(O)O[C@@H](O1)[C@]1(COC(=O)c4ccccc4)[C@H]3C[C@@]12O[C@@H]1O[C@H](CO)[C@@H](O)[C@H](O)[C@@H]1O
REMARK SMILES IDX 1 1 2 2 3 3 4 4 20 5 21 6 22 7 9 8 7 9 8 10 6 11 23 12 24 13
REMARK SMILES IDX 33 14 25 15 31 16 26 17 29 18 34 19 32 21 27 23 28 24 30 26
REMARK SMILES IDX 5 28 10 30 11 31 12 32 13 33 14 34 15 35 19 36 16 37 18 38
REMARK SMILES IDX 17 39
REMARK H PARENT 34 20 32 22 28 25 30 27 5 29
REMARK Flexibility Score: inf
ROOT
ATOM      1  C   UNL     1      13.768  51.402  18.026  1.00  0.00     0.046 C 
ATOM      2  C   UNL     1      12.374  51.858  18.516  1.00  0.00     0.104 C 
ATOM      3  C   UNL     1      11.706  52.862  17.497  1.00  0.00     0.104 C 
ATOM      4  C   UNL     1      10.383  53.278  18.215  1.00  0.00     0.175 C 
ATOM      5  C   UNL     1      10.683  53.701  19.692  1.00  0.00     0.070 C 
ATOM      6  C   UNL     1      12.183  53.992  19.962  1.00  0.00     0.050 C 
ATOM      7  C   UNL     1      12.363  52.455  19.975  1.00  0.00     0.115 C 
ATOM      8  C   UNL     1      10.867  52.303  20.272  1.00  0.00     0.096 C 
ATOM      9  C   UNL     1      10.338  51.313  19.247  1.00  0.00     0.267 C 
ATOM     10  O   UNL     1      11.478  50.763  18.598  1.00  0.00    -0.342 OA
ATOM     11  O   UNL     1       9.600  52.100  18.323  1.00  0.00    -0.320 OA
ENDROOT
BRANCH   7  12
ATOM     12  O   UNL     1      13.241  51.742  20.855  1.00  0.00    -0.339 OA
BRANCH  12  13
ATOM     13  C   UNL     1      13.867  52.471  21.894  1.00  0.00     0.282 C 
ATOM     14  C   UNL     1      13.633  51.722  23.260  1.00  0.00     0.202 C 
ATOM     15  O   UNL     1      15.197  52.768  21.499  1.00  0.00    -0.341 OA
ATOM     16  C   UNL     1      14.828  51.713  24.253  1.00  0.00     0.179 C 
ATOM     17  C   UNL     1      16.216  52.029  22.133  1.00  0.00     0.178 C 
ATOM     18  C   UNL     1      16.174  52.169  23.662  1.00  0.00     0.177 C 
BRANCH  14  19
ATOM     19  O   UNL     1      13.159  50.410  23.056  1.00  0.00    -0.385 OA
ATOM     20  H   UNL     1      12.160  50.431  23.126  1.00  0.00     0.211 HD
ENDBRANCH  14  19
BRANCH  16  21
ATOM     21  O   UNL     1      14.971  50.430  24.822  1.00  0.00    -0.387 OA
ATOM     22  H   UNL     1      15.909  50.335  25.144  1.00  0.00     0.211 HD
ENDBRANCH  16  21
BRANCH  17  23
ATOM     23  C   UNL     1      16.397  50.609  21.542  1.00  0.00     0.191 C 
BRANCH  23  24
ATOM     24  O   UNL     1      16.794  49.652  22.491  1.00  0.00    -0.394 OA
ATOM     25  H   UNL     1      17.482  50.079  23.064  1.00  0.00     0.210 HD
ENDBRANCH  23  24
ENDBRANCH  17  23
BRANCH  18  26
ATOM     26  O   UNL     1      16.376  53.524  23.990  1.00  0.00    -0.387 OA
ATOM     27  H   UNL     1      16.027  54.068  23.235  1.00  0.00     0.211 HD
ENDBRANCH  18  26
ENDBRANCH  12  13
ENDBRANCH   7  12
BRANCH   4  28
ATOM     28  O   UNL     1       9.700  54.292  17.524  1.00  0.00    -0.365 OA
ATOM     29  H   UNL     1       8.738  54.052  17.554  1.00  0.00     0.214 HD
ENDBRANCH   4  28
BRANCH   8  30
ATOM     30  C   UNL     1      10.352  52.139  21.714  1.00  0.00     0.249 C 
BRANCH  30  31
ATOM     31  O   UNL     1       9.072  51.502  21.707  1.00  0.00    -0.461 OA
BRANCH  31  32
ATOM     32  C   UNL     1       7.890  52.151  22.078  1.00  0.00     0.338 C 
ATOM     33  O   UNL     1       7.704  52.474  23.286  1.00  0.00    -0.246 OA
BRANCH  32  34
ATOM     34  C   UNL     1       6.883  52.497  21.043  1.00  0.00     0.060 A 
ATOM     35  C   UNL     1       6.754  51.712  19.885  1.00  0.00     0.015 A 
ATOM     36  C   UNL     1       6.080  53.648  21.183  1.00  0.00     0.015 A 
ATOM     37  C   UNL     1       5.860  52.085  18.873  1.00  0.00     0.001 A 
ATOM     38  C   UNL     1       5.186  54.011  20.168  1.00  0.00     0.001 A 
ATOM     39  C   UNL     1       5.085  53.233  19.014  1.00  0.00     0.000 A 
ENDBRANCH  32  34
ENDBRANCH  31  32
ENDBRANCH  30  31
ENDBRANCH   8  30
TORSDOF 12
ENDMDL
MODEL 6
REMARK VINA RESULT:    -6.036      1.560      5.621
REMARK INTER + INTRA:         -10.395
REMARK INTER:                  -9.080
REMARK INTRA:                  -1.315
REMARK UNBOUND:                -1.006
REMARK SMILES C[C@@]12C[C@@]3(O)O[C@@H](O1)[C@]1(COC(=O)c4ccccc4)[C@H]3C[C@@]12O[C@@H]1O[C@H](CO)[C@@H](O)[C@H](O)[C@@H]1O
REMARK SMILES IDX 1 1 2 2 3 3 4 4 20 5 21 6 22 7 9 8 7 9 8 10 6 11 23 12 24 13
REMARK SMILES IDX 33 14 25 15 31 16 26 17 29 18 34 19 32 21 27 23 28 24 30 26
REMARK SMILES IDX 5 28 10 30 11 31 12 32 13 33 14 34 15 35 19 36 16 37 18 38
REMARK SMILES IDX 17 39
REMARK H PARENT 34 20 32 22 28 25 30 27 5 29
REMARK Flexibility Score: inf
ROOT
ATOM      1  C   UNL     1      16.512  55.207  20.590  1.00  0.00     0.046 C 
ATOM      2  C   UNL     1      16.310  54.024  21.565  1.00  0.00     0.104 C 
ATOM      3  C   UNL     1      17.687  53.518  22.149  1.00  0.00     0.104 C 
ATOM      4  C   UNL     1      17.281  52.276  23.006  1.00  0.00     0.175 C 
ATOM      5  C   UNL     1      16.356  51.328  22.172  1.00  0.00     0.070 C 
ATOM      6  C   UNL     1      16.391  51.609  20.647  1.00  0.00     0.050 C 
ATOM      7  C   UNL     1      15.485  52.822  20.963  1.00  0.00     0.115 C 
ATOM      8  C   UNL     1      15.075  52.148  22.277  1.00  0.00     0.096 C 
ATOM      9  C   UNL     1      15.289  53.189  23.364  1.00  0.00     0.267 C 
ATOM     10  O   UNL     1      15.551  54.416  22.694  1.00  0.00    -0.342 OA
ATOM     11  O   UNL     1      16.457  52.766  24.052  1.00  0.00    -0.320 OA
ENDROOT
BRANCH   7  12
ATOM     12  O   UNL     1      14.403  53.272  20.138  1.00  0.00    -0.339 OA
BRANCH  12  13
ATOM     13  C   UNL     1      14.110  52.526  18.972  1.00  0.00     0.282 C 
ATOM     14  C   UNL     1      12.588  52.121  18.990  1.00  0.00     0.202 C 
ATOM     15  O   UNL     1      14.614  53.230  17.847  1.00  0.00    -0.341 OA
ATOM     16  C   UNL     1      11.846  52.169  17.625  1.00  0.00     0.179 C 
ATOM     17  C   UNL     1      13.658  53.868  17.030  1.00  0.00     0.178 C 
ATOM     18  C   UNL     1      12.602  52.889  16.494  1.00  0.00     0.177 C 
BRANCH  14  19
ATOM     19  O   UNL     1      11.870  52.849  19.960  1.00  0.00    -0.385 OA
ATOM     20  H   UNL     1      11.178  52.239  20.350  1.00  0.00     0.211 HD
ENDBRANCH  14  19
BRANCH  16  21
ATOM     21  O   UNL     1      10.573  52.753  17.790  1.00  0.00    -0.387 OA
ATOM     22  H   UNL     1      10.607  53.356  18.581  1.00  0.00     0.211 HD
ENDBRANCH  16  21
BRANCH  17  23
ATOM     23  C   UNL     1      13.165  55.217  17.608  1.00  0.00     0.191 C 
BRANCH  23  24
ATOM     24  O   UNL     1      14.195  56.150  17.815  1.00  0.00    -0.394 OA
ATOM     25  H   UNL     1      15.050  55.687  17.615  1.00  0.00     0.210 HD
ENDBRANCH  23  24
ENDBRANCH  17  23
BRANCH  18  26
ATOM     26  O   UNL     1      13.253  51.925  15.700  1.00  0.00    -0.387 OA
ATOM     27  H   UNL     1      14.230  52.015  15.863  1.00  0.00     0.211 HD
ENDBRANCH  18  26
ENDBRANCH  12  13
ENDBRANCH   7  12
BRANCH   4  28
ATOM     28  O   UNL     1      18.399  51.588  23.504  1.00  0.00    -0.365 OA
ATOM     29  H   UNL     1      18.481  51.844  24.460  1.00  0.00     0.214 HD
ENDBRANCH   4  28
BRANCH   8  30
ATOM     30  C   UNL     1      13.788  51.309  22.375  1.00  0.00     0.249 C 
BRANCH  30  31
ATOM     31  O   UNL     1      12.717  52.111  22.881  1.00  0.00    -0.461 OA
BRANCH  31  32
ATOM     32  C   UNL     1      11.990  51.785  24.030  1.00  0.00     0.338 C 
ATOM     33  O   UNL     1      12.600  51.518  25.105  1.00  0.00    -0.246 OA
BRANCH  32  34
ATOM     34  C   UNL     1      10.506  51.800  23.992  1.00  0.00     0.060 A 
ATOM     35  C   UNL     1       9.828  52.243  22.843  1.00  0.00     0.015 A 
ATOM     36  C   UNL     1       9.757  51.423  25.125  1.00  0.00     0.015 A 
ATOM     37  C   UNL     1       8.431  52.332  22.836  1.00  0.00     0.001 A 
ATOM     38  C   UNL     1       8.360  51.511  25.108  1.00  0.00     0.001 A 
ATOM     39  C   UNL     1       7.702  51.973  23.967  1.00  0.00     0.000 A 
ENDBRANCH  32  34
ENDBRANCH  31  32
ENDBRANCH  30  31
ENDBRANCH   8  30
TORSDOF 12
ENDMDL
MODEL 7
REMARK VINA RESULT:    -5.996      2.110      3.664
REMARK INTER + INTRA:         -10.333
REMARK INTER:                  -9.174
REMARK INTRA:                  -1.159
REMARK UNBOUND:                -1.006
REMARK SMILES C[C@@]12C[C@@]3(O)O[C@@H](O1)[C@]1(COC(=O)c4ccccc4)[C@H]3C[C@@]12O[C@@H]1O[C@H](CO)[C@@H](O)[C@H](O)[C@@H]1O
REMARK SMILES IDX 1 1 2 2 3 3 4 4 20 5 21 6 22 7 9 8 7 9 8 10 6 11 23 12 24 13
REMARK SMILES IDX 33 14 25 15 31 16 26 17 29 18 34 19 32 21 27 23 28 24 30 26
REMARK SMILES IDX 5 28 10 30 11 31 12 32 13 33 14 34 15 35 19 36 16 37 18 38
REMARK SMILES IDX 17 39
REMARK H PARENT 34 20 32 22 28 25 30 27 5 29
REMARK Flexibility Score: inf
ROOT
ATOM      1  C   UNL     1      13.176  51.420  16.676  1.00  0.00     0.046 C 
ATOM      2  C   UNL     1      12.445  51.792  17.987  1.00  0.00     0.104 C 
ATOM      3  C   UNL     1      11.392  52.945  17.752  1.00  0.00     0.104 C 
ATOM      4  C   UNL     1      10.855  53.241  19.189  1.00  0.00     0.175 C 
ATOM      5  C   UNL     1      12.050  53.424  20.182  1.00  0.00     0.070 C 
ATOM      6  C   UNL     1      13.411  53.669  19.478  1.00  0.00     0.050 C 
ATOM      7  C   UNL     1      13.406  52.150  19.185  1.00  0.00     0.115 C 
ATOM      8  C   UNL     1      12.415  51.951  20.337  1.00  0.00     0.096 C 
ATOM      9  C   UNL     1      11.267  51.136  19.764  1.00  0.00     0.267 C 
ATOM     10  O   UNL     1      11.692  50.698  18.480  1.00  0.00    -0.342 OA
ATOM     11  O   UNL     1      10.197  52.060  19.620  1.00  0.00    -0.320 OA
ENDROOT
BRANCH   7  12
ATOM     12  O   UNL     1      14.563  51.306  19.216  1.00  0.00    -0.339 OA
BRANCH  12  13
ATOM     13  C   UNL     1      15.827  51.927  19.367  1.00  0.00     0.282 C 
ATOM     14  C   UNL     1      16.567  51.293  20.604  1.00  0.00     0.202 C 
ATOM     15  O   UNL     1      16.482  51.927  18.109  1.00  0.00    -0.341 OA
ATOM     16  C   UNL     1      18.097  51.073  20.453  1.00  0.00     0.179 C 
ATOM     17  C   UNL     1      17.548  51.017  17.959  1.00  0.00     0.178 C 
ATOM     18  C   UNL     1      18.641  51.218  19.020  1.00  0.00     0.177 C 
BRANCH  14  19
ATOM     19  O   UNL     1      15.942  50.102  21.026  1.00  0.00    -0.385 OA
ATOM     20  H   UNL     1      16.613  49.574  21.551  1.00  0.00     0.211 HD
ENDBRANCH  14  19
BRANCH  16  21
ATOM     21  O   UNL     1      18.455  49.810  20.969  1.00  0.00    -0.387 OA
ATOM     22  H   UNL     1      17.760  49.533  21.625  1.00  0.00     0.211 HD
ENDBRANCH  16  21
BRANCH  17  23
ATOM     23  C   UNL     1      17.077  49.569  17.673  1.00  0.00     0.191 C 
BRANCH  23  24
ATOM     24  O   UNL     1      16.807  49.324  16.316  1.00  0.00    -0.394 OA
ATOM     25  H   UNL     1      16.140  50.000  16.026  1.00  0.00     0.210 HD
ENDBRANCH  23  24
ENDBRANCH  17  23
BRANCH  18  26
ATOM     26  O   UNL     1      19.174  52.513  18.867  1.00  0.00    -0.387 OA
ATOM     27  H   UNL     1      18.748  52.918  18.065  1.00  0.00     0.211 HD
ENDBRANCH  18  26
ENDBRANCH  12  13
ENDBRANCH   7  12
BRANCH   4  28
ATOM     28  O   UNL     1       9.996  54.351  19.215  1.00  0.00    -0.365 OA
ATOM     29  H   UNL     1       9.524  54.319  20.088  1.00  0.00     0.214 HD
ENDBRANCH   4  28
BRANCH   8  30
ATOM     30  C   UNL     1      12.898  51.560  21.746  1.00  0.00     0.249 C 
BRANCH  30  31
ATOM     31  O   UNL     1      11.823  50.975  22.487  1.00  0.00    -0.461 OA
BRANCH  31  32
ATOM     32  C   UNL     1      11.265  51.564  23.625  1.00  0.00     0.338 C 
ATOM     33  O   UNL     1      12.020  52.058  24.511  1.00  0.00    -0.246 OA
BRANCH  32  34
ATOM     34  C   UNL     1       9.789  51.648  23.763  1.00  0.00     0.060 A 
ATOM     35  C   UNL     1       9.001  52.131  22.704  1.00  0.00     0.015 A 
ATOM     36  C   UNL     1       9.162  51.294  24.975  1.00  0.00     0.015 A 
ATOM     37  C   UNL     1       7.618  52.285  22.863  1.00  0.00     0.001 A 
ATOM     38  C   UNL     1       7.778  51.446  25.124  1.00  0.00     0.001 A 
ATOM     39  C   UNL     1       7.013  51.948  24.070  1.00  0.00     0.000 A 
ENDBRANCH  32  34
ENDBRANCH  31  32
ENDBRANCH  30  31
ENDBRANCH   8  30
TORSDOF 12
ENDMDL
MODEL 8
REMARK VINA RESULT:    -5.976      2.766      6.757
REMARK INTER + INTRA:         -10.301
REMARK INTER:                  -8.951
REMARK INTRA:                  -1.350
REMARK UNBOUND:                -1.006
REMARK SMILES C[C@@]12C[C@@]3(O)O[C@@H](O1)[C@]1(COC(=O)c4ccccc4)[C@H]3C[C@@]12O[C@@H]1O[C@H](CO)[C@@H](O)[C@H](O)[C@@H]1O
REMARK SMILES IDX 1 1 2 2 3 3 4 4 20 5 21 6 22 7 9 8 7 9 8 10 6 11 23 12 24 13
REMARK SMILES IDX 33 14 25 15 31 16 26 17 29 18 34 19 32 21 27 23 28 24 30 26
REMARK SMILES IDX 5 28 10 30 11 31 12 32 13 33 14 34 15 35 19 36 16 37 18 38
REMARK SMILES IDX 17 39
REMARK H PARENT 34 20 32 22 28 25 30 27 5 29
REMARK Flexibility Score: inf
ROOT
ATOM      1  C   UNL     1      14.439  52.469  16.769  1.00  0.00     0.046 C 
ATOM      2  C   UNL     1      13.523  52.477  18.015  1.00  0.00     0.104 C 
ATOM      3  C   UNL     1      14.184  51.702  19.221  1.00  0.00     0.104 C 
ATOM      4  C   UNL     1      13.074  51.732  20.321  1.00  0.00     0.175 C 
ATOM      5  C   UNL     1      11.705  51.275  19.715  1.00  0.00     0.070 C 
ATOM      6  C   UNL     1      11.841  50.544  18.354  1.00  0.00     0.050 C 
ATOM      7  C   UNL     1      12.061  51.950  17.747  1.00  0.00     0.115 C 
ATOM      8  C   UNL     1      11.371  52.563  18.970  1.00  0.00     0.096 C 
ATOM      9  C   UNL     1      12.312  53.642  19.482  1.00  0.00     0.267 C 
ATOM     10  O   UNL     1      13.318  53.796  18.489  1.00  0.00    -0.342 OA
ATOM     11  O   UNL     1      12.887  53.097  20.661  1.00  0.00    -0.320 OA
ENDROOT
BRANCH   7  12
ATOM     12  O   UNL     1      11.559  52.380  16.476  1.00  0.00    -0.339 OA
BRANCH  12  13
ATOM     13  C   UNL     1      11.059  51.390  15.596  1.00  0.00     0.282 C 
ATOM     14  C   UNL     1       9.533  51.666  15.325  1.00  0.00     0.202 C 
ATOM     15  O   UNL     1      11.939  51.286  14.488  1.00  0.00    -0.341 OA
ATOM     16  C   UNL     1       9.034  51.415  13.875  1.00  0.00     0.179 C 
ATOM     17  C   UNL     1      11.480  51.832  13.272  1.00  0.00     0.178 C 
ATOM     18  C   UNL     1      10.143  51.222  12.825  1.00  0.00     0.177 C 
BRANCH  14  19
ATOM     19  O   UNL     1       9.156  52.955  15.753  1.00  0.00    -0.385 OA
ATOM     20  H   UNL     1       9.699  53.620  15.237  1.00  0.00     0.211 HD
ENDBRANCH  14  19
BRANCH  16  21
ATOM     21  O   UNL     1       8.178  52.461  13.472  1.00  0.00    -0.387 OA
ATOM     22  H   UNL     1       7.340  52.401  14.006  1.00  0.00     0.211 HD
ENDBRANCH  16  21
BRANCH  17  23
ATOM     23  C   UNL     1      11.631  53.372  13.200  1.00  0.00     0.191 C 
BRANCH  23  24
ATOM     24  O   UNL     1      10.696  53.989  12.353  1.00  0.00    -0.394 OA
ATOM     25  H   UNL     1       9.963  53.337  12.205  1.00  0.00     0.210 HD
ENDBRANCH  23  24
ENDBRANCH  17  23
BRANCH  18  26
ATOM     26  O   UNL     1      10.333  49.841  12.617  1.00  0.00    -0.387 OA
ATOM     27  H   UNL     1      11.288  49.706  12.372  1.00  0.00     0.211 HD
ENDBRANCH  18  26
ENDBRANCH  12  13
ENDBRANCH   7  12
BRANCH   4  28
ATOM     28  O   UNL     1      13.418  50.961  21.442  1.00  0.00    -0.365 OA
ATOM     29  H   UNL     1      13.458  51.588  22.211  1.00  0.00     0.214 HD
ENDBRANCH   4  28
BRANCH   8  30
ATOM     30  C   UNL     1       9.872  52.915  18.947  1.00  0.00     0.249 C 
BRANCH  30  31
ATOM     31  O   UNL     1       9.507  53.581  20.158  1.00  0.00    -0.461 OA
BRANCH  31  32
ATOM     32  C   UNL     1       8.438  53.179  20.964  1.00  0.00     0.338 C 
ATOM     33  O   UNL     1       7.254  53.267  20.528  1.00  0.00    -0.246 OA
BRANCH  32  34
ATOM     34  C   UNL     1       8.703  52.606  22.308  1.00  0.00     0.060 A 
ATOM     35  C   UNL     1       7.642  52.161  23.115  1.00  0.00     0.015 A 
ATOM     36  C   UNL     1      10.018  52.551  22.816  1.00  0.00     0.015 A 
ATOM     37  C   UNL     1       7.886  51.696  24.413  1.00  0.00     0.001 A 
ATOM     38  C   UNL     1      10.254  52.081  24.113  1.00  0.00     0.001 A 
ATOM     39  C   UNL     1       9.186  51.662  24.910  1.00  0.00     0.000 A 
ENDBRANCH  32  34
ENDBRANCH  31  32
ENDBRANCH  30  31
ENDBRANCH   8  30
TORSDOF 12
ENDMDL
MODEL 9
REMARK VINA RESULT:    -5.775      1.776      2.824
REMARK INTER + INTRA:          -9.989
REMARK INTER:                  -8.876
REMARK INTRA:                  -1.113
REMARK UNBOUND:                -1.006
REMARK SMILES C[C@@]12C[C@@]3(O)O[C@@H](O1)[C@]1(COC(=O)c4ccccc4)[C@H]3C[C@@]12O[C@@H]1O[C@H](CO)[C@@H](O)[C@H](O)[C@@H]1O
REMARK SMILES IDX 1 1 2 2 3 3 4 4 20 5 21 6 22 7 9 8 7 9 8 10 6 11 23 12 24 13
REMARK SMILES IDX 33 14 25 15 31 16 26 17 29 18 34 19 32 21 27 23 28 24 30 26
REMARK SMILES IDX 5 28 10 30 11 31 12 32 13 33 14 34 15 35 19 36 16 37 18 38
REMARK SMILES IDX 17 39
REMARK H PARENT 34 20 32 22 28 25 30 27 5 29
REMARK Flexibility Score: inf
ROOT
ATOM      1  C   UNL     1      15.846  51.222  18.475  1.00  0.00     0.046 C 
ATOM      2  C   UNL     1      14.627  52.115  18.148  1.00  0.00     0.104 C 
ATOM      3  C   UNL     1      14.943  53.112  16.965  1.00  0.00     0.104 C 
ATOM      4  C   UNL     1      13.647  53.979  16.868  1.00  0.00     0.175 C 
ATOM      5  C   UNL     1      13.246  54.505  18.287  1.00  0.00     0.070 C 
ATOM      6  C   UNL     1      14.386  54.399  19.334  1.00  0.00     0.050 C 
ATOM      7  C   UNL     1      14.042  52.891  19.390  1.00  0.00     0.115 C 
ATOM      8  C   UNL     1      12.653  53.208  18.826  1.00  0.00     0.096 C 
ATOM      9  C   UNL     1      12.459  52.271  17.645  1.00  0.00     0.267 C 
ATOM     10  O   UNL     1      13.532  51.338  17.696  1.00  0.00    -0.342 OA
ATOM     11  O   UNL     1      12.602  53.094  16.496  1.00  0.00    -0.320 OA
ENDROOT
BRANCH   7  12
ATOM     12  O   UNL     1      14.057  52.093  20.579  1.00  0.00    -0.339 OA
BRANCH  12  13
ATOM     13  C   UNL     1      14.420  52.725  21.793  1.00  0.00     0.282 C 
ATOM     14  C   UNL     1      13.741  51.964  22.993  1.00  0.00     0.202 C 
ATOM     15  O   UNL     1      15.828  52.899  21.806  1.00  0.00    -0.341 OA
ATOM     16  C   UNL     1      14.597  51.806  24.280  1.00  0.00     0.179 C 
ATOM     17  C   UNL     1      16.555  52.044  22.659  1.00  0.00     0.178 C 
ATOM     18  C   UNL     1      16.090  52.143  24.120  1.00  0.00     0.177 C 
BRANCH  14  19
ATOM     19  O   UNL     1      13.233  50.712  22.590  1.00  0.00    -0.385 OA
ATOM     20  H   UNL     1      13.844  50.345  21.885  1.00  0.00     0.211 HD
ENDBRANCH  14  19
BRANCH  16  21
ATOM     21  O   UNL     1      14.459  50.499  24.793  1.00  0.00    -0.387 OA
ATOM     22  H   UNL     1      13.501  50.356  25.026  1.00  0.00     0.211 HD
ENDBRANCH  16  21
BRANCH  17  23
ATOM     23  C   UNL     1      16.773  50.631  22.064  1.00  0.00     0.191 C 
BRANCH  23  24
ATOM     24  O   UNL     1      16.695  49.602  23.016  1.00  0.00    -0.394 OA
ATOM     25  H   UNL     1      16.769  48.744  22.523  1.00  0.00     0.210 HD
ENDBRANCH  23  24
ENDBRANCH  17  23
BRANCH  18  26
ATOM     26  O   UNL     1      16.307  53.461  24.567  1.00  0.00    -0.387 OA
ATOM     27  H   UNL     1      15.577  53.682  25.205  1.00  0.00     0.211 HD
ENDBRANCH  18  26
ENDBRANCH  12  13
ENDBRANCH   7  12
BRANCH   4  28
ATOM     28  O   UNL     1      13.783  55.035  15.953  1.00  0.00    -0.365 OA
ATOM     29  H   UNL     1      14.680  55.428  16.112  1.00  0.00     0.214 HD
ENDBRANCH   4  28
BRANCH   8  30
ATOM     30  C   UNL     1      11.439  53.400  19.754  1.00  0.00     0.249 C 
BRANCH  30  31
ATOM     31  O   UNL     1      10.470  52.378  19.511  1.00  0.00    -0.461 OA
BRANCH  31  32
ATOM     32  C   UNL     1       9.114  52.515  19.827  1.00  0.00     0.338 C 
ATOM     33  O   UNL     1       8.756  52.589  21.037  1.00  0.00    -0.246 OA
BRANCH  32  34
ATOM     34  C   UNL     1       8.111  52.618  18.738  1.00  0.00     0.060 A 
ATOM     35  C   UNL     1       8.489  53.071  17.462  1.00  0.00     0.015 A 
ATOM     36  C   UNL     1       6.756  52.314  18.982  1.00  0.00     0.015 A 
ATOM     37  C   UNL     1       7.528  53.243  16.458  1.00  0.00     0.001 A 
ATOM     38  C   UNL     1       5.801  52.486  17.972  1.00  0.00     0.001 A 
ATOM     39  C   UNL     1       6.190  52.957  16.716  1.00  0.00     0.000 A 
ENDBRANCH  32  34
ENDBRANCH  31  32
ENDBRANCH  30  31
ENDBRANCH   8  30
TORSDOF 12
ENDMDL
