MODEL 1
REMARK VINA RESULT:    -2.406      0.000      0.000
REMARK INTER + INTRA:          -2.406
REMARK INTER:                  -2.406
REMARK INTRA:                   0.000
REMARK UNBOUND:                 0.000
REMARK SMILES CC(=O)[O-]
REMARK SMILES IDX 1 1 2 2 3 3 4 4
REMARK H PARENT
REMARK Flexibility Score: inf
ROOT
ATOM      1  C   UNL     1      15.942  29.094  63.801  1.00  0.00     0.063 C 
ATOM      2  C   UNL     1      15.783  27.635  64.064  1.00  0.00     0.038 C 
ATOM      3  O   UNL     1      14.642  27.104  64.017  1.00  0.00    -0.550 OA
ATOM      4  O   UNL     1      16.886  26.866  64.414  1.00  0.00    -0.550 OA
ENDROOT
TORSDOF 0
ENDMDL
MODEL 2
REMARK VINA RESULT:    -2.360      0.132      1.625
REMARK INTER + INTRA:          -2.360
REMARK INTER:                  -2.360
REMARK INTRA:                   0.000
REMARK UNBOUND:                 0.000
REMARK SMILES CC(=O)[O-]
REMARK SMILES IDX 1 1 2 2 3 3 4 4
REMARK H PARENT
REMARK Flexibility Score: inf
ROOT
ATOM      1  C   UNL     1      15.997  29.155  63.710  1.00  0.00     0.063 C 
ATOM      2  C   UNL     1      15.797  27.722  64.066  1.00  0.00     0.038 C 
ATOM      3  O   UNL     1      16.784  27.005  64.380  1.00  0.00    -0.550 OA
ATOM      4  O   UNL     1      14.529  27.158  64.000  1.00  0.00    -0.550 OA
ENDROOT
TORSDOF 0
ENDMDL
MODEL 3
REMARK VINA RESULT:    -2.285      7.466      7.988
REMARK INTER + INTRA:          -2.285
REMARK INTER:                  -2.285
REMARK INTRA:                   0.000
REMARK UNBOUND:                 0.000
REMARK SMILES CC(=O)[O-]
REMARK SMILES IDX 1 1 2 2 3 3 4 4
REMARK H PARENT
REMARK Flexibility Score: inf
ROOT
ATOM      1  C   UNL     1       7.416  30.081  61.312  1.00  0.00     0.063 C 
ATOM      2  C   UNL     1       8.756  29.458  61.117  1.00  0.00     0.038 C 
ATOM      3  O   UNL     1       8.939  28.627  60.188  1.00  0.00    -0.550 OA
ATOM      4  O   UNL     1       9.794  29.751  61.993  1.00  0.00    -0.550 OA
ENDROOT
TORSDOF 0
ENDMDL
MODEL 4
REMARK VINA RESULT:    -2.284      2.110      2.556
REMARK INTER + INTRA:          -2.284
REMARK INTER:                  -2.284
REMARK INTRA:                   0.000
REMARK UNBOUND:                 0.000
REMARK SMILES CC(=O)[O-]
REMARK SMILES IDX 1 1 2 2 3 3 4 4
REMARK H PARENT
REMARK Flexibility Score: inf
ROOT
ATOM      1  C   UNL     1      15.700  28.790  63.808  1.00  0.00     0.063 C 
ATOM      2  C   UNL     1      14.764  28.667  62.654  1.00  0.00     0.038 C 
ATOM      3  O   UNL     1      13.863  27.787  62.661  1.00  0.00    -0.550 OA
ATOM      4  O   UNL     1      14.918  29.486  61.543  1.00  0.00    -0.550 OA
ENDROOT
TORSDOF 0
ENDMDL
MODEL 5
REMARK VINA RESULT:    -2.260      6.768      7.280
REMARK INTER + INTRA:          -2.260
REMARK INTER:                  -2.260
REMARK INTRA:                   0.000
REMARK UNBOUND:                 0.000
REMARK SMILES CC(=O)[O-]
REMARK SMILES IDX 1 1 2 2 3 3 4 4
REMARK H PARENT
REMARK Flexibility Score: inf
ROOT
ATOM      1  C   UNL     1       9.345  29.208  60.000  1.00  0.00     0.063 C 
ATOM      2  C   UNL     1       9.409  29.544  61.451  1.00  0.00     0.038 C 
ATOM      3  O   UNL     1       8.351  29.628  62.128  1.00  0.00    -0.550 OA
ATOM      4  O   UNL     1      10.633  29.820  62.048  1.00  0.00    -0.550 OA
ENDROOT
TORSDOF 0
ENDMDL
MODEL 6
REMARK VINA RESULT:    -2.259      6.474      6.955
REMARK INTER + INTRA:          -2.259
REMARK INTER:                  -2.259
REMARK INTRA:                   0.000
REMARK UNBOUND:                 0.000
REMARK SMILES CC(=O)[O-]
REMARK SMILES IDX 1 1 2 2 3 3 4 4
REMARK H PARENT
REMARK Flexibility Score: inf
ROOT
ATOM      1  C   UNL     1       8.931  28.997  60.395  1.00  0.00     0.063 C 
ATOM      2  C   UNL     1      10.279  29.481  60.810  1.00  0.00     0.038 C 
ATOM      3  O   UNL     1      11.214  29.545  59.969  1.00  0.00    -0.550 OA
ATOM      4  O   UNL     1      10.522  29.811  62.137  1.00  0.00    -0.550 OA
ENDROOT
TORSDOF 0
ENDMDL
MODEL 7
REMARK VINA RESULT:    -2.217      1.533      1.797
REMARK INTER + INTRA:          -2.217
REMARK INTER:                  -2.217
REMARK INTRA:                   0.000
REMARK UNBOUND:                 0.000
REMARK SMILES CC(=O)[O-]
REMARK SMILES IDX 1 1 2 2 3 3 4 4
REMARK H PARENT
REMARK Flexibility Score: inf
ROOT
ATOM      1  C   UNL     1      15.424  29.245  62.469  1.00  0.00     0.063 C 
ATOM      2  C   UNL     1      14.609  28.104  62.973  1.00  0.00     0.038 C 
ATOM      3  O   UNL     1      13.497  27.839  62.446  1.00  0.00    -0.550 OA
ATOM      4  O   UNL     1      15.050  27.361  64.062  1.00  0.00    -0.550 OA
ENDROOT
TORSDOF 0
ENDMDL
MODEL 8
REMARK VINA RESULT:    -2.146     12.054     12.603
REMARK INTER + INTRA:          -2.146
REMARK INTER:                  -2.146
REMARK INTRA:                   0.000
REMARK UNBOUND:                 0.000
REMARK SMILES CC(=O)[O-]
REMARK SMILES IDX 1 1 2 2 3 3 4 4
REMARK H PARENT
REMARK Flexibility Score: inf
ROOT
ATOM      1  C   UNL     1       8.259  24.007  72.782  1.00  0.00     0.063 C 
ATOM      2  C   UNL     1       7.064  23.599  71.990  1.00  0.00     0.038 C 
ATOM      3  O   UNL     1       6.831  24.136  70.875  1.00  0.00    -0.550 OA
ATOM      4  O   UNL     1       6.174  22.664  72.503  1.00  0.00    -0.550 OA
ENDROOT
TORSDOF 0
ENDMDL
MODEL 9
REMARK VINA RESULT:    -2.133      4.727      5.364
REMARK INTER + INTRA:          -2.133
REMARK INTER:                  -2.133
REMARK INTRA:                   0.000
REMARK UNBOUND:                 0.000
REMARK SMILES CC(=O)[O-]
REMARK SMILES IDX 1 1 2 2 3 3 4 4
REMARK H PARENT
REMARK Flexibility Score: inf
ROOT
ATOM      1  C   UNL     1      12.009  28.460  60.600  1.00  0.00     0.063 C 
ATOM      2  C   UNL     1      11.997  29.504  61.663  1.00  0.00     0.038 C 
ATOM      3  O   UNL     1      13.072  30.051  62.025  1.00  0.00    -0.550 OA
ATOM      4  O   UNL     1      10.807  29.840  62.296  1.00  0.00    -0.550 OA
ENDROOT
TORSDOF 0
ENDMDL
