MODEL 1
REMARK VINA RESULT:    -3.559      0.000      0.000
REMARK INTER + INTRA:          -4.068
REMARK INTER:                  -3.975
REMARK INTRA:                  -0.092
REMARK UNBOUND:                -0.092
REMARK SMILES CCc1ccc(O)cc1O
REMARK SMILES IDX 3 1 9 2 8 3 6 4 5 5 4 6 2 7 1 8 10 9 7 11
REMARK H PARENT 10 10 7 12
REMARK Flexibility Score: inf
ROOT
ATOM      1  C   UNL     1      -6.676   7.292  -3.777  1.00  0.00    -0.006 A 
ATOM      2  C   UNL     1      -7.017   5.983  -4.173  1.00  0.00     0.122 A 
ATOM      3  C   UNL     1      -6.044   4.972  -4.153  1.00  0.00     0.092 A 
ATOM      4  C   UNL     1      -4.738   5.253  -3.733  1.00  0.00     0.119 A 
ATOM      5  C   UNL     1      -4.405   6.548  -3.327  1.00  0.00     0.047 A 
ATOM      6  C   UNL     1      -5.366   7.560  -3.344  1.00  0.00     0.011 A 
ENDROOT
BRANCH   1   7
ATOM      7  C   UNL     1      -7.708   8.390  -3.759  1.00  0.00     0.036 C 
ATOM      8  C   UNL     1      -7.694   9.124  -2.422  1.00  0.00     0.009 C 
ENDBRANCH   1   7
BRANCH   2   9
ATOM      9  O   UNL     1      -8.318   5.688  -4.580  1.00  0.00    -0.508 OA
ATOM     10  H   UNL     1      -8.606   5.781  -5.547  1.00  0.00     0.293 HD
ENDBRANCH   2   9
BRANCH   4  11
ATOM     11  O   UNL     1      -3.768   4.255  -3.711  1.00  0.00    -0.508 OA
ATOM     12  H   UNL     1      -3.906   3.392  -3.198  1.00  0.00     0.293 HD
ENDBRANCH   4  11
TORSDOF 3
ENDMDL
MODEL 2
REMARK VINA RESULT:    -3.490      1.571      3.913
REMARK INTER + INTRA:          -3.990
REMARK INTER:                  -3.894
REMARK INTRA:                  -0.096
REMARK UNBOUND:                -0.092
REMARK SMILES CCc1ccc(O)cc1O
REMARK SMILES IDX 3 1 9 2 8 3 6 4 5 5 4 6 2 7 1 8 10 9 7 11
REMARK H PARENT 10 10 7 12
REMARK Flexibility Score: inf
ROOT
ATOM      1  C   UNL     1      -6.276   7.221  -3.123  1.00  0.00    -0.006 A 
ATOM      2  C   UNL     1      -7.203   6.596  -3.981  1.00  0.00     0.122 A 
ATOM      3  C   UNL     1      -8.428   7.220  -4.260  1.00  0.00     0.092 A 
ATOM      4  C   UNL     1      -8.732   8.467  -3.699  1.00  0.00     0.119 A 
ATOM      5  C   UNL     1      -7.807   9.093  -2.860  1.00  0.00     0.047 A 
ATOM      6  C   UNL     1      -6.585   8.479  -2.577  1.00  0.00     0.011 A 
ENDROOT
BRANCH   1   7
ATOM      7  C   UNL     1      -4.940   6.587  -2.831  1.00  0.00     0.036 C 
ATOM      8  C   UNL     1      -3.800   7.523  -3.222  1.00  0.00     0.009 C 
ENDBRANCH   1   7
BRANCH   2   9
ATOM      9  O   UNL     1      -6.906   5.360  -4.556  1.00  0.00    -0.508 OA
ATOM     10  H   UNL     1      -6.773   5.257  -5.556  1.00  0.00     0.293 HD
ENDBRANCH   2   9
BRANCH   4  11
ATOM     11  O   UNL     1      -9.946   9.092  -3.971  1.00  0.00    -0.508 OA
ATOM     12  H   UNL     1     -10.074  10.088  -3.831  1.00  0.00     0.293 HD
ENDBRANCH   4  11
TORSDOF 3
ENDMDL
MODEL 3
REMARK VINA RESULT:    -3.404      1.599      4.349
REMARK INTER + INTRA:          -3.894
REMARK INTER:                  -3.808
REMARK INTRA:                  -0.086
REMARK UNBOUND:                -0.092
REMARK SMILES CCc1ccc(O)cc1O
REMARK SMILES IDX 3 1 9 2 8 3 6 4 5 5 4 6 2 7 1 8 10 9 7 11
REMARK H PARENT 10 10 7 12
REMARK Flexibility Score: inf
ROOT
ATOM      1  C   UNL     1      -5.088   5.545  -3.912  1.00  0.00    -0.006 A 
ATOM      2  C   UNL     1      -5.106   6.919  -3.596  1.00  0.00     0.122 A 
ATOM      3  C   UNL     1      -6.316   7.628  -3.629  1.00  0.00     0.092 A 
ATOM      4  C   UNL     1      -7.510   6.975  -3.964  1.00  0.00     0.119 A 
ATOM      5  C   UNL     1      -7.494   5.611  -4.263  1.00  0.00     0.047 A 
ATOM      6  C   UNL     1      -6.293   4.898  -4.233  1.00  0.00     0.011 A 
ENDROOT
BRANCH   1   7
ATOM      7  C   UNL     1      -3.807   4.753  -3.854  1.00  0.00     0.036 C 
ATOM      8  C   UNL     1      -3.741   3.747  -5.000  1.00  0.00     0.009 C 
ENDBRANCH   1   7
BRANCH   2   9
ATOM      9  O   UNL     1      -3.925   7.575  -3.248  1.00  0.00    -0.508 OA
ATOM     10  H   UNL     1      -3.868   8.168  -2.428  1.00  0.00     0.293 HD
ENDBRANCH   2   9
BRANCH   4  11
ATOM     11  O   UNL     1      -8.715   7.673  -3.999  1.00  0.00    -0.508 OA
ATOM     12  H   UNL     1      -9.192   7.950  -3.149  1.00  0.00     0.293 HD
ENDBRANCH   4  11
TORSDOF 3
ENDMDL
MODEL 4
REMARK VINA RESULT:    -3.310      1.551      2.702
REMARK INTER + INTRA:          -3.789
REMARK INTER:                  -3.688
REMARK INTRA:                  -0.101
REMARK UNBOUND:                -0.092
REMARK SMILES CCc1ccc(O)cc1O
REMARK SMILES IDX 3 1 9 2 8 3 6 4 5 5 4 6 2 7 1 8 10 9 7 11
REMARK H PARENT 10 10 7 12
REMARK Flexibility Score: inf
ROOT
ATOM      1  C   UNL     1      -7.014   5.958  -4.173  1.00  0.00    -0.006 A 
ATOM      2  C   UNL     1      -6.516   7.208  -3.754  1.00  0.00     0.122 A 
ATOM      3  C   UNL     1      -5.167   7.336  -3.391  1.00  0.00     0.092 A 
ATOM      4  C   UNL     1      -4.309   6.230  -3.452  1.00  0.00     0.119 A 
ATOM      5  C   UNL     1      -4.800   4.995  -3.881  1.00  0.00     0.047 A 
ATOM      6  C   UNL     1      -6.142   4.859  -4.244  1.00  0.00     0.011 A 
ENDROOT
BRANCH   1   7
ATOM      7  C   UNL     1      -8.452   5.800  -4.598  1.00  0.00     0.036 C 
ATOM      8  C   UNL     1      -8.545   5.502  -6.092  1.00  0.00     0.009 C 
ENDBRANCH   1   7
BRANCH   2   9
ATOM      9  O   UNL     1      -7.358   8.319  -3.703  1.00  0.00    -0.508 OA
ATOM     10  H   UNL     1      -8.365   8.227  -3.781  1.00  0.00     0.293 HD
ENDBRANCH   2   9
BRANCH   4  11
ATOM     11  O   UNL     1      -2.969   6.350  -3.092  1.00  0.00    -0.508 OA
ATOM     12  H   UNL     1      -2.239   5.857  -3.593  1.00  0.00     0.293 HD
ENDBRANCH   4  11
TORSDOF 3
ENDMDL
MODEL 5
REMARK VINA RESULT:    -3.284      2.288      4.225
REMARK INTER + INTRA:          -3.761
REMARK INTER:                  -3.666
REMARK INTRA:                  -0.095
REMARK UNBOUND:                -0.092
REMARK SMILES CCc1ccc(O)cc1O
REMARK SMILES IDX 3 1 9 2 8 3 6 4 5 5 4 6 2 7 1 8 10 9 7 11
REMARK H PARENT 10 10 7 12
REMARK Flexibility Score: inf
ROOT
ATOM      1  C   UNL     1      -5.983   6.934  -2.907  1.00  0.00    -0.006 A 
ATOM      2  C   UNL     1      -6.853   7.336  -1.873  1.00  0.00     0.122 A 
ATOM      3  C   UNL     1      -8.009   8.068  -2.177  1.00  0.00     0.092 A 
ATOM      4  C   UNL     1      -8.311   8.395  -3.506  1.00  0.00     0.119 A 
ATOM      5  C   UNL     1      -7.456   7.985  -4.532  1.00  0.00     0.047 A 
ATOM      6  C   UNL     1      -6.303   7.255  -4.237  1.00  0.00     0.011 A 
ENDROOT
BRANCH   1   7
ATOM      7  C   UNL     1      -4.750   6.120  -2.611  1.00  0.00     0.036 C 
ATOM      8  C   UNL     1      -3.489   6.886  -2.998  1.00  0.00     0.009 C 
ENDBRANCH   1   7
BRANCH   2   9
ATOM      9  O   UNL     1      -6.569   7.004  -0.548  1.00  0.00    -0.508 OA
ATOM     10  H   UNL     1      -6.918   6.151  -0.126  1.00  0.00     0.293 HD
ENDBRANCH   2   9
BRANCH   4  11
ATOM     11  O   UNL     1      -9.457   9.123  -3.815  1.00  0.00    -0.508 OA
ATOM     12  H   UNL     1      -9.544   9.631  -4.689  1.00  0.00     0.293 HD
ENDBRANCH   4  11
TORSDOF 3
ENDMDL
MODEL 6
REMARK VINA RESULT:    -3.284      1.043      3.489
REMARK INTER + INTRA:          -3.760
REMARK INTER:                  -3.672
REMARK INTRA:                  -0.088
REMARK UNBOUND:                -0.092
REMARK SMILES CCc1ccc(O)cc1O
REMARK SMILES IDX 3 1 9 2 8 3 6 4 5 5 4 6 2 7 1 8 10 9 7 11
REMARK H PARENT 10 10 7 12
REMARK Flexibility Score: inf
ROOT
ATOM      1  C   UNL     1      -4.905   6.545  -3.368  1.00  0.00    -0.006 A 
ATOM      2  C   UNL     1      -5.459   5.485  -4.113  1.00  0.00     0.122 A 
ATOM      3  C   UNL     1      -6.815   5.515  -4.470  1.00  0.00     0.092 A 
ATOM      4  C   UNL     1      -7.621   6.600  -4.099  1.00  0.00     0.119 A 
ATOM      5  C   UNL     1      -7.068   7.657  -3.373  1.00  0.00     0.047 A 
ATOM      6  C   UNL     1      -5.719   7.635  -3.013  1.00  0.00     0.011 A 
ENDROOT
BRANCH   1   7
ATOM      7  C   UNL     1      -3.444   6.553  -2.998  1.00  0.00     0.036 C 
ATOM      8  C   UNL     1      -2.875   7.967  -3.069  1.00  0.00     0.009 C 
ENDBRANCH   1   7
BRANCH   2   9
ATOM      9  O   UNL     1      -4.662   4.407  -4.500  1.00  0.00    -0.508 OA
ATOM     10  H   UNL     1      -3.992   3.987  -3.866  1.00  0.00     0.293 HD
ENDBRANCH   2   9
BRANCH   4  11
ATOM     11  O   UNL     1      -8.969   6.636  -4.449  1.00  0.00    -0.508 OA
ATOM     12  H   UNL     1      -9.519   5.788  -4.529  1.00  0.00     0.293 HD
ENDBRANCH   4  11
TORSDOF 3
ENDMDL
MODEL 7
REMARK VINA RESULT:    -3.168      1.520      1.903
REMARK INTER + INTRA:          -3.631
REMARK INTER:                  -3.532
REMARK INTRA:                  -0.099
REMARK UNBOUND:                -0.092
REMARK SMILES CCc1ccc(O)cc1O
REMARK SMILES IDX 3 1 9 2 8 3 6 4 5 5 4 6 2 7 1 8 10 9 7 11
REMARK H PARENT 10 10 7 12
REMARK Flexibility Score: inf
ROOT
ATOM      1  C   UNL     1      -8.406   7.807  -3.700  1.00  0.00    -0.006 A 
ATOM      2  C   UNL     1      -8.307   6.564  -4.357  1.00  0.00     0.122 A 
ATOM      3  C   UNL     1      -7.075   5.895  -4.405  1.00  0.00     0.092 A 
ATOM      4  C   UNL     1      -5.943   6.451  -3.795  1.00  0.00     0.119 A 
ATOM      5  C   UNL     1      -6.045   7.677  -3.132  1.00  0.00     0.047 A 
ATOM      6  C   UNL     1      -7.268   8.349  -3.079  1.00  0.00     0.011 A 
ENDROOT
BRANCH   1   7
ATOM      7  C   UNL     1      -9.724   8.532  -3.607  1.00  0.00     0.036 C 
ATOM      8  C   UNL     1     -10.491   8.102  -2.360  1.00  0.00     0.009 C 
ENDBRANCH   1   7
BRANCH   2   9
ATOM      9  O   UNL     1      -9.431   5.994  -4.956  1.00  0.00    -0.508 OA
ATOM     10  H   UNL     1      -9.970   5.271  -4.495  1.00  0.00     0.293 HD
ENDBRANCH   2   9
BRANCH   4  11
ATOM     11  O   UNL     1      -4.716   5.794  -3.840  1.00  0.00    -0.508 OA
ATOM     12  H   UNL     1      -4.069   5.825  -3.060  1.00  0.00     0.293 HD
ENDBRANCH   4  11
TORSDOF 3
ENDMDL
MODEL 8
REMARK VINA RESULT:    -2.687      2.245      4.299
REMARK INTER + INTRA:          -3.094
REMARK INTER:                  -3.007
REMARK INTRA:                  -0.087
REMARK UNBOUND:                -0.092
REMARK SMILES CCc1ccc(O)cc1O
REMARK SMILES IDX 3 1 9 2 8 3 6 4 5 5 4 6 2 7 1 8 10 9 7 11
REMARK H PARENT 10 10 7 12
REMARK Flexibility Score: inf
ROOT
ATOM      1  C   UNL     1      -6.764   7.063  -3.892  1.00  0.00    -0.006 A 
ATOM      2  C   UNL     1      -7.577   8.061  -3.319  1.00  0.00     0.122 A 
ATOM      3  C   UNL     1      -8.972   7.981  -3.443  1.00  0.00     0.092 A 
ATOM      4  C   UNL     1      -9.563   6.909  -4.126  1.00  0.00     0.119 A 
ATOM      5  C   UNL     1      -8.756   5.913  -4.681  1.00  0.00     0.047 A 
ATOM      6  C   UNL     1      -7.366   5.985  -4.562  1.00  0.00     0.011 A 
ENDROOT
BRANCH   1   7
ATOM      7  C   UNL     1      -5.264   7.107  -3.747  1.00  0.00     0.036 C 
ATOM      8  C   UNL     1      -4.681   5.698  -3.721  1.00  0.00     0.009 C 
ENDBRANCH   1   7
BRANCH   2   9
ATOM      9  O   UNL     1      -7.001   9.125  -2.626  1.00  0.00    -0.508 OA
ATOM     10  H   UNL     1      -6.945  10.054  -3.028  1.00  0.00     0.293 HD
ENDBRANCH   2   9
BRANCH   4  11
ATOM     11  O   UNL     1     -10.947   6.824  -4.254  1.00  0.00    -0.508 OA
ATOM     12  H   UNL     1     -11.443   7.320  -4.986  1.00  0.00     0.293 HD
ENDBRANCH   4  11
TORSDOF 3
ENDMDL
