MODEL 1
REMARK VINA RESULT:    -4.640      0.000      0.000
REMARK INTER + INTRA:          -7.644
REMARK INTER:                  -6.403
REMARK INTRA:                  -1.241
REMARK UNBOUND:                -1.241
REMARK SMILES CCCCc1cccc(O)c1CCCC
REMARK SMILES IDX 5 1 11 2 9 3 8 4 7 5 6 6 4 7 3 8 2 9 1 10 12 11 13 12 14 13
REMARK SMILES IDX 15 14 10 15
REMARK H PARENT 10 16
REMARK Flexibility Score: inf
ROOT
ATOM      1  C   UNL     1      29.114  26.072  11.637  1.00  0.00    -0.041 A 
ATOM      2  C   UNL     1      30.477  26.432  11.836  1.00  0.00    -0.003 A 
ATOM      3  C   UNL     1      30.794  27.774  12.149  1.00  0.00     0.119 A 
ATOM      4  C   UNL     1      29.776  28.722  12.301  1.00  0.00     0.046 A 
ATOM      5  C   UNL     1      28.442  28.357  12.138  1.00  0.00     0.004 A 
ATOM      6  C   UNL     1      28.112  27.044  11.811  1.00  0.00     0.004 A 
ENDROOT
BRANCH   1   7
ATOM      7  C   UNL     1      28.683  24.662  11.295  1.00  0.00     0.036 C 
BRANCH   7   8
ATOM      8  C   UNL     1      27.710  24.121  12.352  1.00  0.00     0.004 C 
BRANCH   8   9
ATOM      9  C   UNL     1      28.420  23.718  13.654  1.00  0.00    -0.003 C 
ATOM     10  C   UNL     1      29.498  22.656  13.432  1.00  0.00     0.004 C 
ENDBRANCH   8   9
ENDBRANCH   7   8
ENDBRANCH   1   7
BRANCH   2  11
ATOM     11  C   UNL     1      31.604  25.432  11.665  1.00  0.00     0.040 C 
BRANCH  11  12
ATOM     12  C   UNL     1      32.117  25.434  10.221  1.00  0.00     0.005 C 
BRANCH  12  13
ATOM     13  C   UNL     1      32.044  24.031   9.610  1.00  0.00    -0.003 C 
ATOM     14  C   UNL     1      31.966  22.960  10.695  1.00  0.00     0.004 C 
ENDBRANCH  12  13
ENDBRANCH  11  12
ENDBRANCH   2  11
BRANCH   3  15
ATOM     15  O   UNL     1      32.125  28.162  12.307  1.00  0.00    -0.508 OA
ATOM     16  H   UNL     1      32.689  28.464  11.520  1.00  0.00     0.293 HD
ENDBRANCH   3  15
TORSDOF 7
ENDMDL
MODEL 2
REMARK VINA RESULT:    -4.601      1.901      3.973
REMARK INTER + INTRA:          -7.590
REMARK INTER:                  -6.751
REMARK INTRA:                  -0.839
REMARK UNBOUND:                -1.241
REMARK SMILES CCCCc1cccc(O)c1CCCC
REMARK SMILES IDX 5 1 11 2 9 3 8 4 7 5 6 6 4 7 3 8 2 9 1 10 12 11 13 12 14 13
REMARK SMILES IDX 15 14 10 15
REMARK H PARENT 10 16
REMARK Flexibility Score: inf
ROOT
ATOM      1  C   UNL     1      30.130  23.957  13.328  1.00  0.00    -0.041 A 
ATOM      2  C   UNL     1      30.137  24.936  12.295  1.00  0.00    -0.003 A 
ATOM      3  C   UNL     1      28.923  25.256  11.644  1.00  0.00     0.119 A 
ATOM      4  C   UNL     1      27.727  24.648  12.043  1.00  0.00     0.046 A 
ATOM      5  C   UNL     1      27.721  23.716  13.077  1.00  0.00     0.004 A 
ATOM      6  C   UNL     1      28.911  23.373  13.716  1.00  0.00     0.004 A 
ENDROOT
BRANCH   1   7
ATOM      7  C   UNL     1      31.381  23.548  14.074  1.00  0.00     0.036 C 
BRANCH   7   8
ATOM      8  C   UNL     1      31.886  22.184  13.579  1.00  0.00     0.004 C 
BRANCH   8   9
ATOM      9  C   UNL     1      31.662  21.065  14.607  1.00  0.00    -0.003 C 
ATOM     10  C   UNL     1      30.541  20.109  14.201  1.00  0.00     0.004 C 
ENDBRANCH   8   9
ENDBRANCH   7   8
ENDBRANCH   1   7
BRANCH   2  11
ATOM     11  C   UNL     1      31.416  25.603  11.829  1.00  0.00     0.040 C 
BRANCH  11  12
ATOM     12  C   UNL     1      31.760  26.802  12.721  1.00  0.00     0.005 C 
BRANCH  12  13
ATOM     13  C   UNL     1      31.342  28.118  12.058  1.00  0.00    -0.003 C 
ATOM     14  C   UNL     1      30.043  28.651  12.659  1.00  0.00     0.004 C 
ENDBRANCH  12  13
ENDBRANCH  11  12
ENDBRANCH   2  11
BRANCH   3  15
ATOM     15  O   UNL     1      28.909  26.181  10.599  1.00  0.00    -0.508 OA
ATOM     16  H   UNL     1      29.765  26.504  10.162  1.00  0.00     0.293 HD
ENDBRANCH   3  15
TORSDOF 7
ENDMDL
MODEL 3
REMARK VINA RESULT:    -4.433      1.152      4.105
REMARK INTER + INTRA:          -7.359
REMARK INTER:                  -6.289
REMARK INTRA:                  -1.070
REMARK UNBOUND:                -1.241
REMARK SMILES CCCCc1cccc(O)c1CCCC
REMARK SMILES IDX 5 1 11 2 9 3 8 4 7 5 6 6 4 7 3 8 2 9 1 10 12 11 13 12 14 13
REMARK SMILES IDX 15 14 10 15
REMARK H PARENT 10 16
REMARK Flexibility Score: inf
ROOT
ATOM      1  C   UNL     1      30.910  24.080  12.146  1.00  0.00    -0.041 A 
ATOM      2  C   UNL     1      31.031  25.364  11.544  1.00  0.00    -0.003 A 
ATOM      3  C   UNL     1      31.643  25.473  10.274  1.00  0.00     0.119 A 
ATOM      4  C   UNL     1      32.083  24.326   9.603  1.00  0.00     0.046 A 
ATOM      5  C   UNL     1      31.932  23.069  10.182  1.00  0.00     0.004 A 
ATOM      6  C   UNL     1      31.349  22.945  11.441  1.00  0.00     0.004 A 
ENDROOT
BRANCH   1   7
ATOM      7  C   UNL     1      30.274  23.870  13.503  1.00  0.00     0.036 C 
BRANCH   7   8
ATOM      8  C   UNL     1      28.949  23.107  13.369  1.00  0.00     0.004 C 
BRANCH   8   9
ATOM      9  C   UNL     1      27.753  24.040  13.131  1.00  0.00    -0.003 C 
ATOM     10  C   UNL     1      27.112  23.837  11.757  1.00  0.00     0.004 C 
ENDBRANCH   8   9
ENDBRANCH   7   8
ENDBRANCH   1   7
BRANCH   2  11
ATOM     11  C   UNL     1      30.577  26.627  12.250  1.00  0.00     0.040 C 
BRANCH  11  12
ATOM     12  C   UNL     1      29.156  27.010  11.818  1.00  0.00     0.005 C 
BRANCH  12  13
ATOM     13  C   UNL     1      28.850  28.470  12.169  1.00  0.00    -0.003 C 
ATOM     14  C   UNL     1      29.951  29.400  11.666  1.00  0.00     0.004 C 
ENDBRANCH  12  13
ENDBRANCH  11  12
ENDBRANCH   2  11
BRANCH   3  15
ATOM     15  O   UNL     1      31.812  26.724   9.681  1.00  0.00    -0.508 OA
ATOM     16  H   UNL     1      31.369  27.556  10.055  1.00  0.00     0.293 HD
ENDBRANCH   3  15
TORSDOF 7
ENDMDL
MODEL 4
REMARK VINA RESULT:    -4.414      1.955      4.888
REMARK INTER + INTRA:          -7.332
REMARK INTER:                  -6.355
REMARK INTRA:                  -0.978
REMARK UNBOUND:                -1.241
REMARK SMILES CCCCc1cccc(O)c1CCCC
REMARK SMILES IDX 5 1 11 2 9 3 8 4 7 5 6 6 4 7 3 8 2 9 1 10 12 11 13 12 14 13
REMARK SMILES IDX 15 14 10 15
REMARK H PARENT 10 16
REMARK Flexibility Score: inf
ROOT
ATOM      1  C   UNL     1      31.005  24.995  11.488  1.00  0.00    -0.041 A 
ATOM      2  C   UNL     1      31.001  23.748  12.174  1.00  0.00    -0.003 A 
ATOM      3  C   UNL     1      31.533  22.608  11.530  1.00  0.00     0.119 A 
ATOM      4  C   UNL     1      32.093  22.716  10.252  1.00  0.00     0.046 A 
ATOM      5  C   UNL     1      32.125  23.946   9.598  1.00  0.00     0.004 A 
ATOM      6  C   UNL     1      31.588  25.076  10.210  1.00  0.00     0.004 A 
ENDROOT
BRANCH   1   7
ATOM      7  C   UNL     1      30.453  26.265  12.097  1.00  0.00     0.036 C 
BRANCH   7   8
ATOM      8  C   UNL     1      29.357  26.864  11.204  1.00  0.00     0.004 C 
BRANCH   8   9
ATOM      9  C   UNL     1      28.563  27.974  11.909  1.00  0.00    -0.003 C 
ATOM     10  C   UNL     1      29.461  28.934  12.690  1.00  0.00     0.004 C 
ENDBRANCH   8   9
ENDBRANCH   7   8
ENDBRANCH   1   7
BRANCH   2  11
ATOM     11  C   UNL     1      30.390  23.593  13.553  1.00  0.00     0.040 C 
BRANCH  11  12
ATOM     12  C   UNL     1      28.991  22.974  13.461  1.00  0.00     0.005 C 
BRANCH  12  13
ATOM     13  C   UNL     1      27.929  24.049  13.212  1.00  0.00    -0.003 C 
ATOM     14  C   UNL     1      27.240  23.844  11.865  1.00  0.00     0.004 C 
ENDBRANCH  12  13
ENDBRANCH  11  12
ENDBRANCH   2  11
BRANCH   3  15
ATOM     15  O   UNL     1      31.502  21.365  12.164  1.00  0.00    -0.508 OA
ATOM     16  H   UNL     1      30.825  20.654  11.910  1.00  0.00     0.293 HD
ENDBRANCH   3  15
TORSDOF 7
ENDMDL
MODEL 5
REMARK VINA RESULT:    -4.367      1.835      3.680
REMARK INTER + INTRA:          -7.267
REMARK INTER:                  -6.211
REMARK INTRA:                  -1.056
REMARK UNBOUND:                -1.241
REMARK SMILES CCCCc1cccc(O)c1CCCC
REMARK SMILES IDX 5 1 11 2 9 3 8 4 7 5 6 6 4 7 3 8 2 9 1 10 12 11 13 12 14 13
REMARK SMILES IDX 15 14 10 15
REMARK H PARENT 10 16
REMARK Flexibility Score: inf
ROOT
ATOM      1  C   UNL     1      31.186  25.896  12.318  1.00  0.00    -0.041 A 
ATOM      2  C   UNL     1      29.815  25.782  11.949  1.00  0.00    -0.003 A 
ATOM      3  C   UNL     1      29.032  26.954  11.846  1.00  0.00     0.119 A 
ATOM      4  C   UNL     1      29.610  28.211  12.062  1.00  0.00     0.046 A 
ATOM      5  C   UNL     1      30.960  28.318  12.390  1.00  0.00     0.004 A 
ATOM      6  C   UNL     1      31.742  27.172  12.516  1.00  0.00     0.004 A 
ENDROOT
BRANCH   1   7
ATOM      7  C   UNL     1      32.096  24.696  12.458  1.00  0.00     0.036 C 
BRANCH   7   8
ATOM      8  C   UNL     1      32.125  24.204  13.913  1.00  0.00     0.004 C 
BRANCH   8   9
ATOM      9  C   UNL     1      31.947  22.682  14.023  1.00  0.00    -0.003 C 
ATOM     10  C   UNL     1      31.871  21.998  12.657  1.00  0.00     0.004 C 
ENDBRANCH   8   9
ENDBRANCH   7   8
ENDBRANCH   1   7
BRANCH   2  11
ATOM     11  C   UNL     1      29.155  24.437  11.721  1.00  0.00     0.040 C 
BRANCH  11  12
ATOM     12  C   UNL     1      28.605  23.872  13.036  1.00  0.00     0.005 C 
BRANCH  12  13
ATOM     13  C   UNL     1      27.079  23.739  12.981  1.00  0.00    -0.003 C 
ATOM     14  C   UNL     1      26.588  23.613  11.541  1.00  0.00     0.004 C 
ENDBRANCH  12  13
ENDBRANCH  11  12
ENDBRANCH   2  11
BRANCH   3  15
ATOM     15  O   UNL     1      27.676  26.868  11.527  1.00  0.00    -0.508 OA
ATOM     16  H   UNL     1      26.968  26.745  12.242  1.00  0.00     0.293 HD
ENDBRANCH   3  15
TORSDOF 7
ENDMDL
MODEL 6
REMARK VINA RESULT:    -4.204      2.196      4.853
REMARK INTER + INTRA:          -7.042
REMARK INTER:                  -5.913
REMARK INTRA:                  -1.129
REMARK UNBOUND:                -1.241
REMARK SMILES CCCCc1cccc(O)c1CCCC
REMARK SMILES IDX 5 1 11 2 9 3 8 4 7 5 6 6 4 7 3 8 2 9 1 10 12 11 13 12 14 13
REMARK SMILES IDX 15 14 10 15
REMARK H PARENT 10 16
REMARK Flexibility Score: inf
ROOT
ATOM      1  C   UNL     1      30.559  22.640  12.993  1.00  0.00    -0.041 A 
ATOM      2  C   UNL     1      30.952  22.932  11.656  1.00  0.00    -0.003 A 
ATOM      3  C   UNL     1      31.690  21.969  10.931  1.00  0.00     0.119 A 
ATOM      4  C   UNL     1      31.990  20.729  11.508  1.00  0.00     0.046 A 
ATOM      5  C   UNL     1      31.574  20.436  12.804  1.00  0.00     0.004 A 
ATOM      6  C   UNL     1      30.863  21.381  13.540  1.00  0.00     0.004 A 
ENDROOT
BRANCH   1   7
ATOM      7  C   UNL     1      29.773  23.612  13.845  1.00  0.00     0.036 C 
BRANCH   7   8
ATOM      8  C   UNL     1      28.264  23.376  13.685  1.00  0.00     0.004 C 
BRANCH   8   9
ATOM      9  C   UNL     1      27.602  24.404  12.754  1.00  0.00    -0.003 C 
ATOM     10  C   UNL     1      26.936  23.756  11.540  1.00  0.00     0.004 C 
ENDBRANCH   8   9
ENDBRANCH   7   8
ENDBRANCH   1   7
BRANCH   2  11
ATOM     11  C   UNL     1      30.655  24.270  11.007  1.00  0.00     0.040 C 
BRANCH  11  12
ATOM     12  C   UNL     1      31.640  25.340  11.492  1.00  0.00     0.005 C 
BRANCH  12  13
ATOM     13  C   UNL     1      30.926  26.674  11.734  1.00  0.00    -0.003 C 
ATOM     14  C   UNL     1      29.606  26.740  10.970  1.00  0.00     0.004 C 
ENDBRANCH  12  13
ENDBRANCH  11  12
ENDBRANCH   2  11
BRANCH   3  15
ATOM     15  O   UNL     1      32.125  22.248   9.635  1.00  0.00    -0.508 OA
ATOM     16  H   UNL     1      33.109  22.356   9.414  1.00  0.00     0.293 HD
ENDBRANCH   3  15
TORSDOF 7
ENDMDL
MODEL 7
REMARK VINA RESULT:    -4.160      1.920      4.493
REMARK INTER + INTRA:          -6.981
REMARK INTER:                  -6.407
REMARK INTRA:                  -0.574
REMARK UNBOUND:                -1.241
REMARK SMILES CCCCc1cccc(O)c1CCCC
REMARK SMILES IDX 5 1 11 2 9 3 8 4 7 5 6 6 4 7 3 8 2 9 1 10 12 11 13 12 14 13
REMARK SMILES IDX 15 14 10 15
REMARK H PARENT 10 16
REMARK Flexibility Score: inf
ROOT
ATOM      1  C   UNL     1      29.886  25.894  11.150  1.00  0.00    -0.041 A 
ATOM      2  C   UNL     1      30.046  24.481  11.233  1.00  0.00    -0.003 A 
ATOM      3  C   UNL     1      31.135  23.873  10.568  1.00  0.00     0.119 A 
ATOM      4  C   UNL     1      32.066  24.657   9.875  1.00  0.00     0.046 A 
ATOM      5  C   UNL     1      31.923  26.042   9.826  1.00  0.00     0.004 A 
ATOM      6  C   UNL     1      30.845  26.656  10.459  1.00  0.00     0.004 A 
ENDROOT
BRANCH   1   7
ATOM      7  C   UNL     1      28.749  26.628  11.825  1.00  0.00     0.036 C 
BRANCH   7   8
ATOM      8  C   UNL     1      28.648  28.069  11.304  1.00  0.00     0.004 C 
BRANCH   8   9
ATOM      9  C   UNL     1      29.403  29.070  12.190  1.00  0.00    -0.003 C 
ATOM     10  C   UNL     1      30.173  30.112  11.378  1.00  0.00     0.004 C 
ENDBRANCH   8   9
ENDBRANCH   7   8
ENDBRANCH   1   7
BRANCH   2  11
ATOM     11  C   UNL     1      29.049  23.603  11.963  1.00  0.00     0.040 C 
BRANCH  11  12
ATOM     12  C   UNL     1      29.471  23.399  13.422  1.00  0.00     0.005 C 
BRANCH  12  13
ATOM     13  C   UNL     1      29.915  21.954  13.670  1.00  0.00    -0.003 C 
ATOM     14  C   UNL     1      31.357  21.897  14.167  1.00  0.00     0.004 C 
ENDBRANCH  12  13
ENDBRANCH  11  12
ENDBRANCH   2  11
BRANCH   3  15
ATOM     15  O   UNL     1      31.290  22.487  10.596  1.00  0.00    -0.508 OA
ATOM     16  H   UNL     1      30.753  21.904  11.228  1.00  0.00     0.293 HD
ENDBRANCH   3  15
TORSDOF 7
ENDMDL
MODEL 8
REMARK VINA RESULT:    -4.018      1.336      4.140
REMARK INTER + INTRA:          -6.785
REMARK INTER:                  -5.965
REMARK INTRA:                  -0.820
REMARK UNBOUND:                -1.241
REMARK SMILES CCCCc1cccc(O)c1CCCC
REMARK SMILES IDX 5 1 11 2 9 3 8 4 7 5 6 6 4 7 3 8 2 9 1 10 12 11 13 12 14 13
REMARK SMILES IDX 15 14 10 15
REMARK H PARENT 10 16
REMARK Flexibility Score: inf
ROOT
ATOM      1  C   UNL     1      30.662  23.967  11.856  1.00  0.00    -0.041 A 
ATOM      2  C   UNL     1      30.687  25.352  11.523  1.00  0.00    -0.003 A 
ATOM      3  C   UNL     1      31.445  25.776  10.408  1.00  0.00     0.119 A 
ATOM      4  C   UNL     1      32.125  24.841   9.619  1.00  0.00     0.046 A 
ATOM      5  C   UNL     1      32.069  23.484   9.929  1.00  0.00     0.004 A 
ATOM      6  C   UNL     1      31.343  23.050  11.036  1.00  0.00     0.004 A 
ENDROOT
BRANCH   1   7
ATOM      7  C   UNL     1      29.883  23.424  13.034  1.00  0.00     0.036 C 
BRANCH   7   8
ATOM      8  C   UNL     1      30.802  23.235  14.250  1.00  0.00     0.004 C 
BRANCH   8   9
ATOM      9  C   UNL     1      31.199  21.766  14.465  1.00  0.00    -0.003 C 
ATOM     10  C   UNL     1      30.260  20.793  13.753  1.00  0.00     0.004 C 
ENDBRANCH   8   9
ENDBRANCH   7   8
ENDBRANCH   1   7
BRANCH   2  11
ATOM     11  C   UNL     1      29.974  26.392  12.365  1.00  0.00     0.040 C 
BRANCH  11  12
ATOM     12  C   UNL     1      28.582  26.690  11.795  1.00  0.00     0.005 C 
BRANCH  12  13
ATOM     13  C   UNL     1      28.264  28.186  11.878  1.00  0.00    -0.003 C 
ATOM     14  C   UNL     1      29.496  28.991  12.281  1.00  0.00     0.004 C 
ENDBRANCH  12  13
ENDBRANCH  11  12
ENDBRANCH   2  11
BRANCH   3  15
ATOM     15  O   UNL     1      31.522  27.132  10.086  1.00  0.00    -0.508 OA
ATOM     16  H   UNL     1      32.326  27.521   9.608  1.00  0.00     0.293 HD
ENDBRANCH   3  15
TORSDOF 7
ENDMDL
MODEL 9
REMARK VINA RESULT:    -3.954      1.768      3.891
REMARK INTER + INTRA:          -6.697
REMARK INTER:                  -5.768
REMARK INTRA:                  -0.929
REMARK UNBOUND:                -1.241
REMARK SMILES CCCCc1cccc(O)c1CCCC
REMARK SMILES IDX 5 1 11 2 9 3 8 4 7 5 6 6 4 7 3 8 2 9 1 10 12 11 13 12 14 13
REMARK SMILES IDX 15 14 10 15
REMARK H PARENT 10 16
REMARK Flexibility Score: inf
ROOT
ATOM      1  C   UNL     1      28.913  25.373  12.058  1.00  0.00    -0.041 A 
ATOM      2  C   UNL     1      29.965  24.572  12.588  1.00  0.00    -0.003 A 
ATOM      3  C   UNL     1      29.638  23.413  13.329  1.00  0.00     0.119 A 
ATOM      4  C   UNL     1      28.300  23.038  13.499  1.00  0.00     0.046 A 
ATOM      5  C   UNL     1      27.277  23.807  12.949  1.00  0.00     0.004 A 
ATOM      6  C   UNL     1      27.580  24.963  12.233  1.00  0.00     0.004 A 
ENDROOT
BRANCH   1   7
ATOM      7  C   UNL     1      29.170  26.632  11.258  1.00  0.00     0.036 C 
BRANCH   7   8
ATOM      8  C   UNL     1      28.420  27.824  11.870  1.00  0.00     0.004 C 
BRANCH   8   9
ATOM      9  C   UNL     1      29.362  28.968  12.275  1.00  0.00    -0.003 C 
ATOM     10  C   UNL     1      30.837  28.591  12.137  1.00  0.00     0.004 C 
ENDBRANCH   8   9
ENDBRANCH   7   8
ENDBRANCH   1   7
BRANCH   2  11
ATOM     11  C   UNL     1      31.423  24.957  12.434  1.00  0.00     0.040 C 
BRANCH  11  12
ATOM     12  C   UNL     1      32.125  24.035  11.431  1.00  0.00     0.005 C 
BRANCH  12  13
ATOM     13  C   UNL     1      31.747  24.398   9.991  1.00  0.00    -0.003 C 
ATOM     14  C   UNL     1      32.125  25.842   9.669  1.00  0.00     0.004 C 
ENDBRANCH  12  13
ENDBRANCH  11  12
ENDBRANCH   2  11
BRANCH   3  15
ATOM     15  O   UNL     1      30.648  22.635  13.896  1.00  0.00    -0.508 OA
ATOM     16  H   UNL     1      30.678  21.629  13.772  1.00  0.00     0.293 HD
ENDBRANCH   3  15
TORSDOF 7
ENDMDL
