MODEL 1
REMARK VINA RESULT:    -3.652      0.000      0.000
REMARK INTER + INTRA:          -4.610
REMARK INTER:                  -5.573
REMARK INTRA:                   0.963
REMARK UNBOUND:                 0.963
REMARK SMILES CC1=CCC[C@H](C)C(=O)C[C@@H](C(C)C)C(=O)C1
REMARK SMILES IDX 8 1 9 2 6 3 7 4 5 5 4 6 3 7 2 8 1 9 10 11 11 12 15 13 16 14
REMARK SMILES IDX 17 15 12 17 13 18 14 19
REMARK H PARENT
REMARK Flexibility Score: 70.00
ROOT
ATOM      1  C   UNL     1      -6.143  -2.924   9.984  1.00  0.00     0.136 C 
ATOM      2  O   UNL     1      -6.367  -3.875  10.721  1.00  0.00    -0.299 OA
ENDROOT
BRANCH   1   3
ATOM      3  C   UNL     1      -5.340  -3.136   8.714  1.00  0.00     0.053 C 
ATOM      4  C   UNL     1      -4.066  -3.938   9.014  1.00  0.00     0.016 C 
BRANCH   3   5
ATOM      5  C   UNL     1      -6.199  -3.844   7.642  1.00  0.00     0.015 C 
BRANCH   5   6
ATOM      6  C   UNL     1      -6.379  -2.965   6.388  1.00  0.00     0.028 C 
BRANCH   6   7
ATOM      7  C   UNL     1      -7.806  -2.524   6.172  1.00  0.00    -0.028 C 
ATOM      8  C   UNL     1      -8.265  -1.254   6.302  1.00  0.00    -0.070 CG0
ATOM      9  C   UNL     1      -9.706  -0.991   5.946  1.00  0.00     0.039 C 
ATOM     10  G   UNL     1      -7.419  -0.102   6.829  1.00  0.00     0.000 G0
ENDBRANCH   6   7
ENDBRANCH   5   6
ENDBRANCH   3   5
ENDBRANCH   1   3
BRANCH   1  11
ATOM     11  C   UNL     1      -6.663  -1.558  10.372  1.00  0.00     0.087 C 
BRANCH  11  12
ATOM     12  C   UNL     1      -7.592  -0.952   9.286  1.00  0.00     0.066 C 
BRANCH  12  13
ATOM     13  C   UNL     1      -6.785  -0.302   8.169  1.00  0.00     0.140 C 
ATOM     14  O   UNL     1      -5.640   0.078   8.373  1.00  0.00    -0.299 OA
BRANCH  13  15
ATOM     15  C   UNL     1      -7.418  -0.070   6.819  1.00  0.00     0.106 CG0
ATOM     16  G   UNL     1      -8.263  -1.237   6.322  1.00  0.00     0.000 G0
ENDBRANCH  13  15
ENDBRANCH  12  13
BRANCH  12  17
ATOM     17  C   UNL     1      -8.673   0.020   9.864  1.00  0.00    -0.006 C 
ATOM     18  C   UNL     1     -10.042  -0.202   9.199  1.00  0.00     0.008 C 
ATOM     19  C   UNL     1      -8.823  -0.053  11.395  1.00  0.00     0.008 C 
ENDBRANCH  12  17
ENDBRANCH  11  12
ENDBRANCH   1  11
TORSDOF 1
ENDMDL
MODEL 2
REMARK VINA RESULT:    -3.351      1.423      3.693
REMARK INTER + INTRA:          -4.151
REMARK INTER:                  -5.595
REMARK INTRA:                   1.444
REMARK UNBOUND:                 0.963
REMARK SMILES CC1=CCC[C@H](C)C(=O)C[C@@H](C(C)C)C(=O)C1
REMARK SMILES IDX 8 1 9 2 6 3 7 4 5 5 4 6 3 7 2 8 1 9 10 11 11 12 15 13 16 14
REMARK SMILES IDX 17 15 12 17 13 18 14 19
REMARK H PARENT
REMARK Flexibility Score: 70.00
ROOT
ATOM      1  C   UNL     1      -6.580  -2.259  10.258  1.00  0.00     0.136 C 
ATOM      2  O   UNL     1      -6.580  -3.411  10.674  1.00  0.00    -0.299 OA
ENDROOT
BRANCH   1   3
ATOM      3  C   UNL     1      -7.703  -1.321  10.659  1.00  0.00     0.053 C 
ATOM      4  C   UNL     1      -7.192   0.124  10.734  1.00  0.00     0.016 C 
BRANCH   3   5
ATOM      5  C   UNL     1      -8.885  -1.436   9.669  1.00  0.00     0.015 C 
BRANCH   5   6
ATOM      6  C   UNL     1      -9.351  -0.051   9.178  1.00  0.00     0.028 C 
BRANCH   6   7
ATOM      7  C   UNL     1      -9.596   0.001   7.690  1.00  0.00    -0.028 C 
ATOM      8  C   UNL     1      -8.677  -0.277   6.732  1.00  0.00    -0.070 CG0
ATOM      9  C   UNL     1      -9.138  -0.268   5.296  1.00  0.00     0.039 C 
ATOM     10  G   UNL     1      -7.207  -0.550   7.027  1.00  0.00     0.000 G0
ENDBRANCH   6   7
ENDBRANCH   5   6
ENDBRANCH   3   5
ENDBRANCH   1   3
BRANCH   1  11
ATOM     11  C   UNL     1      -5.464  -1.812   9.342  1.00  0.00     0.087 C 
BRANCH  11  12
ATOM     12  C   UNL     1      -5.590  -2.421   7.920  1.00  0.00     0.066 C 
BRANCH  12  13
ATOM     13  C   UNL     1      -6.904  -2.022   7.262  1.00  0.00     0.140 C 
ATOM     14  O   UNL     1      -7.704  -2.878   6.907  1.00  0.00    -0.299 OA
BRANCH  13  15
ATOM     15  C   UNL     1      -7.201  -0.567   6.992  1.00  0.00     0.106 CG0
ATOM     16  G   UNL     1      -8.676  -0.270   6.752  1.00  0.00     0.000 G0
ENDBRANCH  13  15
ENDBRANCH  12  13
BRANCH  12  17
ATOM     17  C   UNL     1      -5.368  -3.969   7.885  1.00  0.00    -0.006 C 
ATOM     18  C   UNL     1      -5.558  -4.534   6.467  1.00  0.00     0.008 C 
ATOM     19  C   UNL     1      -4.003  -4.416   8.442  1.00  0.00     0.008 C 
ENDBRANCH  12  17
ENDBRANCH  11  12
ENDBRANCH   1  11
TORSDOF 1
ENDMDL
MODEL 3
REMARK VINA RESULT:    -3.279      2.315      3.957
REMARK INTER + INTRA:          -4.041
REMARK INTER:                  -4.500
REMARK INTRA:                   0.459
REMARK UNBOUND:                 0.963
REMARK SMILES CC1=CCC[C@H](C)C(=O)C[C@@H](C(C)C)C(=O)C1
REMARK SMILES IDX 8 1 9 2 6 3 7 4 5 5 4 6 3 7 2 8 1 9 10 11 11 12 15 13 16 14
REMARK SMILES IDX 17 15 12 17 13 18 14 19
REMARK H PARENT
REMARK Flexibility Score: 70.00
ROOT
ATOM      1  C   UNL     1      -6.621  -3.475   6.922  1.00  0.00     0.136 C 
ATOM      2  O   UNL     1      -6.824  -3.114   5.770  1.00  0.00    -0.299 OA
ENDROOT
BRANCH   1   3
ATOM      3  C   UNL     1      -5.671  -4.627   7.188  1.00  0.00     0.053 C 
ATOM      4  C   UNL     1      -5.914  -5.763   6.185  1.00  0.00     0.016 C 
BRANCH   3   5
ATOM      5  C   UNL     1      -4.203  -4.145   7.130  1.00  0.00     0.015 C 
BRANCH   5   6
ATOM      6  C   UNL     1      -3.474  -4.387   8.466  1.00  0.00     0.028 C 
BRANCH   6   7
ATOM      7  C   UNL     1      -4.415  -4.592   9.628  1.00  0.00    -0.028 C 
ATOM      8  C   UNL     1      -5.086  -3.610  10.279  1.00  0.00    -0.070 CG0
ATOM      9  C   UNL     1      -6.061  -4.023  11.354  1.00  0.00     0.039 C 
ATOM     10  G   UNL     1      -4.875  -2.125  10.014  1.00  0.00     0.000 G0
ENDBRANCH   6   7
ENDBRANCH   5   6
ENDBRANCH   3   5
ENDBRANCH   1   3
BRANCH   1  11
ATOM     11  C   UNL     1      -7.339  -2.765   8.048  1.00  0.00     0.087 C 
BRANCH  11  12
ATOM     12  C   UNL     1      -6.733  -1.367   8.343  1.00  0.00     0.066 C 
BRANCH  12  13
ATOM     13  C   UNL     1      -6.095  -1.321   9.725  1.00  0.00     0.140 C 
ATOM     14  O   UNL     1      -6.558  -0.599  10.597  1.00  0.00    -0.299 OA
BRANCH  13  15
ATOM     15  C   UNL     1      -4.850  -2.126  10.008  1.00  0.00     0.106 CG0
ATOM     16  G   UNL     1      -5.113  -3.604  10.268  1.00  0.00     0.000 G0
ENDBRANCH  13  15
ENDBRANCH  12  13
BRANCH  12  17
ATOM     17  C   UNL     1      -7.745  -0.193   8.130  1.00  0.00    -0.006 C 
ATOM     18  C   UNL     1      -8.055   0.021   6.639  1.00  0.00     0.008 C 
ATOM     19  C   UNL     1      -9.060  -0.353   8.915  1.00  0.00     0.008 C 
ENDBRANCH  12  17
ENDBRANCH  11  12
ENDBRANCH   1  11
TORSDOF 1
ENDMDL
MODEL 4
REMARK VINA RESULT:    -3.160      1.892      3.874
REMARK INTER + INTRA:          -3.860
REMARK INTER:                  -4.826
REMARK INTRA:                   0.966
REMARK UNBOUND:                 0.963
REMARK SMILES CC1=CCC[C@H](C)C(=O)C[C@@H](C(C)C)C(=O)C1
REMARK SMILES IDX 8 1 9 2 6 3 7 4 5 5 4 6 3 7 2 8 1 9 10 11 11 12 15 13 16 14
REMARK SMILES IDX 17 15 12 17 13 18 14 19
REMARK H PARENT
REMARK Flexibility Score: 70.00
ROOT
ATOM      1  C   UNL     1      -8.318  -0.395   7.480  1.00  0.00     0.136 C 
ATOM      2  O   UNL     1      -9.372   0.125   7.825  1.00  0.00    -0.299 OA
ENDROOT
BRANCH   1   3
ATOM      3  C   UNL     1      -8.342  -1.550   6.497  1.00  0.00     0.053 C 
ATOM      4  C   UNL     1      -8.685  -1.047   5.088  1.00  0.00     0.016 C 
BRANCH   3   5
ATOM      5  C   UNL     1      -6.988  -2.295   6.503  1.00  0.00     0.015 C 
BRANCH   5   6
ATOM      6  C   UNL     1      -7.056  -3.590   7.337  1.00  0.00     0.028 C 
BRANCH   6   7
ATOM      7  C   UNL     1      -5.706  -4.050   7.831  1.00  0.00    -0.028 C 
ATOM      8  C   UNL     1      -4.753  -3.251   8.371  1.00  0.00    -0.070 CG0
ATOM      9  C   UNL     1      -3.504  -3.911   8.900  1.00  0.00     0.039 C 
ATOM     10  G   UNL     1      -4.857  -1.732   8.426  1.00  0.00     0.000 G0
ENDBRANCH   6   7
ENDBRANCH   5   6
ENDBRANCH   3   5
ENDBRANCH   1   3
BRANCH   1  11
ATOM     11  C   UNL     1      -7.021   0.124   8.059  1.00  0.00     0.087 C 
BRANCH  11  12
ATOM     12  C   UNL     1      -6.803  -0.342   9.524  1.00  0.00     0.066 C 
BRANCH  12  13
ATOM     13  C   UNL     1      -5.532  -1.172   9.656  1.00  0.00     0.140 C 
ATOM     14  O   UNL     1      -5.026  -1.359  10.754  1.00  0.00    -0.299 OA
BRANCH  13  15
ATOM     15  C   UNL     1      -4.857  -1.719   8.421  1.00  0.00     0.106 CG0
ATOM     16  G   UNL     1      -4.754  -3.239   8.394  1.00  0.00     0.000 G0
ENDBRANCH  13  15
ENDBRANCH  12  13
BRANCH  12  17
ATOM     17  C   UNL     1      -8.042  -1.076  10.135  1.00  0.00    -0.006 C 
ATOM     18  C   UNL     1      -7.670  -2.475  10.654  1.00  0.00     0.008 C 
ATOM     19  C   UNL     1      -8.751  -0.281  11.248  1.00  0.00     0.008 C 
ENDBRANCH  12  17
ENDBRANCH  11  12
ENDBRANCH   1  11
TORSDOF 1
ENDMDL
MODEL 5
REMARK VINA RESULT:    -3.008      2.146      3.914
REMARK INTER + INTRA:          -3.627
REMARK INTER:                  -4.287
REMARK INTRA:                   0.660
REMARK UNBOUND:                 0.963
REMARK SMILES CC1=CCC[C@H](C)C(=O)C[C@@H](C(C)C)C(=O)C1
REMARK SMILES IDX 8 1 9 2 6 3 7 4 5 5 4 6 3 7 2 8 1 9 10 11 11 12 15 13 16 14
REMARK SMILES IDX 17 15 12 17 13 18 14 19
REMARK H PARENT
REMARK Flexibility Score: 70.00
ROOT
ATOM      1  C   UNL     1      -6.527  -3.447   6.735  1.00  0.00     0.136 C 
ATOM      2  O   UNL     1      -6.039  -3.003   5.703  1.00  0.00    -0.299 OA
ENDROOT
BRANCH   1   3
ATOM      3  C   UNL     1      -5.839  -4.592   7.454  1.00  0.00     0.053 C 
ATOM      4  C   UNL     1      -5.631  -5.776   6.500  1.00  0.00     0.016 C 
BRANCH   3   5
ATOM      5  C   UNL     1      -4.492  -4.124   8.053  1.00  0.00     0.015 C 
BRANCH   5   6
ATOM      6  C   UNL     1      -4.575  -3.974   9.585  1.00  0.00     0.028 C 
BRANCH   6   7
ATOM      7  C   UNL     1      -4.507  -2.539  10.047  1.00  0.00    -0.028 C 
ATOM      8  C   UNL     1      -5.573  -1.768  10.376  1.00  0.00    -0.070 CG0
ATOM      9  C   UNL     1      -5.298  -0.386  10.912  1.00  0.00     0.039 C 
ATOM     10  G   UNL     1      -7.021  -2.207  10.191  1.00  0.00     0.000 G0
ENDBRANCH   6   7
ENDBRANCH   5   6
ENDBRANCH   3   5
ENDBRANCH   1   3
BRANCH   1  11
ATOM     11  C   UNL     1      -7.814  -2.846   7.254  1.00  0.00     0.087 C 
BRANCH  11  12
ATOM     12  C   UNL     1      -7.624  -1.390   7.755  1.00  0.00     0.066 C 
BRANCH  12  13
ATOM     13  C   UNL     1      -7.815  -1.295   9.264  1.00  0.00     0.140 C 
ATOM     14  O   UNL     1      -8.567  -0.457   9.741  1.00  0.00    -0.299 OA
BRANCH  13  15
ATOM     15  C   UNL     1      -7.030  -2.201  10.181  1.00  0.00     0.106 CG0
ATOM     16  G   UNL     1      -5.579  -1.780  10.374  1.00  0.00     0.000 G0
ENDBRANCH  13  15
ENDBRANCH  12  13
BRANCH  12  17
ATOM     17  C   UNL     1      -8.505  -0.348   6.991  1.00  0.00    -0.006 C 
ATOM     18  C   UNL     1      -8.549  -0.645   5.483  1.00  0.00     0.008 C 
ATOM     19  C   UNL     1      -9.940  -0.224   7.538  1.00  0.00     0.008 C 
ENDBRANCH  12  17
ENDBRANCH  11  12
ENDBRANCH   1  11
TORSDOF 1
ENDMDL
MODEL 6
REMARK VINA RESULT:    -3.003      1.720      4.063
REMARK INTER + INTRA:          -3.621
REMARK INTER:                  -4.295
REMARK INTRA:                   0.675
REMARK UNBOUND:                 0.963
REMARK SMILES CC1=CCC[C@H](C)C(=O)C[C@@H](C(C)C)C(=O)C1
REMARK SMILES IDX 8 1 9 2 6 3 7 4 5 5 4 6 3 7 2 8 1 9 10 11 11 12 15 13 16 14
REMARK SMILES IDX 17 15 12 17 13 18 14 19
REMARK H PARENT
REMARK Flexibility Score: 70.00
ROOT
ATOM      1  C   UNL     1      -5.314  -1.966  10.119  1.00  0.00     0.136 C 
ATOM      2  O   UNL     1      -4.135  -2.053  10.433  1.00  0.00    -0.299 OA
ENDROOT
BRANCH   1   3
ATOM      3  C   UNL     1      -6.104  -0.732  10.514  1.00  0.00     0.053 C 
ATOM      4  C   UNL     1      -5.314   0.107  11.528  1.00  0.00     0.016 C 
BRANCH   3   5
ATOM      5  C   UNL     1      -6.462   0.106   9.265  1.00  0.00     0.015 C 
BRANCH   5   6
ATOM      6  C   UNL     1      -7.980   0.104   8.998  1.00  0.00     0.028 C 
BRANCH   6   7
ATOM      7  C   UNL     1      -8.325  -0.019   7.534  1.00  0.00    -0.028 C 
ATOM      8  C   UNL     1      -8.391  -1.181   6.837  1.00  0.00    -0.070 CG0
ATOM      9  C   UNL     1      -8.852  -1.110   5.402  1.00  0.00     0.039 C 
ATOM     10  G   UNL     1      -7.984  -2.533   7.409  1.00  0.00     0.000 G0
ENDBRANCH   6   7
ENDBRANCH   5   6
ENDBRANCH   3   5
ENDBRANCH   1   3
BRANCH   1  11
ATOM     11  C   UNL     1      -5.955  -3.103   9.355  1.00  0.00     0.087 C 
BRANCH  11  12
ATOM     12  C   UNL     1      -5.486  -3.156   7.876  1.00  0.00     0.066 C 
BRANCH  12  13
ATOM     13  C   UNL     1      -6.668  -3.076   6.919  1.00  0.00     0.140 C 
ATOM     14  O   UNL     1      -6.535  -3.389   5.744  1.00  0.00    -0.299 OA
BRANCH  13  15
ATOM     15  C   UNL     1      -7.997  -2.551   7.404  1.00  0.00     0.106 CG0
ATOM     16  G   UNL     1      -8.360  -1.178   6.851  1.00  0.00     0.000 G0
ENDBRANCH  13  15
ENDBRANCH  12  13
BRANCH  12  17
ATOM     17  C   UNL     1      -4.563  -4.379   7.559  1.00  0.00    -0.006 C 
ATOM     18  C   UNL     1      -3.789  -4.839   8.806  1.00  0.00     0.008 C 
ATOM     19  C   UNL     1      -5.306  -5.577   6.938  1.00  0.00     0.008 C 
ENDBRANCH  12  17
ENDBRANCH  11  12
ENDBRANCH   1  11
TORSDOF 1
ENDMDL
MODEL 7
REMARK VINA RESULT:    -2.774      1.990      4.528
REMARK INTER + INTRA:          -3.270
REMARK INTER:                  -3.208
REMARK INTRA:                  -0.062
REMARK UNBOUND:                 0.963
REMARK SMILES CC1=CCC[C@H](C)C(=O)C[C@@H](C(C)C)C(=O)C1
REMARK SMILES IDX 8 1 9 2 6 3 7 4 5 5 4 6 3 7 2 8 1 9 10 11 11 12 15 13 16 14
REMARK SMILES IDX 17 15 12 17 13 18 14 19
REMARK H PARENT
REMARK Flexibility Score: 70.00
ROOT
ATOM      1  C   UNL     1      -8.786  -0.053   8.957  1.00  0.00     0.136 C 
ATOM      2  O   UNL     1      -9.990   0.091   8.786  1.00  0.00    -0.299 OA
ENDROOT
BRANCH   1   3
ATOM      3  C   UNL     1      -8.228  -0.061  10.368  1.00  0.00     0.053 C 
ATOM      4  C   UNL     1      -9.357   0.119  11.392  1.00  0.00     0.016 C 
BRANCH   3   5
ATOM      5  C   UNL     1      -7.446  -1.368  10.633  1.00  0.00     0.015 C 
BRANCH   5   6
ATOM      6  C   UNL     1      -5.934  -1.182  10.399  1.00  0.00     0.028 C 
BRANCH   6   7
ATOM      7  C   UNL     1      -5.249  -2.434   9.910  1.00  0.00    -0.028 C 
ATOM      8  C   UNL     1      -5.064  -2.772   8.609  1.00  0.00    -0.070 CG0
ATOM      9  C   UNL     1      -4.267  -4.018   8.317  1.00  0.00     0.039 C 
ATOM     10  G   UNL     1      -5.654  -1.990   7.442  1.00  0.00     0.000 G0
ENDBRANCH   6   7
ENDBRANCH   5   6
ENDBRANCH   3   5
ENDBRANCH   1   3
BRANCH   1  11
ATOM     11  C   UNL     1      -7.888  -0.203   7.750  1.00  0.00     0.087 C 
BRANCH  11  12
ATOM     12  C   UNL     1      -8.196  -1.494   6.944  1.00  0.00     0.066 C 
BRANCH  12  13
ATOM     13  C   UNL     1      -6.994  -2.428   6.916  1.00  0.00     0.140 C 
ATOM     14  O   UNL     1      -7.114  -3.581   6.524  1.00  0.00    -0.299 OA
BRANCH  13  15
ATOM     15  C   UNL     1      -5.656  -1.951   7.428  1.00  0.00     0.106 CG0
ATOM     16  G   UNL     1      -5.105  -2.777   8.584  1.00  0.00     0.000 G0
ENDBRANCH  13  15
ENDBRANCH  12  13
BRANCH  12  17
ATOM     17  C   UNL     1      -8.749  -1.214   5.507  1.00  0.00    -0.006 C 
ATOM     18  C   UNL     1     -10.286  -1.247   5.478  1.00  0.00     0.008 C 
ATOM     19  C   UNL     1      -8.247   0.107   4.893  1.00  0.00     0.008 C 
ENDBRANCH  12  17
ENDBRANCH  11  12
ENDBRANCH   1  11
TORSDOF 1
ENDMDL
MODEL 8
REMARK VINA RESULT:    -2.724      1.408      1.985
REMARK INTER + INTRA:          -3.194
REMARK INTER:                  -4.695
REMARK INTRA:                   1.501
REMARK UNBOUND:                 0.963
REMARK SMILES CC1=CCC[C@H](C)C(=O)C[C@@H](C(C)C)C(=O)C1
REMARK SMILES IDX 8 1 9 2 6 3 7 4 5 5 4 6 3 7 2 8 1 9 10 11 11 12 15 13 16 14
REMARK SMILES IDX 17 15 12 17 13 18 14 19
REMARK H PARENT
REMARK Flexibility Score: 70.00
ROOT
ATOM      1  C   UNL     1      -6.198  -2.671  10.380  1.00  0.00     0.136 C 
ATOM      2  O   UNL     1      -7.035  -3.559  10.470  1.00  0.00    -0.299 OA
ENDROOT
BRANCH   1   3
ATOM      3  C   UNL     1      -4.723  -3.029  10.395  1.00  0.00     0.053 C 
ATOM      4  C   UNL     1      -4.529  -4.474  10.875  1.00  0.00     0.016 C 
BRANCH   3   5
ATOM      5  C   UNL     1      -4.101  -2.825   8.994  1.00  0.00     0.015 C 
BRANCH   5   6
ATOM      6  C   UNL     1      -4.253  -4.084   8.118  1.00  0.00     0.028 C 
BRANCH   6   7
ATOM      7  C   UNL     1      -5.546  -4.116   7.341  1.00  0.00    -0.028 C 
ATOM      8  C   UNL     1      -6.254  -3.027   6.949  1.00  0.00    -0.070 CG0
ATOM      9  C   UNL     1      -7.474  -3.257   6.092  1.00  0.00     0.039 C 
ATOM     10  G   UNL     1      -5.911  -1.603   7.366  1.00  0.00     0.000 G0
ENDBRANCH   6   7
ENDBRANCH   5   6
ENDBRANCH   3   5
ENDBRANCH   1   3
BRANCH   1  11
ATOM     11  C   UNL     1      -6.661  -1.236  10.270  1.00  0.00     0.087 C 
BRANCH  11  12
ATOM     12  C   UNL     1      -7.754  -1.051   9.183  1.00  0.00     0.066 C 
BRANCH  12  13
ATOM     13  C   UNL     1      -7.134  -0.793   7.815  1.00  0.00     0.140 C 
ATOM     14  O   UNL     1      -7.630   0.027   7.056  1.00  0.00    -0.299 OA
BRANCH  13  15
ATOM     15  C   UNL     1      -5.935  -1.593   7.368  1.00  0.00     0.106 CG0
ATOM     16  G   UNL     1      -6.267  -3.017   6.936  1.00  0.00     0.000 G0
ENDBRANCH  13  15
ENDBRANCH  12  13
BRANCH  12  17
ATOM     17  C   UNL     1      -8.822   0.030   9.551  1.00  0.00    -0.006 C 
ATOM     18  C   UNL     1     -10.133  -0.186   8.777  1.00  0.00     0.008 C 
ATOM     19  C   UNL     1      -9.120   0.124  11.059  1.00  0.00     0.008 C 
ENDBRANCH  12  17
ENDBRANCH  11  12
ENDBRANCH   1  11
TORSDOF 1
ENDMDL
MODEL 9
REMARK VINA RESULT:    -2.402      1.674      4.018
REMARK INTER + INTRA:          -2.703
REMARK INTER:                  -5.881
REMARK INTRA:                   3.178
REMARK UNBOUND:                 0.963
REMARK SMILES CC1=CCC[C@H](C)C(=O)C[C@@H](C(C)C)C(=O)C1
REMARK SMILES IDX 8 1 9 2 6 3 7 4 5 5 4 6 3 7 2 8 1 9 10 11 11 12 15 13 16 14
REMARK SMILES IDX 17 15 12 17 13 18 14 19
REMARK H PARENT
REMARK Flexibility Score: 70.00
ROOT
ATOM      1  C   UNL     1      -7.597  -1.260   9.967  1.00  0.00     0.136 C 
ATOM      2  O   UNL     1      -7.153  -0.374  10.685  1.00  0.00    -0.299 OA
ENDROOT
BRANCH   1   3
ATOM      3  C   UNL     1      -8.642  -0.920   8.921  1.00  0.00     0.053 C 
ATOM      4  C   UNL     1      -9.656   0.086   9.484  1.00  0.00     0.016 C 
BRANCH   3   5
ATOM      5  C   UNL     1      -7.971  -0.368   7.642  1.00  0.00     0.015 C 
BRANCH   5   6
ATOM      6  C   UNL     1      -8.388  -1.169   6.392  1.00  0.00     0.028 C 
BRANCH   6   7
ATOM      7  C   UNL     1      -7.681  -2.497   6.274  1.00  0.00    -0.028 C 
ATOM      8  C   UNL     1      -6.536  -2.838   6.916  1.00  0.00    -0.070 CG0
ATOM      9  C   UNL     1      -6.034  -4.250   6.749  1.00  0.00     0.039 C 
ATOM     10  G   UNL     1      -5.716  -1.864   7.752  1.00  0.00     0.000 G0
ENDBRANCH   6   7
ENDBRANCH   5   6
ENDBRANCH   3   5
ENDBRANCH   1   3
BRANCH   1  11
ATOM     11  C   UNL     1      -7.098  -2.675  10.155  1.00  0.00     0.087 C 
BRANCH  11  12
ATOM     12  C   UNL     1      -5.549  -2.747  10.233  1.00  0.00     0.066 C 
BRANCH  12  13
ATOM     13  C   UNL     1      -4.917  -2.533   8.864  1.00  0.00     0.140 C 
ATOM     14  O   UNL     1      -3.755  -2.857   8.660  1.00  0.00    -0.299 OA
BRANCH  13  15
ATOM     15  C   UNL     1      -5.706  -1.862   7.765  1.00  0.00     0.106 CG0
ATOM     16  G   UNL     1      -6.528  -2.825   6.918  1.00  0.00     0.000 G0
ENDBRANCH  13  15
ENDBRANCH  12  13
BRANCH  12  17
ATOM     17  C   UNL     1      -5.020  -4.049  10.920  1.00  0.00    -0.006 C 
ATOM     18  C   UNL     1      -6.145  -5.079  11.117  1.00  0.00     0.008 C 
ATOM     19  C   UNL     1      -3.838  -4.706  10.185  1.00  0.00     0.008 C 
ENDBRANCH  12  17
ENDBRANCH  11  12
ENDBRANCH   1  11
TORSDOF 1
ENDMDL
