MODEL 1
REMARK VINA RESULT:    -5.490      0.000      0.000
REMARK INTER + INTRA:          -9.508
REMARK INTER:                  -7.416
REMARK INTRA:                  -2.092
REMARK UNBOUND:                -2.092
REMARK SMILES CC[C@@H](CC[C@@H](C)[C@@H]1CC[C@@H]2[C@@H]3CC(=O)C4=CC(=O)CC[C@@]4(C)[C@@H]3CC[C@]21C)C(C)C
REMARK SMILES IDX 4 1 3 2 2 3 1 4 29 5 30 6 31 7 5 8 6 9 7 10 8 11 9 12 27 13
REMARK SMILES IDX 10 14 11 15 26 16 28 17 12 18 25 19 24 20 13 21 22 22 14 23
REMARK SMILES IDX 16 24 21 25 23 26 15 27 17 28 20 29 18 30 19 31
REMARK H PARENT
REMARK Flexibility Score: inf
ROOT
ATOM      1  C   UNL     1      -3.207   8.482  36.089  1.00  0.00     0.004 C 
ENDROOT
BRANCH   1   2
ATOM      2  C   UNL     1      -2.168   8.404  34.932  1.00  0.00    -0.009 C 
BRANCH   2   3
ATOM      3  C   UNL     1      -2.721   7.763  33.618  1.00  0.00     0.000 C 
ATOM      4  C   UNL     1      -2.285   8.427  32.306  1.00  0.00     0.004 C 
ENDBRANCH   2   3
BRANCH   2   5
ATOM      5  C   UNL     1      -0.811   7.801  35.424  1.00  0.00    -0.014 C 
ATOM      6  C   UNL     1       0.428   8.438  34.779  1.00  0.00     0.007 C 
ATOM      7  C   UNL     1      -0.682   7.824  36.957  1.00  0.00     0.007 C 
ENDBRANCH   2   5
ENDBRANCH   1   2
BRANCH   1   8
ATOM      8  C   UNL     1      -3.565   9.925  36.513  1.00  0.00     0.004 C 
BRANCH   8   9
ATOM      9  C   UNL     1      -3.872  10.865  35.313  1.00  0.00    -0.011 C 
ATOM     10  C   UNL     1      -5.398  10.975  35.138  1.00  0.00     0.008 C 
BRANCH   9  11
ATOM     11  C   UNL     1      -3.129  12.245  35.458  1.00  0.00    -0.002 C 
ATOM     12  C   UNL     1      -3.760  13.482  34.759  1.00  0.00     0.005 C 
ATOM     13  C   UNL     1      -1.633  12.286  35.035  1.00  0.00    -0.026 C 
ATOM     14  C   UNL     1      -2.598  14.451  34.461  1.00  0.00     0.005 C 
ATOM     15  C   UNL     1      -1.387  13.797  35.117  1.00  0.00    -0.001 C 
ATOM     16  C   UNL     1      -0.671  11.602  36.033  1.00  0.00     0.007 C 
ATOM     17  C   UNL     1      -1.457  11.698  33.603  1.00  0.00     0.012 C 
ATOM     18  C   UNL     1       0.046  14.294  34.809  1.00  0.00     0.004 C 
ATOM     19  C   UNL     1       0.803  11.945  35.719  1.00  0.00     0.005 C 
ATOM     20  C   UNL     1       1.109  13.481  35.627  1.00  0.00     0.003 C 
ATOM     21  C   UNL     1       0.443  14.468  33.334  1.00  0.00     0.085 C 
ATOM     22  C   UNL     1       2.626  13.823  35.245  1.00  0.00    -0.000 C 
ATOM     23  C   UNL     1       1.713  15.259  33.286  1.00  0.00     0.159 C 
ATOM     24  C   UNL     1       2.720  15.077  34.360  1.00  0.00     0.005 C 
ATOM     25  C   UNL     1       3.420  14.045  36.571  1.00  0.00     0.020 C 
ATOM     26  C   UNL     1       3.304  12.684  34.435  1.00  0.00     0.017 C 
ATOM     27  O   UNL     1       1.918  16.051  32.326  1.00  0.00    -0.295 OA
ATOM     28  C   UNL     1       3.764  15.926  34.447  1.00  0.00     0.055 C 
ATOM     29  C   UNL     1       4.847  14.557  36.349  1.00  0.00     0.081 C 
ATOM     30  C   UNL     1       4.842  15.740  35.431  1.00  0.00     0.156 C 
ATOM     31  O   UNL     1       5.796  16.560  35.469  1.00  0.00    -0.295 OA
ENDBRANCH   9  11
ENDBRANCH   8   9
ENDBRANCH   1   8
TORSDOF 6
ENDMDL
MODEL 2
REMARK VINA RESULT:    -5.432      3.091      8.022
REMARK INTER + INTRA:          -9.429
REMARK INTER:                  -7.229
REMARK INTRA:                  -2.200
REMARK UNBOUND:                -2.092
REMARK SMILES CC[C@@H](CC[C@@H](C)[C@@H]1CC[C@@H]2[C@@H]3CC(=O)C4=CC(=O)CC[C@@]4(C)[C@@H]3CC[C@]21C)C(C)C
REMARK SMILES IDX 4 1 3 2 2 3 1 4 29 5 30 6 31 7 5 8 6 9 7 10 8 11 9 12 27 13
REMARK SMILES IDX 10 14 11 15 26 16 28 17 12 18 25 19 24 20 13 21 22 22 14 23
REMARK SMILES IDX 16 24 21 25 23 26 15 27 17 28 20 29 18 30 19 31
REMARK H PARENT
REMARK Flexibility Score: inf
ROOT
ATOM      1  C   UNL     1       2.383  16.356  36.101  1.00  0.00     0.004 C 
ENDROOT
BRANCH   1   2
ATOM      2  C   UNL     1       1.369  16.394  34.920  1.00  0.00    -0.009 C 
BRANCH   2   3
ATOM      3  C   UNL     1       1.898  17.131  33.647  1.00  0.00     0.000 C 
ATOM      4  C   UNL     1       2.245  16.242  32.446  1.00  0.00     0.004 C 
ENDBRANCH   2   3
BRANCH   2   5
ATOM      5  C   UNL     1      -0.045  16.863  35.399  1.00  0.00    -0.014 C 
ATOM      6  C   UNL     1      -1.204  16.313  34.557  1.00  0.00     0.007 C 
ATOM      7  C   UNL     1      -0.285  16.570  36.890  1.00  0.00     0.007 C 
ENDBRANCH   2   5
ENDBRANCH   1   2
BRANCH   1   8
ATOM      8  C   UNL     1       2.867  14.932  36.464  1.00  0.00     0.004 C 
BRANCH   8   9
ATOM      9  C   UNL     1       3.228  14.065  35.226  1.00  0.00    -0.011 C 
ATOM     10  C   UNL     1       4.753  14.111  35.006  1.00  0.00     0.008 C 
BRANCH   9  11
ATOM     11  C   UNL     1       2.628  12.615  35.342  1.00  0.00    -0.002 C 
ATOM     12  C   UNL     1       3.323  11.479  34.541  1.00  0.00     0.005 C 
ATOM     13  C   UNL     1       1.118  12.450  35.011  1.00  0.00    -0.026 C 
ATOM     14  C   UNL     1       2.239  10.418  34.264  1.00  0.00     0.005 C 
ATOM     15  C   UNL     1       1.018  10.920  35.028  1.00  0.00    -0.001 C 
ATOM     16  C   UNL     1       0.165  12.991  36.102  1.00  0.00     0.007 C 
ATOM     17  C   UNL     1       0.793  13.085  33.626  1.00  0.00     0.012 C 
ATOM     18  C   UNL     1      -0.380  10.303  34.783  1.00  0.00     0.004 C 
ATOM     19  C   UNL     1      -1.288  12.523  35.862  1.00  0.00     0.005 C 
ATOM     20  C   UNL     1      -1.456  10.971  35.707  1.00  0.00     0.003 C 
ATOM     21  C   UNL     1      -0.856  10.162  33.329  1.00  0.00     0.085 C 
ATOM     22  C   UNL     1      -2.957  10.503  35.402  1.00  0.00    -0.000 C 
ATOM     23  C   UNL     1      -2.047   9.256  33.318  1.00  0.00     0.159 C 
ATOM     24  C   UNL     1      -2.993   9.289  34.460  1.00  0.00     0.005 C 
ATOM     25  C   UNL     1      -3.637  10.144  36.761  1.00  0.00     0.020 C 
ATOM     26  C   UNL     1      -3.791  11.609  34.698  1.00  0.00     0.017 C 
ATOM     27  O   UNL     1      -2.241   8.494  32.331  1.00  0.00    -0.295 OA
ATOM     28  C   UNL     1      -3.946   8.341  34.565  1.00  0.00     0.055 C 
ATOM     29  C   UNL     1      -5.021   9.509  36.601  1.00  0.00     0.081 C 
ATOM     30  C   UNL     1      -4.968   8.376  35.623  1.00  0.00     0.156 C 
ATOM     31  O   UNL     1      -5.837   7.467  35.676  1.00  0.00    -0.295 OA
ENDBRANCH   9  11
ENDBRANCH   8   9
ENDBRANCH   1   8
TORSDOF 6
ENDMDL
MODEL 3
REMARK VINA RESULT:    -5.363      2.143      4.956
REMARK INTER + INTRA:          -9.336
REMARK INTER:                  -7.881
REMARK INTRA:                  -1.455
REMARK UNBOUND:                -2.092
REMARK SMILES CC[C@@H](CC[C@@H](C)[C@@H]1CC[C@@H]2[C@@H]3CC(=O)C4=CC(=O)CC[C@@]4(C)[C@@H]3CC[C@]21C)C(C)C
REMARK SMILES IDX 4 1 3 2 2 3 1 4 29 5 30 6 31 7 5 8 6 9 7 10 8 11 9 12 27 13
REMARK SMILES IDX 10 14 11 15 26 16 28 17 12 18 25 19 24 20 13 21 22 22 14 23
REMARK SMILES IDX 16 24 21 25 23 26 15 27 17 28 20 29 18 30 19 31
REMARK H PARENT
REMARK Flexibility Score: inf
ROOT
ATOM      1  C   UNL     1      -6.547   9.710  36.826  1.00  0.00     0.004 C 
ENDROOT
BRANCH   1   2
ATOM      2  C   UNL     1      -7.361  10.982  36.448  1.00  0.00    -0.009 C 
BRANCH   2   3
ATOM      3  C   UNL     1      -8.834  10.976  36.967  1.00  0.00     0.000 C 
ATOM      4  C   UNL     1      -9.490   9.598  37.123  1.00  0.00     0.004 C 
ENDBRANCH   2   3
BRANCH   2   5
ATOM      5  C   UNL     1      -7.212  11.322  34.927  1.00  0.00    -0.014 C 
ATOM      6  C   UNL     1      -8.543  11.372  34.164  1.00  0.00     0.007 C 
ATOM      7  C   UNL     1      -6.415  12.617  34.692  1.00  0.00     0.007 C 
ENDBRANCH   2   5
ENDBRANCH   1   2
BRANCH   1   8
ATOM      8  C   UNL     1      -6.233   8.787  35.625  1.00  0.00     0.004 C 
BRANCH   8   9
ATOM      9  C   UNL     1      -4.825   8.132  35.699  1.00  0.00    -0.011 C 
ATOM     10  C   UNL     1      -4.977   6.602  35.613  1.00  0.00     0.008 C 
BRANCH   9  11
ATOM     11  C   UNL     1      -3.844   8.753  34.635  1.00  0.00    -0.002 C 
ATOM     12  C   UNL     1      -2.990   7.774  33.782  1.00  0.00     0.005 C 
ATOM     13  C   UNL     1      -2.823   9.806  35.150  1.00  0.00    -0.026 C 
ATOM     14  C   UNL     1      -1.720   8.547  33.376  1.00  0.00     0.005 C 
ATOM     15  C   UNL     1      -1.962   9.963  33.891  1.00  0.00    -0.001 C 
ATOM     16  C   UNL     1      -3.440  11.188  35.468  1.00  0.00     0.007 C 
ATOM     17  C   UNL     1      -2.043   9.250  36.378  1.00  0.00     0.012 C 
ATOM     18  C   UNL     1      -0.809  10.992  33.951  1.00  0.00     0.004 C 
ATOM     19  C   UNL     1      -2.345  12.259  35.670  1.00  0.00     0.005 C 
ATOM     20  C   UNL     1      -1.320  12.374  34.488  1.00  0.00     0.003 C 
ATOM     21  C   UNL     1       0.510  10.555  34.608  1.00  0.00     0.085 C 
ATOM     22  C   UNL     1      -0.157  13.448  34.733  1.00  0.00    -0.000 C 
ATOM     23  C   UNL     1       1.559  11.562  34.256  1.00  0.00     0.159 C 
ATOM     24  C   UNL     1       1.178  12.990  34.124  1.00  0.00     0.005 C 
ATOM     25  C   UNL     1      -0.602  14.799  34.090  1.00  0.00     0.020 C 
ATOM     26  C   UNL     1       0.127  13.678  36.244  1.00  0.00     0.017 C 
ATOM     27  O   UNL     1       2.754  11.188  34.098  1.00  0.00    -0.295 OA
ATOM     28  C   UNL     1       2.058  13.870  33.606  1.00  0.00     0.055 C 
ATOM     29  C   UNL     1       0.496  15.867  34.094  1.00  0.00     0.081 C 
ATOM     30  C   UNL     1       1.770  15.311  33.537  1.00  0.00     0.156 C 
ATOM     31  O   UNL     1       2.627  16.092  33.046  1.00  0.00    -0.295 OA
ENDBRANCH   9  11
ENDBRANCH   8   9
ENDBRANCH   1   8
TORSDOF 6
ENDMDL
MODEL 4
REMARK VINA RESULT:    -5.258      2.807      8.049
REMARK INTER + INTRA:          -9.194
REMARK INTER:                  -7.509
REMARK INTRA:                  -1.685
REMARK UNBOUND:                -2.092
REMARK SMILES CC[C@@H](CC[C@@H](C)[C@@H]1CC[C@@H]2[C@@H]3CC(=O)C4=CC(=O)CC[C@@]4(C)[C@@H]3CC[C@]21C)C(C)C
REMARK SMILES IDX 4 1 3 2 2 3 1 4 29 5 30 6 31 7 5 8 6 9 7 10 8 11 9 12 27 13
REMARK SMILES IDX 10 14 11 15 26 16 28 17 12 18 25 19 24 20 13 21 22 22 14 23
REMARK SMILES IDX 16 24 21 25 23 26 15 27 17 28 20 29 18 30 19 31
REMARK H PARENT
REMARK Flexibility Score: inf
ROOT
ATOM      1  C   UNL     1       6.489  15.345  35.070  1.00  0.00     0.004 C 
ENDROOT
BRANCH   1   2
ATOM      2  C   UNL     1       7.753  14.535  35.485  1.00  0.00    -0.009 C 
BRANCH   2   3
ATOM      3  C   UNL     1       8.997  14.782  34.573  1.00  0.00     0.000 C 
ATOM      4  C   UNL     1      10.060  13.676  34.565  1.00  0.00     0.004 C 
ENDBRANCH   2   3
BRANCH   2   5
ATOM      5  C   UNL     1       7.411  13.026  35.720  1.00  0.00    -0.014 C 
ATOM      6  C   UNL     1       6.875  12.717  37.125  1.00  0.00     0.007 C 
ATOM      7  C   UNL     1       6.454  12.470  34.652  1.00  0.00     0.007 C 
ENDBRANCH   2   5
ENDBRANCH   1   2
BRANCH   1   8
ATOM      8  C   UNL     1       5.990  16.327  36.156  1.00  0.00     0.004 C 
BRANCH   8   9
ATOM      9  C   UNL     1       4.525  16.800  35.938  1.00  0.00    -0.011 C 
ATOM     10  C   UNL     1       4.523  18.311  35.641  1.00  0.00     0.008 C 
BRANCH   9  11
ATOM     11  C   UNL     1       3.791  15.920  34.859  1.00  0.00    -0.002 C 
ATOM     12  C   UNL     1       2.997  16.656  33.744  1.00  0.00     0.005 C 
ATOM     13  C   UNL     1       2.802  14.841  35.385  1.00  0.00    -0.026 C 
ATOM     14  C   UNL     1       1.886  15.689  33.290  1.00  0.00     0.005 C 
ATOM     15  C   UNL     1       2.174  14.402  34.058  1.00  0.00    -0.001 C 
ATOM     16  C   UNL     1       3.486  13.602  36.009  1.00  0.00     0.007 C 
ATOM     17  C   UNL     1       1.787  15.475  36.382  1.00  0.00     0.012 C 
ATOM     18  C   UNL     1       1.126  13.264  34.118  1.00  0.00     0.004 C 
ATOM     19  C   UNL     1       2.477  12.451  36.223  1.00  0.00     0.005 C 
ATOM     20  C   UNL     1       1.671  12.045  34.940  1.00  0.00     0.003 C 
ATOM     21  C   UNL     1      -0.316  13.636  34.497  1.00  0.00     0.085 C 
ATOM     22  C   UNL     1       0.588  10.891  35.187  1.00  0.00    -0.000 C 
ATOM     23  C   UNL     1      -1.197  12.473  34.167  1.00  0.00     0.159 C 
ATOM     24  C   UNL     1      -0.668  11.095  34.324  1.00  0.00     0.005 C 
ATOM     25  C   UNL     1       1.255   9.522  34.842  1.00  0.00     0.020 C 
ATOM     26  C   UNL     1       0.088  10.852  36.658  1.00  0.00     0.017 C 
ATOM     27  O   UNL     1      -2.380  12.677  33.780  1.00  0.00    -0.295 OA
ATOM     28  C   UNL     1      -1.367  10.052  33.836  1.00  0.00     0.055 C 
ATOM     29  C   UNL     1       0.275   8.344  34.862  1.00  0.00     0.081 C 
ATOM     30  C   UNL     1      -0.939   8.659  34.044  1.00  0.00     0.156 C 
ATOM     31  O   UNL     1      -1.629   7.720  33.568  1.00  0.00    -0.295 OA
ENDBRANCH   9  11
ENDBRANCH   8   9
ENDBRANCH   1   8
TORSDOF 6
ENDMDL
MODEL 5
REMARK VINA RESULT:    -5.001      2.219      3.381
REMARK INTER + INTRA:          -8.847
REMARK INTER:                  -7.509
REMARK INTRA:                  -1.337
REMARK UNBOUND:                -2.092
REMARK SMILES CC[C@@H](CC[C@@H](C)[C@@H]1CC[C@@H]2[C@@H]3CC(=O)C4=CC(=O)CC[C@@]4(C)[C@@H]3CC[C@]21C)C(C)C
REMARK SMILES IDX 4 1 3 2 2 3 1 4 29 5 30 6 31 7 5 8 6 9 7 10 8 11 9 12 27 13
REMARK SMILES IDX 10 14 11 15 26 16 28 17 12 18 25 19 24 20 13 21 22 22 14 23
REMARK SMILES IDX 16 24 21 25 23 26 15 27 17 28 20 29 18 30 19 31
REMARK H PARENT
REMARK Flexibility Score: inf
ROOT
ATOM      1  C   UNL     1       1.037   6.928  36.158  1.00  0.00     0.004 C 
ENDROOT
BRANCH   1   2
ATOM      2  C   UNL     1       2.594   6.947  36.132  1.00  0.00    -0.009 C 
BRANCH   2   3
ATOM      3  C   UNL     1       3.203   7.921  35.073  1.00  0.00     0.000 C 
ATOM      4  C   UNL     1       4.379   8.784  35.546  1.00  0.00     0.004 C 
ENDBRANCH   2   3
BRANCH   2   5
ATOM      5  C   UNL     1       3.180   5.497  36.091  1.00  0.00    -0.014 C 
ATOM      6  C   UNL     1       3.653   5.053  34.700  1.00  0.00     0.007 C 
ATOM      7  C   UNL     1       4.299   5.288  37.125  1.00  0.00     0.007 C 
ENDBRANCH   2   5
ENDBRANCH   1   2
BRANCH   1   8
ATOM      8  C   UNL     1       0.398   8.313  36.419  1.00  0.00     0.004 C 
BRANCH   8   9
ATOM      9  C   UNL     1      -0.506   8.806  35.255  1.00  0.00    -0.011 C 
ATOM     10  C   UNL     1      -1.850   8.056  35.309  1.00  0.00     0.008 C 
BRANCH   9  11
ATOM     11  C   UNL     1      -0.633  10.376  35.249  1.00  0.00    -0.002 C 
ATOM     12  C   UNL     1      -1.679  11.012  34.291  1.00  0.00     0.005 C 
ATOM     13  C   UNL     1       0.668  11.186  34.990  1.00  0.00    -0.026 C 
ATOM     14  C   UNL     1      -1.163  12.428  33.965  1.00  0.00     0.005 C 
ATOM     15  C   UNL     1       0.070  12.590  34.848  1.00  0.00    -0.001 C 
ATOM     16  C   UNL     1       1.648  11.215  36.186  1.00  0.00     0.007 C 
ATOM     17  C   UNL     1       1.380  10.673  33.702  1.00  0.00     0.012 C 
ATOM     18  C   UNL     1       1.061  13.757  34.619  1.00  0.00     0.004 C 
ATOM     19  C   UNL     1       2.754  12.275  35.982  1.00  0.00     0.005 C 
ATOM     20  C   UNL     1       2.224  13.718  35.671  1.00  0.00     0.003 C 
ATOM     21  C   UNL     1       1.567  13.998  33.188  1.00  0.00     0.085 C 
ATOM     22  C   UNL     1       3.379  14.795  35.404  1.00  0.00    -0.000 C 
ATOM     23  C   UNL     1       2.221  15.343  33.148  1.00  0.00     0.159 C 
ATOM     24  C   UNL     1       2.962  15.824  34.340  1.00  0.00     0.005 C 
ATOM     25  C   UNL     1       3.686  15.518  36.754  1.00  0.00     0.020 C 
ATOM     26  C   UNL     1       4.685  14.143  34.872  1.00  0.00     0.017 C 
ATOM     27  O   UNL     1       2.152  16.039  32.098  1.00  0.00    -0.295 OA
ATOM     28  C   UNL     1       3.374  17.106  34.398  1.00  0.00     0.055 C 
ATOM     29  C   UNL     1       4.648  16.701  36.606  1.00  0.00     0.081 C 
ATOM     30  C   UNL     1       4.192  17.614  35.510  1.00  0.00     0.156 C 
ATOM     31  O   UNL     1       4.553  18.820  35.515  1.00  0.00    -0.295 OA
ENDBRANCH   9  11
ENDBRANCH   8   9
ENDBRANCH   1   8
TORSDOF 6
ENDMDL
MODEL 6
REMARK VINA RESULT:    -4.849      3.440      8.393
REMARK INTER + INTRA:          -8.641
REMARK INTER:                  -6.927
REMARK INTRA:                  -1.714
REMARK UNBOUND:                -2.092
REMARK SMILES CC[C@@H](CC[C@@H](C)[C@@H]1CC[C@@H]2[C@@H]3CC(=O)C4=CC(=O)CC[C@@]4(C)[C@@H]3CC[C@]21C)C(C)C
REMARK SMILES IDX 4 1 3 2 2 3 1 4 29 5 30 6 31 7 5 8 6 9 7 10 8 11 9 12 27 13
REMARK SMILES IDX 10 14 11 15 26 16 28 17 12 18 25 19 24 20 13 21 22 22 14 23
REMARK SMILES IDX 16 24 21 25 23 26 15 27 17 28 20 29 18 30 19 31
REMARK H PARENT
REMARK Flexibility Score: inf
ROOT
ATOM      1  C   UNL     1       4.749  12.139  36.831  1.00  0.00     0.004 C 
ENDROOT
BRANCH   1   2
ATOM      2  C   UNL     1       5.427  12.610  35.511  1.00  0.00    -0.009 C 
BRANCH   2   3
ATOM      3  C   UNL     1       6.960  12.881  35.643  1.00  0.00     0.000 C 
ATOM      4  C   UNL     1       7.678  13.338  34.366  1.00  0.00     0.004 C 
ENDBRANCH   2   3
BRANCH   2   5
ATOM      5  C   UNL     1       4.620  13.769  34.838  1.00  0.00    -0.014 C 
ATOM      6  C   UNL     1       3.180  13.393  34.463  1.00  0.00     0.007 C 
ATOM      7  C   UNL     1       4.631  15.056  35.680  1.00  0.00     0.007 C 
ENDBRANCH   2   5
ENDBRANCH   1   2
BRANCH   1   8
ATOM      8  C   UNL     1       4.929  10.631  37.125  1.00  0.00     0.004 C 
BRANCH   8   9
ATOM      9  C   UNL     1       4.506   9.715  35.943  1.00  0.00    -0.011 C 
ATOM     10  C   UNL     1       5.685   8.795  35.572  1.00  0.00     0.008 C 
BRANCH   9  11
ATOM     11  C   UNL     1       3.159   8.959  36.253  1.00  0.00    -0.002 C 
ATOM     12  C   UNL     1       3.106   7.432  35.969  1.00  0.00     0.005 C 
ATOM     13  C   UNL     1       1.870   9.519  35.588  1.00  0.00    -0.026 C 
ATOM     14  C   UNL     1       1.629   7.094  35.689  1.00  0.00     0.005 C 
ATOM     15  C   UNL     1       0.888   8.401  35.956  1.00  0.00    -0.001 C 
ATOM     16  C   UNL     1       1.345  10.828  36.221  1.00  0.00     0.007 C 
ATOM     17  C   UNL     1       2.080   9.690  34.054  1.00  0.00     0.012 C 
ATOM     18  C   UNL     1      -0.583   8.583  35.513  1.00  0.00     0.004 C 
ATOM     19  C   UNL     1      -0.084  11.156  35.731  1.00  0.00     0.005 C 
ATOM     20  C   UNL     1      -1.122   9.996  35.927  1.00  0.00     0.003 C 
ATOM     21  C   UNL     1      -0.948   8.212  34.067  1.00  0.00     0.085 C 
ATOM     22  C   UNL     1      -2.585  10.326  35.364  1.00  0.00    -0.000 C 
ATOM     23  C   UNL     1      -2.439   8.145  33.967  1.00  0.00     0.159 C 
ATOM     24  C   UNL     1      -3.262   9.078  34.776  1.00  0.00     0.005 C 
ATOM     25  C   UNL     1      -3.439  10.893  36.542  1.00  0.00     0.020 C 
ATOM     26  C   UNL     1      -2.555  11.371  34.214  1.00  0.00     0.017 C 
ATOM     27  O   UNL     1      -2.975   7.313  33.185  1.00  0.00    -0.295 OA
ATOM     28  C   UNL     1      -4.595   8.892  34.859  1.00  0.00     0.055 C 
ATOM     29  C   UNL     1      -4.917  11.083  36.185  1.00  0.00     0.081 C 
ATOM     30  C   UNL     1      -5.472   9.838  35.568  1.00  0.00     0.156 C 
ATOM     31  O   UNL     1      -6.711   9.619  35.614  1.00  0.00    -0.295 OA
ENDBRANCH   9  11
ENDBRANCH   8   9
ENDBRANCH   1   8
TORSDOF 6
ENDMDL
MODEL 7
REMARK VINA RESULT:    -4.813      3.686      8.178
REMARK INTER + INTRA:          -8.592
REMARK INTER:                  -7.086
REMARK INTRA:                  -1.506
REMARK UNBOUND:                -2.092
REMARK SMILES CC[C@@H](CC[C@@H](C)[C@@H]1CC[C@@H]2[C@@H]3CC(=O)C4=CC(=O)CC[C@@]4(C)[C@@H]3CC[C@]21C)C(C)C
REMARK SMILES IDX 4 1 3 2 2 3 1 4 29 5 30 6 31 7 5 8 6 9 7 10 8 11 9 12 27 13
REMARK SMILES IDX 10 14 11 15 26 16 28 17 12 18 25 19 24 20 13 21 22 22 14 23
REMARK SMILES IDX 16 24 21 25 23 26 15 27 17 28 20 29 18 30 19 31
REMARK H PARENT
REMARK Flexibility Score: inf
ROOT
ATOM      1  C   UNL     1      -1.577  17.322  36.283  1.00  0.00     0.004 C 
ENDROOT
BRANCH   1   2
ATOM      2  C   UNL     1      -3.085  17.709  36.259  1.00  0.00    -0.009 C 
BRANCH   2   3
ATOM      3  C   UNL     1      -3.891  17.066  35.086  1.00  0.00     0.000 C 
ATOM      4  C   UNL     1      -5.038  16.129  35.487  1.00  0.00     0.004 C 
ENDBRANCH   2   3
BRANCH   2   5
ATOM      5  C   UNL     1      -3.278  19.255  36.406  1.00  0.00    -0.014 C 
ATOM      6  C   UNL     1      -2.121  19.965  37.123  1.00  0.00     0.007 C 
ATOM      7  C   UNL     1      -3.569  19.940  35.060  1.00  0.00     0.007 C 
ENDBRANCH   2   5
ENDBRANCH   1   2
BRANCH   1   8
ATOM      8  C   UNL     1      -0.873  17.459  34.912  1.00  0.00     0.004 C 
BRANCH   8   9
ATOM      9  C   UNL     1       0.072  16.271  34.580  1.00  0.00    -0.011 C 
ATOM     10  C   UNL     1       1.522  16.786  34.508  1.00  0.00     0.008 C 
BRANCH   9  11
ATOM     11  C   UNL     1      -0.145  15.067  35.571  1.00  0.00    -0.002 C 
ATOM     12  C   UNL     1       1.019  14.705  36.535  1.00  0.00     0.005 C 
ATOM     13  C   UNL     1      -0.563  13.707  34.945  1.00  0.00    -0.026 C 
ATOM     14  C   UNL     1       0.866  13.204  36.856  1.00  0.00     0.005 C 
ATOM     15  C   UNL     1      -0.444  12.809  36.182  1.00  0.00    -0.001 C 
ATOM     16  C   UNL     1      -2.033  13.650  34.468  1.00  0.00     0.007 C 
ATOM     17  C   UNL     1       0.410  13.319  33.791  1.00  0.00     0.012 C 
ATOM     18  C   UNL     1      -0.828  11.320  36.010  1.00  0.00     0.004 C 
ATOM     19  C   UNL     1      -2.466  12.202  34.150  1.00  0.00     0.005 C 
ATOM     20  C   UNL     1      -2.228  11.180  35.316  1.00  0.00     0.003 C 
ATOM     21  C   UNL     1       0.224  10.371  35.414  1.00  0.00     0.085 C 
ATOM     22  C   UNL     1      -2.627   9.671  34.955  1.00  0.00    -0.000 C 
ATOM     23  C   UNL     1      -0.231   8.966  35.653  1.00  0.00     0.159 C 
ATOM     24  C   UNL     1      -1.682   8.658  35.620  1.00  0.00     0.005 C 
ATOM     25  C   UNL     1      -4.093   9.431  35.438  1.00  0.00     0.020 C 
ATOM     26  C   UNL     1      -2.546   9.386  33.430  1.00  0.00     0.017 C 
ATOM     27  O   UNL     1       0.624   8.061  35.859  1.00  0.00    -0.295 OA
ATOM     28  C   UNL     1      -2.118   7.453  36.038  1.00  0.00     0.055 C 
ATOM     29  C   UNL     1      -4.542   7.971  35.317  1.00  0.00     0.081 C 
ATOM     30  C   UNL     1      -3.532   7.058  35.940  1.00  0.00     0.156 C 
ATOM     31  O   UNL     1      -3.888   5.920  36.343  1.00  0.00    -0.295 OA
ENDBRANCH   9  11
ENDBRANCH   8   9
ENDBRANCH   1   8
TORSDOF 6
ENDMDL
MODEL 8
REMARK VINA RESULT:    -4.381      2.966      6.087
REMARK INTER + INTRA:          -8.009
REMARK INTER:                  -6.781
REMARK INTRA:                  -1.228
REMARK UNBOUND:                -2.092
REMARK SMILES CC[C@@H](CC[C@@H](C)[C@@H]1CC[C@@H]2[C@@H]3CC(=O)C4=CC(=O)CC[C@@]4(C)[C@@H]3CC[C@]21C)C(C)C
REMARK SMILES IDX 4 1 3 2 2 3 1 4 29 5 30 6 31 7 5 8 6 9 7 10 8 11 9 12 27 13
REMARK SMILES IDX 10 14 11 15 26 16 28 17 12 18 25 19 24 20 13 21 22 22 14 23
REMARK SMILES IDX 16 24 21 25 23 26 15 27 17 28 20 29 18 30 19 31
REMARK H PARENT
REMARK Flexibility Score: inf
ROOT
ATOM      1  C   UNL     1      -2.017  14.947  34.844  1.00  0.00     0.004 C 
ENDROOT
BRANCH   1   2
ATOM      2  C   UNL     1      -1.733  16.469  34.678  1.00  0.00    -0.009 C 
BRANCH   2   3
ATOM      3  C   UNL     1      -0.267  16.887  35.022  1.00  0.00     0.000 C 
ATOM      4  C   UNL     1       0.245  16.477  36.408  1.00  0.00     0.004 C 
ENDBRANCH   2   3
BRANCH   2   5
ATOM      5  C   UNL     1      -2.834  17.333  35.378  1.00  0.00    -0.014 C 
ATOM      6  C   UNL     1      -3.005  18.736  34.778  1.00  0.00     0.007 C 
ATOM      7  C   UNL     1      -4.192  16.613  35.441  1.00  0.00     0.007 C 
ENDBRANCH   2   5
ENDBRANCH   1   2
BRANCH   1   8
ATOM      8  C   UNL     1      -1.290  14.058  33.808  1.00  0.00     0.004 C 
BRANCH   8   9
ATOM      9  C   UNL     1      -1.069  12.598  34.292  1.00  0.00    -0.011 C 
ATOM     10  C   UNL     1      -2.207  11.711  33.750  1.00  0.00     0.008 C 
BRANCH   9  11
ATOM     11  C   UNL     1       0.379  12.088  33.944  1.00  0.00    -0.002 C 
ATOM     12  C   UNL     1       0.598  10.553  33.833  1.00  0.00     0.005 C 
ATOM     13  C   UNL     1       1.535  12.575  34.863  1.00  0.00    -0.026 C 
ATOM     14  C   UNL     1       2.080  10.300  34.174  1.00  0.00     0.005 C 
ATOM     15  C   UNL     1       2.673  11.697  34.328  1.00  0.00    -0.001 C 
ATOM     16  C   UNL     1       1.943  14.050  34.643  1.00  0.00     0.007 C 
ATOM     17  C   UNL     1       1.189  12.312  36.359  1.00  0.00     0.012 C 
ATOM     18  C   UNL     1       4.072  11.899  34.957  1.00  0.00     0.004 C 
ATOM     19  C   UNL     1       3.279  14.376  35.349  1.00  0.00     0.005 C 
ATOM     20  C   UNL     1       4.463  13.418  34.976  1.00  0.00     0.003 C 
ATOM     21  C   UNL     1       4.367  11.196  36.291  1.00  0.00     0.085 C 
ATOM     22  C   UNL     1       5.827  13.729  35.757  1.00  0.00    -0.000 C 
ATOM     23  C   UNL     1       5.844  11.252  36.528  1.00  0.00     0.159 C 
ATOM     24  C   UNL     1       6.606  12.443  36.076  1.00  0.00     0.005 C 
ATOM     25  C   UNL     1       6.693  14.669  34.860  1.00  0.00     0.020 C 
ATOM     26  C   UNL     1       5.581  14.423  37.125  1.00  0.00     0.017 C 
ATOM     27  O   UNL     1       6.416  10.300  37.125  1.00  0.00    -0.295 OA
ATOM     28  C   UNL     1       7.953  12.418  36.091  1.00  0.00     0.055 C 
ATOM     29  C   UNL     1       8.104  14.903  35.408  1.00  0.00     0.081 C 
ATOM     30  C   UNL     1       8.759  13.599  35.743  1.00  0.00     0.156 C 
ATOM     31  O   UNL     1      10.016  13.524  35.775  1.00  0.00    -0.295 OA
ENDBRANCH   9  11
ENDBRANCH   8   9
ENDBRANCH   1   8
TORSDOF 6
ENDMDL
MODEL 9
REMARK VINA RESULT:    -4.313      1.493      3.166
REMARK INTER + INTRA:          -7.918
REMARK INTER:                  -7.161
REMARK INTRA:                  -0.757
REMARK UNBOUND:                -2.092
REMARK SMILES CC[C@@H](CC[C@@H](C)[C@@H]1CC[C@@H]2[C@@H]3CC(=O)C4=CC(=O)CC[C@@]4(C)[C@@H]3CC[C@]21C)C(C)C
REMARK SMILES IDX 4 1 3 2 2 3 1 4 29 5 30 6 31 7 5 8 6 9 7 10 8 11 9 12 27 13
REMARK SMILES IDX 10 14 11 15 26 16 28 17 12 18 25 19 24 20 13 21 22 22 14 23
REMARK SMILES IDX 16 24 21 25 23 26 15 27 17 28 20 29 18 30 19 31
REMARK H PARENT
REMARK Flexibility Score: inf
ROOT
ATOM      1  C   UNL     1      -5.083   9.728  35.259  1.00  0.00     0.004 C 
ENDROOT
BRANCH   1   2
ATOM      2  C   UNL     1      -6.384  10.018  36.065  1.00  0.00    -0.009 C 
BRANCH   2   3
ATOM      3  C   UNL     1      -7.186   8.738  36.464  1.00  0.00     0.000 C 
ATOM      4  C   UNL     1      -6.724   7.423  35.824  1.00  0.00     0.004 C 
ENDBRANCH   2   3
BRANCH   2   5
ATOM      5  C   UNL     1      -7.242  11.133  35.380  1.00  0.00    -0.014 C 
ATOM      6  C   UNL     1      -6.418  12.303  34.823  1.00  0.00     0.007 C 
ATOM      7  C   UNL     1      -8.170  10.571  34.290  1.00  0.00     0.007 C 
ENDBRANCH   2   5
ENDBRANCH   1   2
BRANCH   1   8
ATOM      8  C   UNL     1      -3.788   9.843  36.097  1.00  0.00     0.004 C 
BRANCH   8   9
ATOM      9  C   UNL     1      -2.523  10.141  35.244  1.00  0.00    -0.011 C 
ATOM     10  C   UNL     1      -2.712   9.541  33.838  1.00  0.00     0.008 C 
BRANCH   9  11
ATOM     11  C   UNL     1      -2.168  11.675  35.258  1.00  0.00    -0.002 C 
ATOM     12  C   UNL     1      -2.976  12.613  34.319  1.00  0.00     0.005 C 
ATOM     13  C   UNL     1      -0.683  12.055  34.996  1.00  0.00    -0.026 C 
ATOM     14  C   UNL     1      -2.056  13.809  34.003  1.00  0.00     0.005 C 
ATOM     15  C   UNL     1      -0.827  13.576  34.876  1.00  0.00    -0.001 C 
ATOM     16  C   UNL     1       0.266  11.768  36.182  1.00  0.00     0.007 C 
ATOM     17  C   UNL     1      -0.168  11.369  33.695  1.00  0.00     0.012 C 
ATOM     18  C   UNL     1       0.470  14.390  34.651  1.00  0.00     0.004 C 
ATOM     19  C   UNL     1       1.641  12.444  35.979  1.00  0.00     0.005 C 
ATOM     20  C   UNL     1       1.572  13.985  35.690  1.00  0.00     0.003 C 
ATOM     21  C   UNL     1       1.017  14.487  33.218  1.00  0.00     0.085 C 
ATOM     22  C   UNL     1       2.999  14.664  35.425  1.00  0.00    -0.000 C 
ATOM     23  C   UNL     1       2.049  15.569  33.187  1.00  0.00     0.159 C 
ATOM     24  C   UNL     1       2.908  15.785  34.377  1.00  0.00     0.005 C 
ATOM     25  C   UNL     1       3.519  15.240  36.780  1.00  0.00     0.020 C 
ATOM     26  C   UNL     1       4.042  13.654  34.872  1.00  0.00     0.017 C 
ATOM     27  O   UNL     1       2.188  16.269  32.147  1.00  0.00    -0.295 OA
ATOM     28  C   UNL     1       3.690  16.881  34.446  1.00  0.00     0.055 C 
ATOM     29  C   UNL     1       4.794  16.076  36.637  1.00  0.00     0.081 C 
ATOM     30  C   UNL     1       4.631  17.100  35.556  1.00  0.00     0.156 C 
ATOM     31  O   UNL     1       5.341  18.140  35.572  1.00  0.00    -0.295 OA
ENDBRANCH   9  11
ENDBRANCH   8   9
ENDBRANCH   1   8
TORSDOF 6
ENDMDL
