MODEL 1
REMARK VINA RESULT:    -8.381      0.000      0.000
REMARK INTER + INTRA:         -12.567
REMARK INTER:                 -11.321
REMARK INTRA:                  -1.246
REMARK UNBOUND:                -1.246
REMARK SMILES CC[C@H](CC[C@H](C)[C@@H]1CC[C@H]2[C@@H]3CC(=O)C4=CC(=O)CC[C@@]4(C)[C@@H]3CC[C@]21C)C(C)C
REMARK SMILES IDX 4 1 3 2 2 3 1 4 29 5 30 6 31 7 5 8 6 9 7 10 8 11 9 12 27 13
REMARK SMILES IDX 10 14 11 15 26 16 28 17 12 18 25 19 24 20 13 21 22 22 14 23
REMARK SMILES IDX 16 24 21 25 23 26 15 27 17 28 20 29 18 30 19 31
REMARK H PARENT
REMARK Flexibility Score: inf
ROOT
ATOM      1  C   UNL     1      33.163  18.479  24.047  1.00  0.00     0.004 C 
ENDROOT
BRANCH   1   2
ATOM      2  C   UNL     1      31.664  18.200  24.362  1.00  0.00    -0.009 C 
BRANCH   2   3
ATOM      3  C   UNL     1      31.488  17.871  25.872  1.00  0.00     0.000 C 
ATOM      4  C   UNL     1      30.089  18.191  26.407  1.00  0.00     0.004 C 
ENDBRANCH   2   3
BRANCH   2   5
ATOM      5  C   UNL     1      30.726  19.360  23.888  1.00  0.00    -0.014 C 
ATOM      6  C   UNL     1      31.398  20.745  23.910  1.00  0.00     0.007 C 
ATOM      7  C   UNL     1      30.122  19.085  22.498  1.00  0.00     0.007 C 
ENDBRANCH   2   5
ENDBRANCH   1   2
BRANCH   1   8
ATOM      8  C   UNL     1      34.071  18.626  25.294  1.00  0.00     0.004 C 
BRANCH   8   9
ATOM      9  C   UNL     1      35.073  19.814  25.218  1.00  0.00    -0.011 C 
ATOM     10  C   UNL     1      35.053  20.520  23.845  1.00  0.00     0.008 C 
BRANCH   9  11
ATOM     11  C   UNL     1      36.501  19.436  25.759  1.00  0.00    -0.002 C 
ATOM     12  C   UNL     1      36.466  18.222  26.710  1.00  0.00     0.005 C 
ATOM     13  C   UNL     1      37.447  20.509  26.425  1.00  0.00    -0.026 C 
ATOM     14  C   UNL     1      37.250  18.604  27.952  1.00  0.00     0.005 C 
ATOM     15  C   UNL     1      38.205  19.738  27.552  1.00  0.00    -0.001 C 
ATOM     16  C   UNL     1      38.430  21.133  25.392  1.00  0.00     0.007 C 
ATOM     17  C   UNL     1      36.678  21.677  27.095  1.00  0.00     0.012 C 
ATOM     18  C   UNL     1      39.627  19.204  27.170  1.00  0.00     0.004 C 
ATOM     19  C   UNL     1      39.515  20.184  24.827  1.00  0.00     0.005 C 
ATOM     20  C   UNL     1      39.770  18.894  25.662  1.00  0.00     0.003 C 
ATOM     21  C   UNL     1      40.743  20.173  27.631  1.00  0.00     0.085 C 
ATOM     22  C   UNL     1      41.128  18.128  25.344  1.00  0.00    -0.000 C 
ATOM     23  C   UNL     1      42.097  19.736  27.156  1.00  0.00     0.159 C 
ATOM     24  C   UNL     1      42.242  18.525  26.320  1.00  0.00     0.005 C 
ATOM     25  C   UNL     1      40.883  16.592  25.491  1.00  0.00     0.020 C 
ATOM     26  C   UNL     1      41.617  18.413  23.897  1.00  0.00     0.017 C 
ATOM     27  O   UNL     1      43.118  20.379  27.530  1.00  0.00    -0.295 OA
ATOM     28  C   UNL     1      43.309  17.727  26.501  1.00  0.00     0.055 C 
ATOM     29  C   UNL     1      42.154  15.747  25.286  1.00  0.00     0.081 C 
ATOM     30  C   UNL     1      43.357  16.367  25.939  1.00  0.00     0.156 C 
ATOM     31  O   UNL     1      44.424  15.701  26.021  1.00  0.00    -0.295 OA
ENDBRANCH   9  11
ENDBRANCH   8   9
ENDBRANCH   1   8
TORSDOF 6
ENDMDL
MODEL 2
REMARK VINA RESULT:    -8.261      2.219      4.441
REMARK INTER + INTRA:         -12.405
REMARK INTER:                 -11.279
REMARK INTRA:                  -1.126
REMARK UNBOUND:                -1.246
REMARK SMILES CC[C@H](CC[C@H](C)[C@@H]1CC[C@H]2[C@@H]3CC(=O)C4=CC(=O)CC[C@@]4(C)[C@@H]3CC[C@]21C)C(C)C
REMARK SMILES IDX 4 1 3 2 2 3 1 4 29 5 30 6 31 7 5 8 6 9 7 10 8 11 9 12 27 13
REMARK SMILES IDX 10 14 11 15 26 16 28 17 12 18 25 19 24 20 13 21 22 22 14 23
REMARK SMILES IDX 16 24 21 25 23 26 15 27 17 28 20 29 18 30 19 31
REMARK H PARENT
REMARK Flexibility Score: inf
ROOT
ATOM      1  C   UNL     1      33.870  21.012  22.647  1.00  0.00     0.004 C 
ENDROOT
BRANCH   1   2
ATOM      2  C   UNL     1      32.740  20.141  22.022  1.00  0.00    -0.009 C 
BRANCH   2   3
ATOM      3  C   UNL     1      31.400  20.388  22.772  1.00  0.00     0.000 C 
ATOM      4  C   UNL     1      30.682  19.098  23.178  1.00  0.00     0.004 C 
ENDBRANCH   2   3
BRANCH   2   5
ATOM      5  C   UNL     1      32.610  20.349  20.476  1.00  0.00    -0.014 C 
ATOM      6  C   UNL     1      33.843  21.013  19.837  1.00  0.00     0.007 C 
ATOM      7  C   UNL     1      32.273  19.037  19.742  1.00  0.00     0.007 C 
ENDBRANCH   2   5
ENDBRANCH   1   2
BRANCH   1   8
ATOM      8  C   UNL     1      34.029  20.863  24.181  1.00  0.00     0.004 C 
BRANCH   8   9
ATOM      9  C   UNL     1      34.693  19.528  24.628  1.00  0.00    -0.011 C 
ATOM     10  C   UNL     1      33.727  18.622  25.421  1.00  0.00     0.008 C 
BRANCH   9  11
ATOM     11  C   UNL     1      36.104  19.747  25.287  1.00  0.00    -0.002 C 
ATOM     12  C   UNL     1      36.957  20.778  24.521  1.00  0.00     0.005 C 
ATOM     13  C   UNL     1      37.055  18.535  25.631  1.00  0.00    -0.026 C 
ATOM     14  C   UNL     1      38.323  20.154  24.300  1.00  0.00     0.005 C 
ATOM     15  C   UNL     1      38.500  19.068  25.370  1.00  0.00    -0.001 C 
ATOM     16  C   UNL     1      36.874  18.058  27.101  1.00  0.00     0.007 C 
ATOM     17  C   UNL     1      36.839  17.303  24.716  1.00  0.00     0.012 C 
ATOM     18  C   UNL     1      39.265  19.598  26.629  1.00  0.00     0.004 C 
ATOM     19  C   UNL     1      37.344  19.043  28.199  1.00  0.00     0.005 C 
ATOM     20  C   UNL     1      38.320  20.158  27.718  1.00  0.00     0.003 C 
ATOM     21  C   UNL     1      40.199  18.517  27.227  1.00  0.00     0.085 C 
ATOM     22  C   UNL     1      39.125  20.908  28.867  1.00  0.00    -0.000 C 
ATOM     23  C   UNL     1      40.836  18.972  28.507  1.00  0.00     0.159 C 
ATOM     24  C   UNL     1      40.518  20.301  29.070  1.00  0.00     0.005 C 
ATOM     25  C   UNL     1      39.306  22.405  28.456  1.00  0.00     0.020 C 
ATOM     26  C   UNL     1      38.364  20.857  30.221  1.00  0.00     0.017 C 
ATOM     27  O   UNL     1      41.694  18.231  29.065  1.00  0.00    -0.295 OA
ATOM     28  C   UNL     1      41.492  21.011  29.667  1.00  0.00     0.055 C 
ATOM     29  C   UNL     1      40.145  23.218  29.459  1.00  0.00     0.081 C 
ATOM     30  C   UNL     1      41.330  22.444  29.963  1.00  0.00     0.156 C 
ATOM     31  O   UNL     1      42.213  23.040  30.639  1.00  0.00    -0.295 OA
ENDBRANCH   9  11
ENDBRANCH   8   9
ENDBRANCH   1   8
TORSDOF 6
ENDMDL
MODEL 3
REMARK VINA RESULT:    -8.067      1.159      2.165
REMARK INTER + INTRA:         -12.143
REMARK INTER:                 -11.289
REMARK INTRA:                  -0.853
REMARK UNBOUND:                -1.246
REMARK SMILES CC[C@H](CC[C@H](C)[C@@H]1CC[C@H]2[C@@H]3CC(=O)C4=CC(=O)CC[C@@]4(C)[C@@H]3CC[C@]21C)C(C)C
REMARK SMILES IDX 4 1 3 2 2 3 1 4 29 5 30 6 31 7 5 8 6 9 7 10 8 11 9 12 27 13
REMARK SMILES IDX 10 14 11 15 26 16 28 17 12 18 25 19 24 20 13 21 22 22 14 23
REMARK SMILES IDX 16 24 21 25 23 26 15 27 17 28 20 29 18 30 19 31
REMARK H PARENT
REMARK Flexibility Score: inf
ROOT
ATOM      1  C   UNL     1      33.425  21.194  23.956  1.00  0.00     0.004 C 
ENDROOT
BRANCH   1   2
ATOM      2  C   UNL     1      32.638  21.266  22.614  1.00  0.00    -0.009 C 
BRANCH   2   3
ATOM      3  C   UNL     1      33.439  20.554  21.486  1.00  0.00     0.000 C 
ATOM      4  C   UNL     1      33.368  21.277  20.138  1.00  0.00     0.004 C 
ENDBRANCH   2   3
BRANCH   2   5
ATOM      5  C   UNL     1      31.176  20.721  22.747  1.00  0.00    -0.014 C 
ATOM      6  C   UNL     1      30.946  19.388  22.013  1.00  0.00     0.007 C 
ATOM      7  C   UNL     1      30.736  20.601  24.218  1.00  0.00     0.007 C 
ENDBRANCH   2   5
ENDBRANCH   1   2
BRANCH   1   8
ATOM      8  C   UNL     1      34.832  20.554  23.848  1.00  0.00     0.004 C 
BRANCH   8   9
ATOM      9  C   UNL     1      34.950  19.154  24.517  1.00  0.00    -0.011 C 
ATOM     10  C   UNL     1      33.717  18.803  25.377  1.00  0.00     0.008 C 
BRANCH   9  11
ATOM     11  C   UNL     1      36.342  18.934  25.216  1.00  0.00    -0.002 C 
ATOM     12  C   UNL     1      36.333  17.727  26.175  1.00  0.00     0.005 C 
ATOM     13  C   UNL     1      37.089  20.106  25.964  1.00  0.00    -0.026 C 
ATOM     14  C   UNL     1      36.931  18.195  27.489  1.00  0.00     0.005 C 
ATOM     15  C   UNL     1      37.798  19.423  27.178  1.00  0.00    -0.001 C 
ATOM     16  C   UNL     1      38.107  20.829  25.035  1.00  0.00     0.007 C 
ATOM     17  C   UNL     1      36.131  21.185  26.529  1.00  0.00     0.012 C 
ATOM     18  C   UNL     1      39.302  19.046  26.961  1.00  0.00     0.004 C 
ATOM     19  C   UNL     1      39.342  20.001  24.605  1.00  0.00     0.005 C 
ATOM     20  C   UNL     1      39.642  18.749  25.481  1.00  0.00     0.003 C 
ATOM     21  C   UNL     1      40.249  20.131  27.526  1.00  0.00     0.085 C 
ATOM     22  C   UNL     1      41.100  18.134  25.325  1.00  0.00    -0.000 C 
ATOM     23  C   UNL     1      41.687  19.842  27.207  1.00  0.00     0.159 C 
ATOM     24  C   UNL     1      42.051  18.652  26.410  1.00  0.00     0.005 C 
ATOM     25  C   UNL     1      41.007  16.580  25.467  1.00  0.00     0.020 C 
ATOM     26  C   UNL     1      41.711  18.465  23.935  1.00  0.00     0.017 C 
ATOM     27  O   UNL     1      42.586  20.592  27.681  1.00  0.00    -0.295 OA
ATOM     28  C   UNL     1      43.172  17.973  26.717  1.00  0.00     0.055 C 
ATOM     29  C   UNL     1      42.376  15.877  25.413  1.00  0.00     0.081 C 
ATOM     30  C   UNL     1      43.427  16.625  26.183  1.00  0.00     0.156 C 
ATOM     31  O   UNL     1      44.544  16.079  26.391  1.00  0.00    -0.295 OA
ENDBRANCH   9  11
ENDBRANCH   8   9
ENDBRANCH   1   8
TORSDOF 6
ENDMDL
MODEL 4
REMARK VINA RESULT:    -7.543      2.111      4.282
REMARK INTER + INTRA:         -11.435
REMARK INTER:                 -10.695
REMARK INTRA:                  -0.740
REMARK UNBOUND:                -1.246
REMARK SMILES CC[C@H](CC[C@H](C)[C@@H]1CC[C@H]2[C@@H]3CC(=O)C4=CC(=O)CC[C@@]4(C)[C@@H]3CC[C@]21C)C(C)C
REMARK SMILES IDX 4 1 3 2 2 3 1 4 29 5 30 6 31 7 5 8 6 9 7 10 8 11 9 12 27 13
REMARK SMILES IDX 10 14 11 15 26 16 28 17 12 18 25 19 24 20 13 21 22 22 14 23
REMARK SMILES IDX 16 24 21 25 23 26 15 27 17 28 20 29 18 30 19 31
REMARK H PARENT
REMARK Flexibility Score: inf
ROOT
ATOM      1  C   UNL     1      32.086  18.275  24.819  1.00  0.00     0.004 C 
ENDROOT
BRANCH   1   2
ATOM      2  C   UNL     1      30.938  19.286  25.107  1.00  0.00    -0.009 C 
BRANCH   2   3
ATOM      3  C   UNL     1      30.490  19.975  23.786  1.00  0.00     0.000 C 
ATOM      4  C   UNL     1      30.142  18.985  22.670  1.00  0.00     0.004 C 
ENDBRANCH   2   3
BRANCH   2   5
ATOM      5  C   UNL     1      29.742  18.632  25.878  1.00  0.00    -0.014 C 
ATOM      6  C   UNL     1      30.178  17.582  26.915  1.00  0.00     0.007 C 
ATOM      7  C   UNL     1      28.835  19.687  26.538  1.00  0.00     0.007 C 
ENDBRANCH   2   5
ENDBRANCH   1   2
BRANCH   1   8
ATOM      8  C   UNL     1      33.432  18.608  25.512  1.00  0.00     0.004 C 
BRANCH   8   9
ATOM      9  C   UNL     1      34.192  19.811  24.885  1.00  0.00    -0.011 C 
ATOM     10  C   UNL     1      34.070  19.854  23.346  1.00  0.00     0.008 C 
BRANCH   9  11
ATOM     11  C   UNL     1      35.653  19.963  25.448  1.00  0.00    -0.002 C 
ATOM     12  C   UNL     1      36.471  21.022  24.682  1.00  0.00     0.005 C 
ATOM     13  C   UNL     1      36.598  18.714  25.648  1.00  0.00    -0.026 C 
ATOM     14  C   UNL     1      37.802  20.387  24.324  1.00  0.00     0.005 C 
ATOM     15  C   UNL     1      38.032  19.234  25.311  1.00  0.00    -0.001 C 
ATOM     16  C   UNL     1      36.514  18.153  27.097  1.00  0.00     0.007 C 
ATOM     17  C   UNL     1      36.287  17.544  24.680  1.00  0.00     0.012 C 
ATOM     18  C   UNL     1      38.900  19.673  26.539  1.00  0.00     0.004 C 
ATOM     19  C   UNL     1      37.087  19.060  28.212  1.00  0.00     0.005 C 
ATOM     20  C   UNL     1      38.051  20.183  27.727  1.00  0.00     0.003 C 
ATOM     21  C   UNL     1      39.849  18.540  27.000  1.00  0.00     0.085 C 
ATOM     22  C   UNL     1      38.956  20.847  28.854  1.00  0.00    -0.000 C 
ATOM     23  C   UNL     1      40.589  18.905  28.253  1.00  0.00     0.159 C 
ATOM     24  C   UNL     1      40.346  20.203  28.916  1.00  0.00     0.005 C 
ATOM     25  C   UNL     1      39.141  22.363  28.520  1.00  0.00     0.020 C 
ATOM     26  C   UNL     1      38.296  20.729  30.256  1.00  0.00     0.017 C 
ATOM     27  O   UNL     1      41.469  18.115  28.700  1.00  0.00    -0.295 OA
ATOM     28  C   UNL     1      41.377  20.856  29.480  1.00  0.00     0.055 C 
ATOM     29  C   UNL     1      40.071  23.097  29.504  1.00  0.00     0.081 C 
ATOM     30  C   UNL     1      41.271  22.272  29.871  1.00  0.00     0.156 C 
ATOM     31  O   UNL     1      42.215  22.809  30.512  1.00  0.00    -0.295 OA
ENDBRANCH   9  11
ENDBRANCH   8   9
ENDBRANCH   1   8
TORSDOF 6
ENDMDL
MODEL 5
REMARK VINA RESULT:    -7.528      2.606      4.877
REMARK INTER + INTRA:         -11.415
REMARK INTER:                 -10.502
REMARK INTRA:                  -0.913
REMARK UNBOUND:                -1.246
REMARK SMILES CC[C@H](CC[C@H](C)[C@@H]1CC[C@H]2[C@@H]3CC(=O)C4=CC(=O)CC[C@@]4(C)[C@@H]3CC[C@]21C)C(C)C
REMARK SMILES IDX 4 1 3 2 2 3 1 4 29 5 30 6 31 7 5 8 6 9 7 10 8 11 9 12 27 13
REMARK SMILES IDX 10 14 11 15 26 16 28 17 12 18 25 19 24 20 13 21 22 22 14 23
REMARK SMILES IDX 16 24 21 25 23 26 15 27 17 28 20 29 18 30 19 31
REMARK H PARENT
REMARK Flexibility Score: inf
ROOT
ATOM      1  C   UNL     1      33.817  20.916  24.331  1.00  0.00     0.004 C 
ENDROOT
BRANCH   1   2
ATOM      2  C   UNL     1      32.663  20.554  23.351  1.00  0.00    -0.009 C 
BRANCH   2   3
ATOM      3  C   UNL     1      33.244  20.185  21.956  1.00  0.00     0.000 C 
ATOM      4  C   UNL     1      33.044  21.280  20.903  1.00  0.00     0.004 C 
ENDBRANCH   2   3
BRANCH   2   5
ATOM      5  C   UNL     1      31.720  19.441  23.920  1.00  0.00    -0.014 C 
ATOM      6  C   UNL     1      30.265  19.555  23.430  1.00  0.00     0.007 C 
ATOM      7  C   UNL     1      32.264  18.026  23.645  1.00  0.00     0.007 C 
ENDBRANCH   2   5
ENDBRANCH   1   2
BRANCH   1   8
ATOM      8  C   UNL     1      35.210  20.379  23.919  1.00  0.00     0.004 C 
BRANCH   8   9
ATOM      9  C   UNL     1      35.882  19.463  24.982  1.00  0.00    -0.011 C 
ATOM     10  C   UNL     1      34.891  18.987  26.066  1.00  0.00     0.008 C 
BRANCH   9  11
ATOM     11  C   UNL     1      37.235  20.057  25.523  1.00  0.00    -0.002 C 
ATOM     12  C   UNL     1      38.253  20.318  24.395  1.00  0.00     0.005 C 
ATOM     13  C   UNL     1      38.028  19.372  26.704  1.00  0.00    -0.026 C 
ATOM     14  C   UNL     1      39.569  19.698  24.828  1.00  0.00     0.005 C 
ATOM     15  C   UNL     1      39.535  19.592  26.359  1.00  0.00    -0.001 C 
ATOM     16  C   UNL     1      37.656  19.989  28.083  1.00  0.00     0.007 C 
ATOM     17  C   UNL     1      37.789  17.844  26.802  1.00  0.00     0.012 C 
ATOM     18  C   UNL     1      40.218  20.819  27.052  1.00  0.00     0.004 C 
ATOM     19  C   UNL     1      38.105  21.452  28.317  1.00  0.00     0.005 C 
ATOM     20  C   UNL     1      39.226  21.964  27.364  1.00  0.00     0.003 C 
ATOM     21  C   UNL     1      40.980  20.401  28.333  1.00  0.00     0.085 C 
ATOM     22  C   UNL     1      39.979  23.284  27.836  1.00  0.00    -0.000 C 
ATOM     23  C   UNL     1      41.526  21.586  29.073  1.00  0.00     0.159 C 
ATOM     24  C   UNL     1      41.281  22.957  28.576  1.00  0.00     0.005 C 
ATOM     25  C   UNL     1      40.341  24.132  26.574  1.00  0.00     0.020 C 
ATOM     26  C   UNL     1      39.085  24.146  28.770  1.00  0.00     0.017 C 
ATOM     27  O   UNL     1      42.250  21.397  30.090  1.00  0.00    -0.295 OA
ATOM     28  C   UNL     1      42.253  23.879  28.688  1.00  0.00     0.055 C 
ATOM     29  C   UNL     1      41.148  25.402  26.902  1.00  0.00     0.081 C 
ATOM     30  C   UNL     1      42.199  25.150  27.946  1.00  0.00     0.156 C 
ATOM     31  O   UNL     1      43.062  26.039  28.179  1.00  0.00    -0.295 OA
ENDBRANCH   9  11
ENDBRANCH   8   9
ENDBRANCH   1   8
TORSDOF 6
ENDMDL
MODEL 6
REMARK VINA RESULT:    -7.499      2.710      4.862
REMARK INTER + INTRA:         -11.376
REMARK INTER:                 -10.711
REMARK INTRA:                  -0.665
REMARK UNBOUND:                -1.246
REMARK SMILES CC[C@H](CC[C@H](C)[C@@H]1CC[C@H]2[C@@H]3CC(=O)C4=CC(=O)CC[C@@]4(C)[C@@H]3CC[C@]21C)C(C)C
REMARK SMILES IDX 4 1 3 2 2 3 1 4 29 5 30 6 31 7 5 8 6 9 7 10 8 11 9 12 27 13
REMARK SMILES IDX 10 14 11 15 26 16 28 17 12 18 25 19 24 20 13 21 22 22 14 23
REMARK SMILES IDX 16 24 21 25 23 26 15 27 17 28 20 29 18 30 19 31
REMARK H PARENT
REMARK Flexibility Score: inf
ROOT
ATOM      1  C   UNL     1      33.924  18.656  25.305  1.00  0.00     0.004 C 
ENDROOT
BRANCH   1   2
ATOM      2  C   UNL     1      32.979  19.175  24.181  1.00  0.00    -0.009 C 
BRANCH   2   3
ATOM      3  C   UNL     1      31.495  18.931  24.577  1.00  0.00     0.000 C 
ATOM      4  C   UNL     1      31.328  17.960  25.751  1.00  0.00     0.004 C 
ENDBRANCH   2   3
BRANCH   2   5
ATOM      5  C   UNL     1      33.261  20.668  23.803  1.00  0.00    -0.014 C 
ATOM      6  C   UNL     1      33.837  20.847  22.387  1.00  0.00     0.007 C 
ATOM      7  C   UNL     1      32.015  21.555  23.986  1.00  0.00     0.007 C 
ENDBRANCH   2   5
ENDBRANCH   1   2
BRANCH   1   8
ATOM      8  C   UNL     1      35.107  19.598  25.643  1.00  0.00     0.004 C 
BRANCH   8   9
ATOM      9  C   UNL     1      36.465  19.168  25.017  1.00  0.00    -0.011 C 
ATOM     10  C   UNL     1      36.595  17.636  24.877  1.00  0.00     0.008 C 
BRANCH   9  11
ATOM     11  C   UNL     1      37.693  19.890  25.684  1.00  0.00    -0.002 C 
ATOM     12  C   UNL     1      38.916  19.954  24.748  1.00  0.00     0.005 C 
ATOM     13  C   UNL     1      38.230  19.467  27.107  1.00  0.00    -0.026 C 
ATOM     14  C   UNL     1      40.114  19.465  25.541  1.00  0.00     0.005 C 
ATOM     15  C   UNL     1      39.779  19.655  27.027  1.00  0.00    -0.001 C 
ATOM     16  C   UNL     1      37.603  20.329  28.241  1.00  0.00     0.007 C 
ATOM     17  C   UNL     1      37.957  17.981  27.452  1.00  0.00     0.012 C 
ATOM     18  C   UNL     1      40.327  21.011  27.587  1.00  0.00     0.004 C 
ATOM     19  C   UNL     1      38.016  21.821  28.269  1.00  0.00     0.005 C 
ATOM     20  C   UNL     1      39.308  22.168  27.471  1.00  0.00     0.003 C 
ATOM     21  C   UNL     1      40.818  20.868  29.048  1.00  0.00     0.085 C 
ATOM     22  C   UNL     1      39.971  23.573  27.814  1.00  0.00    -0.000 C 
ATOM     23  C   UNL     1      41.224  22.188  29.635  1.00  0.00     0.159 C 
ATOM     24  C   UNL     1      41.099  23.429  28.843  1.00  0.00     0.005 C 
ATOM     25  C   UNL     1      40.583  24.171  26.507  1.00  0.00     0.020 C 
ATOM     26  C   UNL     1      38.922  24.576  28.370  1.00  0.00     0.017 C 
ATOM     27  O   UNL     1      41.732  22.217  30.791  1.00  0.00    -0.295 OA
ATOM     28  C   UNL     1      42.041  24.381  28.961  1.00  0.00     0.055 C 
ATOM     29  C   UNL     1      41.327  25.501  26.732  1.00  0.00     0.081 C 
ATOM     30  C   UNL     1      42.149  25.483  27.990  1.00  0.00     0.156 C 
ATOM     31  O   UNL     1      42.961  26.422  28.208  1.00  0.00    -0.295 OA
ENDBRANCH   9  11
ENDBRANCH   8   9
ENDBRANCH   1   8
TORSDOF 6
ENDMDL
MODEL 7
REMARK VINA RESULT:    -7.145      3.799      8.648
REMARK INTER + INTRA:         -10.897
REMARK INTER:                  -9.864
REMARK INTRA:                  -1.034
REMARK UNBOUND:                -1.246
REMARK SMILES CC[C@H](CC[C@H](C)[C@@H]1CC[C@H]2[C@@H]3CC(=O)C4=CC(=O)CC[C@@]4(C)[C@@H]3CC[C@]21C)C(C)C
REMARK SMILES IDX 4 1 3 2 2 3 1 4 29 5 30 6 31 7 5 8 6 9 7 10 8 11 9 12 27 13
REMARK SMILES IDX 10 14 11 15 26 16 28 17 12 18 25 19 24 20 13 21 22 22 14 23
REMARK SMILES IDX 16 24 21 25 23 26 15 27 17 28 20 29 18 30 19 31
REMARK H PARENT
REMARK Flexibility Score: inf
ROOT
ATOM      1  C   UNL     1      41.385  13.016  28.361  1.00  0.00     0.004 C 
ENDROOT
BRANCH   1   2
ATOM      2  C   UNL     1      41.652  11.577  28.893  1.00  0.00    -0.009 C 
BRANCH   2   3
ATOM      3  C   UNL     1      41.145  11.447  30.358  1.00  0.00     0.000 C 
ATOM      4  C   UNL     1      42.207  11.799  31.404  1.00  0.00     0.004 C 
ENDBRANCH   2   3
BRANCH   2   5
ATOM      5  C   UNL     1      41.061  10.471  27.954  1.00  0.00    -0.014 C 
ATOM      6  C   UNL     1      42.135   9.620  27.253  1.00  0.00     0.007 C 
ATOM      7  C   UNL     1      40.060   9.562  28.690  1.00  0.00     0.007 C 
ENDBRANCH   2   5
ENDBRANCH   1   2
BRANCH   1   8
ATOM      8  C   UNL     1      42.576  13.660  27.609  1.00  0.00     0.004 C 
BRANCH   8   9
ATOM      9  C   UNL     1      42.842  15.146  27.988  1.00  0.00    -0.011 C 
ATOM     10  C   UNL     1      42.897  15.368  29.515  1.00  0.00     0.008 C 
BRANCH   9  11
ATOM     11  C   UNL     1      41.921  16.145  27.195  1.00  0.00    -0.002 C 
ATOM     12  C   UNL     1      41.731  15.727  25.723  1.00  0.00     0.005 C 
ATOM     13  C   UNL     1      42.191  17.700  27.197  1.00  0.00    -0.026 C 
ATOM     14  C   UNL     1      42.006  16.953  24.871  1.00  0.00     0.005 C 
ATOM     15  C   UNL     1      41.790  18.182  25.766  1.00  0.00    -0.001 C 
ATOM     16  C   UNL     1      41.370  18.428  28.301  1.00  0.00     0.007 C 
ATOM     17  C   UNL     1      43.682  18.067  27.412  1.00  0.00     0.012 C 
ATOM     18  C   UNL     1      40.344  18.766  25.627  1.00  0.00     0.004 C 
ATOM     19  C   UNL     1      39.835  18.458  28.099  1.00  0.00     0.005 C 
ATOM     20  C   UNL     1      39.349  18.165  26.648  1.00  0.00     0.003 C 
ATOM     21  C   UNL     1      40.342  20.311  25.716  1.00  0.00     0.085 C 
ATOM     22  C   UNL     1      37.849  18.587  26.328  1.00  0.00    -0.000 C 
ATOM     23  C   UNL     1      38.950  20.872  25.716  1.00  0.00     0.159 C 
ATOM     24  C   UNL     1      37.780  19.969  25.668  1.00  0.00     0.005 C 
ATOM     25  C   UNL     1      37.237  17.547  25.335  1.00  0.00     0.020 C 
ATOM     26  C   UNL     1      36.978  18.611  27.615  1.00  0.00     0.017 C 
ATOM     27  O   UNL     1      38.790  22.124  25.693  1.00  0.00    -0.295 OA
ATOM     28  C   UNL     1      36.699  20.332  24.954  1.00  0.00     0.055 C 
ATOM     29  C   UNL     1      35.806  17.898  24.887  1.00  0.00     0.081 C 
ATOM     30  C   UNL     1      35.644  19.365  24.609  1.00  0.00     0.156 C 
ATOM     31  O   UNL     1      34.589  19.774  24.052  1.00  0.00    -0.295 OA
ENDBRANCH   9  11
ENDBRANCH   8   9
ENDBRANCH   1   8
TORSDOF 6
ENDMDL
MODEL 8
REMARK VINA RESULT:    -7.078      3.511      7.974
REMARK INTER + INTRA:         -10.807
REMARK INTER:                  -8.890
REMARK INTRA:                  -1.917
REMARK UNBOUND:                -1.246
REMARK SMILES CC[C@H](CC[C@H](C)[C@@H]1CC[C@H]2[C@@H]3CC(=O)C4=CC(=O)CC[C@@]4(C)[C@@H]3CC[C@]21C)C(C)C
REMARK SMILES IDX 4 1 3 2 2 3 1 4 29 5 30 6 31 7 5 8 6 9 7 10 8 11 9 12 27 13
REMARK SMILES IDX 10 14 11 15 26 16 28 17 12 18 25 19 24 20 13 21 22 22 14 23
REMARK SMILES IDX 16 24 21 25 23 26 15 27 17 28 20 29 18 30 19 31
REMARK H PARENT
REMARK Flexibility Score: inf
ROOT
ATOM      1  C   UNL     1      41.934  23.436  27.450  1.00  0.00     0.004 C 
ENDROOT
BRANCH   1   2
ATOM      2  C   UNL     1      40.981  24.613  27.811  1.00  0.00    -0.009 C 
BRANCH   2   3
ATOM      3  C   UNL     1      41.748  25.964  27.734  1.00  0.00     0.000 C 
ATOM      4  C   UNL     1      42.965  25.922  26.805  1.00  0.00     0.004 C 
ENDBRANCH   2   3
BRANCH   2   5
ATOM      5  C   UNL     1      39.676  24.614  26.945  1.00  0.00    -0.014 C 
ATOM      6  C   UNL     1      39.695  23.586  25.799  1.00  0.00     0.007 C 
ATOM      7  C   UNL     1      38.412  24.427  27.805  1.00  0.00     0.007 C 
ENDBRANCH   2   5
ENDBRANCH   1   2
BRANCH   1   8
ATOM      8  C   UNL     1      42.393  22.580  28.657  1.00  0.00     0.004 C 
BRANCH   8   9
ATOM      9  C   UNL     1      41.256  22.226  29.658  1.00  0.00    -0.011 C 
ATOM     10  C   UNL     1      41.793  21.679  30.998  1.00  0.00     0.008 C 
BRANCH   9  11
ATOM     11  C   UNL     1      40.111  21.374  28.994  1.00  0.00    -0.002 C 
ATOM     12  C   UNL     1      38.814  21.383  29.826  1.00  0.00     0.005 C 
ATOM     13  C   UNL     1      40.348  19.882  28.535  1.00  0.00    -0.026 C 
ATOM     14  C   UNL     1      38.364  19.941  29.971  1.00  0.00     0.005 C 
ATOM     15  C   UNL     1      38.994  19.154  28.813  1.00  0.00    -0.001 C 
ATOM     16  C   UNL     1      40.750  19.796  27.034  1.00  0.00     0.007 C 
ATOM     17  C   UNL     1      41.446  19.153  29.351  1.00  0.00     0.012 C 
ATOM     18  C   UNL     1      38.026  19.030  27.588  1.00  0.00     0.004 C 
ATOM     19  C   UNL     1      39.654  20.184  26.012  1.00  0.00     0.005 C 
ATOM     20  C   UNL     1      38.197  20.177  26.565  1.00  0.00     0.003 C 
ATOM     21  C   UNL     1      38.166  17.656  26.888  1.00  0.00     0.085 C 
ATOM     22  C   UNL     1      37.046  20.164  25.467  1.00  0.00    -0.000 C 
ATOM     23  C   UNL     1      37.339  17.578  25.638  1.00  0.00     0.159 C 
ATOM     24  C   UNL     1      36.545  18.742  25.192  1.00  0.00     0.005 C 
ATOM     25  C   UNL     1      35.841  21.006  25.996  1.00  0.00     0.020 C 
ATOM     26  C   UNL     1      37.531  20.784  24.128  1.00  0.00     0.017 C 
ATOM     27  O   UNL     1      37.280  16.485  25.007  1.00  0.00    -0.295 OA
ATOM     28  C   UNL     1      35.337  18.538  24.637  1.00  0.00     0.055 C 
ATOM     29  C   UNL     1      34.627  21.000  25.048  1.00  0.00     0.081 C 
ATOM     30  C   UNL     1      34.375  19.639  24.462  1.00  0.00     0.156 C 
ATOM     31  O   UNL     1      33.308  19.433  23.822  1.00  0.00    -0.295 OA
ENDBRANCH   9  11
ENDBRANCH   8   9
ENDBRANCH   1   8
TORSDOF 6
ENDMDL
MODEL 9
REMARK VINA RESULT:    -6.921      2.443      5.266
REMARK INTER + INTRA:         -10.595
REMARK INTER:                  -8.993
REMARK INTRA:                  -1.601
REMARK UNBOUND:                -1.246
REMARK SMILES CC[C@H](CC[C@H](C)[C@@H]1CC[C@H]2[C@@H]3CC(=O)C4=CC(=O)CC[C@@]4(C)[C@@H]3CC[C@]21C)C(C)C
REMARK SMILES IDX 4 1 3 2 2 3 1 4 29 5 30 6 31 7 5 8 6 9 7 10 8 11 9 12 27 13
REMARK SMILES IDX 10 14 11 15 26 16 28 17 12 18 25 19 24 20 13 21 22 22 14 23
REMARK SMILES IDX 16 24 21 25 23 26 15 27 17 28 20 29 18 30 19 31
REMARK H PARENT
REMARK Flexibility Score: inf
ROOT
ATOM      1  C   UNL     1      35.485  18.237  25.766  1.00  0.00     0.004 C 
ENDROOT
BRANCH   1   2
ATOM      2  C   UNL     1      35.077  19.690  25.384  1.00  0.00    -0.009 C 
BRANCH   2   3
ATOM      3  C   UNL     1      36.346  20.568  25.191  1.00  0.00     0.000 C 
ATOM      4  C   UNL     1      36.865  21.184  26.494  1.00  0.00     0.004 C 
ENDBRANCH   2   3
BRANCH   2   5
ATOM      5  C   UNL     1      34.121  19.738  24.144  1.00  0.00    -0.014 C 
ATOM      6  C   UNL     1      33.047  18.634  24.151  1.00  0.00     0.007 C 
ATOM      7  C   UNL     1      33.461  21.120  23.975  1.00  0.00     0.007 C 
ENDBRANCH   2   5
ENDBRANCH   1   2
BRANCH   1   8
ATOM      8  C   UNL     1      36.729  17.696  25.017  1.00  0.00     0.004 C 
BRANCH   8   9
ATOM      9  C   UNL     1      37.887  17.238  25.950  1.00  0.00    -0.011 C 
ATOM     10  C   UNL     1      37.376  16.562  27.241  1.00  0.00     0.008 C 
BRANCH   9  11
ATOM     11  C   UNL     1      38.971  18.358  26.161  1.00  0.00    -0.002 C 
ATOM     12  C   UNL     1      39.457  18.964  24.829  1.00  0.00     0.005 C 
ATOM     13  C   UNL     1      40.256  18.112  27.045  1.00  0.00    -0.026 C 
ATOM     14  C   UNL     1      40.974  18.959  24.861  1.00  0.00     0.005 C 
ATOM     15  C   UNL     1      41.393  18.916  26.338  1.00  0.00    -0.001 C 
ATOM     16  C   UNL     1      40.045  18.583  28.514  1.00  0.00     0.007 C 
ATOM     17  C   UNL     1      40.695  16.626  27.094  1.00  0.00     0.012 C 
ATOM     18  C   UNL     1      41.674  20.344  26.914  1.00  0.00     0.004 C 
ATOM     19  C   UNL     1      39.905  20.110  28.725  1.00  0.00     0.005 C 
ATOM     20  C   UNL     1      40.423  20.994  27.552  1.00  0.00     0.003 C 
ATOM     21  C   UNL     1      42.850  20.333  27.920  1.00  0.00     0.085 C 
ATOM     22  C   UNL     1      40.670  22.526  27.904  1.00  0.00    -0.000 C 
ATOM     23  C   UNL     1      43.041  21.670  28.574  1.00  0.00     0.159 C 
ATOM     24  C   UNL     1      42.138  22.795  28.255  1.00  0.00     0.005 C 
ATOM     25  C   UNL     1      40.307  23.391  26.654  1.00  0.00     0.020 C 
ATOM     26  C   UNL     1      39.786  22.985  29.096  1.00  0.00     0.017 C 
ATOM     27  O   UNL     1      44.021  21.839  29.354  1.00  0.00    -0.295 OA
ATOM     28  C   UNL     1      42.642  24.040  28.176  1.00  0.00     0.055 C 
ATOM     29  C   UNL     1      40.583  24.894  26.849  1.00  0.00     0.081 C 
ATOM     30  C   UNL     1      41.881  25.142  27.565  1.00  0.00     0.156 C 
ATOM     31  O   UNL     1      42.335  26.316  27.627  1.00  0.00    -0.295 OA
ENDBRANCH   9  11
ENDBRANCH   8   9
ENDBRANCH   1   8
TORSDOF 6
ENDMDL
