MODEL 1
REMARK VINA RESULT:    -4.912      0.000      0.000
REMARK INTER + INTRA:          -7.764
REMARK INTER:                  -7.209
REMARK INTRA:                  -0.555
REMARK UNBOUND:                -0.555
REMARK SMILES O=C([O-])CCCCCCCC(=O)[O-]
REMARK SMILES IDX 7 1 6 2 5 3 4 4 2 5 1 6 3 7 8 8 9 9 10 10 11 11 12 12 13 13
REMARK H PARENT
REMARK Flexibility Score: inf
ROOT
ATOM      1  C   UNL     1       8.438  22.362  -9.773  1.00  0.00     0.000 C 
ENDROOT
BRANCH   1   2
ATOM      2  C   UNL     1       7.207  23.215  -9.433  1.00  0.00     0.000 C 
BRANCH   2   3
ATOM      3  C   UNL     1       7.479  24.260  -8.335  1.00  0.00     0.006 C 
BRANCH   3   4
ATOM      4  C   UNL     1       7.442  23.689  -6.906  1.00  0.00     0.053 C 
BRANCH   4   5
ATOM      5  C   UNL     1       6.275  24.190  -6.111  1.00  0.00     0.041 C 
ATOM      6  O   UNL     1       6.369  25.255  -5.446  1.00  0.00    -0.550 OA
ATOM      7  O   UNL     1       5.092  23.463  -6.080  1.00  0.00    -0.550 OA
ENDBRANCH   4   5
ENDBRANCH   3   4
ENDBRANCH   2   3
ENDBRANCH   1   2
BRANCH   1   8
ATOM      8  C   UNL     1       9.721  23.205  -9.715  1.00  0.00     0.000 C 
BRANCH   8   9
ATOM      9  C   UNL     1      10.932  22.407  -9.205  1.00  0.00     0.006 C 
BRANCH   9  10
ATOM     10  C   UNL     1      10.714  21.841  -7.796  1.00  0.00     0.053 C 
BRANCH  10  11
ATOM     11  C   UNL     1      10.864  20.353  -7.803  1.00  0.00     0.041 C 
ATOM     12  O   UNL     1       9.926  19.621  -7.390  1.00  0.00    -0.550 OA
ATOM     13  O   UNL     1      12.057  19.775  -8.217  1.00  0.00    -0.550 OA
ENDBRANCH  10  11
ENDBRANCH   9  10
ENDBRANCH   8   9
ENDBRANCH   1   8
TORSDOF 8
ENDMDL
MODEL 2
REMARK VINA RESULT:    -4.887      2.280      5.407
REMARK INTER + INTRA:          -7.728
REMARK INTER:                  -7.424
REMARK INTRA:                  -0.304
REMARK UNBOUND:                -0.555
REMARK SMILES O=C([O-])CCCCCCCC(=O)[O-]
REMARK SMILES IDX 7 1 6 2 5 3 4 4 2 5 1 6 3 7 8 8 9 9 10 10 11 11 12 12 13 13
REMARK H PARENT
REMARK Flexibility Score: inf
ROOT
ATOM      1  C   UNL     1       7.764  22.216 -10.129  1.00  0.00     0.000 C 
ENDROOT
BRANCH   1   2
ATOM      2  C   UNL     1       8.907  22.197  -9.104  1.00  0.00     0.000 C 
BRANCH   2   3
ATOM      3  C   UNL     1      10.216  22.801  -9.646  1.00  0.00     0.006 C 
BRANCH   3   4
ATOM      4  C   UNL     1      11.236  23.166  -8.553  1.00  0.00     0.053 C 
BRANCH   4   5
ATOM      5  C   UNL     1      12.275  24.135  -9.029  1.00  0.00     0.041 C 
ATOM      6  O   UNL     1      12.128  24.737 -10.125  1.00  0.00    -0.550 OA
ATOM      7  O   UNL     1      13.422  24.350  -8.276  1.00  0.00    -0.550 OA
ENDBRANCH   4   5
ENDBRANCH   3   4
ENDBRANCH   2   3
ENDBRANCH   1   2
BRANCH   1   8
ATOM      8  C   UNL     1       6.739  23.307  -9.787  1.00  0.00     0.000 C 
BRANCH   8   9
ATOM      9  C   UNL     1       7.094  24.073  -8.503  1.00  0.00     0.006 C 
BRANCH   9  10
ATOM     10  C   UNL     1       6.245  23.637  -7.301  1.00  0.00     0.053 C 
BRANCH  10  11
ATOM     11  C   UNL     1       6.901  24.048  -6.022  1.00  0.00     0.041 C 
ATOM     12  O   UNL     1       7.544  23.206  -5.341  1.00  0.00    -0.550 OA
ATOM     13  O   UNL     1       6.760  25.349  -5.554  1.00  0.00    -0.550 OA
ENDBRANCH  10  11
ENDBRANCH   9  10
ENDBRANCH   8   9
ENDBRANCH   1   8
TORSDOF 8
ENDMDL
MODEL 3
REMARK VINA RESULT:    -4.882      1.115      5.373
REMARK INTER + INTRA:          -7.720
REMARK INTER:                  -7.122
REMARK INTRA:                  -0.598
REMARK UNBOUND:                -0.555
REMARK SMILES O=C([O-])CCCCCCCC(=O)[O-]
REMARK SMILES IDX 7 1 6 2 5 3 4 4 2 5 1 6 3 7 8 8 9 9 10 10 11 11 12 12 13 13
REMARK H PARENT
REMARK Flexibility Score: inf
ROOT
ATOM      1  C   UNL     1       8.466  22.471  -9.829  1.00  0.00     0.000 C 
ENDROOT
BRANCH   1   2
ATOM      2  C   UNL     1       9.436  23.391  -9.074  1.00  0.00     0.000 C 
BRANCH   2   3
ATOM      3  C   UNL     1      10.093  22.711  -7.859  1.00  0.00     0.006 C 
BRANCH   3   4
ATOM      4  C   UNL     1      10.072  21.173  -7.917  1.00  0.00     0.053 C 
BRANCH   4   5
ATOM      5  C   UNL     1      11.440  20.579  -8.066  1.00  0.00     0.041 C 
ATOM      6  O   UNL     1      11.587  19.331  -8.140  1.00  0.00    -0.550 OA
ATOM      7  O   UNL     1      12.557  21.404  -8.089  1.00  0.00    -0.550 OA
ENDBRANCH   4   5
ENDBRANCH   3   4
ENDBRANCH   2   3
ENDBRANCH   1   2
BRANCH   1   8
ATOM      8  C   UNL     1       7.020  22.975  -9.701  1.00  0.00     0.000 C 
BRANCH   8   9
ATOM      9  C   UNL     1       6.865  24.067  -8.631  1.00  0.00     0.006 C 
BRANCH   9  10
ATOM     10  C   UNL     1       6.111  23.575  -7.389  1.00  0.00     0.053 C 
BRANCH  10  11
ATOM     11  C   UNL     1       6.777  24.069  -6.145  1.00  0.00     0.041 C 
ATOM     12  O   UNL     1       6.602  25.256  -5.761  1.00  0.00    -0.550 OA
ATOM     13  O   UNL     1       7.630  23.235  -5.433  1.00  0.00    -0.550 OA
ENDBRANCH  10  11
ENDBRANCH   9  10
ENDBRANCH   8   9
ENDBRANCH   1   8
TORSDOF 8
ENDMDL
MODEL 4
REMARK VINA RESULT:    -4.867      2.301      5.371
REMARK INTER + INTRA:          -7.699
REMARK INTER:                  -7.054
REMARK INTRA:                  -0.645
REMARK UNBOUND:                -0.555
REMARK SMILES O=C([O-])CCCCCCCC(=O)[O-]
REMARK SMILES IDX 7 1 6 2 5 3 4 4 2 5 1 6 3 7 8 8 9 9 10 10 11 11 12 12 13 13
REMARK H PARENT
REMARK Flexibility Score: inf
ROOT
ATOM      1  C   UNL     1       8.803  22.429  -9.207  1.00  0.00     0.000 C 
ENDROOT
BRANCH   1   2
ATOM      2  C   UNL     1       9.863  21.626  -8.439  1.00  0.00     0.000 C 
BRANCH   2   3
ATOM      3  C   UNL     1      10.750  22.503  -7.537  1.00  0.00     0.006 C 
BRANCH   3   4
ATOM      4  C   UNL     1      12.236  22.512  -7.941  1.00  0.00     0.053 C 
BRANCH   4   5
ATOM      5  C   UNL     1      12.698  23.855  -8.419  1.00  0.00     0.041 C 
ATOM      6  O   UNL     1      13.667  24.431  -7.858  1.00  0.00    -0.550 OA
ATOM      7  O   UNL     1      12.037  24.486  -9.465  1.00  0.00    -0.550 OA
ENDBRANCH   4   5
ENDBRANCH   3   4
ENDBRANCH   2   3
ENDBRANCH   1   2
BRANCH   1   8
ATOM      8  C   UNL     1       8.720  23.870  -8.681  1.00  0.00     0.000 C 
BRANCH   8   9
ATOM      9  C   UNL     1       7.275  24.383  -8.581  1.00  0.00     0.006 C 
BRANCH   9  10
ATOM     10  C   UNL     1       6.468  23.665  -7.492  1.00  0.00     0.053 C 
BRANCH  10  11
ATOM     11  C   UNL     1       6.945  24.073  -6.135  1.00  0.00     0.041 C 
ATOM     12  O   UNL     1       6.687  25.223  -5.691  1.00  0.00    -0.550 OA
ATOM     13  O   UNL     1       7.719  23.202  -5.378  1.00  0.00    -0.550 OA
ENDBRANCH  10  11
ENDBRANCH   9  10
ENDBRANCH   8   9
ENDBRANCH   1   8
TORSDOF 8
ENDMDL
MODEL 5
REMARK VINA RESULT:    -4.831      2.297      2.793
REMARK INTER + INTRA:          -7.646
REMARK INTER:                  -7.034
REMARK INTRA:                  -0.612
REMARK UNBOUND:                -0.555
REMARK SMILES O=C([O-])CCCCCCCC(=O)[O-]
REMARK SMILES IDX 7 1 6 2 5 3 4 4 2 5 1 6 3 7 8 8 9 9 10 10 11 11 12 12 13 13
REMARK H PARENT
REMARK Flexibility Score: inf
ROOT
ATOM      1  C   UNL     1       9.011  22.171  -9.339  1.00  0.00     0.000 C 
ENDROOT
BRANCH   1   2
ATOM      2  C   UNL     1       8.673  23.621  -8.962  1.00  0.00     0.000 C 
BRANCH   2   3
ATOM      3  C   UNL     1       7.187  23.824  -8.614  1.00  0.00     0.006 C 
BRANCH   3   4
ATOM      4  C   UNL     1       6.952  24.505  -7.254  1.00  0.00     0.053 C 
BRANCH   4   5
ATOM      5  C   UNL     1       6.638  23.528  -6.162  1.00  0.00     0.041 C 
ATOM      6  O   UNL     1       5.453  23.148  -5.968  1.00  0.00    -0.550 OA
ATOM      7  O   UNL     1       7.652  23.061  -5.335  1.00  0.00    -0.550 OA
ENDBRANCH   4   5
ENDBRANCH   3   4
ENDBRANCH   2   3
ENDBRANCH   1   2
BRANCH   1   8
ATOM      8  C   UNL     1       9.849  21.499  -8.240  1.00  0.00     0.000 C 
BRANCH   8   9
ATOM      9  C   UNL     1      10.816  22.474  -7.551  1.00  0.00     0.006 C 
BRANCH   9  10
ATOM     10  C   UNL     1      12.215  22.460  -8.179  1.00  0.00     0.053 C 
BRANCH  10  11
ATOM     11  C   UNL     1      12.611  23.838  -8.604  1.00  0.00     0.041 C 
ATOM     12  O   UNL     1      12.068  24.371  -9.607  1.00  0.00    -0.550 OA
ATOM     13  O   UNL     1      13.615  24.516  -7.924  1.00  0.00    -0.550 OA
ENDBRANCH  10  11
ENDBRANCH   9  10
ENDBRANCH   8   9
ENDBRANCH   1   8
TORSDOF 8
ENDMDL
MODEL 6
REMARK VINA RESULT:    -4.792      1.445      1.766
REMARK INTER + INTRA:          -7.589
REMARK INTER:                  -7.029
REMARK INTRA:                  -0.560
REMARK UNBOUND:                -0.555
REMARK SMILES O=C([O-])CCCCCCCC(=O)[O-]
REMARK SMILES IDX 7 1 6 2 5 3 4 4 2 5 1 6 3 7 8 8 9 9 10 10 11 11 12 12 13 13
REMARK H PARENT
REMARK Flexibility Score: inf
ROOT
ATOM      1  C   UNL     1       8.063  22.157  -9.858  1.00  0.00     0.000 C 
ENDROOT
BRANCH   1   2
ATOM      2  C   UNL     1       7.087  23.338  -9.759  1.00  0.00     0.000 C 
BRANCH   2   3
ATOM      3  C   UNL     1       7.254  24.152  -8.462  1.00  0.00     0.006 C 
BRANCH   3   4
ATOM      4  C   UNL     1       6.385  23.653  -7.294  1.00  0.00     0.053 C 
BRANCH   4   5
ATOM      5  C   UNL     1       6.941  24.030  -5.954  1.00  0.00     0.041 C 
ATOM      6  O   UNL     1       6.714  25.169  -5.470  1.00  0.00    -0.550 OA
ATOM      7  O   UNL     1       7.738  23.132  -5.255  1.00  0.00    -0.550 OA
ENDBRANCH   4   5
ENDBRANCH   3   4
ENDBRANCH   2   3
ENDBRANCH   1   2
BRANCH   1   8
ATOM      8  C   UNL     1       9.402  22.493  -9.185  1.00  0.00     0.000 C 
BRANCH   8   9
ATOM      9  C   UNL     1       9.807  21.460  -8.121  1.00  0.00     0.006 C 
BRANCH   9  10
ATOM     10  C   UNL     1      10.651  22.072  -6.996  1.00  0.00     0.053 C 
BRANCH  10  11
ATOM     11  C   UNL     1      12.107  21.975  -7.323  1.00  0.00     0.041 C 
ATOM     12  O   UNL     1      12.933  22.748  -6.771  1.00  0.00    -0.550 OA
ATOM     13  O   UNL     1      12.547  21.064  -8.276  1.00  0.00    -0.550 OA
ENDBRANCH  10  11
ENDBRANCH   9  10
ENDBRANCH   8   9
ENDBRANCH   1   8
TORSDOF 8
ENDMDL
MODEL 7
REMARK VINA RESULT:    -4.741      1.793      2.224
REMARK INTER + INTRA:          -7.513
REMARK INTER:                  -7.155
REMARK INTRA:                  -0.359
REMARK UNBOUND:                -0.555
REMARK SMILES O=C([O-])CCCCCCCC(=O)[O-]
REMARK SMILES IDX 7 1 6 2 5 3 4 4 2 5 1 6 3 7 8 8 9 9 10 10 11 11 12 12 13 13
REMARK H PARENT
REMARK Flexibility Score: inf
ROOT
ATOM      1  C   UNL     1       8.130  22.165  -9.953  1.00  0.00     0.000 C 
ENDROOT
BRANCH   1   2
ATOM      2  C   UNL     1       6.747  22.604 -10.455  1.00  0.00     0.000 C 
BRANCH   2   3
ATOM      3  C   UNL     1       5.866  23.209  -9.347  1.00  0.00     0.006 C 
BRANCH   3   4
ATOM      4  C   UNL     1       4.399  22.744  -9.391  1.00  0.00     0.053 C 
BRANCH   4   5
ATOM      5  C   UNL     1       3.801  22.582  -8.026  1.00  0.00     0.041 C 
ATOM      6  O   UNL     1       4.491  22.809  -6.998  1.00  0.00    -0.550 OA
ATOM      7  O   UNL     1       2.488  22.147  -7.890  1.00  0.00    -0.550 OA
ENDBRANCH   4   5
ENDBRANCH   3   4
ENDBRANCH   2   3
ENDBRANCH   1   2
BRANCH   1   8
ATOM      8  C   UNL     1       8.520  22.932  -8.680  1.00  0.00     0.000 C 
BRANCH   8   9
ATOM      9  C   UNL     1      10.035  22.919  -8.422  1.00  0.00     0.006 C 
BRANCH   9  10
ATOM     10  C   UNL     1      10.421  22.054  -7.215  1.00  0.00     0.053 C 
BRANCH  10  11
ATOM     11  C   UNL     1      10.790  20.674  -7.659  1.00  0.00     0.041 C 
ATOM     12  O   UNL     1      10.024  19.705  -7.418  1.00  0.00    -0.550 OA
ATOM     13  O   UNL     1      12.005  20.450  -8.295  1.00  0.00    -0.550 OA
ENDBRANCH  10  11
ENDBRANCH   9  10
ENDBRANCH   8   9
ENDBRANCH   1   8
TORSDOF 8
ENDMDL
MODEL 8
REMARK VINA RESULT:    -4.689      2.772      3.501
REMARK INTER + INTRA:          -7.437
REMARK INTER:                  -6.971
REMARK INTRA:                  -0.466
REMARK UNBOUND:                -0.555
REMARK SMILES O=C([O-])CCCCCCCC(=O)[O-]
REMARK SMILES IDX 7 1 6 2 5 3 4 4 2 5 1 6 3 7 8 8 9 9 10 10 11 11 12 12 13 13
REMARK H PARENT
REMARK Flexibility Score: inf
ROOT
ATOM      1  C   UNL     1       8.046  24.160  -8.519  1.00  0.00     0.000 C 
ENDROOT
BRANCH   1   2
ATOM      2  C   UNL     1       6.862  23.854  -7.592  1.00  0.00     0.000 C 
BRANCH   2   3
ATOM      3  C   UNL     1       7.228  23.932  -6.098  1.00  0.00     0.006 C 
BRANCH   3   4
ATOM      4  C   UNL     1       7.141  22.583  -5.362  1.00  0.00     0.053 C 
BRANCH   4   5
ATOM      5  C   UNL     1       8.486  22.039  -4.987  1.00  0.00     0.041 C 
ATOM      6  O   UNL     1       9.342  21.790  -5.876  1.00  0.00    -0.550 OA
ATOM      7  O   UNL     1       8.782  21.775  -3.656  1.00  0.00    -0.550 OA
ENDBRANCH   4   5
ENDBRANCH   3   4
ENDBRANCH   2   3
ENDBRANCH   1   2
BRANCH   1   8
ATOM      8  C   UNL     1       8.667  22.863  -9.062  1.00  0.00     0.000 C 
BRANCH   8   9
ATOM      9  C   UNL     1      10.015  23.099  -9.762  1.00  0.00     0.006 C 
BRANCH   9  10
ATOM     10  C   UNL     1      11.199  23.077  -8.787  1.00  0.00     0.053 C 
BRANCH  10  11
ATOM     11  C   UNL     1      12.136  24.205  -9.077  1.00  0.00     0.041 C 
ATOM     12  O   UNL     1      12.069  24.817 -10.176  1.00  0.00    -0.550 OA
ATOM     13  O   UNL     1      13.117  24.550  -8.156  1.00  0.00    -0.550 OA
ENDBRANCH  10  11
ENDBRANCH   9  10
ENDBRANCH   8   9
ENDBRANCH   1   8
TORSDOF 8
ENDMDL
MODEL 9
REMARK VINA RESULT:    -4.642      1.869      5.864
REMARK INTER + INTRA:          -7.368
REMARK INTER:                  -6.966
REMARK INTRA:                  -0.402
REMARK UNBOUND:                -0.555
REMARK SMILES O=C([O-])CCCCCCCC(=O)[O-]
REMARK SMILES IDX 7 1 6 2 5 3 4 4 2 5 1 6 3 7 8 8 9 9 10 10 11 11 12 12 13 13
REMARK H PARENT
REMARK Flexibility Score: inf
ROOT
ATOM      1  C   UNL     1       8.534  22.375  -9.743  1.00  0.00     0.000 C 
ENDROOT
BRANCH   1   2
ATOM      2  C   UNL     1       8.503  22.886  -8.296  1.00  0.00     0.000 C 
BRANCH   2   3
ATOM      3  C   UNL     1       9.771  22.525  -7.500  1.00  0.00     0.006 C 
BRANCH   3   4
ATOM      4  C   UNL     1      10.063  21.015  -7.443  1.00  0.00     0.053 C 
BRANCH   4   5
ATOM      5  C   UNL     1      11.410  20.663  -7.997  1.00  0.00     0.041 C 
ATOM      6  O   UNL     1      11.714  19.461  -8.216  1.00  0.00    -0.550 OA
ATOM      7  O   UNL     1      12.343  21.662  -8.242  1.00  0.00    -0.550 OA
ENDBRANCH   4   5
ENDBRANCH   3   4
ENDBRANCH   2   3
ENDBRANCH   1   2
BRANCH   1   8
ATOM      8  C   UNL     1       7.155  22.516 -10.405  1.00  0.00     0.000 C 
BRANCH   8   9
ATOM      9  C   UNL     1       6.190  23.387  -9.585  1.00  0.00     0.006 C 
BRANCH   9  10
ATOM     10  C   UNL     1       4.724  22.971  -9.762  1.00  0.00     0.053 C 
BRANCH  10  11
ATOM     11  C   UNL     1       4.127  22.589  -8.445  1.00  0.00     0.041 C 
ATOM     12  O   UNL     1       4.698  22.919  -7.372  1.00  0.00    -0.550 OA
ATOM     13  O   UNL     1       2.968  21.825  -8.401  1.00  0.00    -0.550 OA
ENDBRANCH  10  11
ENDBRANCH   9  10
ENDBRANCH   8   9
ENDBRANCH   1   8
TORSDOF 8
ENDMDL
