MODEL 1
REMARK VINA RESULT:    -2.963      0.000      0.000
REMARK INTER + INTRA:          -6.119
REMARK INTER:                  -4.781
REMARK INTRA:                  -1.338
REMARK UNBOUND:                -1.338
REMARK SMILES CCCCCCCCCCCCO
REMARK SMILES IDX 7 1 6 2 5 3 4 4 3 5 2 6 1 7 8 8 9 9 10 10 11 11 12 12 13 13
REMARK H PARENT 13 14
REMARK Flexibility Score: inf
ROOT
ATOM      1  C   UNL     1     141.660 135.248 138.111  1.00  0.00     0.000 C 
ENDROOT
BRANCH   1   2
ATOM      2  C   UNL     1     141.879 136.366 137.077  1.00  0.00    -0.000 C 
BRANCH   2   3
ATOM      3  C   UNL     1     142.734 137.518 137.627  1.00  0.00    -0.000 C 
BRANCH   3   4
ATOM      4  C   UNL     1     143.243 137.244 139.054  1.00  0.00    -0.000 C 
BRANCH   4   5
ATOM      5  C   UNL     1     144.757 136.982 139.099  1.00  0.00    -0.000 C 
BRANCH   5   6
ATOM      6  C   UNL     1     145.169 136.111 140.294  1.00  0.00    -0.003 C 
ATOM      7  C   UNL     1     143.946 135.562 141.022  1.00  0.00     0.004 C 
ENDBRANCH   5   6
ENDBRANCH   4   5
ENDBRANCH   3   4
ENDBRANCH   2   3
ENDBRANCH   1   2
BRANCH   1   8
ATOM      8  C   UNL     1     141.601 133.853 137.468  1.00  0.00     0.000 C 
BRANCH   8   9
ATOM      9  C   UNL     1     142.670 132.900 138.032  1.00  0.00     0.000 C 
BRANCH   9  10
ATOM     10  C   UNL     1     144.092 133.470 137.908  1.00  0.00     0.002 C 
BRANCH  10  11
ATOM     11  C   UNL     1     145.111 132.702 138.766  1.00  0.00     0.028 C 
BRANCH  11  12
ATOM     12  C   UNL     1     146.552 132.975 138.321  1.00  0.00     0.156 C 
BRANCH  12  13
ATOM     13  O   UNL     1     146.620 133.134 136.929  1.00  0.00    -0.396 OA
ATOM     14  H   UNL     1     147.533 132.860 136.652  1.00  0.00     0.210 HD
ENDBRANCH  12  13
ENDBRANCH  11  12
ENDBRANCH  10  11
ENDBRANCH   9  10
ENDBRANCH   8   9
ENDBRANCH   1   8
TORSDOF 11
ENDMDL
MODEL 2
REMARK VINA RESULT:    -2.921     11.328     13.576
REMARK INTER + INTRA:          -6.052
REMARK INTER:                  -4.466
REMARK INTRA:                  -1.586
REMARK UNBOUND:                -1.338
REMARK SMILES CCCCCCCCCCCCO
REMARK SMILES IDX 7 1 6 2 5 3 4 4 3 5 2 6 1 7 8 8 9 9 10 10 11 11 12 12 13 13
REMARK H PARENT 13 14
REMARK Flexibility Score: inf
ROOT
ATOM      1  C   UNL     1     137.285 143.924 138.773  1.00  0.00     0.000 C 
ENDROOT
BRANCH   1   2
ATOM      2  C   UNL     1     138.791 143.895 138.459  1.00  0.00    -0.000 C 
BRANCH   2   3
ATOM      3  C   UNL     1     139.251 145.129 137.666  1.00  0.00    -0.000 C 
BRANCH   3   4
ATOM      4  C   UNL     1     140.116 146.082 138.510  1.00  0.00    -0.000 C 
BRANCH   4   5
ATOM      5  C   UNL     1     139.368 147.367 138.902  1.00  0.00    -0.000 C 
BRANCH   5   6
ATOM      6  C   UNL     1     139.239 147.534 140.422  1.00  0.00    -0.003 C 
ATOM      7  C   UNL     1     139.825 146.334 141.159  1.00  0.00     0.004 C 
ENDBRANCH   5   6
ENDBRANCH   4   5
ENDBRANCH   3   4
ENDBRANCH   2   3
ENDBRANCH   1   2
BRANCH   1   8
ATOM      8  C   UNL     1     136.998 144.035 140.279  1.00  0.00     0.000 C 
BRANCH   8   9
ATOM      9  C   UNL     1     136.287 145.348 140.648  1.00  0.00     0.000 C 
BRANCH   9  10
ATOM     10  C   UNL     1     135.818 146.133 139.412  1.00  0.00     0.002 C 
BRANCH  10  11
ATOM     11  C   UNL     1     135.591 147.623 139.712  1.00  0.00     0.028 C 
BRANCH  11  12
ATOM     12  C   UNL     1     134.200 148.089 139.270  1.00  0.00     0.156 C 
BRANCH  12  13
ATOM     13  O   UNL     1     133.280 147.031 139.328  1.00  0.00    -0.396 OA
ATOM     14  H   UNL     1     133.783 146.229 139.626  1.00  0.00     0.210 HD
ENDBRANCH  12  13
ENDBRANCH  11  12
ENDBRANCH  10  11
ENDBRANCH   9  10
ENDBRANCH   8   9
ENDBRANCH   1   8
TORSDOF 11
ENDMDL
MODEL 3
REMARK VINA RESULT:    -2.886     11.683     14.122
REMARK INTER + INTRA:          -5.996
REMARK INTER:                  -4.808
REMARK INTRA:                  -1.188
REMARK UNBOUND:                -1.338
REMARK SMILES CCCCCCCCCCCCO
REMARK SMILES IDX 7 1 6 2 5 3 4 4 3 5 2 6 1 7 8 8 9 9 10 10 11 11 12 12 13 13
REMARK H PARENT 13 14
REMARK Flexibility Score: inf
ROOT
ATOM      1  C   UNL     1     139.785 146.327 138.404  1.00  0.00     0.000 C 
ENDROOT
BRANCH   1   2
ATOM      2  C   UNL     1     139.193 145.085 137.717  1.00  0.00    -0.000 C 
BRANCH   2   3
ATOM      3  C   UNL     1     138.398 144.197 138.688  1.00  0.00    -0.000 C 
BRANCH   3   4
ATOM      4  C   UNL     1     136.974 144.726 138.938  1.00  0.00    -0.000 C 
BRANCH   4   5
ATOM      5  C   UNL     1     136.600 144.730 140.429  1.00  0.00    -0.000 C 
BRANCH   5   6
ATOM      6  C   UNL     1     136.673 146.132 141.051  1.00  0.00    -0.003 C 
ATOM      7  C   UNL     1     138.008 146.351 141.756  1.00  0.00     0.004 C 
ENDBRANCH   5   6
ENDBRANCH   4   5
ENDBRANCH   3   4
ENDBRANCH   2   3
ENDBRANCH   1   2
BRANCH   1   8
ATOM      8  C   UNL     1     140.108 147.454 137.409  1.00  0.00     0.000 C 
BRANCH   8   9
ATOM      9  C   UNL     1     139.295 148.732 137.683  1.00  0.00     0.000 C 
BRANCH   9  10
ATOM     10  C   UNL     1     138.139 148.496 138.667  1.00  0.00     0.002 C 
BRANCH  10  11
ATOM     11  C   UNL     1     136.828 149.153 138.205  1.00  0.00     0.028 C 
BRANCH  11  12
ATOM     12  C   UNL     1     135.695 148.132 138.065  1.00  0.00     0.156 C 
BRANCH  12  13
ATOM     13  O   UNL     1     134.912 148.411 136.935  1.00  0.00    -0.396 OA
ATOM     14  H   UNL     1     135.539 148.581 136.185  1.00  0.00     0.210 HD
ENDBRANCH  12  13
ENDBRANCH  11  12
ENDBRANCH  10  11
ENDBRANCH   9  10
ENDBRANCH   8   9
ENDBRANCH   1   8
TORSDOF 11
ENDMDL
MODEL 4
REMARK VINA RESULT:    -2.877      7.905      9.580
REMARK INTER + INTRA:          -5.981
REMARK INTER:                  -4.600
REMARK INTRA:                  -1.381
REMARK UNBOUND:                -1.338
REMARK SMILES CCCCCCCCCCCCO
REMARK SMILES IDX 7 1 6 2 5 3 4 4 3 5 2 6 1 7 8 8 9 9 10 10 11 11 12 12 13 13
REMARK H PARENT 13 14
REMARK Flexibility Score: inf
ROOT
ATOM      1  C   UNL     1     134.207 139.483 139.282  1.00  0.00     0.000 C 
ENDROOT
BRANCH   1   2
ATOM      2  C   UNL     1     134.422 139.716 137.776  1.00  0.00    -0.000 C 
BRANCH   2   3
ATOM      3  C   UNL     1     135.868 139.435 137.337  1.00  0.00    -0.000 C 
BRANCH   3   4
ATOM      4  C   UNL     1     136.873 139.576 138.495  1.00  0.00    -0.000 C 
BRANCH   4   5
ATOM      5  C   UNL     1     137.831 138.378 138.594  1.00  0.00    -0.000 C 
BRANCH   5   6
ATOM      6  C   UNL     1     137.099 137.060 138.884  1.00  0.00    -0.003 C 
ATOM      7  C   UNL     1     136.923 136.849 140.385  1.00  0.00     0.004 C 
ENDBRANCH   5   6
ENDBRANCH   4   5
ENDBRANCH   3   4
ENDBRANCH   2   3
ENDBRANCH   1   2
BRANCH   1   8
ATOM      8  C   UNL     1     133.460 138.172 139.575  1.00  0.00     0.000 C 
BRANCH   8   9
ATOM      9  C   UNL     1     133.054 137.426 138.292  1.00  0.00     0.000 C 
BRANCH   9  10
ATOM     10  C   UNL     1     133.611 135.995 138.240  1.00  0.00     0.002 C 
BRANCH  10  11
ATOM     11  C   UNL     1     133.617 135.315 139.618  1.00  0.00     0.028 C 
BRANCH  11  12
ATOM     12  C   UNL     1     133.386 133.804 139.510  1.00  0.00     0.156 C 
BRANCH  12  13
ATOM     13  O   UNL     1     134.603 133.126 139.343  1.00  0.00    -0.396 OA
ATOM     14  H   UNL     1     135.285 133.810 139.114  1.00  0.00     0.210 HD
ENDBRANCH  12  13
ENDBRANCH  11  12
ENDBRANCH  10  11
ENDBRANCH   9  10
ENDBRANCH   8   9
ENDBRANCH   1   8
TORSDOF 11
ENDMDL
MODEL 5
REMARK VINA RESULT:    -2.868      1.212      2.282
REMARK INTER + INTRA:          -5.967
REMARK INTER:                  -4.887
REMARK INTRA:                  -1.079
REMARK UNBOUND:                -1.338
REMARK SMILES CCCCCCCCCCCCO
REMARK SMILES IDX 7 1 6 2 5 3 4 4 3 5 2 6 1 7 8 8 9 9 10 10 11 11 12 12 13 13
REMARK H PARENT 13 14
REMARK Flexibility Score: inf
ROOT
ATOM      1  C   UNL     1     142.244 132.800 137.860  1.00  0.00     0.000 C 
ENDROOT
BRANCH   1   2
ATOM      2  C   UNL     1     141.392 134.023 137.481  1.00  0.00    -0.000 C 
BRANCH   2   3
ATOM      3  C   UNL     1     141.596 135.205 138.443  1.00  0.00    -0.000 C 
BRANCH   3   4
ATOM      4  C   UNL     1     141.904 136.520 137.703  1.00  0.00    -0.000 C 
BRANCH   4   5
ATOM      5  C   UNL     1     143.158 137.222 138.247  1.00  0.00    -0.000 C 
BRANCH   5   6
ATOM      6  C   UNL     1     143.722 136.537 139.499  1.00  0.00    -0.003 C 
ATOM      7  C   UNL     1     145.196 136.187 139.318  1.00  0.00     0.004 C 
ENDBRANCH   5   6
ENDBRANCH   4   5
ENDBRANCH   3   4
ENDBRANCH   2   3
ENDBRANCH   1   2
BRANCH   1   8
ATOM      8  C   UNL     1     143.743 133.131 137.949  1.00  0.00     0.000 C 
BRANCH   8   9
ATOM      9  C   UNL     1     144.412 132.506 139.186  1.00  0.00     0.000 C 
BRANCH   9  10
ATOM     10  C   UNL     1     145.743 131.816 138.851  1.00  0.00     0.002 C 
BRANCH  10  11
ATOM     11  C   UNL     1     146.838 132.814 138.441  1.00  0.00     0.028 C 
BRANCH  11  12
ATOM     12  C   UNL     1     147.621 133.332 139.652  1.00  0.00     0.156 C 
BRANCH  12  13
ATOM     13  O   UNL     1     148.352 134.482 139.316  1.00  0.00    -0.396 OA
ATOM     14  H   UNL     1     147.701 135.229 139.251  1.00  0.00     0.210 HD
ENDBRANCH  12  13
ENDBRANCH  11  12
ENDBRANCH  10  11
ENDBRANCH   9  10
ENDBRANCH   8   9
ENDBRANCH   1   8
TORSDOF 11
ENDMDL
MODEL 6
REMARK VINA RESULT:    -2.860      8.234     10.394
REMARK INTER + INTRA:          -5.954
REMARK INTER:                  -4.828
REMARK INTRA:                  -1.126
REMARK UNBOUND:                -1.338
REMARK SMILES CCCCCCCCCCCCO
REMARK SMILES IDX 7 1 6 2 5 3 4 4 3 5 2 6 1 7 8 8 9 9 10 10 11 11 12 12 13 13
REMARK H PARENT 13 14
REMARK Flexibility Score: inf
ROOT
ATOM      1  C   UNL     1     147.731 141.364 137.127  1.00  0.00     0.000 C 
ENDROOT
BRANCH   1   2
ATOM      2  C   UNL     1     146.456 142.151 137.475  1.00  0.00    -0.000 C 
BRANCH   2   3
ATOM      3  C   UNL     1     145.729 141.582 138.705  1.00  0.00    -0.000 C 
BRANCH   3   4
ATOM      4  C   UNL     1     145.093 142.683 139.573  1.00  0.00    -0.000 C 
BRANCH   4   5
ATOM      5  C   UNL     1     144.793 143.963 138.776  1.00  0.00    -0.000 C 
BRANCH   5   6
ATOM      6  C   UNL     1     145.462 145.205 139.382  1.00  0.00    -0.003 C 
ATOM      7  C   UNL     1     146.216 144.855 140.661  1.00  0.00     0.004 C 
ENDBRANCH   5   6
ENDBRANCH   4   5
ENDBRANCH   3   4
ENDBRANCH   2   3
ENDBRANCH   1   2
BRANCH   1   8
ATOM      8  C   UNL     1     149.008 142.061 137.624  1.00  0.00     0.000 C 
BRANCH   8   9
ATOM      9  C   UNL     1     148.707 143.345 138.417  1.00  0.00     0.000 C 
BRANCH   9  10
ATOM     10  C   UNL     1     149.586 144.527 137.981  1.00  0.00     0.002 C 
BRANCH  10  11
ATOM     11  C   UNL     1     149.444 145.742 138.912  1.00  0.00     0.028 C 
BRANCH  11  12
ATOM     12  C   UNL     1     148.641 146.872 138.259  1.00  0.00     0.156 C 
BRANCH  12  13
ATOM     13  O   UNL     1     148.375 146.578 136.913  1.00  0.00    -0.396 OA
ATOM     14  H   UNL     1     148.386 147.440 136.422  1.00  0.00     0.210 HD
ENDBRANCH  12  13
ENDBRANCH  11  12
ENDBRANCH  10  11
ENDBRANCH   9  10
ENDBRANCH   8   9
ENDBRANCH   1   8
TORSDOF 11
ENDMDL
MODEL 7
REMARK VINA RESULT:    -2.829     11.793     14.399
REMARK INTER + INTRA:          -5.903
REMARK INTER:                  -4.641
REMARK INTRA:                  -1.262
REMARK UNBOUND:                -1.338
REMARK SMILES CCCCCCCCCCCCO
REMARK SMILES IDX 7 1 6 2 5 3 4 4 3 5 2 6 1 7 8 8 9 9 10 10 11 11 12 12 13 13
REMARK H PARENT 13 14
REMARK Flexibility Score: inf
ROOT
ATOM      1  C   UNL     1     139.743 147.636 137.298  1.00  0.00     0.000 C 
ENDROOT
BRANCH   1   2
ATOM      2  C   UNL     1     139.757 146.123 137.573  1.00  0.00    -0.000 C 
BRANCH   2   3
ATOM      3  C   UNL     1     140.185 145.790 139.012  1.00  0.00    -0.000 C 
BRANCH   3   4
ATOM      4  C   UNL     1     139.140 144.938 139.754  1.00  0.00    -0.000 C 
BRANCH   4   5
ATOM      5  C   UNL     1     138.150 144.253 138.797  1.00  0.00    -0.000 C 
BRANCH   5   6
ATOM      6  C   UNL     1     136.686 144.549 139.151  1.00  0.00    -0.003 C 
ATOM      7  C   UNL     1     136.577 145.235 140.510  1.00  0.00     0.004 C 
ENDBRANCH   5   6
ENDBRANCH   4   5
ENDBRANCH   3   4
ENDBRANCH   2   3
ENDBRANCH   1   2
BRANCH   1   8
ATOM      8  C   UNL     1     138.764 148.392 138.211  1.00  0.00     0.000 C 
BRANCH   8   9
ATOM      9  C   UNL     1     137.306 147.941 138.014  1.00  0.00     0.000 C 
BRANCH   9  10
ATOM     10  C   UNL     1     136.337 148.639 138.980  1.00  0.00     0.002 C 
BRANCH  10  11
ATOM     11  C   UNL     1     134.929 148.807 138.384  1.00  0.00     0.028 C 
BRANCH  11  12
ATOM     12  C   UNL     1     133.837 148.376 139.368  1.00  0.00     0.156 C 
BRANCH  12  13
ATOM     13  O   UNL     1     133.656 146.984 139.331  1.00  0.00    -0.396 OA
ATOM     14  H   UNL     1     134.274 146.595 140.002  1.00  0.00     0.210 HD
ENDBRANCH  12  13
ENDBRANCH  11  12
ENDBRANCH  10  11
ENDBRANCH   9  10
ENDBRANCH   8   9
ENDBRANCH   1   8
TORSDOF 11
ENDMDL
MODEL 8
REMARK VINA RESULT:    -2.774     10.767     13.208
REMARK INTER + INTRA:          -5.814
REMARK INTER:                  -4.526
REMARK INTRA:                  -1.288
REMARK UNBOUND:                -1.338
REMARK SMILES CCCCCCCCCCCCO
REMARK SMILES IDX 7 1 6 2 5 3 4 4 3 5 2 6 1 7 8 8 9 9 10 10 11 11 12 12 13 13
REMARK H PARENT 13 14
REMARK Flexibility Score: inf
ROOT
ATOM      1  C   UNL     1     136.847 143.350 139.424  1.00  0.00     0.000 C 
ENDROOT
BRANCH   1   2
ATOM      2  C   UNL     1     138.143 142.534 139.575  1.00  0.00    -0.000 C 
BRANCH   2   3
ATOM      3  C   UNL     1     139.244 142.991 138.605  1.00  0.00    -0.000 C 
BRANCH   3   4
ATOM      4  C   UNL     1     138.775 144.126 137.676  1.00  0.00    -0.000 C 
BRANCH   4   5
ATOM      5  C   UNL     1     139.798 145.270 137.582  1.00  0.00    -0.000 C 
BRANCH   5   6
ATOM      6  C   UNL     1     139.880 146.095 138.874  1.00  0.00    -0.003 C 
ATOM      7  C   UNL     1     139.419 147.530 138.641  1.00  0.00     0.004 C 
ENDBRANCH   5   6
ENDBRANCH   4   5
ENDBRANCH   3   4
ENDBRANCH   2   3
ENDBRANCH   1   2
BRANCH   1   8
ATOM      8  C   UNL     1     136.495 144.138 140.696  1.00  0.00     0.000 C 
BRANCH   8   9
ATOM      9  C   UNL     1     136.547 145.661 140.478  1.00  0.00     0.000 C 
BRANCH   9  10
ATOM     10  C   UNL     1     135.966 146.083 139.120  1.00  0.00     0.002 C 
BRANCH  10  11
ATOM     11  C   UNL     1     135.300 147.467 139.168  1.00  0.00     0.028 C 
BRANCH  11  12
ATOM     12  C   UNL     1     135.784 148.373 138.031  1.00  0.00     0.156 C 
BRANCH  12  13
ATOM     13  O   UNL     1     134.879 148.348 136.958  1.00  0.00    -0.396 OA
ATOM     14  H   UNL     1     135.362 148.700 136.166  1.00  0.00     0.210 HD
ENDBRANCH  12  13
ENDBRANCH  11  12
ENDBRANCH  10  11
ENDBRANCH   9  10
ENDBRANCH   8   9
ENDBRANCH   1   8
TORSDOF 11
ENDMDL
MODEL 9
REMARK VINA RESULT:    -2.715      7.527      9.731
REMARK INTER + INTRA:          -5.720
REMARK INTER:                  -4.377
REMARK INTRA:                  -1.343
REMARK UNBOUND:                -1.338
REMARK SMILES CCCCCCCCCCCCO
REMARK SMILES IDX 7 1 6 2 5 3 4 4 3 5 2 6 1 7 8 8 9 9 10 10 11 11 12 12 13 13
REMARK H PARENT 13 14
REMARK Flexibility Score: inf
ROOT
ATOM      1  C   UNL     1     145.798 141.379 140.624  1.00  0.00     0.000 C 
ENDROOT
BRANCH   1   2
ATOM      2  C   UNL     1     145.655 140.856 139.185  1.00  0.00    -0.000 C 
BRANCH   2   3
ATOM      3  C   UNL     1     144.292 141.204 138.565  1.00  0.00    -0.000 C 
BRANCH   3   4
ATOM      4  C   UNL     1     144.287 142.590 137.896  1.00  0.00    -0.000 C 
BRANCH   4   5
ATOM      5  C   UNL     1     143.520 143.639 138.718  1.00  0.00    -0.000 C 
BRANCH   5   6
ATOM      6  C   UNL     1     144.439 144.731 139.284  1.00  0.00    -0.003 C 
ATOM      7  C   UNL     1     144.358 144.782 140.807  1.00  0.00     0.004 C 
ENDBRANCH   5   6
ENDBRANCH   4   5
ENDBRANCH   3   4
ENDBRANCH   2   3
ENDBRANCH   1   2
BRANCH   1   8
ATOM      8  C   UNL     1     147.041 142.265 140.808  1.00  0.00     0.000 C 
BRANCH   8   9
ATOM      9  C   UNL     1     147.704 142.635 139.470  1.00  0.00     0.000 C 
BRANCH   9  10
ATOM     10  C   UNL     1     147.973 144.143 139.342  1.00  0.00     0.002 C 
BRANCH  10  11
ATOM     11  C   UNL     1     148.668 144.508 138.020  1.00  0.00     0.028 C 
BRANCH  11  12
ATOM     12  C   UNL     1     148.928 146.013 137.908  1.00  0.00     0.156 C 
BRANCH  12  13
ATOM     13  O   UNL     1     148.161 146.574 136.875  1.00  0.00    -0.396 OA
ATOM     14  H   UNL     1     148.515 146.210 136.023  1.00  0.00     0.210 HD
ENDBRANCH  12  13
ENDBRANCH  11  12
ENDBRANCH  10  11
ENDBRANCH   9  10
ENDBRANCH   8   9
ENDBRANCH   1   8
TORSDOF 11
ENDMDL
