MODEL 1
REMARK VINA RESULT:    -6.770      0.000      0.000
REMARK INTER + INTRA:         -11.258
REMARK INTER:                 -10.135
REMARK INTRA:                  -1.123
REMARK UNBOUND:                -1.123
REMARK SMILES COC(=O)C1=CO[C@H](O[C@H]2O[C@@H](CO)[C@@H](O)[C@@H](O)[C@H]2O)[C@H]2C(CO)=CC[C@H]12
REMARK SMILES IDX 9 1 8 2 5 3 6 4 27 5 7 6 21 7 26 8 22 9 25 10 3 11 4 12 2 13
REMARK SMILES IDX 1 14 23 15 24 16 10 18 19 19 11 20 17 21 12 22 15 23 20 24
REMARK SMILES IDX 18 26 13 28 14 29 16 31
REMARK H PARENT 24 17 20 25 18 27 14 30 16 32
REMARK Flexibility Score: inf
ROOT
ATOM      1  O   UNL     1      -3.343  -4.937  -4.830  1.00  0.00    -0.310 OA
ENDROOT
BRANCH   1   2
ATOM      2  C   UNL     1      -3.993  -3.749  -4.428  1.00  0.00     0.316 C 
ATOM      3  C   UNL     1      -4.287  -0.900  -5.048  1.00  0.00     0.076 C 
ATOM      4  C   UNL     1      -3.154  -1.367  -4.480  1.00  0.00     0.202 C 
ATOM      5  C   UNL     1      -5.428  -1.881  -5.149  1.00  0.00     0.047 C 
ATOM      6  O   UNL     1      -3.005  -2.735  -4.149  1.00  0.00    -0.471 OA
ATOM      7  C   UNL     1      -4.883  -3.243  -5.565  1.00  0.00     0.094 C 
ATOM      8  C   UNL     1      -6.587  -1.668  -6.122  1.00  0.00     0.037 C 
ATOM      9  C   UNL     1      -6.138  -3.965  -5.935  1.00  0.00    -0.039 C 
ATOM     10  C   UNL     1      -7.064  -3.078  -6.312  1.00  0.00    -0.024 C 
BRANCH   3  11
ATOM     11  C   UNL     1      -4.445   0.540  -5.363  1.00  0.00     0.337 C 
ATOM     12  O   UNL     1      -3.969   1.007  -6.436  1.00  0.00    -0.246 OA
BRANCH  11  13
ATOM     13  O   UNL     1      -5.113   1.385  -4.471  1.00  0.00    -0.466 OA
ATOM     14  C   UNL     1      -6.188   2.226  -4.871  1.00  0.00     0.282 C 
ENDBRANCH  11  13
ENDBRANCH   3  11
BRANCH   9  15
ATOM     15  C   UNL     1      -6.289  -5.449  -6.109  1.00  0.00     0.187 C 
BRANCH  15  16
ATOM     16  O   UNL     1      -6.198  -6.071  -4.861  1.00  0.00    -0.392 OA
ATOM     17  H   UNL     1      -6.402  -7.029  -5.012  1.00  0.00     0.211 HD
ENDBRANCH  15  16
ENDBRANCH   9  15
ENDBRANCH   1   2
BRANCH   1  18
ATOM     18  C   UNL     1      -2.023  -5.013  -4.312  1.00  0.00     0.286 C 
ATOM     19  C   UNL     1      -1.010  -5.188  -5.479  1.00  0.00     0.202 C 
ATOM     20  O   UNL     1      -1.951  -6.129  -3.444  1.00  0.00    -0.341 OA
ATOM     21  C   UNL     1       0.212  -6.033  -5.043  1.00  0.00     0.179 C 
ATOM     22  C   UNL     1      -0.751  -6.111  -2.677  1.00  0.00     0.178 C 
ATOM     23  C   UNL     1       0.510  -5.791  -3.552  1.00  0.00     0.177 C 
BRANCH  19  24
ATOM     24  O   UNL     1      -1.619  -5.781  -6.602  1.00  0.00    -0.385 OA
ATOM     25  H   UNL     1      -1.750  -6.742  -6.389  1.00  0.00     0.211 HD
ENDBRANCH  19  24
BRANCH  21  26
ATOM     26  O   UNL     1      -0.032  -7.403  -5.247  1.00  0.00    -0.387 OA
ATOM     27  H   UNL     1       0.067  -7.854  -4.366  1.00  0.00     0.211 HD
ENDBRANCH  21  26
BRANCH  22  28
ATOM     28  C   UNL     1      -0.636  -7.454  -1.941  1.00  0.00     0.191 C 
BRANCH  28  29
ATOM     29  O   UNL     1       0.172  -7.307  -0.807  1.00  0.00    -0.394 OA
ATOM     30  H   UNL     1      -0.324  -6.710  -0.187  1.00  0.00     0.210 HD
ENDBRANCH  28  29
ENDBRANCH  22  28
BRANCH  23  31
ATOM     31  O   UNL     1       1.632  -6.536  -3.150  1.00  0.00    -0.387 OA
ATOM     32  H   UNL     1       1.906  -7.089  -3.928  1.00  0.00     0.211 HD
ENDBRANCH  23  31
ENDBRANCH   1  18
TORSDOF 11
ENDMDL
MODEL 2
REMARK VINA RESULT:    -6.483      1.297      1.545
REMARK INTER + INTRA:         -10.828
REMARK INTER:                  -8.959
REMARK INTRA:                  -1.868
REMARK UNBOUND:                -1.123
REMARK SMILES COC(=O)C1=CO[C@H](O[C@H]2O[C@@H](CO)[C@@H](O)[C@@H](O)[C@H]2O)[C@H]2C(CO)=CC[C@H]12
REMARK SMILES IDX 9 1 8 2 5 3 6 4 27 5 7 6 21 7 26 8 22 9 25 10 3 11 4 12 2 13
REMARK SMILES IDX 1 14 23 15 24 16 10 18 19 19 11 20 17 21 12 22 15 23 20 24
REMARK SMILES IDX 18 26 13 28 14 29 16 31
REMARK H PARENT 24 17 20 25 18 27 14 30 16 32
REMARK Flexibility Score: inf
ROOT
ATOM      1  O   UNL     1      -1.717  -4.215  -6.003  1.00  0.00    -0.310 OA
ENDROOT
BRANCH   1   2
ATOM      2  C   UNL     1      -2.573  -3.499  -5.136  1.00  0.00     0.316 C 
ATOM      3  C   UNL     1      -4.298  -1.137  -4.955  1.00  0.00     0.076 C 
ATOM      4  C   UNL     1      -2.953  -1.007  -4.960  1.00  0.00     0.202 C 
ATOM      5  C   UNL     1      -4.826  -2.546  -4.847  1.00  0.00     0.047 C 
ATOM      6  O   UNL     1      -2.105  -2.139  -5.020  1.00  0.00    -0.471 OA
ATOM      7  C   UNL     1      -3.984  -3.465  -5.726  1.00  0.00     0.094 C 
ATOM      8  C   UNL     1      -6.254  -2.901  -5.255  1.00  0.00     0.037 C 
ATOM      9  C   UNL     1      -4.830  -4.697  -5.762  1.00  0.00    -0.039 C 
ATOM     10  C   UNL     1      -6.108  -4.362  -5.566  1.00  0.00    -0.024 C 
BRANCH   3  11
ATOM     11  C   UNL     1      -5.178   0.052  -4.860  1.00  0.00     0.337 C 
ATOM     12  O   UNL     1      -5.489   0.519  -3.729  1.00  0.00    -0.246 OA
BRANCH  11  13
ATOM     13  O   UNL     1      -5.674   0.653  -6.022  1.00  0.00    -0.466 OA
ATOM     14  C   UNL     1      -4.954   1.649  -6.737  1.00  0.00     0.282 C 
ENDBRANCH  11  13
ENDBRANCH   3  11
BRANCH   9  15
ATOM     15  C   UNL     1      -4.386  -6.064  -6.195  1.00  0.00     0.187 C 
BRANCH  15  16
ATOM     16  O   UNL     1      -3.573  -6.620  -5.203  1.00  0.00    -0.392 OA
ATOM     17  H   UNL     1      -4.018  -6.428  -4.339  1.00  0.00     0.211 HD
ENDBRANCH  15  16
ENDBRANCH   9  15
ENDBRANCH   1   2
BRANCH   1  18
ATOM     18  C   UNL     1      -0.710  -4.914  -5.287  1.00  0.00     0.286 C 
ATOM     19  C   UNL     1      -0.145  -6.066  -6.164  1.00  0.00     0.202 C 
ATOM     20  O   UNL     1      -1.292  -5.448  -4.112  1.00  0.00    -0.341 OA
ATOM     21  C   UNL     1       0.290  -7.273  -5.298  1.00  0.00     0.179 C 
ATOM     22  C   UNL     1      -0.296  -5.921  -3.211  1.00  0.00     0.178 C 
ATOM     23  C   UNL     1       0.800  -6.781  -3.932  1.00  0.00     0.177 C 
BRANCH  19  24
ATOM     24  O   UNL     1      -1.085  -6.487  -7.125  1.00  0.00    -0.385 OA
ATOM     25  H   UNL     1      -0.576  -6.921  -7.859  1.00  0.00     0.211 HD
ENDBRANCH  19  24
BRANCH  21  26
ATOM     26  O   UNL     1      -0.787  -8.156  -5.096  1.00  0.00    -0.387 OA
ATOM     27  H   UNL     1      -0.404  -9.068  -4.998  1.00  0.00     0.211 HD
ENDBRANCH  21  26
BRANCH  22  28
ATOM     28  C   UNL     1      -1.000  -6.686  -2.081  1.00  0.00     0.191 C 
BRANCH  28  29
ATOM     29  O   UNL     1      -0.118  -6.873  -1.009  1.00  0.00    -0.394 OA
ATOM     30  H   UNL     1       0.340  -6.002  -0.872  1.00  0.00     0.210 HD
ENDBRANCH  28  29
ENDBRANCH  22  28
BRANCH  23  31
ATOM     31  O   UNL     1       1.219  -7.867  -3.144  1.00  0.00    -0.387 OA
ATOM     32  H   UNL     1       1.570  -7.489  -2.295  1.00  0.00     0.211 HD
ENDBRANCH  23  31
ENDBRANCH   1  18
TORSDOF 11
ENDMDL
MODEL 3
REMARK VINA RESULT:    -6.362      1.742      7.256
REMARK INTER + INTRA:         -10.646
REMARK INTER:                  -9.467
REMARK INTRA:                  -1.179
REMARK UNBOUND:                -1.123
REMARK SMILES COC(=O)C1=CO[C@H](O[C@H]2O[C@@H](CO)[C@@H](O)[C@@H](O)[C@H]2O)[C@H]2C(CO)=CC[C@H]12
REMARK SMILES IDX 9 1 8 2 5 3 6 4 27 5 7 6 21 7 26 8 22 9 25 10 3 11 4 12 2 13
REMARK SMILES IDX 1 14 23 15 24 16 10 18 19 19 11 20 17 21 12 22 15 23 20 24
REMARK SMILES IDX 18 26 13 28 14 29 16 31
REMARK H PARENT 24 17 20 25 18 27 14 30 16 32
REMARK Flexibility Score: inf
ROOT
ATOM      1  O   UNL     1      -4.614  -3.100  -4.191  1.00  0.00    -0.310 OA
ENDROOT
BRANCH   1   2
ATOM      2  C   UNL     1      -3.663  -3.927  -4.830  1.00  0.00     0.316 C 
ATOM      3  C   UNL     1      -1.809  -6.154  -4.391  1.00  0.00     0.076 C 
ATOM      4  C   UNL     1      -1.532  -4.923  -3.908  1.00  0.00     0.202 C 
ATOM      5  C   UNL     1      -2.998  -6.248  -5.314  1.00  0.00     0.047 C 
ATOM      6  O   UNL     1      -2.403  -3.830  -4.133  1.00  0.00    -0.471 OA
ATOM      7  C   UNL     1      -4.128  -5.383  -4.767  1.00  0.00     0.094 C 
ATOM      8  C   UNL     1      -3.695  -7.579  -5.593  1.00  0.00     0.037 C 
ATOM      9  C   UNL     1      -5.286  -5.853  -5.586  1.00  0.00    -0.039 C 
ATOM     10  C   UNL     1      -5.065  -7.109  -5.986  1.00  0.00    -0.024 C 
BRANCH   3  11
ATOM     11  C   UNL     1      -0.876  -7.286  -4.177  1.00  0.00     0.337 C 
ATOM     12  O   UNL     1       0.031  -7.524  -5.023  1.00  0.00    -0.246 OA
BRANCH  11  13
ATOM     13  O   UNL     1      -1.004  -8.097  -3.046  1.00  0.00    -0.466 OA
ATOM     14  C   UNL     1      -0.347  -7.809  -1.817  1.00  0.00     0.282 C 
ENDBRANCH  11  13
ENDBRANCH   3  11
BRANCH   9  15
ATOM     15  C   UNL     1      -6.604  -5.152  -5.743  1.00  0.00     0.187 C 
BRANCH  15  16
ATOM     16  O   UNL     1      -7.640  -6.080  -5.600  1.00  0.00    -0.392 OA
ATOM     17  H   UNL     1      -7.288  -6.801  -5.018  1.00  0.00     0.211 HD
ENDBRANCH  15  16
ENDBRANCH   9  15
ENDBRANCH   1   2
BRANCH   1  18
ATOM     18  C   UNL     1      -5.124  -2.110  -5.072  1.00  0.00     0.286 C 
ATOM     19  C   UNL     1      -4.094  -0.956  -5.219  1.00  0.00     0.202 C 
ATOM     20  O   UNL     1      -6.330  -1.609  -4.525  1.00  0.00    -0.341 OA
ATOM     21  C   UNL     1      -4.799   0.405  -5.443  1.00  0.00     0.179 C 
ATOM     22  C   UNL     1      -7.040  -0.821  -5.475  1.00  0.00     0.178 C 
ATOM     23  C   UNL     1      -6.108   0.193  -6.224  1.00  0.00     0.177 C 
BRANCH  19  24
ATOM     24  O   UNL     1      -3.252  -0.873  -4.093  1.00  0.00    -0.385 OA
ATOM     25  H   UNL     1      -3.778  -0.444  -3.368  1.00  0.00     0.211 HD
ENDBRANCH  19  24
BRANCH  21  26
ATOM     26  O   UNL     1      -5.091   1.023  -4.213  1.00  0.00    -0.387 OA
ATOM     27  H   UNL     1      -5.819   1.679  -4.380  1.00  0.00     0.211 HD
ENDBRANCH  21  26
BRANCH  22  28
ATOM     28  C   UNL     1      -8.203  -0.131  -4.747  1.00  0.00     0.191 C 
BRANCH  28  29
ATOM     29  O   UNL     1      -7.711   0.636  -3.684  1.00  0.00    -0.394 OA
ATOM     30  H   UNL     1      -7.066   0.057  -3.198  1.00  0.00     0.210 HD
ENDBRANCH  28  29
ENDBRANCH  22  28
BRANCH  23  31
ATOM     31  O   UNL     1      -6.747   1.424  -6.453  1.00  0.00    -0.387 OA
ATOM     32  H   UNL     1      -6.683   1.605  -7.427  1.00  0.00     0.211 HD
ENDBRANCH  23  31
ENDBRANCH   1  18
TORSDOF 11
ENDMDL
MODEL 4
REMARK VINA RESULT:    -6.308      1.864      6.830
REMARK INTER + INTRA:         -10.565
REMARK INTER:                  -9.340
REMARK INTRA:                  -1.224
REMARK UNBOUND:                -1.123
REMARK SMILES COC(=O)C1=CO[C@H](O[C@H]2O[C@@H](CO)[C@@H](O)[C@@H](O)[C@H]2O)[C@H]2C(CO)=CC[C@H]12
REMARK SMILES IDX 9 1 8 2 5 3 6 4 27 5 7 6 21 7 26 8 22 9 25 10 3 11 4 12 2 13
REMARK SMILES IDX 1 14 23 15 24 16 10 18 19 19 11 20 17 21 12 22 15 23 20 24
REMARK SMILES IDX 18 26 13 28 14 29 16 31
REMARK H PARENT 24 17 20 25 18 27 14 30 16 32
REMARK Flexibility Score: inf
ROOT
ATOM      1  O   UNL     1      -4.495  -3.660  -6.740  1.00  0.00    -0.310 OA
ENDROOT
BRANCH   1   2
ATOM      2  C   UNL     1      -3.302  -4.416  -6.695  1.00  0.00     0.316 C 
ATOM      3  C   UNL     1      -1.131  -5.284  -4.928  1.00  0.00     0.076 C 
ATOM      4  C   UNL     1      -1.195  -4.006  -5.362  1.00  0.00     0.202 C 
ATOM      5  C   UNL     1      -2.105  -6.246  -5.560  1.00  0.00     0.047 C 
ATOM      6  O   UNL     1      -2.222  -3.576  -6.236  1.00  0.00    -0.471 OA
ATOM      7  C   UNL     1      -3.463  -5.566  -5.698  1.00  0.00     0.094 C 
ATOM      8  C   UNL     1      -2.459  -7.578  -4.902  1.00  0.00     0.037 C 
ATOM      9  C   UNL     1      -4.348  -6.730  -6.007  1.00  0.00    -0.039 C 
ATOM     10  C   UNL     1      -3.811  -7.842  -5.497  1.00  0.00    -0.024 C 
BRANCH   3  11
ATOM     11  C   UNL     1      -0.034  -5.732  -4.037  1.00  0.00     0.337 C 
ATOM     12  O   UNL     1       1.064  -6.113  -4.530  1.00  0.00    -0.246 OA
BRANCH  11  13
ATOM     13  O   UNL     1      -0.216  -5.744  -2.650  1.00  0.00    -0.466 OA
ATOM     14  C   UNL     1      -0.494  -6.935  -1.924  1.00  0.00     0.282 C 
ENDBRANCH  11  13
ENDBRANCH   3  11
BRANCH   9  15
ATOM     15  C   UNL     1      -5.738  -6.662  -6.572  1.00  0.00     0.187 C 
BRANCH  15  16
ATOM     16  O   UNL     1      -6.662  -6.923  -5.556  1.00  0.00    -0.392 OA
ATOM     17  H   UNL     1      -7.512  -7.157  -6.009  1.00  0.00     0.211 HD
ENDBRANCH  15  16
ENDBRANCH   9  15
ENDBRANCH   1   2
BRANCH   1  18
ATOM     18  C   UNL     1      -4.522  -2.663  -5.730  1.00  0.00     0.286 C 
ATOM     19  C   UNL     1      -5.803  -2.825  -4.865  1.00  0.00     0.202 C 
ATOM     20  O   UNL     1      -4.525  -1.395  -6.359  1.00  0.00    -0.341 OA
ATOM     21  C   UNL     1      -6.310  -1.457  -4.345  1.00  0.00     0.179 C 
ATOM     22  C   UNL     1      -4.273  -0.352  -5.422  1.00  0.00     0.178 C 
ATOM     23  C   UNL     1      -5.118  -0.513  -4.110  1.00  0.00     0.177 C 
BRANCH  19  24
ATOM     24  O   UNL     1      -6.830  -3.467  -5.586  1.00  0.00    -0.385 OA
ATOM     25  H   UNL     1      -7.417  -2.755  -5.953  1.00  0.00     0.211 HD
ENDBRANCH  19  24
BRANCH  21  26
ATOM     26  O   UNL     1      -7.189  -0.866  -5.272  1.00  0.00    -0.387 OA
ATOM     27  H   UNL     1      -6.631  -0.414  -5.958  1.00  0.00     0.211 HD
ENDBRANCH  21  26
BRANCH  22  28
ATOM     28  C   UNL     1      -4.521   0.990  -6.125  1.00  0.00     0.191 C 
BRANCH  28  29
ATOM     29  O   UNL     1      -3.845   2.014  -5.449  1.00  0.00    -0.394 OA
ATOM     30  H   UNL     1      -4.226   2.040  -4.533  1.00  0.00     0.210 HD
ENDBRANCH  28  29
ENDBRANCH  22  28
BRANCH  23  31
ATOM     31  O   UNL     1      -5.563   0.726  -3.617  1.00  0.00    -0.387 OA
ATOM     32  H   UNL     1      -5.031   0.919  -2.801  1.00  0.00     0.211 HD
ENDBRANCH  23  31
ENDBRANCH   1  18
TORSDOF 11
ENDMDL
MODEL 5
REMARK VINA RESULT:    -6.278      2.879      9.123
REMARK INTER + INTRA:         -10.520
REMARK INTER:                  -8.877
REMARK INTRA:                  -1.644
REMARK UNBOUND:                -1.123
REMARK SMILES COC(=O)C1=CO[C@H](O[C@H]2O[C@@H](CO)[C@@H](O)[C@@H](O)[C@H]2O)[C@H]2C(CO)=CC[C@H]12
REMARK SMILES IDX 9 1 8 2 5 3 6 4 27 5 7 6 21 7 26 8 22 9 25 10 3 11 4 12 2 13
REMARK SMILES IDX 1 14 23 15 24 16 10 18 19 19 11 20 17 21 12 22 15 23 20 24
REMARK SMILES IDX 18 26 13 28 14 29 16 31
REMARK H PARENT 24 17 20 25 18 27 14 30 16 32
REMARK Flexibility Score: inf
ROOT
ATOM      1  O   UNL     1      -6.840   1.142  -4.341  1.00  0.00    -0.310 OA
ENDROOT
BRANCH   1   2
ATOM      2  C   UNL     1      -6.052   0.319  -5.177  1.00  0.00     0.316 C 
ATOM      3  C   UNL     1      -4.003  -1.776  -5.162  1.00  0.00     0.076 C 
ATOM      4  C   UNL     1      -3.686  -0.502  -4.844  1.00  0.00     0.202 C 
ATOM      5  C   UNL     1      -5.393  -1.995  -5.703  1.00  0.00     0.047 C 
ATOM      6  O   UNL     1      -4.657   0.528  -4.872  1.00  0.00    -0.471 OA
ATOM      7  C   UNL     1      -6.381  -1.150  -4.906  1.00  0.00     0.094 C 
ATOM      8  C   UNL     1      -6.048  -3.375  -5.700  1.00  0.00     0.037 C 
ATOM      9  C   UNL     1      -7.687  -1.735  -5.336  1.00  0.00    -0.039 C 
ATOM     10  C   UNL     1      -7.502  -3.003  -5.713  1.00  0.00    -0.024 C 
BRANCH   3  11
ATOM     11  C   UNL     1      -2.973  -2.842  -5.160  1.00  0.00     0.337 C 
ATOM     12  O   UNL     1      -2.245  -3.018  -6.177  1.00  0.00    -0.246 OA
BRANCH  11  13
ATOM     13  O   UNL     1      -2.811  -3.660  -4.037  1.00  0.00    -0.466 OA
ATOM     14  C   UNL     1      -2.065  -4.871  -4.073  1.00  0.00     0.282 C 
ENDBRANCH  11  13
ENDBRANCH   3  11
BRANCH   9  15
ATOM     15  C   UNL     1      -9.041  -1.112  -5.150  1.00  0.00     0.187 C 
BRANCH  15  16
ATOM     16  O   UNL     1      -9.133  -0.586  -3.859  1.00  0.00    -0.392 OA
ATOM     17  H   UNL     1      -8.236  -0.694  -3.450  1.00  0.00     0.211 HD
ENDBRANCH  15  16
ENDBRANCH   9  15
ENDBRANCH   1   2
BRANCH   1  18
ATOM     18  C   UNL     1      -7.498   2.161  -5.077  1.00  0.00     0.286 C 
ATOM     19  C   UNL     1      -6.556   3.387  -5.234  1.00  0.00     0.202 C 
ATOM     20  O   UNL     1      -8.663   2.539  -4.367  1.00  0.00    -0.341 OA
ATOM     21  C   UNL     1      -7.356   4.713  -5.268  1.00  0.00     0.179 C 
ATOM     22  C   UNL     1      -9.516   3.351  -5.169  1.00  0.00     0.178 C 
ATOM     23  C   UNL     1      -8.729   4.478  -5.923  1.00  0.00     0.177 C 
BRANCH  19  24
ATOM     24  O   UNL     1      -5.602   3.437  -4.199  1.00  0.00    -0.385 OA
ATOM     25  H   UNL     1      -5.876   2.768  -3.519  1.00  0.00     0.211 HD
ENDBRANCH  19  24
BRANCH  21  26
ATOM     26  O   UNL     1      -7.546   5.214  -3.967  1.00  0.00    -0.387 OA
ATOM     27  H   UNL     1      -7.099   6.100  -3.926  1.00  0.00     0.211 HD
ENDBRANCH  21  26
BRANCH  22  28
ATOM     28  C   UNL     1     -10.628   3.907  -4.268  1.00  0.00     0.191 C 
BRANCH  28  29
ATOM     29  O   UNL     1     -10.071   4.699  -3.256  1.00  0.00    -0.394 OA
ATOM     30  H   UNL     1      -9.165   4.332  -3.084  1.00  0.00     0.210 HD
ENDBRANCH  28  29
ENDBRANCH  22  28
BRANCH  23  31
ATOM     31  O   UNL     1      -9.456   5.680  -5.980  1.00  0.00    -0.387 OA
ATOM     32  H   UNL     1     -10.359   5.455  -6.328  1.00  0.00     0.211 HD
ENDBRANCH  23  31
ENDBRANCH   1  18
TORSDOF 11
ENDMDL
MODEL 6
REMARK VINA RESULT:    -6.174      3.211      6.088
REMARK INTER + INTRA:         -10.366
REMARK INTER:                  -8.719
REMARK INTRA:                  -1.647
REMARK UNBOUND:                -1.123
REMARK SMILES COC(=O)C1=CO[C@H](O[C@H]2O[C@@H](CO)[C@@H](O)[C@@H](O)[C@H]2O)[C@H]2C(CO)=CC[C@H]12
REMARK SMILES IDX 9 1 8 2 5 3 6 4 27 5 7 6 21 7 26 8 22 9 25 10 3 11 4 12 2 13
REMARK SMILES IDX 1 14 23 15 24 16 10 18 19 19 11 20 17 21 12 22 15 23 20 24
REMARK SMILES IDX 18 26 13 28 14 29 16 31
REMARK H PARENT 24 17 20 25 18 27 14 30 16 32
REMARK Flexibility Score: inf
ROOT
ATOM      1  O   UNL     1      -5.601  -0.176  -4.815  1.00  0.00    -0.310 OA
ENDROOT
BRANCH   1   2
ATOM      2  C   UNL     1      -6.781   0.378  -5.360  1.00  0.00     0.316 C 
ATOM      3  C   UNL     1      -8.925   2.310  -4.854  1.00  0.00     0.076 C 
ATOM      4  C   UNL     1      -8.885   1.137  -4.184  1.00  0.00     0.202 C 
ATOM      5  C   UNL     1      -7.940   2.459  -5.985  1.00  0.00     0.047 C 
ATOM      6  O   UNL     1      -7.872   0.181  -4.435  1.00  0.00    -0.471 OA
ATOM      7  C   UNL     1      -6.594   1.883  -5.558  1.00  0.00     0.094 C 
ATOM      8  C   UNL     1      -7.560   3.830  -6.544  1.00  0.00     0.037 C 
ATOM      9  C   UNL     1      -5.692   2.410  -6.627  1.00  0.00    -0.039 C 
ATOM     10  C   UNL     1      -6.207   3.538  -7.125  1.00  0.00    -0.024 C 
BRANCH   3  11
ATOM     11  C   UNL     1     -10.008   3.292  -4.607  1.00  0.00     0.337 C 
ATOM     12  O   UNL     1     -11.125   3.158  -5.181  1.00  0.00    -0.246 OA
BRANCH  11  13
ATOM     13  O   UNL     1      -9.793   4.373  -3.746  1.00  0.00    -0.466 OA
ATOM     14  C   UNL     1      -9.852   5.725  -4.184  1.00  0.00     0.282 C 
ENDBRANCH  11  13
ENDBRANCH   3  11
BRANCH   9  15
ATOM     15  C   UNL     1      -4.308   1.919  -6.940  1.00  0.00     0.187 C 
BRANCH  15  16
ATOM     16  O   UNL     1      -3.599   1.746  -5.747  1.00  0.00    -0.392 OA
ATOM     17  H   UNL     1      -3.729   0.800  -5.482  1.00  0.00     0.211 HD
ENDBRANCH  15  16
ENDBRANCH   9  15
ENDBRANCH   1   2
BRANCH   1  18
ATOM     18  C   UNL     1      -5.308  -1.445  -5.379  1.00  0.00     0.286 C 
ATOM     19  C   UNL     1      -5.388  -2.541  -4.280  1.00  0.00     0.202 C 
ATOM     20  O   UNL     1      -3.999  -1.400  -5.916  1.00  0.00    -0.341 OA
ATOM     21  C   UNL     1      -4.383  -3.688  -4.552  1.00  0.00     0.179 C 
ATOM     22  C   UNL     1      -3.738  -2.534  -6.738  1.00  0.00     0.178 C 
ATOM     23  C   UNL     1      -4.200  -3.874  -6.069  1.00  0.00     0.177 C 
BRANCH  19  24
ATOM     24  O   UNL     1      -5.154  -2.001  -3.000  1.00  0.00    -0.385 OA
ATOM     25  H   UNL     1      -5.400  -2.701  -2.340  1.00  0.00     0.211 HD
ENDBRANCH  19  24
BRANCH  21  26
ATOM     26  O   UNL     1      -3.134  -3.405  -3.969  1.00  0.00    -0.387 OA
ATOM     27  H   UNL     1      -2.700  -2.708  -4.529  1.00  0.00     0.211 HD
ENDBRANCH  21  26
BRANCH  22  28
ATOM     28  C   UNL     1      -2.243  -2.532  -7.090  1.00  0.00     0.191 C 
BRANCH  28  29
ATOM     29  O   UNL     1      -1.481  -2.742  -5.934  1.00  0.00    -0.394 OA
ATOM     30  H   UNL     1      -0.826  -3.454  -6.158  1.00  0.00     0.210 HD
ENDBRANCH  28  29
ENDBRANCH  22  28
BRANCH  23  31
ATOM     31  O   UNL     1      -3.307  -4.928  -6.329  1.00  0.00    -0.387 OA
ATOM     32  H   UNL     1      -2.494  -4.758  -5.785  1.00  0.00     0.211 HD
ENDBRANCH  23  31
ENDBRANCH   1  18
TORSDOF 11
ENDMDL
MODEL 7
REMARK VINA RESULT:    -6.144      2.562      4.712
REMARK INTER + INTRA:         -10.319
REMARK INTER:                  -8.645
REMARK INTRA:                  -1.674
REMARK UNBOUND:                -1.123
REMARK SMILES COC(=O)C1=CO[C@H](O[C@H]2O[C@@H](CO)[C@@H](O)[C@@H](O)[C@H]2O)[C@H]2C(CO)=CC[C@H]12
REMARK SMILES IDX 9 1 8 2 5 3 6 4 27 5 7 6 21 7 26 8 22 9 25 10 3 11 4 12 2 13
REMARK SMILES IDX 1 14 23 15 24 16 10 18 19 19 11 20 17 21 12 22 15 23 20 24
REMARK SMILES IDX 18 26 13 28 14 29 16 31
REMARK H PARENT 24 17 20 25 18 27 14 30 16 32
REMARK Flexibility Score: inf
ROOT
ATOM      1  O   UNL     1      -5.163  -0.614  -5.732  1.00  0.00    -0.310 OA
ENDROOT
BRANCH   1   2
ATOM      2  C   UNL     1      -5.864   0.271  -4.883  1.00  0.00     0.316 C 
ATOM      3  C   UNL     1      -7.312   2.818  -4.818  1.00  0.00     0.076 C 
ATOM      4  C   UNL     1      -5.966   2.795  -4.934  1.00  0.00     0.202 C 
ATOM      5  C   UNL     1      -7.973   1.494  -4.529  1.00  0.00     0.047 C 
ATOM      6  O   UNL     1      -5.249   1.575  -4.941  1.00  0.00    -0.471 OA
ATOM      7  C   UNL     1      -7.308   0.408  -5.368  1.00  0.00     0.094 C 
ATOM      8  C   UNL     1      -9.460   1.264  -4.792  1.00  0.00     0.037 C 
ATOM      9  C   UNL     1      -8.278  -0.719  -5.217  1.00  0.00    -0.039 C 
ATOM     10  C   UNL     1      -9.494  -0.227  -4.963  1.00  0.00    -0.024 C 
BRANCH   3  11
ATOM     11  C   UNL     1      -8.053   4.102  -4.781  1.00  0.00     0.337 C 
ATOM     12  O   UNL     1      -7.963   4.909  -5.748  1.00  0.00    -0.246 OA
BRANCH  11  13
ATOM     13  O   UNL     1      -8.843   4.426  -3.674  1.00  0.00    -0.466 OA
ATOM     14  C   UNL     1     -10.217   4.776  -3.789  1.00  0.00     0.282 C 
ENDBRANCH  11  13
ENDBRANCH   3  11
BRANCH   9  15
ATOM     15  C   UNL     1      -8.017  -2.162  -5.539  1.00  0.00     0.187 C 
BRANCH  15  16
ATOM     16  O   UNL     1      -7.369  -2.249  -6.775  1.00  0.00    -0.392 OA
ATOM     17  H   UNL     1      -8.053  -2.042  -7.462  1.00  0.00     0.211 HD
ENDBRANCH  15  16
ENDBRANCH   9  15
ENDBRANCH   1   2
BRANCH   1  18
ATOM     18  C   UNL     1      -4.352  -1.516  -4.995  1.00  0.00     0.286 C 
ATOM     19  C   UNL     1      -2.863  -1.339  -5.404  1.00  0.00     0.202 C 
ATOM     20  O   UNL     1      -4.776  -2.835  -5.289  1.00  0.00    -0.341 OA
ATOM     21  C   UNL     1      -2.089  -2.677  -5.312  1.00  0.00     0.179 C 
ATOM     22  C   UNL     1      -4.202  -3.775  -4.386  1.00  0.00     0.178 C 
ATOM     23  C   UNL     1      -2.667  -3.538  -4.174  1.00  0.00     0.177 C 
BRANCH  19  24
ATOM     24  O   UNL     1      -2.748  -0.815  -6.707  1.00  0.00    -0.385 OA
ATOM     25  H   UNL     1      -1.827  -0.454  -6.795  1.00  0.00     0.211 HD
ENDBRANCH  19  24
BRANCH  21  26
ATOM     26  O   UNL     1      -2.181  -3.390  -6.521  1.00  0.00    -0.387 OA
ATOM     27  H   UNL     1      -3.033  -3.902  -6.496  1.00  0.00     0.211 HD
ENDBRANCH  21  26
BRANCH  22  28
ATOM     28  C   UNL     1      -4.518  -5.186  -4.904  1.00  0.00     0.191 C 
BRANCH  28  29
ATOM     29  O   UNL     1      -4.134  -5.297  -6.246  1.00  0.00    -0.394 OA
ATOM     30  H   UNL     1      -3.336  -4.717  -6.356  1.00  0.00     0.210 HD
ENDBRANCH  28  29
ENDBRANCH  22  28
BRANCH  23  31
ATOM     31  O   UNL     1      -1.958  -4.747  -4.065  1.00  0.00    -0.387 OA
ATOM     32  H   UNL     1      -1.835  -5.093  -4.988  1.00  0.00     0.211 HD
ENDBRANCH  23  31
ENDBRANCH   1  18
TORSDOF 11
ENDMDL
MODEL 8
REMARK VINA RESULT:    -6.143     11.775     15.163
REMARK INTER + INTRA:         -10.318
REMARK INTER:                  -8.003
REMARK INTRA:                  -2.315
REMARK UNBOUND:                -1.123
REMARK SMILES COC(=O)C1=CO[C@H](O[C@H]2O[C@@H](CO)[C@@H](O)[C@@H](O)[C@H]2O)[C@H]2C(CO)=CC[C@H]12
REMARK SMILES IDX 9 1 8 2 5 3 6 4 27 5 7 6 21 7 26 8 22 9 25 10 3 11 4 12 2 13
REMARK SMILES IDX 1 14 23 15 24 16 10 18 19 19 11 20 17 21 12 22 15 23 20 24
REMARK SMILES IDX 18 26 13 28 14 29 16 31
REMARK H PARENT 24 17 20 25 18 27 14 30 16 32
REMARK Flexibility Score: inf
ROOT
ATOM      1  O   UNL     1       6.895   5.420  -6.234  1.00  0.00    -0.310 OA
ENDROOT
BRANCH   1   2
ATOM      2  C   UNL     1       6.462   4.544  -5.213  1.00  0.00     0.316 C 
ATOM      3  C   UNL     1       6.611   1.773  -4.271  1.00  0.00     0.076 C 
ATOM      4  C   UNL     1       5.868   2.092  -5.353  1.00  0.00     0.202 C 
ATOM      5  C   UNL     1       7.173   2.934  -3.489  1.00  0.00     0.047 C 
ATOM      6  O   UNL     1       5.764   3.429  -5.806  1.00  0.00    -0.471 OA
ATOM      7  C   UNL     1       7.677   3.996  -4.462  1.00  0.00     0.094 C 
ATOM      8  C   UNL     1       8.352   2.764  -2.533  1.00  0.00     0.037 C 
ATOM      9  C   UNL     1       8.477   4.873  -3.555  1.00  0.00    -0.039 C 
ATOM     10  C   UNL     1       8.909   4.157  -2.513  1.00  0.00    -0.024 C 
BRANCH   3  11
ATOM     11  C   UNL     1       6.690   0.375  -3.784  1.00  0.00     0.337 C 
ATOM     12  O   UNL     1       7.221  -0.515  -4.507  1.00  0.00    -0.246 OA
BRANCH  11  13
ATOM     13  O   UNL     1       6.169   0.036  -2.532  1.00  0.00    -0.466 OA
ATOM     14  C   UNL     1       6.983  -0.439  -1.466  1.00  0.00     0.282 C 
ENDBRANCH  11  13
ENDBRANCH   3  11
BRANCH   9  15
ATOM     15  C   UNL     1       8.950   6.266  -3.859  1.00  0.00     0.187 C 
BRANCH  15  16
ATOM     16  O   UNL     1       7.893   7.162  -3.672  1.00  0.00    -0.392 OA
ATOM     17  H   UNL     1       7.214   6.938  -4.359  1.00  0.00     0.211 HD
ENDBRANCH  15  16
ENDBRANCH   9  15
ENDBRANCH   1   2
BRANCH   1  18
ATOM     18  C   UNL     1       6.018   6.526  -6.383  1.00  0.00     0.286 C 
ATOM     19  C   UNL     1       6.774   7.710  -7.048  1.00  0.00     0.202 C 
ATOM     20  O   UNL     1       5.564   6.908  -5.098  1.00  0.00    -0.341 OA
ATOM     21  C   UNL     1       6.240   9.074  -6.545  1.00  0.00     0.179 C 
ATOM     22  C   UNL     1       4.476   7.822  -5.185  1.00  0.00     0.178 C 
ATOM     23  C   UNL     1       4.737   8.962  -6.229  1.00  0.00     0.177 C 
BRANCH  19  24
ATOM     24  O   UNL     1       8.161   7.630  -6.812  1.00  0.00    -0.385 OA
ATOM     25  H   UNL     1       8.547   7.071  -7.535  1.00  0.00     0.211 HD
ENDBRANCH  19  24
BRANCH  21  26
ATOM     26  O   UNL     1       6.925   9.481  -5.386  1.00  0.00    -0.387 OA
ATOM     27  H   UNL     1       7.037  10.467  -5.442  1.00  0.00     0.211 HD
ENDBRANCH  21  26
BRANCH  22  28
ATOM     28  C   UNL     1       4.195   8.363  -3.775  1.00  0.00     0.191 C 
BRANCH  28  29
ATOM     29  O   UNL     1       5.368   8.895  -3.226  1.00  0.00    -0.394 OA
ATOM     30  H   UNL     1       5.093   9.395  -2.413  1.00  0.00     0.210 HD
ENDBRANCH  28  29
ENDBRANCH  22  28
BRANCH  23  31
ATOM     31  O   UNL     1       4.235  10.201  -5.793  1.00  0.00    -0.387 OA
ATOM     32  H   UNL     1       4.851  10.530  -5.088  1.00  0.00     0.211 HD
ENDBRANCH  23  31
ENDBRANCH   1  18
TORSDOF 11
ENDMDL
MODEL 9
REMARK VINA RESULT:    -5.631      3.122      7.799
REMARK INTER + INTRA:          -9.552
REMARK INTER:                  -7.396
REMARK INTRA:                  -2.156
REMARK UNBOUND:                -1.123
REMARK SMILES COC(=O)C1=CO[C@H](O[C@H]2O[C@@H](CO)[C@@H](O)[C@@H](O)[C@H]2O)[C@H]2C(CO)=CC[C@H]12
REMARK SMILES IDX 9 1 8 2 5 3 6 4 27 5 7 6 21 7 26 8 22 9 25 10 3 11 4 12 2 13
REMARK SMILES IDX 1 14 23 15 24 16 10 18 19 19 11 20 17 21 12 22 15 23 20 24
REMARK SMILES IDX 18 26 13 28 14 29 16 31
REMARK H PARENT 24 17 20 25 18 27 14 30 16 32
REMARK Flexibility Score: inf
ROOT
ATOM      1  O   UNL     1      -4.861  -1.271  -7.010  1.00  0.00    -0.310 OA
ENDROOT
BRANCH   1   2
ATOM      2  C   UNL     1      -5.302  -2.395  -6.277  1.00  0.00     0.316 C 
ATOM      3  C   UNL     1      -5.330  -5.326  -6.255  1.00  0.00     0.076 C 
ATOM      4  C   UNL     1      -6.109  -4.637  -7.117  1.00  0.00     0.202 C 
ATOM      5  C   UNL     1      -4.623  -4.506  -5.204  1.00  0.00     0.047 C 
ATOM      6  O   UNL     1      -6.128  -3.222  -7.123  1.00  0.00    -0.471 OA
ATOM      7  C   UNL     1      -4.093  -3.226  -5.840  1.00  0.00     0.094 C 
ATOM      8  C   UNL     1      -3.405  -5.041  -4.453  1.00  0.00     0.037 C 
ATOM      9  C   UNL     1      -3.166  -2.729  -4.778  1.00  0.00    -0.039 C 
ATOM     10  C   UNL     1      -2.731  -3.762  -4.051  1.00  0.00    -0.024 C 
BRANCH   3  11
ATOM     11  C   UNL     1      -5.340  -6.808  -6.234  1.00  0.00     0.337 C 
ATOM     12  O   UNL     1      -6.329  -7.426  -5.751  1.00  0.00    -0.246 OA
BRANCH  11  13
ATOM     13  O   UNL     1      -4.251  -7.525  -6.740  1.00  0.00    -0.466 OA
ATOM     14  C   UNL     1      -3.531  -8.475  -5.964  1.00  0.00     0.282 C 
ENDBRANCH  11  13
ENDBRANCH   3  11
BRANCH   9  15
ATOM     15  C   UNL     1      -2.597  -1.343  -4.676  1.00  0.00     0.187 C 
BRANCH  15  16
ATOM     16  O   UNL     1      -3.588  -0.471  -4.216  1.00  0.00    -0.392 OA
ATOM     17  H   UNL     1      -4.390  -1.028  -4.045  1.00  0.00     0.211 HD
ENDBRANCH  15  16
ENDBRANCH   9  15
ENDBRANCH   1   2
BRANCH   1  18
ATOM     18  C   UNL     1      -5.726  -0.158  -6.834  1.00  0.00     0.286 C 
ATOM     19  C   UNL     1      -4.953   1.159  -7.125  1.00  0.00     0.202 C 
ATOM     20  O   UNL     1      -6.184  -0.160  -5.495  1.00  0.00    -0.341 OA
ATOM     21  C   UNL     1      -5.477   2.325  -6.250  1.00  0.00     0.179 C 
ATOM     22  C   UNL     1      -7.262   0.753  -5.316  1.00  0.00     0.178 C 
ATOM     23  C   UNL     1      -6.982   2.144  -5.984  1.00  0.00     0.177 C 
BRANCH  19  24
ATOM     24  O   UNL     1      -3.569   0.997  -6.919  1.00  0.00    -0.385 OA
ATOM     25  H   UNL     1      -3.303   1.645  -6.215  1.00  0.00     0.211 HD
ENDBRANCH  19  24
BRANCH  21  26
ATOM     26  O   UNL     1      -4.795   2.371  -5.021  1.00  0.00    -0.387 OA
ATOM     27  H   UNL     1      -4.727   1.437  -4.688  1.00  0.00     0.211 HD
ENDBRANCH  21  26
BRANCH  22  28
ATOM     28  C   UNL     1      -7.546   0.866  -3.811  1.00  0.00     0.191 C 
BRANCH  28  29
ATOM     29  O   UNL     1      -6.366   0.654  -3.087  1.00  0.00    -0.394 OA
ATOM     30  H   UNL     1      -6.442  -0.254  -2.691  1.00  0.00     0.210 HD
ENDBRANCH  28  29
ENDBRANCH  22  28
BRANCH  23  31
ATOM     31  O   UNL     1      -7.475   3.208  -5.210  1.00  0.00    -0.387 OA
ATOM     32  H   UNL     1      -7.876   2.810  -4.394  1.00  0.00     0.211 HD
ENDBRANCH  23  31
ENDBRANCH   1  18
TORSDOF 11
ENDMDL
