MODEL 1
REMARK VINA RESULT:    -4.895      0.000      0.000
REMARK INTER + INTRA:          -5.039
REMARK INTER:                  -5.039
REMARK INTRA:                   0.000
REMARK UNBOUND:                 0.000
REMARK SMILES Cc1cccc(O)c1C
REMARK SMILES IDX 1 1 2 2 8 3 6 4 5 5 4 6 3 7 9 8 7 9
REMARK H PARENT 7 10
REMARK Flexibility Score: inf
ROOT
ATOM      1  C   UNL     1      14.881  44.776   3.651  1.00  0.00     0.045 C 
ATOM      2  C   UNL     1      15.668  44.589   4.922  1.00  0.00    -0.045 A 
ATOM      3  C   UNL     1      15.286  45.225   6.130  1.00  0.00    -0.006 A 
ATOM      4  C   UNL     1      16.045  44.999   7.301  1.00  0.00     0.118 A 
ATOM      5  C   UNL     1      17.185  44.186   7.251  1.00  0.00     0.046 A 
ATOM      6  C   UNL     1      17.573  43.589   6.054  1.00  0.00     0.004 A 
ATOM      7  C   UNL     1      16.822  43.787   4.897  1.00  0.00     0.004 A 
ATOM      8  C   UNL     1      14.050  46.091   6.188  1.00  0.00     0.048 C 
ENDROOT
BRANCH   4   9
ATOM      9  O   UNL     1      15.666  45.579   8.512  1.00  0.00    -0.508 OA
ATOM     10  H   UNL     1      16.197  45.431   9.362  1.00  0.00     0.293 HD
ENDBRANCH   4   9
TORSDOF 1
ENDMDL
MODEL 2
REMARK VINA RESULT:    -4.844      1.896      2.843
REMARK INTER + INTRA:          -4.986
REMARK INTER:                  -4.986
REMARK INTRA:                   0.000
REMARK UNBOUND:                 0.000
REMARK SMILES Cc1cccc(O)c1C
REMARK SMILES IDX 1 1 2 2 8 3 6 4 5 5 4 6 3 7 9 8 7 9
REMARK H PARENT 7 10
REMARK Flexibility Score: inf
ROOT
ATOM      1  C   UNL     1      14.069  46.175   5.845  1.00  0.00     0.045 C 
ATOM      2  C   UNL     1      15.283  45.283   5.898  1.00  0.00    -0.045 A 
ATOM      3  C   UNL     1      15.598  44.397   4.837  1.00  0.00    -0.006 A 
ATOM      4  C   UNL     1      16.760  43.597   4.928  1.00  0.00     0.118 A 
ATOM      5  C   UNL     1      17.563  43.654   6.073  1.00  0.00     0.046 A 
ATOM      6  C   UNL     1      17.231  44.503   7.126  1.00  0.00     0.004 A 
ATOM      7  C   UNL     1      16.099  45.313   7.042  1.00  0.00     0.004 A 
ATOM      8  C   UNL     1      14.740  44.344   3.597  1.00  0.00     0.048 C 
ENDROOT
BRANCH   4   9
ATOM      9  O   UNL     1      17.116  42.748   3.879  1.00  0.00    -0.508 OA
ATOM     10  H   UNL     1      16.424  42.367   3.244  1.00  0.00     0.293 HD
ENDBRANCH   4   9
TORSDOF 1
ENDMDL
MODEL 3
REMARK VINA RESULT:    -4.777      0.816      2.601
REMARK INTER + INTRA:          -4.916
REMARK INTER:                  -4.916
REMARK INTRA:                   0.000
REMARK UNBOUND:                 0.000
REMARK SMILES Cc1cccc(O)c1C
REMARK SMILES IDX 1 1 2 2 8 3 6 4 5 5 4 6 3 7 9 8 7 9
REMARK H PARENT 7 10
REMARK Flexibility Score: inf
ROOT
ATOM      1  C   UNL     1      17.066  43.391   4.063  1.00  0.00     0.045 C 
ATOM      2  C   UNL     1      16.156  44.289   4.861  1.00  0.00    -0.045 A 
ATOM      3  C   UNL     1      16.302  44.434   6.264  1.00  0.00    -0.006 A 
ATOM      4  C   UNL     1      15.436  45.305   6.962  1.00  0.00     0.118 A 
ATOM      5  C   UNL     1      14.421  45.984   6.276  1.00  0.00     0.046 A 
ATOM      6  C   UNL     1      14.263  45.814   4.902  1.00  0.00     0.004 A 
ATOM      7  C   UNL     1      15.123  44.974   4.198  1.00  0.00     0.004 A 
ATOM      8  C   UNL     1      17.403  43.711   7.002  1.00  0.00     0.048 C 
ENDROOT
BRANCH   4   9
ATOM      9  O   UNL     1      15.586  45.498   8.336  1.00  0.00    -0.508 OA
ATOM     10  H   UNL     1      15.657  44.717   8.978  1.00  0.00     0.293 HD
ENDBRANCH   4   9
TORSDOF 1
ENDMDL
MODEL 4
REMARK VINA RESULT:    -4.771      1.387      2.280
REMARK INTER + INTRA:          -4.911
REMARK INTER:                  -4.911
REMARK INTRA:                   0.000
REMARK UNBOUND:                 0.000
REMARK SMILES Cc1cccc(O)c1C
REMARK SMILES IDX 1 1 2 2 8 3 6 4 5 5 4 6 3 7 9 8 7 9
REMARK H PARENT 7 10
REMARK Flexibility Score: inf
ROOT
ATOM      1  C   UNL     1      12.291  46.442   3.793  1.00  0.00     0.045 C 
ATOM      2  C   UNL     1      13.530  45.888   4.448  1.00  0.00    -0.045 A 
ATOM      3  C   UNL     1      13.773  46.057   5.834  1.00  0.00    -0.006 A 
ATOM      4  C   UNL     1      14.940  45.499   6.404  1.00  0.00     0.118 A 
ATOM      5  C   UNL     1      15.861  44.822   5.594  1.00  0.00     0.046 A 
ATOM      6  C   UNL     1      15.631  44.686   4.227  1.00  0.00     0.004 A 
ATOM      7  C   UNL     1      14.475  45.214   3.656  1.00  0.00     0.004 A 
ATOM      8  C   UNL     1      12.775  46.776   6.710  1.00  0.00     0.048 C 
ENDROOT
BRANCH   4   9
ATOM      9  O   UNL     1      15.183  45.615   7.773  1.00  0.00    -0.508 OA
ATOM     10  H   UNL     1      15.174  44.807   8.385  1.00  0.00     0.293 HD
ENDBRANCH   4   9
TORSDOF 1
ENDMDL
MODEL 5
REMARK VINA RESULT:    -4.757      1.672      3.461
REMARK INTER + INTRA:          -4.896
REMARK INTER:                  -4.896
REMARK INTRA:                   0.000
REMARK UNBOUND:                 0.000
REMARK SMILES Cc1cccc(O)c1C
REMARK SMILES IDX 1 1 2 2 8 3 6 4 5 5 4 6 3 7 9 8 7 9
REMARK H PARENT 7 10
REMARK Flexibility Score: inf
ROOT
ATOM      1  C   UNL     1      13.550  43.009   3.270  1.00  0.00     0.045 C 
ATOM      2  C   UNL     1      13.616  44.281   4.076  1.00  0.00    -0.045 A 
ATOM      3  C   UNL     1      14.632  44.494   5.041  1.00  0.00    -0.006 A 
ATOM      4  C   UNL     1      14.662  45.714   5.755  1.00  0.00     0.118 A 
ATOM      5  C   UNL     1      13.672  46.680   5.534  1.00  0.00     0.046 A 
ATOM      6  C   UNL     1      12.658  46.451   4.607  1.00  0.00     0.004 A 
ATOM      7  C   UNL     1      12.628  45.262   3.881  1.00  0.00     0.004 A 
ATOM      8  C   UNL     1      15.706  43.458   5.271  1.00  0.00     0.048 C 
ENDROOT
BRANCH   4   9
ATOM      9  O   UNL     1      15.676  45.966   6.680  1.00  0.00    -0.508 OA
ATOM     10  H   UNL     1      15.681  45.531   7.595  1.00  0.00     0.293 HD
ENDBRANCH   4   9
TORSDOF 1
ENDMDL
MODEL 6
REMARK VINA RESULT:    -4.628      1.542      2.703
REMARK INTER + INTRA:          -4.763
REMARK INTER:                  -4.763
REMARK INTRA:                   0.000
REMARK UNBOUND:                 0.000
REMARK SMILES Cc1cccc(O)c1C
REMARK SMILES IDX 1 1 2 2 8 3 6 4 5 5 4 6 3 7 9 8 7 9
REMARK H PARENT 7 10
REMARK Flexibility Score: inf
ROOT
ATOM      1  C   UNL     1      13.923  45.903   6.461  1.00  0.00     0.045 C 
ATOM      2  C   UNL     1      14.943  45.028   5.779  1.00  0.00    -0.045 A 
ATOM      3  C   UNL     1      16.175  44.704   6.402  1.00  0.00    -0.006 A 
ATOM      4  C   UNL     1      17.089  43.862   5.728  1.00  0.00     0.118 A 
ATOM      5  C   UNL     1      16.792  43.390   4.443  1.00  0.00     0.046 A 
ATOM      6  C   UNL     1      15.594  43.738   3.823  1.00  0.00     0.004 A 
ATOM      7  C   UNL     1      14.675  44.551   4.485  1.00  0.00     0.004 A 
ATOM      8  C   UNL     1      16.490  45.201   7.792  1.00  0.00     0.048 C 
ENDROOT
BRANCH   4   9
ATOM      9  O   UNL     1      18.289  43.493   6.337  1.00  0.00    -0.508 OA
ATOM     10  H   UNL     1      18.336  42.727   6.999  1.00  0.00     0.293 HD
ENDBRANCH   4   9
TORSDOF 1
ENDMDL
MODEL 7
REMARK VINA RESULT:    -4.612      2.173      2.805
REMARK INTER + INTRA:          -4.747
REMARK INTER:                  -4.747
REMARK INTRA:                   0.000
REMARK UNBOUND:                 0.000
REMARK SMILES Cc1cccc(O)c1C
REMARK SMILES IDX 1 1 2 2 8 3 6 4 5 5 4 6 3 7 9 8 7 9
REMARK H PARENT 7 10
REMARK Flexibility Score: inf
ROOT
ATOM      1  C   UNL     1      13.761  42.490   6.381  1.00  0.00     0.045 C 
ATOM      2  C   UNL     1      15.213  42.891   6.405  1.00  0.00    -0.045 A 
ATOM      3  C   UNL     1      15.971  42.859   7.602  1.00  0.00    -0.006 A 
ATOM      4  C   UNL     1      17.336  43.225   7.566  1.00  0.00     0.118 A 
ATOM      5  C   UNL     1      17.916  43.653   6.365  1.00  0.00     0.046 A 
ATOM      6  C   UNL     1      17.158  43.713   5.198  1.00  0.00     0.004 A 
ATOM      7  C   UNL     1      15.816  43.335   5.215  1.00  0.00     0.004 A 
ATOM      8  C   UNL     1      15.350  42.386   8.895  1.00  0.00     0.048 C 
ENDROOT
BRANCH   4   9
ATOM      9  O   UNL     1      18.115  43.161   8.722  1.00  0.00    -0.508 OA
ATOM     10  H   UNL     1      18.573  42.303   9.008  1.00  0.00     0.293 HD
ENDBRANCH   4   9
TORSDOF 1
ENDMDL
MODEL 8
REMARK VINA RESULT:    -4.601      2.096      2.974
REMARK INTER + INTRA:          -4.736
REMARK INTER:                  -4.736
REMARK INTRA:                   0.000
REMARK UNBOUND:                 0.000
REMARK SMILES Cc1cccc(O)c1C
REMARK SMILES IDX 1 1 2 2 8 3 6 4 5 5 4 6 3 7 9 8 7 9
REMARK H PARENT 7 10
REMARK Flexibility Score: inf
ROOT
ATOM      1  C   UNL     1      12.395  42.146   5.112  1.00  0.00     0.045 C 
ATOM      2  C   UNL     1      13.426  43.209   4.831  1.00  0.00    -0.045 A 
ATOM      3  C   UNL     1      13.845  44.118   5.835  1.00  0.00    -0.006 A 
ATOM      4  C   UNL     1      14.830  45.083   5.526  1.00  0.00     0.118 A 
ATOM      5  C   UNL     1      15.354  45.160   4.229  1.00  0.00     0.046 A 
ATOM      6  C   UNL     1      14.915  44.284   3.238  1.00  0.00     0.004 A 
ATOM      7  C   UNL     1      13.959  43.315   3.535  1.00  0.00     0.004 A 
ATOM      8  C   UNL     1      13.291  44.028   7.236  1.00  0.00     0.048 C 
ENDROOT
BRANCH   4   9
ATOM      9  O   UNL     1      15.291  45.962   6.507  1.00  0.00    -0.508 OA
ATOM     10  H   UNL     1      15.507  46.929   6.296  1.00  0.00     0.293 HD
ENDBRANCH   4   9
TORSDOF 1
ENDMDL
MODEL 9
REMARK VINA RESULT:    -4.459      1.384      2.620
REMARK INTER + INTRA:          -4.589
REMARK INTER:                  -4.589
REMARK INTRA:                   0.000
REMARK UNBOUND:                 0.000
REMARK SMILES Cc1cccc(O)c1C
REMARK SMILES IDX 1 1 2 2 8 3 6 4 5 5 4 6 3 7 9 8 7 9
REMARK H PARENT 7 10
REMARK Flexibility Score: inf
ROOT
ATOM      1  C   UNL     1      14.621  44.787   3.857  1.00  0.00     0.045 C 
ATOM      2  C   UNL     1      15.247  44.765   5.228  1.00  0.00    -0.045 A 
ATOM      3  C   UNL     1      16.474  44.096   5.472  1.00  0.00    -0.006 A 
ATOM      4  C   UNL     1      17.029  44.124   6.771  1.00  0.00     0.118 A 
ATOM      5  C   UNL     1      16.350  44.772   7.811  1.00  0.00     0.046 A 
ATOM      6  C   UNL     1      15.130  45.400   7.572  1.00  0.00     0.004 A 
ATOM      7  C   UNL     1      14.581  45.398   6.291  1.00  0.00     0.004 A 
ATOM      8  C   UNL     1      17.212  43.408   4.349  1.00  0.00     0.048 C 
ENDROOT
BRANCH   4   9
ATOM      9  O   UNL     1      18.256  43.511   7.028  1.00  0.00    -0.508 OA
ATOM     10  H   UNL     1      18.511  42.630   6.596  1.00  0.00     0.293 HD
ENDBRANCH   4   9
TORSDOF 1
ENDMDL
