MODEL 1
REMARK VINA RESULT:    -5.156      0.000      0.000
REMARK INTER + INTRA:          -5.971
REMARK INTER:                  -5.758
REMARK INTRA:                  -0.213
REMARK UNBOUND:                -0.213
REMARK SMILES CC(C)c1ccc(C(=O)[O-])cc1
REMARK SMILES IDX 7 1 6 2 11 3 5 4 12 5 4 6 8 7 9 8 10 9 2 10 1 11 3 12
REMARK H PARENT
REMARK Flexibility Score: inf
ROOT
ATOM      1  C   UNL     1      12.516  -5.758  12.030  1.00  0.00    -0.003 A 
ATOM      2  C   UNL     1      13.400  -5.054  12.863  1.00  0.00     0.010 A 
ATOM      3  C   UNL     1      11.214  -6.024  12.490  1.00  0.00     0.010 A 
ATOM      4  C   UNL     1      12.994  -4.623  14.129  1.00  0.00     0.004 A 
ATOM      5  C   UNL     1      10.807  -5.594  13.756  1.00  0.00     0.004 A 
ATOM      6  C   UNL     1      11.694  -4.888  14.590  1.00  0.00    -0.045 A 
ENDROOT
BRANCH   1   7
ATOM      7  C   UNL     1      12.950  -6.211  10.691  1.00  0.00     0.071 C 
ATOM      8  O   UNL     1      12.994  -5.405   9.724  1.00  0.00    -0.545 OA
ATOM      9  O   UNL     1      13.317  -7.536  10.479  1.00  0.00    -0.545 OA
ENDBRANCH   1   7
BRANCH   6  10
ATOM     10  C   UNL     1      11.265  -4.416  15.968  1.00  0.00     0.013 C 
ATOM     11  C   UNL     1      10.082  -5.238  16.490  1.00  0.00     0.012 C 
ATOM     12  C   UNL     1      12.438  -4.447  16.954  1.00  0.00     0.012 C 
ENDBRANCH   6  10
TORSDOF 2
ENDMDL
MODEL 2
REMARK VINA RESULT:    -5.129      0.052      1.399
REMARK INTER + INTRA:          -5.942
REMARK INTER:                  -5.729
REMARK INTRA:                  -0.213
REMARK UNBOUND:                -0.213
REMARK SMILES CC(C)c1ccc(C(=O)[O-])cc1
REMARK SMILES IDX 7 1 6 2 11 3 5 4 12 5 4 6 8 7 9 8 10 9 2 10 1 11 3 12
REMARK H PARENT
REMARK Flexibility Score: inf
ROOT
ATOM      1  C   UNL     1      12.509  -5.766  12.041  1.00  0.00    -0.003 A 
ATOM      2  C   UNL     1      11.204  -6.031  12.488  1.00  0.00     0.010 A 
ATOM      3  C   UNL     1      13.391  -5.074  12.888  1.00  0.00     0.010 A 
ATOM      4  C   UNL     1      10.789  -5.612  13.755  1.00  0.00     0.004 A 
ATOM      5  C   UNL     1      12.977  -4.656  14.155  1.00  0.00     0.004 A 
ATOM      6  C   UNL     1      11.669  -4.921  14.603  1.00  0.00    -0.045 A 
ENDROOT
BRANCH   1   7
ATOM      7  C   UNL     1      12.944  -6.211  10.699  1.00  0.00     0.071 C 
ATOM      8  O   UNL     1      12.985  -5.400   9.736  1.00  0.00    -0.545 OA
ATOM      9  O   UNL     1      13.315  -7.534  10.481  1.00  0.00    -0.545 OA
ENDBRANCH   1   7
BRANCH   6  10
ATOM     10  C   UNL     1      11.206  -4.471  15.977  1.00  0.00     0.013 C 
ATOM     11  C   UNL     1      10.067  -5.356  16.493  1.00  0.00     0.012 C 
ATOM     12  C   UNL     1      12.373  -4.438  16.970  1.00  0.00     0.012 C 
ENDBRANCH   6  10
TORSDOF 2
ENDMDL
MODEL 3
REMARK VINA RESULT:    -5.084      3.380      4.979
REMARK INTER + INTRA:          -5.891
REMARK INTER:                  -5.677
REMARK INTRA:                  -0.213
REMARK UNBOUND:                -0.213
REMARK SMILES CC(C)c1ccc(C(=O)[O-])cc1
REMARK SMILES IDX 7 1 6 2 11 3 5 4 12 5 4 6 8 7 9 8 10 9 2 10 1 11 3 12
REMARK H PARENT
REMARK Flexibility Score: inf
ROOT
ATOM      1  C   UNL     1      10.985  -5.280  15.420  1.00  0.00    -0.003 A 
ATOM      2  C   UNL     1      12.305  -4.804  15.377  1.00  0.00     0.010 A 
ATOM      3  C   UNL     1      10.383  -5.727  14.232  1.00  0.00     0.010 A 
ATOM      4  C   UNL     1      13.011  -4.774  14.171  1.00  0.00     0.004 A 
ATOM      5  C   UNL     1      11.088  -5.698  13.025  1.00  0.00     0.004 A 
ATOM      6  C   UNL     1      12.411  -5.220  12.982  1.00  0.00    -0.045 A 
ENDROOT
BRANCH   1   7
ATOM      7  C   UNL     1      10.243  -5.310  16.700  1.00  0.00     0.071 C 
ATOM      8  O   UNL     1      10.188  -4.288  17.434  1.00  0.00    -0.545 OA
ATOM      9  O   UNL     1       9.593  -6.470  17.110  1.00  0.00    -0.545 OA
ENDBRANCH   1   7
BRANCH   6  10
ATOM     10  C   UNL     1      13.188  -5.182  11.678  1.00  0.00     0.013 C 
ATOM     11  C   UNL     1      12.306  -5.603  10.497  1.00  0.00     0.012 C 
ATOM     12  C   UNL     1      13.805  -3.799  11.442  1.00  0.00     0.012 C 
ENDBRANCH   6  10
TORSDOF 2
ENDMDL
MODEL 4
REMARK VINA RESULT:    -5.062      3.373      5.150
REMARK INTER + INTRA:          -5.866
REMARK INTER:                  -5.654
REMARK INTRA:                  -0.213
REMARK UNBOUND:                -0.213
REMARK SMILES CC(C)c1ccc(C(=O)[O-])cc1
REMARK SMILES IDX 7 1 6 2 11 3 5 4 12 5 4 6 8 7 9 8 10 9 2 10 1 11 3 12
REMARK H PARENT
REMARK Flexibility Score: inf
ROOT
ATOM      1  C   UNL     1      10.949  -5.325  15.403  1.00  0.00    -0.003 A 
ATOM      2  C   UNL     1      10.361  -5.722  14.191  1.00  0.00     0.010 A 
ATOM      3  C   UNL     1      12.281  -4.875  15.398  1.00  0.00     0.010 A 
ATOM      4  C   UNL     1      11.087  -5.671  12.998  1.00  0.00     0.004 A 
ATOM      5  C   UNL     1      13.008  -4.824  14.206  1.00  0.00     0.004 A 
ATOM      6  C   UNL     1      12.418  -5.222  12.992  1.00  0.00    -0.045 A 
ENDROOT
BRANCH   1   7
ATOM      7  C   UNL     1      10.176  -5.380  16.663  1.00  0.00     0.071 C 
ATOM      8  O   UNL     1      10.082  -4.365  17.403  1.00  0.00    -0.545 OA
ATOM      9  O   UNL     1       9.541  -6.556  17.049  1.00  0.00    -0.545 OA
ENDBRANCH   1   7
BRANCH   6  10
ATOM     10  C   UNL     1      13.197  -5.171  11.689  1.00  0.00     0.013 C 
ATOM     11  C   UNL     1      12.320  -5.588  10.504  1.00  0.00     0.012 C 
ATOM     12  C   UNL     1      13.808  -3.784  11.464  1.00  0.00     0.012 C 
ENDBRANCH   6  10
TORSDOF 2
ENDMDL
MODEL 5
REMARK VINA RESULT:    -5.031      1.065      1.317
REMARK INTER + INTRA:          -5.832
REMARK INTER:                  -5.614
REMARK INTRA:                  -0.217
REMARK UNBOUND:                -0.213
REMARK SMILES CC(C)c1ccc(C(=O)[O-])cc1
REMARK SMILES IDX 7 1 6 2 11 3 5 4 12 5 4 6 8 7 9 8 10 9 2 10 1 11 3 12
REMARK H PARENT
REMARK Flexibility Score: inf
ROOT
ATOM      1  C   UNL     1      12.276  -5.127  12.664  1.00  0.00    -0.003 A 
ATOM      2  C   UNL     1      12.832  -4.433  13.751  1.00  0.00     0.010 A 
ATOM      3  C   UNL     1      11.044  -5.782  12.833  1.00  0.00     0.010 A 
ATOM      4  C   UNL     1      12.172  -4.395  14.982  1.00  0.00     0.004 A 
ATOM      5  C   UNL     1      10.383  -5.744  14.063  1.00  0.00     0.004 A 
ATOM      6  C   UNL     1      10.941  -5.049  15.153  1.00  0.00    -0.045 A 
ENDROOT
BRANCH   1   7
ATOM      7  C   UNL     1      12.978  -5.164  11.363  1.00  0.00     0.071 C 
ATOM      8  O   UNL     1      14.119  -4.644  11.234  1.00  0.00    -0.545 OA
ATOM      9  O   UNL     1      12.389  -5.774  10.261  1.00  0.00    -0.545 OA
ENDBRANCH   1   7
BRANCH   6  10
ATOM     10  C   UNL     1      10.234  -5.000  16.496  1.00  0.00     0.013 C 
ATOM     11  C   UNL     1      10.027  -6.409  17.063  1.00  0.00     0.012 C 
ATOM     12  C   UNL     1      10.990  -4.110  17.488  1.00  0.00     0.012 C 
ENDBRANCH   6  10
TORSDOF 2
ENDMDL
MODEL 6
REMARK VINA RESULT:    -4.912      4.486      7.697
REMARK INTER + INTRA:          -5.699
REMARK INTER:                  -5.480
REMARK INTRA:                  -0.219
REMARK UNBOUND:                -0.213
REMARK SMILES CC(C)c1ccc(C(=O)[O-])cc1
REMARK SMILES IDX 7 1 6 2 11 3 5 4 12 5 4 6 8 7 9 8 10 9 2 10 1 11 3 12
REMARK H PARENT
REMARK Flexibility Score: inf
ROOT
ATOM      1  C   UNL     1      13.657  -8.022   9.622  1.00  0.00    -0.003 A 
ATOM      2  C   UNL     1      13.662  -9.234  10.331  1.00  0.00     0.010 A 
ATOM      3  C   UNL     1      14.034  -8.024   8.268  1.00  0.00     0.010 A 
ATOM      4  C   UNL     1      14.038 -10.424   9.702  1.00  0.00     0.004 A 
ATOM      5  C   UNL     1      14.410  -9.214   7.638  1.00  0.00     0.004 A 
ATOM      6  C   UNL     1      14.416 -10.428   8.350  1.00  0.00    -0.045 A 
ENDROOT
BRANCH   1   7
ATOM      7  C   UNL     1      13.258  -6.765  10.291  1.00  0.00     0.071 C 
ATOM      8  O   UNL     1      13.275  -5.671   9.666  1.00  0.00    -0.545 OA
ATOM      9  O   UNL     1      12.858  -6.772  11.623  1.00  0.00    -0.545 OA
ENDBRANCH   1   7
BRANCH   6  10
ATOM     10  C   UNL     1      14.822 -11.728   7.678  1.00  0.00     0.013 C 
ATOM     11  C   UNL     1      14.618 -12.922   8.616  1.00  0.00     0.012 C 
ATOM     12  C   UNL     1      14.070 -11.927   6.358  1.00  0.00     0.012 C 
ENDBRANCH   6  10
TORSDOF 2
ENDMDL
MODEL 7
REMARK VINA RESULT:    -4.783      7.023      9.377
REMARK INTER + INTRA:          -5.555
REMARK INTER:                  -5.345
REMARK INTRA:                  -0.210
REMARK UNBOUND:                -0.213
REMARK SMILES CC(C)c1ccc(C(=O)[O-])cc1
REMARK SMILES IDX 7 1 6 2 11 3 5 4 12 5 4 6 8 7 9 8 10 9 2 10 1 11 3 12
REMARK H PARENT
REMARK Flexibility Score: inf
ROOT
ATOM      1  C   UNL     1      14.706 -13.242   7.027  1.00  0.00    -0.003 A 
ATOM      2  C   UNL     1      14.485 -12.111   6.224  1.00  0.00     0.010 A 
ATOM      3  C   UNL     1      14.869 -13.072   8.413  1.00  0.00     0.010 A 
ATOM      4  C   UNL     1      14.429 -10.836   6.793  1.00  0.00     0.004 A 
ATOM      5  C   UNL     1      14.814 -11.797   8.982  1.00  0.00     0.004 A 
ATOM      6  C   UNL     1      14.593 -10.664   8.177  1.00  0.00    -0.045 A 
ENDROOT
BRANCH   1   7
ATOM      7  C   UNL     1      14.763 -14.590   6.421  1.00  0.00     0.071 C 
ATOM      8  O   UNL     1      14.910 -15.613   7.142  1.00  0.00    -0.545 OA
ATOM      9  O   UNL     1      14.656 -14.748   5.043  1.00  0.00    -0.545 OA
ENDBRANCH   1   7
BRANCH   6  10
ATOM     10  C   UNL     1      14.531  -9.273   8.783  1.00  0.00     0.013 C 
ATOM     11  C   UNL     1      13.752  -9.279  10.103  1.00  0.00     0.012 C 
ATOM     12  C   UNL     1      15.935  -8.689   8.973  1.00  0.00     0.012 C 
ENDBRANCH   6  10
TORSDOF 2
ENDMDL
MODEL 8
REMARK VINA RESULT:    -4.745      8.421     10.453
REMARK INTER + INTRA:          -5.513
REMARK INTER:                  -5.296
REMARK INTRA:                  -0.217
REMARK UNBOUND:                -0.213
REMARK SMILES CC(C)c1ccc(C(=O)[O-])cc1
REMARK SMILES IDX 7 1 6 2 11 3 5 4 12 5 4 6 8 7 9 8 10 9 2 10 1 11 3 12
REMARK H PARENT
REMARK Flexibility Score: inf
ROOT
ATOM      1  C   UNL     1       5.725 -10.378  20.061  1.00  0.00    -0.003 A 
ATOM      2  C   UNL     1       6.283 -11.477  19.390  1.00  0.00     0.010 A 
ATOM      3  C   UNL     1       6.131  -9.082  19.700  1.00  0.00     0.010 A 
ATOM      4  C   UNL     1       7.228 -11.287  18.377  1.00  0.00     0.004 A 
ATOM      5  C   UNL     1       7.075  -8.890  18.687  1.00  0.00     0.004 A 
ATOM      6  C   UNL     1       7.635  -9.993  18.014  1.00  0.00    -0.045 A 
ENDROOT
BRANCH   1   7
ATOM      7  C   UNL     1       4.726 -10.584  21.132  1.00  0.00     0.071 C 
ATOM      8  O   UNL     1       3.689  -9.871  21.188  1.00  0.00    -0.545 OA
ATOM      9  O   UNL     1       4.916 -11.570  22.094  1.00  0.00    -0.545 OA
ENDBRANCH   1   7
BRANCH   6  10
ATOM     10  C   UNL     1       8.662  -9.799  16.913  1.00  0.00     0.013 C 
ATOM     11  C   UNL     1       8.561 -10.910  15.862  1.00  0.00     0.012 C 
ATOM     12  C   UNL     1       8.527  -8.415  16.269  1.00  0.00     0.012 C 
ENDBRANCH   6  10
TORSDOF 2
ENDMDL
MODEL 9
REMARK VINA RESULT:    -4.574      7.266      9.181
REMARK INTER + INTRA:          -5.321
REMARK INTER:                  -5.109
REMARK INTRA:                  -0.212
REMARK UNBOUND:                -0.213
REMARK SMILES CC(C)c1ccc(C(=O)[O-])cc1
REMARK SMILES IDX 7 1 6 2 11 3 5 4 12 5 4 6 8 7 9 8 10 9 2 10 1 11 3 12
REMARK H PARENT
REMARK Flexibility Score: inf
ROOT
ATOM      1  C   UNL     1       7.756  -9.169  17.967  1.00  0.00    -0.003 A 
ATOM      2  C   UNL     1       7.764 -10.567  17.837  1.00  0.00     0.010 A 
ATOM      3  C   UNL     1       6.943  -8.582  18.952  1.00  0.00     0.010 A 
ATOM      4  C   UNL     1       6.976 -11.364  18.672  1.00  0.00     0.004 A 
ATOM      5  C   UNL     1       6.156  -9.378  19.789  1.00  0.00     0.004 A 
ATOM      6  C   UNL     1       6.164 -10.779  19.657  1.00  0.00    -0.045 A 
ENDROOT
BRANCH   1   7
ATOM      7  C   UNL     1       8.591  -8.330  17.080  1.00  0.00     0.071 C 
ATOM      8  O   UNL     1       8.443  -8.372  15.830  1.00  0.00    -0.545 OA
ATOM      9  O   UNL     1       9.555  -7.482  17.615  1.00  0.00    -0.545 OA
ENDBRANCH   1   7
BRANCH   6  10
ATOM     10  C   UNL     1       5.313 -11.655  20.559  1.00  0.00     0.013 C 
ATOM     11  C   UNL     1       5.592 -13.141  20.310  1.00  0.00     0.012 C 
ATOM     12  C   UNL     1       5.517 -11.294  22.034  1.00  0.00     0.012 C 
ENDBRANCH   6  10
TORSDOF 2
ENDMDL
