MODEL 1
REMARK VINA RESULT:    -4.172      0.000      0.000
REMARK INTER + INTRA:          -5.152
REMARK INTER:                  -5.026
REMARK INTRA:                  -0.126
REMARK UNBOUND:                -0.126
REMARK SMILES CC[C@H](C)[C@H]([NH3+])C(=O)[O-]
REMARK SMILES IDX 3 1 4 2 5 3 6 4 7 8 8 9 9 10 2 11 1 12
REMARK H PARENT 6 5 6 6 6 7
REMARK Flexibility Score: inf
ROOT
ATOM      1  C   UNL     1     -38.084  19.561 -28.999  1.00  0.00     0.050 C 
ATOM      2  C   UNL     1     -36.938  20.465 -28.509  1.00  0.00     0.014 C 
ENDROOT
BRANCH   1   3
ATOM      3  C   UNL     1     -37.749  18.934 -30.389  1.00  0.00     0.230 C 
BRANCH   3   4
ATOM      4  N   UNL     1     -38.298  19.709 -31.513  1.00  0.00    -0.350 N 
ATOM      5  H   UNL     1     -39.196  19.299 -31.857  1.00  0.00     0.345 HD
ATOM      6  H   UNL     1     -38.458  20.701 -31.227  1.00  0.00     0.345 HD
ATOM      7  H   UNL     1     -37.610  19.714 -32.301  1.00  0.00     0.345 HD
ENDBRANCH   3   4
BRANCH   3   8
ATOM      8  C   UNL     1     -38.200  17.495 -30.457  1.00  0.00     0.099 C 
ATOM      9  O   UNL     1     -39.166  17.176 -31.198  1.00  0.00    -0.544 OA
ATOM     10  O   UNL     1     -37.534  16.505 -29.741  1.00  0.00    -0.544 OA
ENDBRANCH   3   8
ENDBRANCH   1   3
BRANCH   1  11
ATOM     11  C   UNL     1     -39.438  20.316 -28.990  1.00  0.00     0.006 C 
ATOM     12  C   UNL     1     -40.516  19.584 -28.188  1.00  0.00     0.004 C 
ENDBRANCH   1  11
TORSDOF 4
ENDMDL
MODEL 2
REMARK VINA RESULT:    -4.121      2.593      3.552
REMARK INTER + INTRA:          -5.090
REMARK INTER:                  -4.970
REMARK INTRA:                  -0.120
REMARK UNBOUND:                -0.126
REMARK SMILES CC[C@H](C)[C@H]([NH3+])C(=O)[O-]
REMARK SMILES IDX 3 1 4 2 5 3 6 4 7 8 8 9 9 10 2 11 1 12
REMARK H PARENT 6 5 6 6 6 7
REMARK Flexibility Score: inf
ROOT
ATOM      1  C   UNL     1     -37.752  19.106 -29.950  1.00  0.00     0.050 C 
ATOM      2  C   UNL     1     -36.293  19.492 -30.256  1.00  0.00     0.014 C 
ENDROOT
BRANCH   1   3
ATOM      3  C   UNL     1     -38.214  19.698 -28.582  1.00  0.00     0.230 C 
BRANCH   3   4
ATOM      4  N   UNL     1     -38.022  18.764 -27.461  1.00  0.00    -0.350 N 
ATOM      5  H   UNL     1     -38.787  18.053 -27.421  1.00  0.00     0.345 HD
ATOM      6  H   UNL     1     -37.101  18.278 -27.547  1.00  0.00     0.345 HD
ATOM      7  H   UNL     1     -38.016  19.298 -26.561  1.00  0.00     0.345 HD
ENDBRANCH   3   4
BRANCH   3   8
ATOM      8  C   UNL     1     -39.647  20.168 -28.651  1.00  0.00     0.099 C 
ATOM      9  O   UNL     1     -40.547  19.524 -28.050  1.00  0.00    -0.544 OA
ATOM     10  O   UNL     1     -39.984  21.329 -29.339  1.00  0.00    -0.544 OA
ENDBRANCH   3   8
ENDBRANCH   1   3
BRANCH   1  11
ATOM     11  C   UNL     1     -37.958  17.572 -30.043  1.00  0.00     0.006 C 
ATOM     12  C   UNL     1     -39.016  17.181 -31.076  1.00  0.00     0.004 C 
ENDBRANCH   1  11
TORSDOF 4
ENDMDL
MODEL 3
REMARK VINA RESULT:    -3.985      1.007      1.427
REMARK INTER + INTRA:          -4.926
REMARK INTER:                  -4.844
REMARK INTRA:                  -0.082
REMARK UNBOUND:                -0.126
REMARK SMILES CC[C@H](C)[C@H]([NH3+])C(=O)[O-]
REMARK SMILES IDX 3 1 4 2 5 3 6 4 7 8 8 9 9 10 2 11 1 12
REMARK H PARENT 6 5 6 6 6 7
REMARK Flexibility Score: inf
ROOT
ATOM      1  C   UNL     1     -39.064  19.603 -29.229  1.00  0.00     0.050 C 
ATOM      2  C   UNL     1     -38.539  19.205 -27.837  1.00  0.00     0.014 C 
ENDROOT
BRANCH   1   3
ATOM      3  C   UNL     1     -38.111  19.094 -30.355  1.00  0.00     0.230 C 
BRANCH   3   4
ATOM      4  N   UNL     1     -38.310  19.799 -31.632  1.00  0.00    -0.350 N 
ATOM      5  H   UNL     1     -39.320  19.997 -31.806  1.00  0.00     0.345 HD
ATOM      6  H   UNL     1     -37.775  20.696 -31.640  1.00  0.00     0.345 HD
ATOM      7  H   UNL     1     -37.946  19.208 -32.415  1.00  0.00     0.345 HD
ENDBRANCH   3   4
BRANCH   3   8
ATOM      8  C   UNL     1     -38.237  17.602 -30.539  1.00  0.00     0.099 C 
ATOM      9  O   UNL     1     -39.181  17.133 -31.229  1.00  0.00    -0.544 OA
ATOM     10  O   UNL     1     -37.299  16.734 -29.990  1.00  0.00    -0.544 OA
ENDBRANCH   3   8
ENDBRANCH   1   3
BRANCH   1  11
ATOM     11  C   UNL     1     -39.336  21.127 -29.312  1.00  0.00     0.006 C 
ATOM     12  C   UNL     1     -38.165  21.965 -28.795  1.00  0.00     0.004 C 
ENDBRANCH   1  11
TORSDOF 4
ENDMDL
MODEL 4
REMARK VINA RESULT:    -3.975      3.199      3.962
REMARK INTER + INTRA:          -4.915
REMARK INTER:                  -4.813
REMARK INTRA:                  -0.102
REMARK UNBOUND:                -0.126
REMARK SMILES CC[C@H](C)[C@H]([NH3+])C(=O)[O-]
REMARK SMILES IDX 3 1 4 2 5 3 6 4 7 8 8 9 9 10 2 11 1 12
REMARK H PARENT 6 5 6 6 6 7
REMARK Flexibility Score: inf
ROOT
ATOM      1  C   UNL     1     -38.723  19.528 -30.259  1.00  0.00     0.050 C 
ATOM      2  C   UNL     1     -37.590  20.300 -30.959  1.00  0.00     0.014 C 
ENDROOT
BRANCH   1   3
ATOM      3  C   UNL     1     -39.122  20.214 -28.915  1.00  0.00     0.230 C 
BRANCH   3   4
ATOM      4  N   UNL     1     -40.254  19.549 -28.249  1.00  0.00    -0.350 N 
ATOM      5  H   UNL     1     -40.318  18.542 -28.519  1.00  0.00     0.345 HD
ATOM      6  H   UNL     1     -40.160  19.624 -27.211  1.00  0.00     0.345 HD
ATOM      7  H   UNL     1     -41.145  20.025 -28.520  1.00  0.00     0.345 HD
ENDBRANCH   3   4
BRANCH   3   8
ATOM      8  C   UNL     1     -39.407  21.682 -29.120  1.00  0.00     0.099 C 
ATOM      9  O   UNL     1     -40.434  22.039 -29.756  1.00  0.00    -0.544 OA
ATOM     10  O   UNL     1     -38.570  22.652 -28.578  1.00  0.00    -0.544 OA
ENDBRANCH   3   8
ENDBRANCH   1   3
BRANCH   1  11
ATOM     11  C   UNL     1     -38.359  18.030 -30.086  1.00  0.00     0.006 C 
ATOM     12  C   UNL     1     -39.050  17.133 -31.113  1.00  0.00     0.004 C 
ENDBRANCH   1  11
TORSDOF 4
ENDMDL
MODEL 5
REMARK VINA RESULT:    -3.849      0.951      2.022
REMARK INTER + INTRA:          -4.762
REMARK INTER:                  -4.839
REMARK INTRA:                   0.076
REMARK UNBOUND:                -0.126
REMARK SMILES CC[C@H](C)[C@H]([NH3+])C(=O)[O-]
REMARK SMILES IDX 3 1 4 2 5 3 6 4 7 8 8 9 9 10 2 11 1 12
REMARK H PARENT 6 5 6 6 6 7
REMARK Flexibility Score: inf
ROOT
ATOM      1  C   UNL     1     -38.135  19.464 -28.892  1.00  0.00     0.050 C 
ATOM      2  C   UNL     1     -39.661  19.654 -28.824  1.00  0.00     0.014 C 
ENDROOT
BRANCH   1   3
ATOM      3  C   UNL     1     -37.703  18.876 -30.272  1.00  0.00     0.230 C 
BRANCH   3   4
ATOM      4  N   UNL     1     -38.148  19.701 -31.408  1.00  0.00    -0.350 N 
ATOM      5  H   UNL     1     -38.887  19.216 -31.965  1.00  0.00     0.345 HD
ATOM      6  H   UNL     1     -38.516  20.618 -31.069  1.00  0.00     0.345 HD
ATOM      7  H   UNL     1     -37.334  19.898 -32.034  1.00  0.00     0.345 HD
ENDBRANCH   3   4
BRANCH   3   8
ATOM      8  C   UNL     1     -38.174  17.451 -30.426  1.00  0.00     0.099 C 
ATOM      9  O   UNL     1     -39.221  17.204 -31.082  1.00  0.00    -0.544 OA
ATOM     10  O   UNL     1     -37.444  16.397 -29.887  1.00  0.00    -0.544 OA
ENDBRANCH   3   8
ENDBRANCH   1   3
BRANCH   1  11
ATOM     11  C   UNL     1     -37.619  18.626 -27.694  1.00  0.00     0.006 C 
ATOM     12  C   UNL     1     -36.105  18.734 -27.506  1.00  0.00     0.004 C 
ENDBRANCH   1  11
TORSDOF 4
ENDMDL
MODEL 6
REMARK VINA RESULT:    -3.841      3.118      4.058
REMARK INTER + INTRA:          -4.753
REMARK INTER:                  -4.652
REMARK INTRA:                  -0.101
REMARK UNBOUND:                -0.126
REMARK SMILES CC[C@H](C)[C@H]([NH3+])C(=O)[O-]
REMARK SMILES IDX 3 1 4 2 5 3 6 4 7 8 8 9 9 10 2 11 1 12
REMARK H PARENT 6 5 6 6 6 7
REMARK Flexibility Score: inf
ROOT
ATOM      1  C   UNL     1     -38.832  19.720 -28.863  1.00  0.00     0.050 C 
ATOM      2  C   UNL     1     -40.207  19.389 -28.254  1.00  0.00     0.014 C 
ENDROOT
BRANCH   1   3
ATOM      3  C   UNL     1     -38.944  20.872 -29.910  1.00  0.00     0.230 C 
BRANCH   3   4
ATOM      4  N   UNL     1     -37.635  21.302 -30.428  1.00  0.00    -0.350 N 
ATOM      5  H   UNL     1     -36.912  20.560 -30.301  1.00  0.00     0.345 HD
ATOM      6  H   UNL     1     -37.708  21.546 -31.442  1.00  0.00     0.345 HD
ATOM      7  H   UNL     1     -37.325  22.161 -29.918  1.00  0.00     0.345 HD
ENDBRANCH   3   4
BRANCH   3   8
ATOM      8  C   UNL     1     -39.711  22.044 -29.348  1.00  0.00     0.099 C 
ATOM      9  O   UNL     1     -39.194  22.757 -28.447  1.00  0.00    -0.544 OA
ATOM     10  O   UNL     1     -40.969  22.374 -29.840  1.00  0.00    -0.544 OA
ENDBRANCH   3   8
ENDBRANCH   1   3
BRANCH   1  11
ATOM     11  C   UNL     1     -38.150  18.450 -29.434  1.00  0.00     0.006 C 
ATOM     12  C   UNL     1     -38.880  17.887 -30.655  1.00  0.00     0.004 C 
ENDBRANCH   1  11
TORSDOF 4
ENDMDL
MODEL 7
REMARK VINA RESULT:    -3.833      2.726      3.686
REMARK INTER + INTRA:          -4.744
REMARK INTER:                  -4.659
REMARK INTRA:                  -0.085
REMARK UNBOUND:                -0.126
REMARK SMILES CC[C@H](C)[C@H]([NH3+])C(=O)[O-]
REMARK SMILES IDX 3 1 4 2 5 3 6 4 7 8 8 9 9 10 2 11 1 12
REMARK H PARENT 6 5 6 6 6 7
REMARK Flexibility Score: inf
ROOT
ATOM      1  C   UNL     1     -37.818  21.341 -29.134  1.00  0.00     0.050 C 
ATOM      2  C   UNL     1     -37.092  21.212 -30.486  1.00  0.00     0.014 C 
ENDROOT
BRANCH   1   3
ATOM      3  C   UNL     1     -39.321  20.943 -29.264  1.00  0.00     0.230 C 
BRANCH   3   4
ATOM      4  N   UNL     1     -40.234  22.077 -29.042  1.00  0.00    -0.350 N 
ATOM      5  H   UNL     1     -40.581  22.470 -29.945  1.00  0.00     0.345 HD
ATOM      6  H   UNL     1     -41.048  21.779 -28.458  1.00  0.00     0.345 HD
ATOM      7  H   UNL     1     -39.730  22.831 -28.521  1.00  0.00     0.345 HD
ENDBRANCH   3   4
BRANCH   3   8
ATOM      8  C   UNL     1     -39.659  19.794 -28.346  1.00  0.00     0.099 C 
ATOM      9  O   UNL     1     -38.736  19.092 -27.854  1.00  0.00    -0.544 OA
ATOM     10  O   UNL     1     -40.979  19.522 -28.000  1.00  0.00    -0.544 OA
ENDBRANCH   3   8
ENDBRANCH   1   3
BRANCH   1  11
ATOM     11  C   UNL     1     -37.619  22.752 -28.522  1.00  0.00     0.006 C 
ATOM     12  C   UNL     1     -36.158  23.044 -28.175  1.00  0.00     0.004 C 
ENDBRANCH   1  11
TORSDOF 4
ENDMDL
MODEL 8
REMARK VINA RESULT:    -3.785      2.850      3.656
REMARK INTER + INTRA:          -4.686
REMARK INTER:                  -4.597
REMARK INTRA:                  -0.088
REMARK UNBOUND:                -0.126
REMARK SMILES CC[C@H](C)[C@H]([NH3+])C(=O)[O-]
REMARK SMILES IDX 3 1 4 2 5 3 6 4 7 8 8 9 9 10 2 11 1 12
REMARK H PARENT 6 5 6 6 6 7
REMARK Flexibility Score: inf
ROOT
ATOM      1  C   UNL     1     -38.654  19.492 -29.487  1.00  0.00     0.050 C 
ATOM      2  C   UNL     1     -39.872  19.627 -28.555  1.00  0.00     0.014 C 
ENDROOT
BRANCH   1   3
ATOM      3  C   UNL     1     -38.476  20.768 -30.367  1.00  0.00     0.230 C 
BRANCH   3   4
ATOM      4  N   UNL     1     -38.286  20.457 -31.793  1.00  0.00    -0.350 N 
ATOM      5  H   UNL     1     -38.772  21.150 -32.403  1.00  0.00     0.345 HD
ATOM      6  H   UNL     1     -37.268  20.442 -32.029  1.00  0.00     0.345 HD
ATOM      7  H   UNL     1     -38.671  19.506 -31.995  1.00  0.00     0.345 HD
ENDBRANCH   3   4
BRANCH   3   8
ATOM      8  C   UNL     1     -37.351  21.631 -29.850  1.00  0.00     0.099 C 
ATOM      9  O   UNL     1     -36.417  21.972 -30.623  1.00  0.00    -0.544 OA
ATOM     10  O   UNL     1     -37.350  22.090 -28.537  1.00  0.00    -0.544 OA
ENDBRANCH   3   8
ENDBRANCH   1   3
BRANCH   1  11
ATOM     11  C   UNL     1     -38.728  18.189 -30.324  1.00  0.00     0.006 C 
ATOM     12  C   UNL     1     -37.616  17.199 -29.975  1.00  0.00     0.004 C 
ENDBRANCH   1  11
TORSDOF 4
ENDMDL
MODEL 9
REMARK VINA RESULT:    -3.761      2.488      3.156
REMARK INTER + INTRA:          -4.656
REMARK INTER:                  -4.574
REMARK INTRA:                  -0.082
REMARK UNBOUND:                -0.126
REMARK SMILES CC[C@H](C)[C@H]([NH3+])C(=O)[O-]
REMARK SMILES IDX 3 1 4 2 5 3 6 4 7 8 8 9 9 10 2 11 1 12
REMARK H PARENT 6 5 6 6 6 7
REMARK Flexibility Score: inf
ROOT
ATOM      1  C   UNL     1     -38.192  18.720 -29.355  1.00  0.00     0.050 C 
ATOM      2  C   UNL     1     -38.724  17.844 -30.504  1.00  0.00     0.014 C 
ENDROOT
BRANCH   1   3
ATOM      3  C   UNL     1     -37.243  17.906 -28.421  1.00  0.00     0.230 C 
BRANCH   3   4
ATOM      4  N   UNL     1     -37.379  18.277 -27.003  1.00  0.00    -0.350 N 
ATOM      5  H   UNL     1     -36.552  18.822 -26.670  1.00  0.00     0.345 HD
ATOM      6  H   UNL     1     -38.247  18.841 -26.857  1.00  0.00     0.345 HD
ATOM      7  H   UNL     1     -37.463  17.411 -26.423  1.00  0.00     0.345 HD
ENDBRANCH   3   4
BRANCH   3   8
ATOM      8  C   UNL     1     -35.807  18.024 -28.872  1.00  0.00     0.099 C 
ATOM      9  O   UNL     1     -35.040  18.850 -28.310  1.00  0.00    -0.544 OA
ATOM     10  O   UNL     1     -35.305  17.201 -29.874  1.00  0.00    -0.544 OA
ENDBRANCH   3   8
ENDBRANCH   1   3
BRANCH   1  11
ATOM     11  C   UNL     1     -39.352  19.403 -28.586  1.00  0.00     0.006 C 
ATOM     12  C   UNL     1     -39.576  20.852 -29.021  1.00  0.00     0.004 C 
ENDBRANCH   1  11
TORSDOF 4
ENDMDL
