MODEL 1
REMARK VINA RESULT:    -5.543      0.000      0.000
REMARK INTER + INTRA:          -6.281
REMARK INTER:                  -6.029
REMARK INTRA:                  -0.251
REMARK UNBOUND:                -0.251
REMARK SMILES O=C([O-])c1ccccc1O
REMARK SMILES IDX 4 1 9 2 5 3 8 4 6 5 7 6 2 7 1 8 3 9 10 10
REMARK H PARENT 10 11
REMARK Flexibility Score: inf
ROOT
ATOM      1  C   UNL     1      -2.475  27.567  28.754  1.00  0.00     0.039 A 
ATOM      2  C   UNL     1      -1.930  27.288  27.474  1.00  0.00     0.124 A 
ATOM      3  C   UNL     1      -3.723  28.210  28.836  1.00  0.00     0.014 A 
ATOM      4  C   UNL     1      -2.668  27.598  26.324  1.00  0.00     0.047 A 
ATOM      5  C   UNL     1      -4.437  28.532  27.680  1.00  0.00     0.001 A 
ATOM      6  C   UNL     1      -3.915  28.218  26.426  1.00  0.00     0.004 A 
ENDROOT
BRANCH   1   7
ATOM      7  C   UNL     1      -1.800  27.181  30.013  1.00  0.00     0.075 C 
ATOM      8  O   UNL     1      -1.845  27.926  31.027  1.00  0.00    -0.545 OA
ATOM      9  O   UNL     1      -1.046  26.014  30.068  1.00  0.00    -0.545 OA
ENDBRANCH   1   7
BRANCH   2  10
ATOM     10  O   UNL     1      -0.657  26.740  27.298  1.00  0.00    -0.507 OA
ATOM     11  H   UNL     1       0.104  26.875  27.949  1.00  0.00     0.293 HD
ENDBRANCH   2  10
TORSDOF 2
ENDMDL
MODEL 2
REMARK VINA RESULT:    -5.139      0.915      2.191
REMARK INTER + INTRA:          -5.841
REMARK INTER:                  -5.595
REMARK INTRA:                  -0.246
REMARK UNBOUND:                -0.251
REMARK SMILES O=C([O-])c1ccccc1O
REMARK SMILES IDX 4 1 9 2 5 3 8 4 6 5 7 6 2 7 1 8 3 9 10 10
REMARK H PARENT 10 11
REMARK Flexibility Score: inf
ROOT
ATOM      1  C   UNL     1      -2.500  27.511  28.804  1.00  0.00     0.039 A 
ATOM      2  C   UNL     1      -3.697  28.274  28.835  1.00  0.00     0.124 A 
ATOM      3  C   UNL     1      -2.002  27.080  27.563  1.00  0.00     0.014 A 
ATOM      4  C   UNL     1      -4.320  28.635  27.633  1.00  0.00     0.047 A 
ATOM      5  C   UNL     1      -2.646  27.429  26.374  1.00  0.00     0.001 A 
ATOM      6  C   UNL     1      -3.798  28.214  26.408  1.00  0.00     0.004 A 
ENDROOT
BRANCH   1   7
ATOM      7  C   UNL     1      -1.733  27.176  30.024  1.00  0.00     0.075 C 
ATOM      8  O   UNL     1      -1.731  27.946  31.021  1.00  0.00    -0.545 OA
ATOM      9  O   UNL     1      -0.945  26.031  30.057  1.00  0.00    -0.545 OA
ENDBRANCH   1   7
BRANCH   2  10
ATOM     10  O   UNL     1      -4.314  28.664  30.026  1.00  0.00    -0.507 OA
ATOM     11  H   UNL     1      -5.309  28.592  30.188  1.00  0.00     0.293 HD
ENDBRANCH   2  10
TORSDOF 2
ENDMDL
MODEL 3
REMARK VINA RESULT:    -5.024      1.341      2.211
REMARK INTER + INTRA:          -5.716
REMARK INTER:                  -5.507
REMARK INTRA:                  -0.209
REMARK UNBOUND:                -0.251
REMARK SMILES O=C([O-])c1ccccc1O
REMARK SMILES IDX 4 1 9 2 5 3 8 4 6 5 7 6 2 7 1 8 3 9 10 10
REMARK H PARENT 10 11
REMARK Flexibility Score: inf
ROOT
ATOM      1  C   UNL     1      -3.508  28.010  28.964  1.00  0.00     0.039 A 
ATOM      2  C   UNL     1      -2.301  27.344  28.625  1.00  0.00     0.124 A 
ATOM      3  C   UNL     1      -4.328  28.498  27.930  1.00  0.00     0.014 A 
ATOM      4  C   UNL     1      -1.983  27.130  27.278  1.00  0.00     0.047 A 
ATOM      5  C   UNL     1      -3.985  28.296  26.592  1.00  0.00     0.001 A 
ATOM      6  C   UNL     1      -2.819  27.605  26.265  1.00  0.00     0.004 A 
ENDROOT
BRANCH   1   7
ATOM      7  C   UNL     1      -3.961  28.186  30.361  1.00  0.00     0.075 C 
ATOM      8  O   UNL     1      -4.128  27.194  31.118  1.00  0.00    -0.545 OA
ATOM      9  O   UNL     1      -4.276  29.455  30.835  1.00  0.00    -0.545 OA
ENDBRANCH   1   7
BRANCH   2  10
ATOM     10  O   UNL     1      -1.383  26.912  29.584  1.00  0.00    -0.507 OA
ATOM     11  H   UNL     1      -0.390  27.090  29.526  1.00  0.00     0.293 HD
ENDBRANCH   2  10
TORSDOF 2
ENDMDL
MODEL 4
REMARK VINA RESULT:    -4.864      1.595      3.373
REMARK INTER + INTRA:          -5.542
REMARK INTER:                  -5.314
REMARK INTRA:                  -0.228
REMARK UNBOUND:                -0.251
REMARK SMILES O=C([O-])c1ccccc1O
REMARK SMILES IDX 4 1 9 2 5 3 8 4 6 5 7 6 2 7 1 8 3 9 10 10
REMARK H PARENT 10 11
REMARK Flexibility Score: inf
ROOT
ATOM      1  C   UNL     1      -2.873  28.105  28.606  1.00  0.00     0.039 A 
ATOM      2  C   UNL     1      -2.174  27.696  29.773  1.00  0.00     0.124 A 
ATOM      3  C   UNL     1      -3.951  28.997  28.739  1.00  0.00     0.014 A 
ATOM      4  C   UNL     1      -2.528  28.235  31.016  1.00  0.00     0.047 A 
ATOM      5  C   UNL     1      -4.306  29.508  29.989  1.00  0.00     0.001 A 
ATOM      6  C   UNL     1      -3.589  29.136  31.125  1.00  0.00     0.004 A 
ENDROOT
BRANCH   1   7
ATOM      7  C   UNL     1      -2.495  27.656  27.248  1.00  0.00     0.075 C 
ATOM      8  O   UNL     1      -1.368  27.140  27.026  1.00  0.00    -0.545 OA
ATOM      9  O   UNL     1      -3.361  27.865  26.181  1.00  0.00    -0.545 OA
ENDBRANCH   1   7
BRANCH   2  10
ATOM     10  O   UNL     1      -1.154  26.743  29.746  1.00  0.00    -0.507 OA
ATOM     11  H   UNL     1      -0.649  26.488  28.909  1.00  0.00     0.293 HD
ENDBRANCH   2  10
TORSDOF 2
ENDMDL
MODEL 5
REMARK VINA RESULT:    -4.783      2.036      3.579
REMARK INTER + INTRA:          -5.454
REMARK INTER:                  -5.227
REMARK INTRA:                  -0.227
REMARK UNBOUND:                -0.251
REMARK SMILES O=C([O-])c1ccccc1O
REMARK SMILES IDX 4 1 9 2 5 3 8 4 6 5 7 6 2 7 1 8 3 9 10 10
REMARK H PARENT 10 11
REMARK Flexibility Score: inf
ROOT
ATOM      1  C   UNL     1      -3.179  27.366  28.721  1.00  0.00     0.039 A 
ATOM      2  C   UNL     1      -1.870  26.821  28.789  1.00  0.00     0.124 A 
ATOM      3  C   UNL     1      -4.002  27.302  29.859  1.00  0.00     0.014 A 
ATOM      4  C   UNL     1      -1.403  26.291  29.999  1.00  0.00     0.047 A 
ATOM      5  C   UNL     1      -3.529  26.751  31.052  1.00  0.00     0.001 A 
ATOM      6  C   UNL     1      -2.228  26.254  31.125  1.00  0.00     0.004 A 
ENDROOT
BRANCH   1   7
ATOM      7  C   UNL     1      -3.707  28.031  27.509  1.00  0.00     0.075 C 
ATOM      8  O   UNL     1      -3.212  27.799  26.375  1.00  0.00    -0.545 OA
ATOM      9  O   UNL     1      -4.718  28.979  27.621  1.00  0.00    -0.545 OA
ENDBRANCH   1   7
BRANCH   2  10
ATOM     10  O   UNL     1      -1.020  26.756  27.683  1.00  0.00    -0.507 OA
ATOM     11  H   UNL     1      -1.067  27.399  26.905  1.00  0.00     0.293 HD
ENDBRANCH   2  10
TORSDOF 2
ENDMDL
MODEL 6
REMARK VINA RESULT:    -4.697      2.050      2.587
REMARK INTER + INTRA:          -5.361
REMARK INTER:                  -5.139
REMARK INTRA:                  -0.222
REMARK UNBOUND:                -0.251
REMARK SMILES O=C([O-])c1ccccc1O
REMARK SMILES IDX 4 1 9 2 5 3 8 4 6 5 7 6 2 7 1 8 3 9 10 10
REMARK H PARENT 10 11
REMARK Flexibility Score: inf
ROOT
ATOM      1  C   UNL     1      -2.480  27.307  30.128  1.00  0.00     0.039 A 
ATOM      2  C   UNL     1      -3.538  27.221  29.185  1.00  0.00     0.124 A 
ATOM      3  C   UNL     1      -2.128  28.567  30.641  1.00  0.00     0.014 A 
ATOM      4  C   UNL     1      -4.247  28.377  28.834  1.00  0.00     0.047 A 
ATOM      5  C   UNL     1      -2.831  29.714  30.265  1.00  0.00     0.001 A 
ATOM      6  C   UNL     1      -3.895  29.618  29.369  1.00  0.00     0.004 A 
ENDROOT
BRANCH   1   7
ATOM      7  C   UNL     1      -1.750  26.118  30.622  1.00  0.00     0.075 C 
ATOM      8  O   UNL     1      -2.366  25.142  31.125  1.00  0.00    -0.545 OA
ATOM      9  O   UNL     1      -0.360  26.097  30.599  1.00  0.00    -0.545 OA
ENDBRANCH   1   7
BRANCH   2  10
ATOM     10  O   UNL     1      -3.892  26.027  28.553  1.00  0.00    -0.507 OA
ATOM     11  H   UNL     1      -4.296  25.238  29.038  1.00  0.00     0.293 HD
ENDBRANCH   2  10
TORSDOF 2
ENDMDL
MODEL 7
REMARK VINA RESULT:    -4.573      2.107      4.095
REMARK INTER + INTRA:          -5.226
REMARK INTER:                  -4.991
REMARK INTRA:                  -0.235
REMARK UNBOUND:                -0.251
REMARK SMILES O=C([O-])c1ccccc1O
REMARK SMILES IDX 4 1 9 2 5 3 8 4 6 5 7 6 2 7 1 8 3 9 10 10
REMARK H PARENT 10 11
REMARK Flexibility Score: inf
ROOT
ATOM      1  C   UNL     1      -2.800  27.685  28.441  1.00  0.00     0.039 A 
ATOM      2  C   UNL     1      -3.312  28.569  29.427  1.00  0.00     0.124 A 
ATOM      3  C   UNL     1      -1.820  26.748  28.813  1.00  0.00     0.014 A 
ATOM      4  C   UNL     1      -2.880  28.451  30.755  1.00  0.00     0.047 A 
ATOM      5  C   UNL     1      -1.384  26.657  30.136  1.00  0.00     0.001 A 
ATOM      6  C   UNL     1      -1.920  27.501  31.108  1.00  0.00     0.004 A 
ENDROOT
BRANCH   1   7
ATOM      7  C   UNL     1      -3.279  27.683  27.042  1.00  0.00     0.075 C 
ATOM      8  O   UNL     1      -2.544  27.269  26.106  1.00  0.00    -0.545 OA
ATOM      9  O   UNL     1      -4.529  28.208  26.733  1.00  0.00    -0.545 OA
ENDBRANCH   1   7
BRANCH   2  10
ATOM     10  O   UNL     1      -4.216  29.591  29.129  1.00  0.00    -0.507 OA
ATOM     11  H   UNL     1      -4.292  30.444  29.667  1.00  0.00     0.293 HD
ENDBRANCH   2  10
TORSDOF 2
ENDMDL
MODEL 8
REMARK VINA RESULT:    -4.316      2.526      3.769
REMARK INTER + INTRA:          -4.946
REMARK INTER:                  -4.694
REMARK INTRA:                  -0.253
REMARK UNBOUND:                -0.251
REMARK SMILES O=C([O-])c1ccccc1O
REMARK SMILES IDX 4 1 9 2 5 3 8 4 6 5 7 6 2 7 1 8 3 9 10 10
REMARK H PARENT 10 11
REMARK Flexibility Score: inf
ROOT
ATOM      1  C   UNL     1      -3.151  27.873  29.476  1.00  0.00     0.039 A 
ATOM      2  C   UNL     1      -3.157  26.467  29.276  1.00  0.00     0.124 A 
ATOM      3  C   UNL     1      -2.266  28.420  30.422  1.00  0.00     0.014 A 
ATOM      4  C   UNL     1      -2.244  25.665  29.973  1.00  0.00     0.047 A 
ATOM      5  C   UNL     1      -1.377  27.604  31.125  1.00  0.00     0.001 A 
ATOM      6  C   UNL     1      -1.359  26.230  30.894  1.00  0.00     0.004 A 
ENDROOT
BRANCH   1   7
ATOM      7  C   UNL     1      -4.015  28.794  28.707  1.00  0.00     0.075 C 
ATOM      8  O   UNL     1      -4.555  29.789  29.259  1.00  0.00    -0.545 OA
ATOM      9  O   UNL     1      -4.299  28.530  27.372  1.00  0.00    -0.545 OA
ENDBRANCH   1   7
BRANCH   2  10
ATOM     10  O   UNL     1      -4.065  25.829  28.429  1.00  0.00    -0.507 OA
ATOM     11  H   UNL     1      -5.065  25.962  28.481  1.00  0.00     0.293 HD
ENDBRANCH   2  10
TORSDOF 2
ENDMDL
MODEL 9
REMARK VINA RESULT:    -4.237      2.104      2.905
REMARK INTER + INTRA:          -4.860
REMARK INTER:                  -4.607
REMARK INTRA:                  -0.253
REMARK UNBOUND:                -0.251
REMARK SMILES O=C([O-])c1ccccc1O
REMARK SMILES IDX 4 1 9 2 5 3 8 4 6 5 7 6 2 7 1 8 3 9 10 10
REMARK H PARENT 10 11
REMARK Flexibility Score: inf
ROOT
ATOM      1  C   UNL     1      -3.288  27.997  28.869  1.00  0.00     0.039 A 
ATOM      2  C   UNL     1      -3.907  28.448  27.673  1.00  0.00     0.124 A 
ATOM      3  C   UNL     1      -2.115  27.227  28.778  1.00  0.00     0.014 A 
ATOM      4  C   UNL     1      -3.307  28.173  26.437  1.00  0.00     0.047 A 
ATOM      5  C   UNL     1      -1.542  26.943  27.537  1.00  0.00     0.001 A 
ATOM      6  C   UNL     1      -2.131  27.423  26.369  1.00  0.00     0.004 A 
ENDROOT
BRANCH   1   7
ATOM      7  C   UNL     1      -3.806  28.331  30.214  1.00  0.00     0.075 C 
ATOM      8  O   UNL     1      -3.866  27.459  31.120  1.00  0.00    -0.545 OA
ATOM      9  O   UNL     1      -4.302  29.604  30.472  1.00  0.00    -0.545 OA
ENDBRANCH   1   7
BRANCH   2  10
ATOM     10  O   UNL     1      -5.122  29.136  27.665  1.00  0.00    -0.507 OA
ATOM     11  H   UNL     1      -5.198  30.136  27.790  1.00  0.00     0.293 HD
ENDBRANCH   2  10
TORSDOF 2
ENDMDL
