MODEL 1
REMARK VINA RESULT:    -6.927      0.000      0.000
REMARK INTER + INTRA:         -10.745
REMARK INTER:                  -9.356
REMARK INTRA:                  -1.388
REMARK UNBOUND:                -1.388
REMARK SMILES CC[C@H](CC[C@H](C)[C@H]1CC[C@H]2[C@H]3CC(=O)C4=CC(=O)CC[C@]4(C)[C@H]3CC[C@@]12C)C(C)C
REMARK SMILES IDX 4 1 3 2 2 3 1 4 29 5 30 6 31 7 5 8 6 9 7 10 8 11 9 12 27 13
REMARK SMILES IDX 10 14 11 15 26 16 28 17 12 18 25 19 24 20 13 21 22 22 14 23
REMARK SMILES IDX 16 24 21 25 23 26 15 27 17 28 20 29 18 30 19 31
REMARK H PARENT
REMARK Flexibility Score: inf
ROOT
ATOM      1  C   UNL     1      19.215  31.298  31.649  1.00  0.00     0.004 C 
ENDROOT
BRANCH   1   2
ATOM      2  C   UNL     1      18.693  32.551  30.889  1.00  0.00    -0.009 C 
BRANCH   2   3
ATOM      3  C   UNL     1      19.689  33.739  31.002  1.00  0.00     0.000 C 
ATOM      4  C   UNL     1      20.553  33.915  29.750  1.00  0.00     0.004 C 
ENDBRANCH   2   3
BRANCH   2   5
ATOM      5  C   UNL     1      18.333  32.202  29.404  1.00  0.00    -0.014 C 
ATOM      6  C   UNL     1      18.541  30.707  29.101  1.00  0.00     0.007 C 
ATOM      7  C   UNL     1      16.916  32.636  28.983  1.00  0.00     0.007 C 
ENDBRANCH   2   5
ENDBRANCH   1   2
BRANCH   1   8
ATOM      8  C   UNL     1      20.530  31.567  32.431  1.00  0.00     0.004 C 
BRANCH   8   9
ATOM      9  C   UNL     1      21.806  30.902  31.841  1.00  0.00    -0.011 C 
ATOM     10  C   UNL     1      21.541  29.395  31.632  1.00  0.00     0.008 C 
BRANCH   9  11
ATOM     11  C   UNL     1      23.136  31.148  32.651  1.00  0.00    -0.002 C 
ATOM     12  C   UNL     1      23.769  29.824  33.118  1.00  0.00     0.005 C 
ATOM     13  C   UNL     1      24.304  31.946  31.967  1.00  0.00    -0.026 C 
ATOM     14  C   UNL     1      25.280  29.997  33.085  1.00  0.00     0.005 C 
ATOM     15  C   UNL     1      25.551  31.471  32.747  1.00  0.00    -0.001 C 
ATOM     16  C   UNL     1      24.483  31.541  30.483  1.00  0.00     0.007 C 
ATOM     17  C   UNL     1      24.117  33.479  32.135  1.00  0.00     0.012 C 
ATOM     18  C   UNL     1      26.955  31.777  32.097  1.00  0.00     0.004 C 
ATOM     19  C   UNL     1      25.675  32.201  29.785  1.00  0.00     0.005 C 
ATOM     20  C   UNL     1      26.964  32.403  30.645  1.00  0.00     0.003 C 
ATOM     21  C   UNL     1      27.992  30.646  32.269  1.00  0.00     0.085 C 
ATOM     22  C   UNL     1      28.330  32.248  29.825  1.00  0.00    -0.000 C 
ATOM     23  C   UNL     1      29.356  31.141  31.924  1.00  0.00     0.159 C 
ATOM     24  C   UNL     1      29.519  32.069  30.783  1.00  0.00     0.005 C 
ATOM     25  C   UNL     1      28.531  33.536  28.955  1.00  0.00     0.020 C 
ATOM     26  C   UNL     1      28.317  31.003  28.885  1.00  0.00     0.017 C 
ATOM     27  O   UNL     1      30.355  30.722  32.574  1.00  0.00    -0.295 OA
ATOM     28  C   UNL     1      30.729  32.608  30.535  1.00  0.00     0.055 C 
ATOM     29  C   UNL     1      29.923  33.626  28.313  1.00  0.00     0.081 C 
ATOM     30  C   UNL     1      30.982  33.440  29.350  1.00  0.00     0.156 C 
ATOM     31  O   UNL     1      32.121  33.952  29.182  1.00  0.00    -0.295 OA
ENDBRANCH   9  11
ENDBRANCH   8   9
ENDBRANCH   1   8
TORSDOF 6
ENDMDL
MODEL 2
REMARK VINA RESULT:    -6.900      1.528      3.175
REMARK INTER + INTRA:         -10.709
REMARK INTER:                  -9.072
REMARK INTRA:                  -1.637
REMARK UNBOUND:                -1.388
REMARK SMILES CC[C@H](CC[C@H](C)[C@H]1CC[C@H]2[C@H]3CC(=O)C4=CC(=O)CC[C@]4(C)[C@H]3CC[C@@]12C)C(C)C
REMARK SMILES IDX 4 1 3 2 2 3 1 4 29 5 30 6 31 7 5 8 6 9 7 10 8 11 9 12 27 13
REMARK SMILES IDX 10 14 11 15 26 16 28 17 12 18 25 19 24 20 13 21 22 22 14 23
REMARK SMILES IDX 16 24 21 25 23 26 15 27 17 28 20 29 18 30 19 31
REMARK H PARENT
REMARK Flexibility Score: inf
ROOT
ATOM      1  C   UNL     1      19.385  30.711  30.770  1.00  0.00     0.004 C 
ENDROOT
BRANCH   1   2
ATOM      2  C   UNL     1      17.968  31.331  30.598  1.00  0.00    -0.009 C 
BRANCH   2   3
ATOM      3  C   UNL     1      17.468  31.978  31.921  1.00  0.00     0.000 C 
ATOM      4  C   UNL     1      16.174  31.347  32.442  1.00  0.00     0.004 C 
ENDBRANCH   2   3
BRANCH   2   5
ATOM      5  C   UNL     1      17.928  32.323  29.386  1.00  0.00    -0.014 C 
ATOM      6  C   UNL     1      16.487  32.602  28.921  1.00  0.00     0.007 C 
ATOM      7  C   UNL     1      18.672  33.648  29.634  1.00  0.00     0.007 C 
ENDBRANCH   2   5
ENDBRANCH   1   2
BRANCH   1   8
ATOM      8  C   UNL     1      19.912  30.797  32.229  1.00  0.00     0.004 C 
BRANCH   8   9
ATOM      9  C   UNL     1      21.177  31.677  32.431  1.00  0.00    -0.011 C 
ATOM     10  C   UNL     1      20.752  33.059  32.974  1.00  0.00     0.008 C 
BRANCH   9  11
ATOM     11  C   UNL     1      22.116  31.816  31.171  1.00  0.00    -0.002 C 
ATOM     12  C   UNL     1      22.197  33.273  30.682  1.00  0.00     0.005 C 
ATOM     13  C   UNL     1      23.607  31.332  31.280  1.00  0.00    -0.026 C 
ATOM     14  C   UNL     1      23.602  33.504  30.146  1.00  0.00     0.005 C 
ATOM     15  C   UNL     1      24.315  32.143  30.171  1.00  0.00    -0.001 C 
ATOM     16  C   UNL     1      24.239  31.724  32.639  1.00  0.00     0.007 C 
ATOM     17  C   UNL     1      23.731  29.810  30.996  1.00  0.00     0.012 C 
ATOM     18  C   UNL     1      25.891  32.198  30.227  1.00  0.00     0.004 C 
ATOM     19  C   UNL     1      25.725  31.379  32.769  1.00  0.00     0.005 C 
ATOM     20  C   UNL     1      26.598  31.551  31.484  1.00  0.00     0.003 C 
ATOM     21  C   UNL     1      26.491  33.567  29.839  1.00  0.00     0.085 C 
ATOM     22  C   UNL     1      28.097  32.035  31.770  1.00  0.00    -0.000 C 
ATOM     23  C   UNL     1      27.958  33.438  29.603  1.00  0.00     0.159 C 
ATOM     24  C   UNL     1      28.754  32.551  30.479  1.00  0.00     0.005 C 
ATOM     25  C   UNL     1      28.907  30.818  32.336  1.00  0.00     0.020 C 
ATOM     26  C   UNL     1      28.155  33.202  32.803  1.00  0.00     0.017 C 
ATOM     27  O   UNL     1      28.506  34.125  28.696  1.00  0.00    -0.295 OA
ATOM     28  C   UNL     1      30.057  32.342  30.203  1.00  0.00     0.055 C 
ATOM     29  C   UNL     1      30.419  31.079  32.416  1.00  0.00     0.081 C 
ATOM     30  C   UNL     1      30.928  31.569  31.099  1.00  0.00     0.156 C 
ATOM     31  O   UNL     1      32.130  31.370  30.779  1.00  0.00    -0.295 OA
ENDBRANCH   9  11
ENDBRANCH   8   9
ENDBRANCH   1   8
TORSDOF 6
ENDMDL
MODEL 3
REMARK VINA RESULT:    -6.650      1.585      3.056
REMARK INTER + INTRA:         -10.371
REMARK INTER:                  -8.895
REMARK INTRA:                  -1.476
REMARK UNBOUND:                -1.388
REMARK SMILES CC[C@H](CC[C@H](C)[C@H]1CC[C@H]2[C@H]3CC(=O)C4=CC(=O)CC[C@]4(C)[C@H]3CC[C@@]12C)C(C)C
REMARK SMILES IDX 4 1 3 2 2 3 1 4 29 5 30 6 31 7 5 8 6 9 7 10 8 11 9 12 27 13
REMARK SMILES IDX 10 14 11 15 26 16 28 17 12 18 25 19 24 20 13 21 22 22 14 23
REMARK SMILES IDX 16 24 21 25 23 26 15 27 17 28 20 29 18 30 19 31
REMARK H PARENT
REMARK Flexibility Score: inf
ROOT
ATOM      1  C   UNL     1      20.208  30.798  31.167  1.00  0.00     0.004 C 
ENDROOT
BRANCH   1   2
ATOM      2  C   UNL     1      18.945  31.632  30.805  1.00  0.00    -0.009 C 
BRANCH   2   3
ATOM      3  C   UNL     1      19.056  32.238  29.378  1.00  0.00     0.000 C 
ATOM      4  C   UNL     1      19.216  33.761  29.386  1.00  0.00     0.004 C 
ENDBRANCH   2   3
BRANCH   2   5
ATOM      5  C   UNL     1      17.637  30.794  31.008  1.00  0.00    -0.014 C 
ATOM      6  C   UNL     1      16.676  30.934  29.814  1.00  0.00     0.007 C 
ATOM      7  C   UNL     1      17.887  29.306  31.317  1.00  0.00     0.007 C 
ENDBRANCH   2   5
ENDBRANCH   1   2
BRANCH   1   8
ATOM      8  C   UNL     1      20.753  31.109  32.589  1.00  0.00     0.004 C 
BRANCH   8   9
ATOM      9  C   UNL     1      21.953  32.095  32.643  1.00  0.00    -0.011 C 
ATOM     10  C   UNL     1      21.429  33.514  32.955  1.00  0.00     0.008 C 
BRANCH   9  11
ATOM     11  C   UNL     1      22.893  32.092  31.377  1.00  0.00    -0.002 C 
ATOM     12  C   UNL     1      22.970  33.484  30.724  1.00  0.00     0.005 C 
ATOM     13  C   UNL     1      24.386  31.630  31.542  1.00  0.00    -0.026 C 
ATOM     14  C   UNL     1      24.374  33.657  30.166  1.00  0.00     0.005 C 
ATOM     15  C   UNL     1      25.092  32.310  30.348  1.00  0.00    -0.001 C 
ATOM     16  C   UNL     1      25.014  32.177  32.848  1.00  0.00     0.007 C 
ATOM     17  C   UNL     1      24.515  30.085  31.435  1.00  0.00     0.012 C 
ATOM     18  C   UNL     1      26.667  32.377  30.398  1.00  0.00     0.004 C 
ATOM     19  C   UNL     1      26.502  31.855  33.018  1.00  0.00     0.005 C 
ATOM     20  C   UNL     1      27.375  31.882  31.723  1.00  0.00     0.003 C 
ATOM     21  C   UNL     1      27.263  33.695  29.856  1.00  0.00     0.085 C 
ATOM     22  C   UNL     1      28.872  32.401  31.952  1.00  0.00    -0.000 C 
ATOM     23  C   UNL     1      28.731  33.545  29.638  1.00  0.00     0.159 C 
ATOM     24  C   UNL     1      29.529  32.767  30.611  1.00  0.00     0.005 C 
ATOM     25  C   UNL     1      29.686  31.260  32.654  1.00  0.00     0.020 C 
ATOM     26  C   UNL     1      28.924  33.679  32.844  1.00  0.00     0.017 C 
ATOM     27  O   UNL     1      29.278  34.125  28.658  1.00  0.00    -0.295 OA
ATOM     28  C   UNL     1      30.833  32.532  30.362  1.00  0.00     0.055 C 
ATOM     29  C   UNL     1      31.196  31.534  32.705  1.00  0.00     0.081 C 
ATOM     30  C   UNL     1      31.705  31.871  31.342  1.00  0.00     0.156 C 
ATOM     31  O   UNL     1      32.908  31.641  31.047  1.00  0.00    -0.295 OA
ENDBRANCH   9  11
ENDBRANCH   8   9
ENDBRANCH   1   8
TORSDOF 6
ENDMDL
MODEL 4
REMARK VINA RESULT:    -6.463      3.349      8.761
REMARK INTER + INTRA:         -10.119
REMARK INTER:                  -8.938
REMARK INTRA:                  -1.181
REMARK UNBOUND:                -1.388
REMARK SMILES CC[C@H](CC[C@H](C)[C@H]1CC[C@H]2[C@H]3CC(=O)C4=CC(=O)CC[C@]4(C)[C@H]3CC[C@@]12C)C(C)C
REMARK SMILES IDX 4 1 3 2 2 3 1 4 29 5 30 6 31 7 5 8 6 9 7 10 8 11 9 12 27 13
REMARK SMILES IDX 10 14 11 15 26 16 28 17 12 18 25 19 24 20 13 21 22 22 14 23
REMARK SMILES IDX 16 24 21 25 23 26 15 27 17 28 20 29 18 30 19 31
REMARK H PARENT
REMARK Flexibility Score: inf
ROOT
ATOM      1  C   UNL     1      30.213  30.932  30.532  1.00  0.00     0.004 C 
ENDROOT
BRANCH   1   2
ATOM      2  C   UNL     1      30.731  32.344  30.132  1.00  0.00    -0.009 C 
BRANCH   2   3
ATOM      3  C   UNL     1      32.282  32.421  30.208  1.00  0.00     0.000 C 
ATOM      4  C   UNL     1      32.858  33.625  29.457  1.00  0.00     0.004 C 
ENDBRANCH   2   3
BRANCH   2   5
ATOM      5  C   UNL     1      30.170  32.777  28.734  1.00  0.00    -0.014 C 
ATOM      6  C   UNL     1      29.978  31.571  27.797  1.00  0.00     0.007 C 
ATOM      7  C   UNL     1      28.874  33.605  28.807  1.00  0.00     0.007 C 
ENDBRANCH   2   5
ENDBRANCH   1   2
BRANCH   1   8
ATOM      8  C   UNL     1      29.463  30.924  31.892  1.00  0.00     0.004 C 
BRANCH   8   9
ATOM      9  C   UNL     1      28.054  31.580  31.882  1.00  0.00    -0.011 C 
ATOM     10  C   UNL     1      27.907  32.485  33.125  1.00  0.00     0.008 C 
BRANCH   9  11
ATOM     11  C   UNL     1      26.841  30.581  31.747  1.00  0.00    -0.002 C 
ATOM     12  C   UNL     1      26.339  30.111  33.125  1.00  0.00     0.005 C 
ATOM     13  C   UNL     1      25.554  31.049  30.976  1.00  0.00    -0.026 C 
ATOM     14  C   UNL     1      24.832  29.924  33.029  1.00  0.00     0.005 C 
ATOM     15  C   UNL     1      24.452  30.134  31.555  1.00  0.00    -0.001 C 
ATOM     16  C   UNL     1      25.187  32.516  31.313  1.00  0.00     0.007 C 
ATOM     17  C   UNL     1      25.696  30.819  29.446  1.00  0.00     0.012 C 
ATOM     18  C   UNL     1      22.958  30.566  31.289  1.00  0.00     0.004 C 
ATOM     19  C   UNL     1      23.881  33.003  30.679  1.00  0.00     0.005 C 
ATOM     20  C   UNL     1      22.718  31.963  30.590  1.00  0.00     0.003 C 
ATOM     21  C   UNL     1      22.007  30.319  32.480  1.00  0.00     0.085 C 
ATOM     22  C   UNL     1      21.258  32.595  30.772  1.00  0.00    -0.000 C 
ATOM     23  C   UNL     1      20.587  30.443  32.038  1.00  0.00     0.159 C 
ATOM     24  C   UNL     1      20.225  31.494  31.062  1.00  0.00     0.005 C 
ATOM     25  C   UNL     1      20.881  33.351  29.452  1.00  0.00     0.020 C 
ATOM     26  C   UNL     1      21.194  33.599  31.964  1.00  0.00     0.017 C 
ATOM     27  O   UNL     1      19.709  29.687  32.541  1.00  0.00    -0.295 OA
ATOM     28  C   UNL     1      18.969  31.540  30.574  1.00  0.00     0.055 C 
ATOM     29  C   UNL     1      19.409  33.789  29.402  1.00  0.00     0.081 C 
ATOM     30  C   UNL     1      18.516  32.628  29.695  1.00  0.00     0.156 C 
ATOM     31  O   UNL     1      17.344  32.607  29.235  1.00  0.00    -0.295 OA
ENDBRANCH   9  11
ENDBRANCH   8   9
ENDBRANCH   1   8
TORSDOF 6
ENDMDL
MODEL 5
REMARK VINA RESULT:    -6.368      3.674      9.220
REMARK INTER + INTRA:          -9.990
REMARK INTER:                  -9.314
REMARK INTRA:                  -0.675
REMARK UNBOUND:                -1.388
REMARK SMILES CC[C@H](CC[C@H](C)[C@H]1CC[C@H]2[C@H]3CC(=O)C4=CC(=O)CC[C@]4(C)[C@H]3CC[C@@]12C)C(C)C
REMARK SMILES IDX 4 1 3 2 2 3 1 4 29 5 30 6 31 7 5 8 6 9 7 10 8 11 9 12 27 13
REMARK SMILES IDX 10 14 11 15 26 16 28 17 12 18 25 19 24 20 13 21 22 22 14 23
REMARK SMILES IDX 16 24 21 25 23 26 15 27 17 28 20 29 18 30 19 31
REMARK H PARENT
REMARK Flexibility Score: inf
ROOT
ATOM      1  C   UNL     1      28.203  30.781  28.926  1.00  0.00     0.004 C 
ENDROOT
BRANCH   1   2
ATOM      2  C   UNL     1      29.343  31.669  29.504  1.00  0.00    -0.009 C 
BRANCH   2   3
ATOM      3  C   UNL     1      30.574  30.814  29.916  1.00  0.00     0.000 C 
ATOM      4  C   UNL     1      31.163  31.228  31.268  1.00  0.00     0.004 C 
ENDBRANCH   2   3
BRANCH   2   5
ATOM      5  C   UNL     1      29.713  32.828  28.516  1.00  0.00    -0.014 C 
ATOM      6  C   UNL     1      28.733  34.010  28.627  1.00  0.00     0.007 C 
ATOM      7  C   UNL     1      31.164  33.327  28.648  1.00  0.00     0.007 C 
ENDBRANCH   2   5
ENDBRANCH   1   2
BRANCH   1   8
ATOM      8  C   UNL     1      26.931  30.770  29.818  1.00  0.00     0.004 C 
BRANCH   8   9
ATOM      9  C   UNL     1      26.993  31.674  31.081  1.00  0.00    -0.011 C 
ATOM     10  C   UNL     1      27.236  30.791  32.324  1.00  0.00     0.008 C 
BRANCH   9  11
ATOM     11  C   UNL     1      25.763  32.638  31.287  1.00  0.00    -0.002 C 
ATOM     12  C   UNL     1      25.553  33.559  30.070  1.00  0.00     0.005 C 
ATOM     13  C   UNL     1      24.351  32.014  31.581  1.00  0.00    -0.026 C 
ATOM     14  C   UNL     1      24.058  33.784  29.912  1.00  0.00     0.005 C 
ATOM     15  C   UNL     1      23.379  33.126  31.124  1.00  0.00    -0.001 C 
ATOM     16  C   UNL     1      24.087  30.759  30.711  1.00  0.00     0.007 C 
ATOM     17  C   UNL     1      24.164  31.725  33.095  1.00  0.00     0.012 C 
ATOM     18  C   UNL     1      21.871  32.712  30.922  1.00  0.00     0.004 C 
ATOM     19  C   UNL     1      22.686  30.163  30.868  1.00  0.00     0.005 C 
ATOM     20  C   UNL     1      21.512  31.178  31.056  1.00  0.00     0.003 C 
ATOM     21  C   UNL     1      21.187  33.384  29.712  1.00  0.00     0.085 C 
ATOM     22  C   UNL     1      20.134  30.719  30.381  1.00  0.00    -0.000 C 
ATOM     23  C   UNL     1      19.708  33.199  29.788  1.00  0.00     0.159 C 
ATOM     24  C   UNL     1      19.167  31.908  30.267  1.00  0.00     0.005 C 
ATOM     25  C   UNL     1      19.501  29.595  31.271  1.00  0.00     0.020 C 
ATOM     26  C   UNL     1      20.340  30.164  28.938  1.00  0.00     0.017 C 
ATOM     27  O   UNL     1      18.943  34.124  29.395  1.00  0.00    -0.295 OA
ATOM     28  C   UNL     1      17.838  31.773  30.445  1.00  0.00     0.055 C 
ATOM     29  C   UNL     1      18.060  29.245  30.873  1.00  0.00     0.081 C 
ATOM     30  C   UNL     1      17.228  30.484  30.803  1.00  0.00     0.156 C 
ATOM     31  O   UNL     1      15.985  30.416  30.995  1.00  0.00    -0.295 OA
ENDBRANCH   9  11
ENDBRANCH   8   9
ENDBRANCH   1   8
TORSDOF 6
ENDMDL
MODEL 6
REMARK VINA RESULT:    -6.365      1.243      1.868
REMARK INTER + INTRA:          -9.986
REMARK INTER:                  -8.958
REMARK INTRA:                  -1.028
REMARK UNBOUND:                -1.388
REMARK SMILES CC[C@H](CC[C@H](C)[C@H]1CC[C@H]2[C@H]3CC(=O)C4=CC(=O)CC[C@]4(C)[C@H]3CC[C@@]12C)C(C)C
REMARK SMILES IDX 4 1 3 2 2 3 1 4 29 5 30 6 31 7 5 8 6 9 7 10 8 11 9 12 27 13
REMARK SMILES IDX 10 14 11 15 26 16 28 17 12 18 25 19 24 20 13 21 22 22 14 23
REMARK SMILES IDX 16 24 21 25 23 26 15 27 17 28 20 29 18 30 19 31
REMARK H PARENT
REMARK Flexibility Score: inf
ROOT
ATOM      1  C   UNL     1      20.843  31.180  29.638  1.00  0.00     0.004 C 
ENDROOT
BRANCH   1   2
ATOM      2  C   UNL     1      19.319  31.226  29.951  1.00  0.00    -0.009 C 
BRANCH   2   3
ATOM      3  C   UNL     1      19.051  31.112  31.478  1.00  0.00     0.000 C 
ATOM      4  C   UNL     1      18.996  29.662  31.968  1.00  0.00     0.004 C 
ENDBRANCH   2   3
BRANCH   2   5
ATOM      5  C   UNL     1      18.649  32.488  29.310  1.00  0.00    -0.014 C 
ATOM      6  C   UNL     1      17.122  32.330  29.196  1.00  0.00     0.007 C 
ATOM      7  C   UNL     1      18.995  33.811  30.018  1.00  0.00     0.007 C 
ENDBRANCH   2   5
ENDBRANCH   1   2
BRANCH   1   8
ATOM      8  C   UNL     1      21.726  31.496  30.877  1.00  0.00     0.004 C 
BRANCH   8   9
ATOM      9  C   UNL     1      23.001  30.620  31.030  1.00  0.00    -0.011 C 
ATOM     10  C   UNL     1      22.598  29.230  31.570  1.00  0.00     0.008 C 
BRANCH   9  11
ATOM     11  C   UNL     1      24.165  31.257  31.882  1.00  0.00    -0.002 C 
ATOM     12  C   UNL     1      24.720  30.261  32.918  1.00  0.00     0.005 C 
ATOM     13  C   UNL     1      25.427  31.825  31.138  1.00  0.00    -0.026 C 
ATOM     14  C   UNL     1      26.210  30.525  33.061  1.00  0.00     0.005 C 
ATOM     15  C   UNL     1      26.521  31.779  32.229  1.00  0.00    -0.001 C 
ATOM     16  C   UNL     1      25.869  30.903  29.974  1.00  0.00     0.007 C 
ATOM     17  C   UNL     1      25.196  33.288  30.669  1.00  0.00     0.012 C 
ATOM     18  C   UNL     1      28.015  31.924  31.742  1.00  0.00     0.004 C 
ATOM     19  C   UNL     1      27.159  31.342  29.274  1.00  0.00     0.005 C 
ATOM     20  C   UNL     1      28.273  31.953  30.183  1.00  0.00     0.003 C 
ATOM     21  C   UNL     1      29.017  31.027  32.500  1.00  0.00     0.085 C 
ATOM     22  C   UNL     1      29.765  31.607  29.714  1.00  0.00    -0.000 C 
ATOM     23  C   UNL     1      30.416  31.459  32.212  1.00  0.00     0.159 C 
ATOM     24  C   UNL     1      30.767  31.897  30.843  1.00  0.00     0.005 C 
ATOM     25  C   UNL     1      30.102  32.482  28.459  1.00  0.00     0.020 C 
ATOM     26  C   UNL     1      29.930  30.102  29.338  1.00  0.00     0.017 C 
ATOM     27  O   UNL     1      31.288  31.397  33.123  1.00  0.00    -0.295 OA
ATOM     28  C   UNL     1      31.996  32.395  30.602  1.00  0.00     0.055 C 
ATOM     29  C   UNL     1      31.584  32.430  28.062  1.00  0.00     0.081 C 
ATOM     30  C   UNL     1      32.445  32.734  29.244  1.00  0.00     0.156 C 
ATOM     31  O   UNL     1      33.590  33.231  29.075  1.00  0.00    -0.295 OA
ENDBRANCH   9  11
ENDBRANCH   8   9
ENDBRANCH   1   8
TORSDOF 6
ENDMDL
MODEL 7
REMARK VINA RESULT:    -6.084      3.384      9.131
REMARK INTER + INTRA:          -9.607
REMARK INTER:                  -8.229
REMARK INTRA:                  -1.378
REMARK UNBOUND:                -1.388
REMARK SMILES CC[C@H](CC[C@H](C)[C@H]1CC[C@H]2[C@H]3CC(=O)C4=CC(=O)CC[C@]4(C)[C@H]3CC[C@@]12C)C(C)C
REMARK SMILES IDX 4 1 3 2 2 3 1 4 29 5 30 6 31 7 5 8 6 9 7 10 8 11 9 12 27 13
REMARK SMILES IDX 10 14 11 15 26 16 28 17 12 18 25 19 24 20 13 21 22 22 14 23
REMARK SMILES IDX 16 24 21 25 23 26 15 27 17 28 20 29 18 30 19 31
REMARK H PARENT
REMARK Flexibility Score: inf
ROOT
ATOM      1  C   UNL     1      29.253  33.247  30.128  1.00  0.00     0.004 C 
ENDROOT
BRANCH   1   2
ATOM      2  C   UNL     1      30.809  33.234  30.158  1.00  0.00    -0.009 C 
BRANCH   2   3
ATOM      3  C   UNL     1      31.346  33.181  31.616  1.00  0.00     0.000 C 
ATOM      4  C   UNL     1      31.418  31.756  32.174  1.00  0.00     0.004 C 
ENDBRANCH   2   3
BRANCH   2   5
ATOM      5  C   UNL     1      31.382  32.087  29.258  1.00  0.00    -0.014 C 
ATOM      6  C   UNL     1      30.264  31.202  28.677  1.00  0.00     0.007 C 
ATOM      7  C   UNL     1      32.310  32.578  28.130  1.00  0.00     0.007 C 
ENDBRANCH   2   5
ENDBRANCH   1   2
BRANCH   1   8
ATOM      8  C   UNL     1      28.623  33.709  31.471  1.00  0.00     0.004 C 
BRANCH   8   9
ATOM      9  C   UNL     1      27.454  32.831  31.997  1.00  0.00    -0.011 C 
ATOM     10  C   UNL     1      27.979  31.905  33.116  1.00  0.00     0.008 C 
BRANCH   9  11
ATOM     11  C   UNL     1      26.666  32.019  30.898  1.00  0.00    -0.002 C 
ATOM     12  C   UNL     1      27.009  30.519  30.947  1.00  0.00     0.005 C 
ATOM     13  C   UNL     1      25.096  32.084  30.886  1.00  0.00    -0.026 C 
ATOM     14  C   UNL     1      25.754  29.745  30.574  1.00  0.00     0.005 C 
ATOM     15  C   UNL     1      24.702  30.783  30.153  1.00  0.00    -0.001 C 
ATOM     16  C   UNL     1      24.510  32.025  32.319  1.00  0.00     0.007 C 
ATOM     17  C   UNL     1      24.587  33.322  30.098  1.00  0.00     0.012 C 
ATOM     18  C   UNL     1      23.198  30.323  30.281  1.00  0.00     0.004 C 
ATOM     19  C   UNL     1      22.980  31.974  32.376  1.00  0.00     0.005 C 
ATOM     20  C   UNL     1      22.268  31.142  31.262  1.00  0.00     0.003 C 
ATOM     21  C   UNL     1      23.013  28.796  30.412  1.00  0.00     0.085 C 
ATOM     22  C   UNL     1      20.938  30.396  31.751  1.00  0.00    -0.000 C 
ATOM     23  C   UNL     1      21.582  28.431  30.199  1.00  0.00     0.159 C 
ATOM     24  C   UNL     1      20.524  29.312  30.742  1.00  0.00     0.005 C 
ATOM     25  C   UNL     1      19.798  31.463  31.890  1.00  0.00     0.020 C 
ATOM     26  C   UNL     1      21.131  29.684  33.125  1.00  0.00     0.017 C 
ATOM     27  O   UNL     1      21.295  27.353  29.606  1.00  0.00    -0.295 OA
ATOM     28  C   UNL     1      19.233  29.050  30.458  1.00  0.00     0.055 C 
ATOM     29  C   UNL     1      18.409  30.844  32.109  1.00  0.00     0.081 C 
ATOM     30  C   UNL     1      18.133  29.814  31.063  1.00  0.00     0.156 C 
ATOM     31  O   UNL     1      16.944  29.555  30.737  1.00  0.00    -0.295 OA
ENDBRANCH   9  11
ENDBRANCH   8   9
ENDBRANCH   1   8
TORSDOF 6
ENDMDL
MODEL 8
REMARK VINA RESULT:    -6.015      3.481      9.452
REMARK INTER + INTRA:          -9.514
REMARK INTER:                  -8.478
REMARK INTRA:                  -1.035
REMARK UNBOUND:                -1.388
REMARK SMILES CC[C@H](CC[C@H](C)[C@H]1CC[C@H]2[C@H]3CC(=O)C4=CC(=O)CC[C@]4(C)[C@H]3CC[C@@]12C)C(C)C
REMARK SMILES IDX 4 1 3 2 2 3 1 4 29 5 30 6 31 7 5 8 6 9 7 10 8 11 9 12 27 13
REMARK SMILES IDX 10 14 11 15 26 16 28 17 12 18 25 19 24 20 13 21 22 22 14 23
REMARK SMILES IDX 16 24 21 25 23 26 15 27 17 28 20 29 18 30 19 31
REMARK H PARENT
REMARK Flexibility Score: inf
ROOT
ATOM      1  C   UNL     1      30.491  30.675  30.475  1.00  0.00     0.004 C 
ENDROOT
BRANCH   1   2
ATOM      2  C   UNL     1      31.498  31.859  30.396  1.00  0.00    -0.009 C 
BRANCH   2   3
ATOM      3  C   UNL     1      31.135  32.836  29.243  1.00  0.00     0.000 C 
ATOM      4  C   UNL     1      32.079  32.721  28.043  1.00  0.00     0.004 C 
ENDBRANCH   2   3
BRANCH   2   5
ATOM      5  C   UNL     1      31.634  32.579  31.781  1.00  0.00    -0.014 C 
ATOM      6  C   UNL     1      32.523  31.785  32.755  1.00  0.00     0.007 C 
ATOM      7  C   UNL     1      32.121  34.037  31.686  1.00  0.00     0.007 C 
ENDBRANCH   2   5
ENDBRANCH   1   2
BRANCH   1   8
ATOM      8  C   UNL     1      29.272  30.976  31.391  1.00  0.00     0.004 C 
BRANCH   8   9
ATOM      9  C   UNL     1      27.880  30.864  30.709  1.00  0.00    -0.011 C 
ATOM     10  C   UNL     1      28.042  31.078  29.188  1.00  0.00     0.008 C 
BRANCH   9  11
ATOM     11  C   UNL     1      26.754  31.792  31.307  1.00  0.00    -0.002 C 
ATOM     12  C   UNL     1      26.495  33.017  30.411  1.00  0.00     0.005 C 
ATOM     13  C   UNL     1      25.335  31.178  31.589  1.00  0.00    -0.026 C 
ATOM     14  C   UNL     1      25.012  33.347  30.496  1.00  0.00     0.005 C 
ATOM     15  C   UNL     1      24.411  32.416  31.562  1.00  0.00    -0.001 C 
ATOM     16  C   UNL     1      24.890  30.220  30.456  1.00  0.00     0.007 C 
ATOM     17  C   UNL     1      25.281  30.496  32.984  1.00  0.00     0.012 C 
ATOM     18  C   UNL     1      22.863  32.144  31.437  1.00  0.00     0.004 C 
ATOM     19  C   UNL     1      23.469  29.671  30.613  1.00  0.00     0.005 C 
ATOM     20  C   UNL     1      22.403  30.650  31.201  1.00  0.00     0.003 C 
ATOM     21  C   UNL     1      22.113  33.151  30.537  1.00  0.00     0.085 C 
ATOM     22  C   UNL     1      20.932  30.457  30.597  1.00  0.00    -0.000 C 
ATOM     23  C   UNL     1      20.640  33.022  30.736  1.00  0.00     0.159 C 
ATOM     24  C   UNL     1      20.052  31.677  30.916  1.00  0.00     0.005 C 
ATOM     25  C   UNL     1      20.307  29.164  31.225  1.00  0.00     0.020 C 
ATOM     26  C   UNL     1      20.947  30.306  29.044  1.00  0.00     0.017 C 
ATOM     27  O   UNL     1      19.913  34.054  30.695  1.00  0.00    -0.295 OA
ATOM     28  C   UNL     1      18.742  31.560  31.208  1.00  0.00     0.055 C 
ATOM     29  C   UNL     1      18.811  29.003  30.921  1.00  0.00     0.081 C 
ATOM     30  C   UNL     1      18.074  30.252  31.281  1.00  0.00     0.156 C 
ATOM     31  O   UNL     1      16.855  30.194  31.593  1.00  0.00    -0.295 OA
ENDBRANCH   9  11
ENDBRANCH   8   9
ENDBRANCH   1   8
TORSDOF 6
ENDMDL
MODEL 9
REMARK VINA RESULT:    -5.925      1.381      2.426
REMARK INTER + INTRA:          -9.392
REMARK INTER:                  -8.524
REMARK INTRA:                  -0.868
REMARK UNBOUND:                -1.388
REMARK SMILES CC[C@H](CC[C@H](C)[C@H]1CC[C@H]2[C@H]3CC(=O)C4=CC(=O)CC[C@]4(C)[C@H]3CC[C@@]12C)C(C)C
REMARK SMILES IDX 4 1 3 2 2 3 1 4 29 5 30 6 31 7 5 8 6 9 7 10 8 11 9 12 27 13
REMARK SMILES IDX 10 14 11 15 26 16 28 17 12 18 25 19 24 20 13 21 22 22 14 23
REMARK SMILES IDX 16 24 21 25 23 26 15 27 17 28 20 29 18 30 19 31
REMARK H PARENT
REMARK Flexibility Score: inf
ROOT
ATOM      1  C   UNL     1      19.112  30.538  29.337  1.00  0.00     0.004 C 
ENDROOT
BRANCH   1   2
ATOM      2  C   UNL     1      17.996  31.178  30.213  1.00  0.00    -0.009 C 
BRANCH   2   3
ATOM      3  C   UNL     1      16.779  31.614  29.351  1.00  0.00     0.000 C 
ATOM      4  C   UNL     1      15.611  30.626  29.424  1.00  0.00     0.004 C 
ENDBRANCH   2   3
BRANCH   2   5
ATOM      5  C   UNL     1      17.594  30.232  31.396  1.00  0.00    -0.014 C 
ATOM      6  C   UNL     1      18.229  28.837  31.254  1.00  0.00     0.007 C 
ATOM      7  C   UNL     1      17.891  30.810  32.792  1.00  0.00     0.007 C 
ENDBRANCH   2   5
ENDBRANCH   1   2
BRANCH   1   8
ATOM      8  C   UNL     1      20.503  31.196  29.550  1.00  0.00     0.004 C 
BRANCH   8   9
ATOM      9  C   UNL     1      20.568  32.271  30.671  1.00  0.00    -0.011 C 
ATOM     10  C   UNL     1      20.703  33.668  30.026  1.00  0.00     0.008 C 
BRANCH   9  11
ATOM     11  C   UNL     1      21.669  32.035  31.775  1.00  0.00    -0.002 C 
ATOM     12  C   UNL     1      21.910  30.535  32.024  1.00  0.00     0.005 C 
ATOM     13  C   UNL     1      23.099  32.653  31.564  1.00  0.00    -0.026 C 
ATOM     14  C   UNL     1      23.384  30.350  32.348  1.00  0.00     0.005 C 
ATOM     15  C   UNL     1      23.997  31.756  32.445  1.00  0.00    -0.001 C 
ATOM     16  C   UNL     1      23.573  32.514  30.096  1.00  0.00     0.007 C 
ATOM     17  C   UNL     1      23.158  34.125  32.059  1.00  0.00     0.012 C 
ATOM     18  C   UNL     1      25.552  31.843  32.195  1.00  0.00     0.004 C 
ATOM     19  C   UNL     1      25.004  32.998  29.844  1.00  0.00     0.005 C 
ATOM     20  C   UNL     1      26.045  32.719  30.975  1.00  0.00     0.003 C 
ATOM     21  C   UNL     1      26.286  30.488  32.297  1.00  0.00     0.085 C 
ATOM     22  C   UNL     1      27.524  32.410  30.444  1.00  0.00    -0.000 C 
ATOM     23  C   UNL     1      27.760  30.706  32.374  1.00  0.00     0.159 C 
ATOM     24  C   UNL     1      28.375  31.773  31.555  1.00  0.00     0.005 C 
ATOM     25  C   UNL     1      28.171  33.758  29.977  1.00  0.00     0.020 C 
ATOM     26  C   UNL     1      27.523  31.410  29.246  1.00  0.00     0.017 C 
ATOM     27  O   UNL     1      28.466  29.946  33.095  1.00  0.00    -0.295 OA
ATOM     28  C   UNL     1      29.686  32.050  31.703  1.00  0.00     0.055 C 
ATOM     29  C   UNL     1      29.673  33.641  29.679  1.00  0.00     0.081 C 
ATOM     30  C   UNL     1      30.380  33.013  30.837  1.00  0.00     0.156 C 
ATOM     31  O   UNL     1      31.598  33.265  31.038  1.00  0.00    -0.295 OA
ENDBRANCH   9  11
ENDBRANCH   8   9
ENDBRANCH   1   8
TORSDOF 6
ENDMDL
