MODEL 1
REMARK VINA RESULT:    -4.904      0.000      0.000
REMARK INTER + INTRA:          -9.309
REMARK INTER:                  -7.484
REMARK INTRA:                  -1.826
REMARK UNBOUND:                -1.826
REMARK SMILES OC[C@@H]1O[C@H](O[C@]2(CO)O[C@H](CO)[C@H](O)[C@H]2O)[C@@H](O)[C@H](O)[C@@H]1O
REMARK SMILES IDX 6 1 5 2 3 3 22 4 4 5 20 6 18 7 2 8 1 9 23 11 21 13 19 15
REMARK SMILES IDX 7 17 16 18 10 19 14 20 11 21 8 22 9 23 17 25 15 27 12 29
REMARK SMILES IDX 13 30
REMARK H PARENT 1 10 23 12 21 14 19 16 9 24 17 26 15 28 13 31
REMARK Flexibility Score: inf
ROOT
ATOM      1  O   UNL     1     117.948 139.469 115.838  1.00  0.00    -0.313 OA
ENDROOT
BRANCH   1   2
ATOM      2  C   UNL     1     117.007 140.057 116.731  1.00  0.00     0.285 C 
ATOM      3  C   UNL     1     118.587 140.609 118.449  1.00  0.00     0.178 C 
ATOM      4  C   UNL     1     118.475 142.124 118.130  1.00  0.00     0.177 C 
ATOM      5  O   UNL     1     117.421 139.877 118.082  1.00  0.00    -0.341 OA
ATOM      6  C   UNL     1     118.025 142.382 116.685  1.00  0.00     0.179 C 
ATOM      7  C   UNL     1     116.781 141.543 116.377  1.00  0.00     0.202 C 
BRANCH   3   8
ATOM      8  C   UNL     1     119.883 139.925 117.961  1.00  0.00     0.191 C 
BRANCH   8   9
ATOM      9  O   UNL     1     119.748 138.527 118.006  1.00  0.00    -0.394 OA
ATOM     10  H   UNL     1     120.082 138.224 118.890  1.00  0.00     0.210 HD
ENDBRANCH   8   9
ENDBRANCH   3   8
BRANCH   4  11
ATOM     11  O   UNL     1     119.681 142.797 118.383  1.00  0.00    -0.387 OA
ATOM     12  H   UNL     1     119.548 143.740 118.100  1.00  0.00     0.211 HD
ENDBRANCH   4  11
BRANCH   6  13
ATOM     13  O   UNL     1     119.044 142.077 115.768  1.00  0.00    -0.387 OA
ATOM     14  H   UNL     1     119.623 142.881 115.698  1.00  0.00     0.211 HD
ENDBRANCH   6  13
BRANCH   7  15
ATOM     15  O   UNL     1     115.691 142.047 117.107  1.00  0.00    -0.385 OA
ATOM     16  H   UNL     1     115.918 142.979 117.364  1.00  0.00     0.211 HD
ENDBRANCH   7  15
ENDBRANCH   1   2
BRANCH   1  17
ATOM     17  C   UNL     1     117.416 138.446 114.996  1.00  0.00     0.224 C 
ATOM     18  C   UNL     1     118.477 137.306 114.939  1.00  0.00     0.208 C 
ATOM     19  O   UNL     1     116.229 137.907 115.564  1.00  0.00    -0.337 OA
ATOM     20  C   UNL     1     117.818 136.155 115.681  1.00  0.00     0.180 C 
ATOM     21  C   UNL     1     116.338 136.505 115.554  1.00  0.00     0.179 C 
BRANCH  17  22
ATOM     22  C   UNL     1     117.089 139.030 113.597  1.00  0.00     0.225 C 
BRANCH  22  23
ATOM     23  O   UNL     1     118.207 139.695 113.074  1.00  0.00    -0.391 OA
ATOM     24  H   UNL     1     118.212 139.502 112.101  1.00  0.00     0.210 HD
ENDBRANCH  22  23
ENDBRANCH  17  22
BRANCH  18  25
ATOM     25  O   UNL     1     118.842 136.934 113.627  1.00  0.00    -0.385 OA
ATOM     26  H   UNL     1     119.827 136.831 113.586  1.00  0.00     0.211 HD
ENDBRANCH  18  25
BRANCH  20  27
ATOM     27  O   UNL     1     118.252 136.101 117.021  1.00  0.00    -0.387 OA
ATOM     28  H   UNL     1     117.483 135.820 117.581  1.00  0.00     0.211 HD
ENDBRANCH  20  27
BRANCH  21  29
ATOM     29  C   UNL     1     115.447 135.897 116.648  1.00  0.00     0.191 C 
BRANCH  29  30
ATOM     30  O   UNL     1     115.404 136.734 117.772  1.00  0.00    -0.394 OA
ATOM     31  H   UNL     1     115.138 137.634 117.450  1.00  0.00     0.210 HD
ENDBRANCH  29  30
ENDBRANCH  21  29
ENDBRANCH   1  17
TORSDOF 13
ENDMDL
MODEL 2
REMARK VINA RESULT:    -4.768      1.713      5.384
REMARK INTER + INTRA:          -9.103
REMARK INTER:                  -7.534
REMARK INTRA:                  -1.568
REMARK UNBOUND:                -1.826
REMARK SMILES OC[C@@H]1O[C@H](O[C@]2(CO)O[C@H](CO)[C@H](O)[C@H]2O)[C@@H](O)[C@H](O)[C@@H]1O
REMARK SMILES IDX 6 1 5 2 3 3 22 4 4 5 20 6 18 7 2 8 1 9 23 11 21 13 19 15
REMARK SMILES IDX 7 17 16 18 10 19 14 20 11 21 8 22 9 23 17 25 15 27 12 29
REMARK SMILES IDX 13 30
REMARK H PARENT 1 10 23 12 21 14 19 16 9 24 17 26 15 28 13 31
REMARK Flexibility Score: inf
ROOT
ATOM      1  O   UNL     1     117.946 139.973 116.825  1.00  0.00    -0.313 OA
ENDROOT
BRANCH   1   2
ATOM      2  C   UNL     1     117.056 138.861 116.861  1.00  0.00     0.285 C 
ATOM      3  C   UNL     1     116.597 138.817 114.507  1.00  0.00     0.178 C 
ATOM      4  C   UNL     1     117.420 137.513 114.324  1.00  0.00     0.177 C 
ATOM      5  O   UNL     1     116.082 138.967 115.828  1.00  0.00    -0.341 OA
ATOM      6  C   UNL     1     118.485 137.339 115.416  1.00  0.00     0.179 C 
ATOM      7  C   UNL     1     117.844 137.534 116.794  1.00  0.00     0.202 C 
BRANCH   3   8
ATOM      8  C   UNL     1     117.280 140.105 113.997  1.00  0.00     0.191 C 
BRANCH   8   9
ATOM      9  O   UNL     1     117.233 140.164 112.594  1.00  0.00    -0.394 OA
ATOM     10  H   UNL     1     117.935 139.555 112.247  1.00  0.00     0.210 HD
ENDBRANCH   8   9
ENDBRANCH   3   8
BRANCH   4  11
ATOM     11  O   UNL     1     118.020 137.453 113.056  1.00  0.00    -0.387 OA
ATOM     12  H   UNL     1     117.529 138.093 112.476  1.00  0.00     0.211 HD
ENDBRANCH   4  11
BRANCH   6  13
ATOM     13  O   UNL     1     119.543 138.247 115.250  1.00  0.00    -0.387 OA
ATOM     14  H   UNL     1     119.296 138.847 114.498  1.00  0.00     0.211 HD
ENDBRANCH   6  13
BRANCH   7  15
ATOM     15  O   UNL     1     116.985 136.455 117.062  1.00  0.00    -0.385 OA
ATOM     16  H   UNL     1     116.108 136.673 116.651  1.00  0.00     0.211 HD
ENDBRANCH   7  15
ENDBRANCH   1   2
BRANCH   1  17
ATOM     17  C   UNL     1     118.363 140.448 118.106  1.00  0.00     0.224 C 
ATOM     18  C   UNL     1     118.081 141.980 118.136  1.00  0.00     0.208 C 
ATOM     19  O   UNL     1     117.587 139.843 119.132  1.00  0.00    -0.337 OA
ATOM     20  C   UNL     1     116.960 142.127 119.152  1.00  0.00     0.180 C 
ATOM     21  C   UNL     1     117.125 140.860 119.987  1.00  0.00     0.179 C 
BRANCH  17  22
ATOM     22  C   UNL     1     119.859 140.109 118.333  1.00  0.00     0.225 C 
BRANCH  22  23
ATOM     23  O   UNL     1     120.608 140.421 117.190  1.00  0.00    -0.391 OA
ATOM     24  H   UNL     1     120.041 140.174 116.413  1.00  0.00     0.210 HD
ENDBRANCH  22  23
ENDBRANCH  17  22
BRANCH  18  25
ATOM     25  O   UNL     1     119.205 142.758 118.490  1.00  0.00    -0.385 OA
ATOM     26  H   UNL     1     119.422 143.367 117.738  1.00  0.00     0.211 HD
ENDBRANCH  18  25
BRANCH  20  27
ATOM     27  O   UNL     1     115.705 142.199 118.515  1.00  0.00    -0.387 OA
ATOM     28  H   UNL     1     115.242 141.333 118.652  1.00  0.00     0.211 HD
ENDBRANCH  20  27
BRANCH  21  29
ATOM     29  C   UNL     1     115.848 140.405 120.708  1.00  0.00     0.191 C 
BRANCH  29  30
ATOM     30  O   UNL     1     115.262 141.477 121.398  1.00  0.00    -0.394 OA
ATOM     31  H   UNL     1     114.335 141.566 121.057  1.00  0.00     0.210 HD
ENDBRANCH  29  30
ENDBRANCH  21  29
ENDBRANCH   1  17
TORSDOF 13
ENDMDL
MODEL 3
REMARK VINA RESULT:    -4.767      8.865     11.667
REMARK INTER + INTRA:          -9.100
REMARK INTER:                  -7.061
REMARK INTRA:                  -2.040
REMARK UNBOUND:                -1.826
REMARK SMILES OC[C@@H]1O[C@H](O[C@]2(CO)O[C@H](CO)[C@H](O)[C@H]2O)[C@@H](O)[C@H](O)[C@@H]1O
REMARK SMILES IDX 6 1 5 2 3 3 22 4 4 5 20 6 18 7 2 8 1 9 23 11 21 13 19 15
REMARK SMILES IDX 7 17 16 18 10 19 14 20 11 21 8 22 9 23 17 25 15 27 12 29
REMARK SMILES IDX 13 30
REMARK H PARENT 1 10 23 12 21 14 19 16 9 24 17 26 15 28 13 31
REMARK Flexibility Score: inf
ROOT
ATOM      1  O   UNL     1     111.562 145.742 121.967  1.00  0.00    -0.313 OA
ENDROOT
BRANCH   1   2
ATOM      2  C   UNL     1     110.476 146.325 121.253  1.00  0.00     0.285 C 
ATOM      3  C   UNL     1     111.343 145.891 119.058  1.00  0.00     0.178 C 
ATOM      4  C   UNL     1     110.272 144.797 118.800  1.00  0.00     0.177 C 
ATOM      5  O   UNL     1     110.924 146.863 120.013  1.00  0.00    -0.341 OA
ATOM      6  C   UNL     1     109.743 144.182 120.104  1.00  0.00     0.179 C 
ATOM      7  C   UNL     1     109.336 145.298 121.070  1.00  0.00     0.202 C 
BRANCH   3   8
ATOM      8  C   UNL     1     112.767 145.367 119.346  1.00  0.00     0.191 C 
BRANCH   8   9
ATOM      9  O   UNL     1     113.577 146.397 119.851  1.00  0.00    -0.394 OA
ATOM     10  H   UNL     1     114.389 145.975 120.236  1.00  0.00     0.210 HD
ENDBRANCH   8   9
ENDBRANCH   3   8
BRANCH   4  11
ATOM     11  O   UNL     1     110.757 143.786 117.956  1.00  0.00    -0.387 OA
ATOM     12  H   UNL     1     110.076 143.063 117.954  1.00  0.00     0.211 HD
ENDBRANCH   4  11
BRANCH   6  13
ATOM     13  O   UNL     1     110.706 143.357 120.709  1.00  0.00    -0.387 OA
ATOM     14  H   UNL     1     110.448 142.418 120.511  1.00  0.00     0.211 HD
ENDBRANCH   6  13
BRANCH   7  15
ATOM     15  O   UNL     1     108.188 145.942 120.577  1.00  0.00    -0.385 OA
ATOM     16  H   UNL     1     107.775 146.425 121.340  1.00  0.00     0.211 HD
ENDBRANCH   7  15
ENDBRANCH   1   2
BRANCH   1  17
ATOM     17  C   UNL     1     112.040 146.518 123.066  1.00  0.00     0.224 C 
ATOM     18  C   UNL     1     113.226 145.729 123.698  1.00  0.00     0.208 C 
ATOM     19  O   UNL     1     112.545 147.766 122.606  1.00  0.00    -0.337 OA
ATOM     20  C   UNL     1     114.443 146.584 123.387  1.00  0.00     0.180 C 
ATOM     21  C   UNL     1     113.816 147.959 123.177  1.00  0.00     0.179 C 
BRANCH  17  22
ATOM     22  C   UNL     1     110.888 146.775 124.071  1.00  0.00     0.225 C 
BRANCH  22  23
ATOM     23  O   UNL     1     110.430 145.563 124.607  1.00  0.00    -0.391 OA
ATOM     24  H   UNL     1     109.553 145.762 125.027  1.00  0.00     0.210 HD
ENDBRANCH  22  23
ENDBRANCH  17  22
BRANCH  18  25
ATOM     25  O   UNL     1     113.088 145.511 125.086  1.00  0.00    -0.385 OA
ATOM     26  H   UNL     1     112.377 146.108 125.434  1.00  0.00     0.211 HD
ENDBRANCH  18  25
BRANCH  20  27
ATOM     27  O   UNL     1     115.115 146.112 122.242  1.00  0.00    -0.387 OA
ATOM     28  H   UNL     1     116.085 146.087 122.444  1.00  0.00     0.211 HD
ENDBRANCH  20  27
BRANCH  21  29
ATOM     29  C   UNL     1     114.648 148.909 122.304  1.00  0.00     0.191 C 
BRANCH  29  30
ATOM     30  O   UNL     1     114.299 148.772 120.952  1.00  0.00    -0.394 OA
ATOM     31  H   UNL     1     114.153 149.688 120.599  1.00  0.00     0.210 HD
ENDBRANCH  29  30
ENDBRANCH  21  29
ENDBRANCH   1  17
TORSDOF 13
ENDMDL
MODEL 4
REMARK VINA RESULT:    -4.671      7.484     10.862
REMARK INTER + INTRA:          -8.954
REMARK INTER:                  -7.068
REMARK INTRA:                  -1.886
REMARK UNBOUND:                -1.826
REMARK SMILES OC[C@@H]1O[C@H](O[C@]2(CO)O[C@H](CO)[C@H](O)[C@H]2O)[C@@H](O)[C@H](O)[C@@H]1O
REMARK SMILES IDX 6 1 5 2 3 3 22 4 4 5 20 6 18 7 2 8 1 9 23 11 21 13 19 15
REMARK SMILES IDX 7 17 16 18 10 19 14 20 11 21 8 22 9 23 17 25 15 27 12 29
REMARK SMILES IDX 13 30
REMARK H PARENT 1 10 23 12 21 14 19 16 9 24 17 26 15 28 13 31
REMARK Flexibility Score: inf
ROOT
ATOM      1  O   UNL     1     112.926 144.504 122.784  1.00  0.00    -0.313 OA
ENDROOT
BRANCH   1   2
ATOM      2  C   UNL     1     111.997 143.878 121.903  1.00  0.00     0.285 C 
ATOM      3  C   UNL     1     113.606 143.226 120.247  1.00  0.00     0.178 C 
ATOM      4  C   UNL     1     113.475 141.730 120.641  1.00  0.00     0.177 C 
ATOM      5  O   UNL     1     112.439 143.985 120.554  1.00  0.00    -0.341 OA
ATOM      6  C   UNL     1     112.994 141.550 122.088  1.00  0.00     0.179 C 
ATOM      7  C   UNL     1     111.752 142.413 122.328  1.00  0.00     0.202 C 
BRANCH   3   8
ATOM      8  C   UNL     1     114.898 143.924 120.725  1.00  0.00     0.191 C 
BRANCH   8   9
ATOM      9  O   UNL     1     114.758 145.320 120.650  1.00  0.00    -0.394 OA
ATOM     10  H   UNL     1     115.544 145.671 120.155  1.00  0.00     0.210 HD
ENDBRANCH   8   9
ENDBRANCH   3   8
BRANCH   4  11
ATOM     11  O   UNL     1     114.679 141.036 120.447  1.00  0.00    -0.387 OA
ATOM     12  H   UNL     1     114.722 140.334 121.149  1.00  0.00     0.211 HD
ENDBRANCH   4  11
BRANCH   6  13
ATOM     13  O   UNL     1     113.998 141.894 123.008  1.00  0.00    -0.387 OA
ATOM     14  H   UNL     1     113.745 142.771 123.400  1.00  0.00     0.211 HD
ENDBRANCH   6  13
BRANCH   7  15
ATOM     15  O   UNL     1     110.672 141.880 121.604  1.00  0.00    -0.385 OA
ATOM     16  H   UNL     1     110.357 142.592 120.986  1.00  0.00     0.211 HD
ENDBRANCH   7  15
ENDBRANCH   1   2
BRANCH   1  17
ATOM     17  C   UNL     1     112.510 145.772 123.290  1.00  0.00     0.224 C 
ATOM     18  C   UNL     1     113.684 146.326 124.150  1.00  0.00     0.208 C 
ATOM     19  O   UNL     1     112.288 146.681 122.219  1.00  0.00    -0.337 OA
ATOM     20  C   UNL     1     114.188 147.520 123.356  1.00  0.00     0.180 C 
ATOM     21  C   UNL     1     112.966 147.877 122.515  1.00  0.00     0.179 C 
BRANCH  17  22
ATOM     22  C   UNL     1     111.197 145.612 124.100  1.00  0.00     0.225 C 
BRANCH  22  23
ATOM     23  O   UNL     1     110.695 146.869 124.466  1.00  0.00    -0.391 OA
ATOM     24  H   UNL     1     110.005 146.698 125.159  1.00  0.00     0.210 HD
ENDBRANCH  22  23
ENDBRANCH  17  22
BRANCH  18  25
ATOM     25  O   UNL     1     113.305 146.698 125.458  1.00  0.00    -0.385 OA
ATOM     26  H   UNL     1     112.966 147.630 125.441  1.00  0.00     0.211 HD
ENDBRANCH  18  25
BRANCH  20  27
ATOM     27  O   UNL     1     115.306 147.172 122.572  1.00  0.00    -0.387 OA
ATOM     28  H   UNL     1     115.443 146.193 122.651  1.00  0.00     0.211 HD
ENDBRANCH  20  27
BRANCH  21  29
ATOM     29  C   UNL     1     113.288 148.638 121.221  1.00  0.00     0.191 C 
BRANCH  29  30
ATOM     30  O   UNL     1     113.649 147.745 120.200  1.00  0.00    -0.394 OA
ATOM     31  H   UNL     1     114.632 147.823 120.086  1.00  0.00     0.210 HD
ENDBRANCH  29  30
ENDBRANCH  21  29
ENDBRANCH   1  17
TORSDOF 13
ENDMDL
MODEL 5
REMARK VINA RESULT:    -4.647      7.533     10.019
REMARK INTER + INTRA:          -8.918
REMARK INTER:                  -7.428
REMARK INTRA:                  -1.490
REMARK UNBOUND:                -1.826
REMARK SMILES OC[C@@H]1O[C@H](O[C@]2(CO)O[C@H](CO)[C@H](O)[C@H]2O)[C@@H](O)[C@H](O)[C@@H]1O
REMARK SMILES IDX 6 1 5 2 3 3 22 4 4 5 20 6 18 7 2 8 1 9 23 11 21 13 19 15
REMARK SMILES IDX 7 17 16 18 10 19 14 20 11 21 8 22 9 23 17 25 15 27 12 29
REMARK SMILES IDX 13 30
REMARK H PARENT 1 10 23 12 21 14 19 16 9 24 17 26 15 28 13 31
REMARK Flexibility Score: inf
ROOT
ATOM      1  O   UNL     1     111.655 144.082 121.545  1.00  0.00    -0.313 OA
ENDROOT
BRANCH   1   2
ATOM      2  C   UNL     1     112.037 143.107 122.511  1.00  0.00     0.285 C 
ATOM      3  C   UNL     1     111.641 144.478 124.439  1.00  0.00     0.178 C 
ATOM      4  C   UNL     1     110.390 143.647 124.831  1.00  0.00     0.177 C 
ATOM      5  O   UNL     1     112.581 143.735 123.667  1.00  0.00    -0.341 OA
ATOM      6  C   UNL     1     109.761 142.938 123.623  1.00  0.00     0.179 C 
ATOM      7  C   UNL     1     110.845 142.184 122.849  1.00  0.00     0.202 C 
BRANCH   3   8
ATOM      8  C   UNL     1     111.348 145.864 123.824  1.00  0.00     0.191 C 
BRANCH   8   9
ATOM      9  O   UNL     1     110.725 146.699 124.767  1.00  0.00    -0.394 OA
ATOM     10  H   UNL     1     109.948 147.125 124.320  1.00  0.00     0.210 HD
ENDBRANCH   8   9
ENDBRANCH   3   8
BRANCH   4  11
ATOM     11  O   UNL     1     109.426 144.436 125.478  1.00  0.00    -0.387 OA
ATOM     12  H   UNL     1     109.745 144.572 126.410  1.00  0.00     0.211 HD
ENDBRANCH   4  11
BRANCH   6  13
ATOM     13  O   UNL     1     109.115 143.850 122.772  1.00  0.00    -0.387 OA
ATOM     14  H   UNL     1     108.902 143.364 121.933  1.00  0.00     0.211 HD
ENDBRANCH   6  13
BRANCH   7  15
ATOM     15  O   UNL     1     111.289 141.093 123.616  1.00  0.00    -0.385 OA
ATOM     16  H   UNL     1     110.602 140.381 123.532  1.00  0.00     0.211 HD
ENDBRANCH   7  15
ENDBRANCH   1   2
BRANCH   1  17
ATOM     17  C   UNL     1     112.537 144.196 120.429  1.00  0.00     0.224 C 
ATOM     18  C   UNL     1     113.542 145.341 120.758  1.00  0.00     0.208 C 
ATOM     19  O   UNL     1     113.283 142.997 120.265  1.00  0.00    -0.337 OA
ATOM     20  C   UNL     1     114.872 144.625 120.926  1.00  0.00     0.180 C 
ATOM     21  C   UNL     1     114.641 143.342 120.132  1.00  0.00     0.179 C 
BRANCH  17  22
ATOM     22  C   UNL     1     111.722 144.467 119.138  1.00  0.00     0.225 C 
BRANCH  22  23
ATOM     23  O   UNL     1     112.551 144.374 118.011  1.00  0.00    -0.391 OA
ATOM     24  H   UNL     1     113.462 144.617 118.318  1.00  0.00     0.210 HD
ENDBRANCH  22  23
ENDBRANCH  17  22
BRANCH  18  25
ATOM     25  O   UNL     1     113.614 146.338 119.761  1.00  0.00    -0.385 OA
ATOM     26  H   UNL     1     114.272 147.025 120.042  1.00  0.00     0.211 HD
ENDBRANCH  18  25
BRANCH  20  27
ATOM     27  O   UNL     1     115.147 144.381 122.286  1.00  0.00    -0.387 OA
ATOM     28  H   UNL     1     114.737 145.111 122.818  1.00  0.00     0.211 HD
ENDBRANCH  20  27
BRANCH  21  29
ATOM     29  C   UNL     1     115.530 142.165 120.558  1.00  0.00     0.191 C 
BRANCH  29  30
ATOM     30  O   UNL     1     115.012 141.542 121.703  1.00  0.00    -0.394 OA
ATOM     31  H   UNL     1     115.084 142.199 122.444  1.00  0.00     0.210 HD
ENDBRANCH  29  30
ENDBRANCH  21  29
ENDBRANCH   1  17
TORSDOF 13
ENDMDL
MODEL 6
REMARK VINA RESULT:    -4.625      7.665     11.069
REMARK INTER + INTRA:          -8.884
REMARK INTER:                  -7.170
REMARK INTRA:                  -1.714
REMARK UNBOUND:                -1.826
REMARK SMILES OC[C@@H]1O[C@H](O[C@]2(CO)O[C@H](CO)[C@H](O)[C@H]2O)[C@@H](O)[C@H](O)[C@@H]1O
REMARK SMILES IDX 6 1 5 2 3 3 22 4 4 5 20 6 18 7 2 8 1 9 23 11 21 13 19 15
REMARK SMILES IDX 7 17 16 18 10 19 14 20 11 21 8 22 9 23 17 25 15 27 12 29
REMARK SMILES IDX 13 30
REMARK H PARENT 1 10 23 12 21 14 19 16 9 24 17 26 15 28 13 31
REMARK Flexibility Score: inf
ROOT
ATOM      1  O   UNL     1     111.409 145.631 121.508  1.00  0.00    -0.313 OA
ENDROOT
BRANCH   1   2
ATOM      2  C   UNL     1     111.596 146.631 120.511  1.00  0.00     0.285 C 
ATOM      3  C   UNL     1     112.893 145.274 119.018  1.00  0.00     0.178 C 
ATOM      4  C   UNL     1     111.722 145.190 118.002  1.00  0.00     0.177 C 
ATOM      5  O   UNL     1     112.835 146.439 119.836  1.00  0.00    -0.341 OA
ATOM      6  C   UNL     1     110.356 145.397 118.672  1.00  0.00     0.179 C 
ATOM      7  C   UNL     1     110.395 146.658 119.540  1.00  0.00     0.202 C 
BRANCH   3   8
ATOM      8  C   UNL     1     113.144 143.993 119.843  1.00  0.00     0.191 C 
BRANCH   8   9
ATOM      9  O   UNL     1     113.947 143.093 119.123  1.00  0.00    -0.394 OA
ATOM     10  H   UNL     1     114.649 143.623 118.664  1.00  0.00     0.210 HD
ENDBRANCH   8   9
ENDBRANCH   3   8
BRANCH   4  11
ATOM     11  O   UNL     1     111.731 143.975 117.299  1.00  0.00    -0.387 OA
ATOM     12  H   UNL     1     110.786 143.679 117.225  1.00  0.00     0.211 HD
ENDBRANCH   4  11
BRANCH   6  13
ATOM     13  O   UNL     1     109.996 144.289 119.456  1.00  0.00    -0.387 OA
ATOM     14  H   UNL     1     109.939 144.605 120.396  1.00  0.00     0.211 HD
ENDBRANCH   6  13
BRANCH   7  15
ATOM     15  O   UNL     1     110.477 147.789 118.710  1.00  0.00    -0.385 OA
ATOM     16  H   UNL     1     110.589 148.577 119.304  1.00  0.00     0.211 HD
ENDBRANCH   7  15
ENDBRANCH   1   2
BRANCH   1  17
ATOM     17  C   UNL     1     111.854 145.997 122.814  1.00  0.00     0.224 C 
ATOM     18  C   UNL     1     113.019 145.032 123.186  1.00  0.00     0.208 C 
ATOM     19  O   UNL     1     112.373 147.321 122.805  1.00  0.00    -0.337 OA
ATOM     20  C   UNL     1     114.246 145.929 123.208  1.00  0.00     0.180 C 
ATOM     21  C   UNL     1     113.626 147.303 123.444  1.00  0.00     0.179 C 
BRANCH  17  22
ATOM     22  C   UNL     1     110.672 145.923 123.814  1.00  0.00     0.225 C 
BRANCH  22  23
ATOM     23  O   UNL     1     110.979 146.632 124.984  1.00  0.00    -0.391 OA
ATOM     24  H   UNL     1     110.292 147.345 125.062  1.00  0.00     0.210 HD
ENDBRANCH  22  23
ENDBRANCH  17  22
BRANCH  18  25
ATOM     25  O   UNL     1     112.839 144.372 124.420  1.00  0.00    -0.385 OA
ATOM     26  H   UNL     1     113.306 144.885 125.129  1.00  0.00     0.211 HD
ENDBRANCH  18  25
BRANCH  20  27
ATOM     27  O   UNL     1     114.952 145.852 121.991  1.00  0.00    -0.387 OA
ATOM     28  H   UNL     1     114.296 145.929 121.250  1.00  0.00     0.211 HD
ENDBRANCH  20  27
BRANCH  21  29
ATOM     29  C   UNL     1     114.486 148.478 122.955  1.00  0.00     0.191 C 
BRANCH  29  30
ATOM     30  O   UNL     1     114.395 148.611 121.562  1.00  0.00    -0.394 OA
ATOM     31  H   UNL     1     113.431 148.696 121.343  1.00  0.00     0.210 HD
ENDBRANCH  29  30
ENDBRANCH  21  29
ENDBRANCH   1  17
TORSDOF 13
ENDMDL
MODEL 7
REMARK VINA RESULT:    -4.606      7.746     10.529
REMARK INTER + INTRA:          -8.855
REMARK INTER:                  -7.274
REMARK INTRA:                  -1.581
REMARK UNBOUND:                -1.826
REMARK SMILES OC[C@@H]1O[C@H](O[C@]2(CO)O[C@H](CO)[C@H](O)[C@H]2O)[C@@H](O)[C@H](O)[C@@H]1O
REMARK SMILES IDX 6 1 5 2 3 3 22 4 4 5 20 6 18 7 2 8 1 9 23 11 21 13 19 15
REMARK SMILES IDX 7 17 16 18 10 19 14 20 11 21 8 22 9 23 17 25 15 27 12 29
REMARK SMILES IDX 13 30
REMARK H PARENT 1 10 23 12 21 14 19 16 9 24 17 26 15 28 13 31
REMARK Flexibility Score: inf
ROOT
ATOM      1  O   UNL     1     111.002 144.017 121.212  1.00  0.00    -0.313 OA
ENDROOT
BRANCH   1   2
ATOM      2  C   UNL     1     111.185 145.342 120.722  1.00  0.00     0.285 C 
ATOM      3  C   UNL     1     112.976 144.819 119.214  1.00  0.00     0.178 C 
ATOM      4  C   UNL     1     112.058 145.026 117.979  1.00  0.00     0.177 C 
ATOM      5  O   UNL     1     112.544 145.556 120.355  1.00  0.00    -0.341 OA
ATOM      6  C   UNL     1     110.575 144.815 118.315  1.00  0.00     0.179 C 
ATOM      7  C   UNL     1     110.209 145.629 119.560  1.00  0.00     0.202 C 
BRANCH   3   8
ATOM      8  C   UNL     1     113.299 143.349 119.558  1.00  0.00     0.191 C 
BRANCH   8   9
ATOM      9  O   UNL     1     113.989 143.270 120.779  1.00  0.00    -0.394 OA
ATOM     10  H   UNL     1     114.528 142.437 120.763  1.00  0.00     0.210 HD
ENDBRANCH   8   9
ENDBRANCH   3   8
BRANCH   4  11
ATOM     11  O   UNL     1     112.430 144.193 116.912  1.00  0.00    -0.387 OA
ATOM     12  H   UNL     1     113.093 144.699 116.371  1.00  0.00     0.211 HD
ENDBRANCH   4  11
BRANCH   6  13
ATOM     13  O   UNL     1     110.286 143.458 118.532  1.00  0.00    -0.387 OA
ATOM     14  H   UNL     1     111.152 142.972 118.528  1.00  0.00     0.211 HD
ENDBRANCH   6  13
BRANCH   7  15
ATOM     15  O   UNL     1     110.235 146.998 119.242  1.00  0.00    -0.385 OA
ATOM     16  H   UNL     1     110.427 147.488 120.084  1.00  0.00     0.211 HD
ENDBRANCH   7  15
ENDBRANCH   1   2
BRANCH   1  17
ATOM     17  C   UNL     1     110.638 143.933 122.590  1.00  0.00     0.224 C 
ATOM     18  C   UNL     1     111.528 142.826 123.229  1.00  0.00     0.208 C 
ATOM     19  O   UNL     1     110.925 145.158 123.251  1.00  0.00    -0.337 OA
ATOM     20  C   UNL     1     112.442 143.590 124.173  1.00  0.00     0.180 C 
ATOM     21  C   UNL     1     111.638 144.862 124.427  1.00  0.00     0.179 C 
BRANCH  17  22
ATOM     22  C   UNL     1     109.122 143.631 122.717  1.00  0.00     0.225 C 
BRANCH  22  23
ATOM     23  O   UNL     1     108.755 142.604 121.836  1.00  0.00    -0.391 OA
ATOM     24  H   UNL     1     109.508 141.957 121.837  1.00  0.00     0.210 HD
ENDBRANCH  22  23
ENDBRANCH  17  22
BRANCH  18  25
ATOM     25  O   UNL     1     110.796 141.830 123.911  1.00  0.00    -0.385 OA
ATOM     26  H   UNL     1     111.136 140.939 123.638  1.00  0.00     0.211 HD
ENDBRANCH  18  25
BRANCH  20  27
ATOM     27  O   UNL     1     113.691 143.846 123.573  1.00  0.00    -0.387 OA
ATOM     28  H   UNL     1     114.392 143.739 124.266  1.00  0.00     0.211 HD
ENDBRANCH  20  27
BRANCH  21  29
ATOM     29  C   UNL     1     112.484 146.072 124.852  1.00  0.00     0.191 C 
BRANCH  29  30
ATOM     30  O   UNL     1     112.570 146.148 126.250  1.00  0.00    -0.394 OA
ATOM     31  H   UNL     1     113.515 146.359 126.468  1.00  0.00     0.210 HD
ENDBRANCH  29  30
ENDBRANCH  21  29
ENDBRANCH   1  17
TORSDOF 13
ENDMDL
MODEL 8
REMARK VINA RESULT:    -4.570      8.552     10.610
REMARK INTER + INTRA:          -8.801
REMARK INTER:                  -7.080
REMARK INTRA:                  -1.720
REMARK UNBOUND:                -1.826
REMARK SMILES OC[C@@H]1O[C@H](O[C@]2(CO)O[C@H](CO)[C@H](O)[C@H]2O)[C@@H](O)[C@H](O)[C@@H]1O
REMARK SMILES IDX 6 1 5 2 3 3 22 4 4 5 20 6 18 7 2 8 1 9 23 11 21 13 19 15
REMARK SMILES IDX 7 17 16 18 10 19 14 20 11 21 8 22 9 23 17 25 15 27 12 29
REMARK SMILES IDX 13 30
REMARK H PARENT 1 10 23 12 21 14 19 16 9 24 17 26 15 28 13 31
REMARK Flexibility Score: inf
ROOT
ATOM      1  O   UNL     1     111.264 143.836 121.186  1.00  0.00    -0.313 OA
ENDROOT
BRANCH   1   2
ATOM      2  C   UNL     1     110.398 144.967 121.230  1.00  0.00     0.285 C 
ATOM      3  C   UNL     1     111.593 146.275 119.614  1.00  0.00     0.178 C 
ATOM      4  C   UNL     1     110.470 146.084 118.559  1.00  0.00     0.177 C 
ATOM      5  O   UNL     1     111.121 146.162 120.954  1.00  0.00    -0.341 OA
ATOM      6  C   UNL     1     109.649 144.812 118.809  1.00  0.00     0.179 C 
ATOM      7  C   UNL     1     109.201 144.768 120.273  1.00  0.00     0.202 C 
BRANCH   3   8
ATOM      8  C   UNL     1     112.873 145.445 119.374  1.00  0.00     0.191 C 
BRANCH   8   9
ATOM      9  O   UNL     1     113.977 146.051 119.997  1.00  0.00    -0.394 OA
ATOM     10  H   UNL     1     113.627 146.625 120.727  1.00  0.00     0.210 HD
ENDBRANCH   8   9
ENDBRANCH   3   8
BRANCH   4  11
ATOM     11  O   UNL     1     110.983 146.074 117.252  1.00  0.00    -0.387 OA
ATOM     12  H   UNL     1     111.770 145.467 117.258  1.00  0.00     0.211 HD
ENDBRANCH   4  11
BRANCH   6  13
ATOM     13  O   UNL     1     110.386 143.656 118.502  1.00  0.00    -0.387 OA
ATOM     14  H   UNL     1     109.808 143.086 117.930  1.00  0.00     0.211 HD
ENDBRANCH   6  13
BRANCH   7  15
ATOM     15  O   UNL     1     108.242 145.772 120.494  1.00  0.00    -0.385 OA
ATOM     16  H   UNL     1     107.852 146.000 119.610  1.00  0.00     0.211 HD
ENDBRANCH   7  15
ENDBRANCH   1   2
BRANCH   1  17
ATOM     17  C   UNL     1     111.724 143.385 122.460  1.00  0.00     0.224 C 
ATOM     18  C   UNL     1     113.258 143.655 122.512  1.00  0.00     0.208 C 
ATOM     19  O   UNL     1     111.114 144.140 123.500  1.00  0.00    -0.337 OA
ATOM     20  C   UNL     1     113.402 144.750 123.556  1.00  0.00     0.180 C 
ATOM     21  C   UNL     1     112.126 144.573 124.376  1.00  0.00     0.179 C 
BRANCH  17  22
ATOM     22  C   UNL     1     111.373 141.887 122.648  1.00  0.00     0.225 C 
BRANCH  22  23
ATOM     23  O   UNL     1     111.763 141.151 121.519  1.00  0.00    -0.391 OA
ATOM     24  H   UNL     1     112.372 140.440 121.851  1.00  0.00     0.210 HD
ENDBRANCH  22  23
ENDBRANCH  17  22
BRANCH  18  25
ATOM     25  O   UNL     1     114.025 142.518 122.845  1.00  0.00    -0.385 OA
ATOM     26  H   UNL     1     113.631 141.725 122.398  1.00  0.00     0.211 HD
ENDBRANCH  18  25
BRANCH  20  27
ATOM     27  O   UNL     1     113.489 146.020 122.951  1.00  0.00    -0.387 OA
ATOM     28  H   UNL     1     114.421 146.344 123.050  1.00  0.00     0.211 HD
ENDBRANCH  20  27
BRANCH  21  29
ATOM     29  C   UNL     1     111.674 145.836 125.124  1.00  0.00     0.191 C 
BRANCH  29  30
ATOM     30  O   UNL     1     112.592 146.170 126.130  1.00  0.00    -0.394 OA
ATOM     31  H   UNL     1     112.117 146.763 126.768  1.00  0.00     0.210 HD
ENDBRANCH  29  30
ENDBRANCH  21  29
ENDBRANCH   1  17
TORSDOF 13
ENDMDL
MODEL 9
REMARK VINA RESULT:    -4.538      7.885     10.462
REMARK INTER + INTRA:          -8.752
REMARK INTER:                  -6.893
REMARK INTRA:                  -1.859
REMARK UNBOUND:                -1.826
REMARK SMILES OC[C@@H]1O[C@H](O[C@]2(CO)O[C@H](CO)[C@H](O)[C@H]2O)[C@@H](O)[C@H](O)[C@@H]1O
REMARK SMILES IDX 6 1 5 2 3 3 22 4 4 5 20 6 18 7 2 8 1 9 23 11 21 13 19 15
REMARK SMILES IDX 7 17 16 18 10 19 14 20 11 21 8 22 9 23 17 25 15 27 12 29
REMARK SMILES IDX 13 30
REMARK H PARENT 1 10 23 12 21 14 19 16 9 24 17 26 15 28 13 31
REMARK Flexibility Score: inf
ROOT
ATOM      1  O   UNL     1     112.227 145.128 120.782  1.00  0.00    -0.313 OA
ENDROOT
BRANCH   1   2
ATOM      2  C   UNL     1     113.544 145.664 120.870  1.00  0.00     0.285 C 
ATOM      3  C   UNL     1     113.081 147.204 122.650  1.00  0.00     0.178 C 
ATOM      4  C   UNL     1     113.898 146.355 123.661  1.00  0.00     0.177 C 
ATOM      5  O   UNL     1     113.504 147.020 121.301  1.00  0.00    -0.341 OA
ATOM      6  C   UNL     1     113.983 144.879 123.244  1.00  0.00     0.179 C 
ATOM      7  C   UNL     1     114.427 144.782 121.782  1.00  0.00     0.202 C 
BRANCH   3   8
ATOM      8  C   UNL     1     111.547 147.111 122.798  1.00  0.00     0.191 C 
BRANCH   8   9
ATOM      9  O   UNL     1     110.911 147.626 121.656  1.00  0.00    -0.394 OA
ATOM     10  H   UNL     1     111.233 147.105 120.876  1.00  0.00     0.210 HD
ENDBRANCH   8   9
ENDBRANCH   3   8
BRANCH   4  11
ATOM     11  O   UNL     1     113.380 146.456 124.961  1.00  0.00    -0.387 OA
ATOM     12  H   UNL     1     112.391 146.412 124.880  1.00  0.00     0.211 HD
ENDBRANCH   4  11
BRANCH   6  13
ATOM     13  O   UNL     1     112.751 144.227 123.413  1.00  0.00    -0.387 OA
ATOM     14  H   UNL     1     112.944 143.257 123.499  1.00  0.00     0.211 HD
ENDBRANCH   6  13
BRANCH   7  15
ATOM     15  O   UNL     1     115.770 145.183 121.678  1.00  0.00    -0.385 OA
ATOM     16  H   UNL     1     116.309 144.360 121.541  1.00  0.00     0.211 HD
ENDBRANCH   7  15
ENDBRANCH   1   2
BRANCH   1  17
ATOM     17  C   UNL     1     111.718 145.008 119.453  1.00  0.00     0.224 C 
ATOM     18  C   UNL     1     110.338 144.292 119.558  1.00  0.00     0.208 C 
ATOM     19  O   UNL     1     111.497 146.296 118.892  1.00  0.00    -0.337 OA
ATOM     20  C   UNL     1     109.337 145.365 119.165  1.00  0.00     0.180 C 
ATOM     21  C   UNL     1     110.202 146.317 118.344  1.00  0.00     0.179 C 
BRANCH  17  22
ATOM     22  C   UNL     1     112.729 144.235 118.568  1.00  0.00     0.225 C 
BRANCH  22  23
ATOM     23  O   UNL     1     112.301 144.228 117.233  1.00  0.00    -0.391 OA
ATOM     24  H   UNL     1     111.915 145.126 117.063  1.00  0.00     0.210 HD
ENDBRANCH  22  23
ENDBRANCH  17  22
BRANCH  18  25
ATOM     25  O   UNL     1     110.225 143.152 118.733  1.00  0.00    -0.385 OA
ATOM     26  H   UNL     1     109.275 143.040 118.470  1.00  0.00     0.211 HD
ENDBRANCH  18  25
BRANCH  20  27
ATOM     27  O   UNL     1     108.781 145.981 120.304  1.00  0.00    -0.387 OA
ATOM     28  H   UNL     1     107.906 145.551 120.489  1.00  0.00     0.211 HD
ENDBRANCH  20  27
BRANCH  21  29
ATOM     29  C   UNL     1     109.676 147.758 118.283  1.00  0.00     0.191 C 
BRANCH  29  30
ATOM     30  O   UNL     1     110.420 148.592 119.132  1.00  0.00    -0.394 OA
ATOM     31  H   UNL     1     109.932 149.453 119.189  1.00  0.00     0.210 HD
ENDBRANCH  29  30
ENDBRANCH  21  29
ENDBRANCH   1  17
TORSDOF 13
ENDMDL
