MODEL 1
REMARK VINA RESULT:    -3.045      0.000      0.000
REMARK INTER + INTRA:         -13.670
REMARK INTER:                  -7.672
REMARK INTRA:                  -5.998
REMARK UNBOUND:                -5.998
REMARK SMILES CCCCCCCCCCCCCCCCCCCCCCCCCCCC(=O)[O-]
REMARK SMILES IDX 15 1 16 2 17 3 18 4 19 5 20 6 21 7 22 8 23 9 24 10 25 11
REMARK SMILES IDX 26 12 27 13 28 14 29 15 30 16 14 17 13 18 12 19 11 20 10 21
REMARK SMILES IDX 9 22 8 23 7 24 6 25 5 26 4 27 3 28 2 29 1 30
REMARK H PARENT
REMARK Flexibility Score: inf
ROOT
ATOM      1  C   UNL     1      51.871  31.697  85.492  1.00  0.00     0.000 C 
ENDROOT
BRANCH   1   2
ATOM      2  C   UNL     1      53.108  32.212  84.735  1.00  0.00     0.000 C 
BRANCH   2   3
ATOM      3  C   UNL     1      53.509  33.668  85.055  1.00  0.00     0.000 C 
BRANCH   3   4
ATOM      4  C   UNL     1      52.338  34.627  85.337  1.00  0.00     0.000 C 
BRANCH   4   5
ATOM      5  C   UNL     1      52.360  35.195  86.767  1.00  0.00     0.000 C 
BRANCH   5   6
ATOM      6  C   UNL     1      51.142  34.743  87.593  1.00  0.00     0.000 C 
BRANCH   6   7
ATOM      7  C   UNL     1      49.910  35.632  87.364  1.00  0.00     0.000 C 
BRANCH   7   8
ATOM      8  C   UNL     1      48.654  34.780  87.147  1.00  0.00     0.000 C 
BRANCH   8   9
ATOM      9  C   UNL     1      48.869  33.752  86.026  1.00  0.00     0.000 C 
BRANCH   9  10
ATOM     10  C   UNL     1      48.316  32.357  86.390  1.00  0.00     0.000 C 
BRANCH  10  11
ATOM     11  C   UNL     1      48.303  32.067  87.903  1.00  0.00     0.000 C 
BRANCH  11  12
ATOM     12  C   UNL     1      46.985  31.484  88.441  1.00  0.00     0.006 C 
BRANCH  12  13
ATOM     13  C   UNL     1      46.746  31.816  89.920  1.00  0.00     0.053 C 
BRANCH  13  14
ATOM     14  C   UNL     1      45.671  30.952  90.500  1.00  0.00     0.041 C 
ATOM     15  O   UNL     1      45.731  29.698  90.386  1.00  0.00    -0.550 OA
ATOM     16  O   UNL     1      44.622  31.526  91.209  1.00  0.00    -0.550 OA
ENDBRANCH  13  14
ENDBRANCH  12  13
ENDBRANCH  11  12
ENDBRANCH  10  11
ENDBRANCH   9  10
ENDBRANCH   8   9
ENDBRANCH   7   8
ENDBRANCH   6   7
ENDBRANCH   5   6
ENDBRANCH   4   5
ENDBRANCH   3   4
ENDBRANCH   2   3
ENDBRANCH   1   2
BRANCH   1  17
ATOM     17  C   UNL     1      52.170  31.346  86.957  1.00  0.00     0.000 C 
BRANCH  17  18
ATOM     18  C   UNL     1      52.757  29.935  87.124  1.00  0.00     0.000 C 
BRANCH  18  19
ATOM     19  C   UNL     1      54.065  29.907  87.942  1.00  0.00     0.000 C 
BRANCH  19  20
ATOM     20  C   UNL     1      55.149  30.818  87.337  1.00  0.00     0.000 C 
BRANCH  20  21
ATOM     21  C   UNL     1      55.703  31.835  88.351  1.00  0.00     0.000 C 
BRANCH  21  22
ATOM     22  C   UNL     1      54.965  33.188  88.378  1.00  0.00    -0.000 C 
BRANCH  22  23
ATOM     23  C   UNL     1      54.028  33.394  89.584  1.00  0.00    -0.000 C 
BRANCH  23  24
ATOM     24  C   UNL     1      54.210  32.386  90.738  1.00  0.00    -0.000 C 
BRANCH  24  25
ATOM     25  C   UNL     1      52.955  31.569  91.100  1.00  0.00    -0.000 C 
BRANCH  25  26
ATOM     26  C   UNL     1      51.663  32.164  90.518  1.00  0.00    -0.000 C 
BRANCH  26  27
ATOM     27  C   UNL     1      50.428  31.286  90.788  1.00  0.00    -0.000 C 
BRANCH  27  28
ATOM     28  C   UNL     1      50.610  29.783  90.492  1.00  0.00    -0.000 C 
BRANCH  28  29
ATOM     29  C   UNL     1      49.366  29.079  89.925  1.00  0.00    -0.003 C 
ATOM     30  C   UNL     1      49.591  28.520  88.519  1.00  0.00     0.004 C 
ENDBRANCH  28  29
ENDBRANCH  27  28
ENDBRANCH  26  27
ENDBRANCH  25  26
ENDBRANCH  24  25
ENDBRANCH  23  24
ENDBRANCH  22  23
ENDBRANCH  21  22
ENDBRANCH  20  21
ENDBRANCH  19  20
ENDBRANCH  18  19
ENDBRANCH  17  18
ENDBRANCH   1  17
TORSDOF 26
ENDMDL
MODEL 2
REMARK VINA RESULT:    -3.005     15.325     17.586
REMARK INTER + INTRA:         -13.571
REMARK INTER:                  -9.595
REMARK INTRA:                  -3.976
REMARK UNBOUND:                -5.998
REMARK SMILES CCCCCCCCCCCCCCCCCCCCCCCCCCCC(=O)[O-]
REMARK SMILES IDX 15 1 16 2 17 3 18 4 19 5 20 6 21 7 22 8 23 9 24 10 25 11
REMARK SMILES IDX 26 12 27 13 28 14 29 15 30 16 14 17 13 18 12 19 11 20 10 21
REMARK SMILES IDX 9 22 8 23 7 24 6 25 5 26 4 27 3 28 2 29 1 30
REMARK H PARENT
REMARK Flexibility Score: inf
ROOT
ATOM      1  C   UNL     1      45.885  19.227  77.993  1.00  0.00     0.000 C 
ENDROOT
BRANCH   1   2
ATOM      2  C   UNL     1      44.536  19.893  78.314  1.00  0.00     0.000 C 
BRANCH   2   3
ATOM      3  C   UNL     1      44.632  21.333  78.860  1.00  0.00     0.000 C 
BRANCH   3   4
ATOM      4  C   UNL     1      45.304  22.350  77.920  1.00  0.00     0.000 C 
BRANCH   4   5
ATOM      5  C   UNL     1      44.307  23.034  76.967  1.00  0.00     0.000 C 
BRANCH   5   6
ATOM      6  C   UNL     1      44.924  23.324  75.587  1.00  0.00     0.000 C 
BRANCH   6   7
ATOM      7  C   UNL     1      44.102  22.725  74.435  1.00  0.00     0.000 C 
BRANCH   7   8
ATOM      8  C   UNL     1      43.093  21.697  74.960  1.00  0.00     0.000 C 
BRANCH   8   9
ATOM      9  C   UNL     1      41.718  21.884  74.299  1.00  0.00     0.000 C 
BRANCH   9  10
ATOM     10  C   UNL     1      40.553  21.665  75.289  1.00  0.00     0.000 C 
BRANCH  10  11
ATOM     11  C   UNL     1      40.396  22.793  76.327  1.00  0.00     0.000 C 
BRANCH  11  12
ATOM     12  C   UNL     1      40.755  22.400  77.770  1.00  0.00     0.006 C 
BRANCH  12  13
ATOM     13  C   UNL     1      40.960  20.889  77.943  1.00  0.00     0.053 C 
BRANCH  13  14
ATOM     14  C   UNL     1      40.795  20.483  79.374  1.00  0.00     0.041 C 
ATOM     15  O   UNL     1      41.471  21.046  80.276  1.00  0.00    -0.550 OA
ATOM     16  O   UNL     1      39.861  19.515  79.721  1.00  0.00    -0.550 OA
ENDBRANCH  13  14
ENDBRANCH  12  13
ENDBRANCH  11  12
ENDBRANCH  10  11
ENDBRANCH   9  10
ENDBRANCH   8   9
ENDBRANCH   7   8
ENDBRANCH   6   7
ENDBRANCH   5   6
ENDBRANCH   4   5
ENDBRANCH   3   4
ENDBRANCH   2   3
ENDBRANCH   1   2
BRANCH   1  17
ATOM     17  C   UNL     1      45.740  17.977  77.111  1.00  0.00     0.000 C 
BRANCH  17  18
ATOM     18  C   UNL     1      46.116  18.236  75.643  1.00  0.00     0.000 C 
BRANCH  18  19
ATOM     19  C   UNL     1      46.062  19.728  75.251  1.00  0.00     0.000 C 
BRANCH  19  20
ATOM     20  C   UNL     1      47.212  20.123  74.306  1.00  0.00     0.000 C 
BRANCH  20  21
ATOM     21  C   UNL     1      48.004  21.342  74.812  1.00  0.00     0.000 C 
BRANCH  21  22
ATOM     22  C   UNL     1      48.446  21.259  76.287  1.00  0.00    -0.000 C 
BRANCH  22  23
ATOM     23  C   UNL     1      49.906  21.673  76.553  1.00  0.00    -0.000 C 
BRANCH  23  24
ATOM     24  C   UNL     1      50.580  22.472  75.419  1.00  0.00    -0.000 C 
BRANCH  24  25
ATOM     25  C   UNL     1      52.041  22.084  75.121  1.00  0.00    -0.000 C 
BRANCH  25  26
ATOM     26  C   UNL     1      52.871  21.849  76.394  1.00  0.00    -0.000 C 
BRANCH  26  27
ATOM     27  C   UNL     1      54.167  21.063  76.123  1.00  0.00    -0.000 C 
BRANCH  27  28
ATOM     28  C   UNL     1      54.501  20.834  74.635  1.00  0.00    -0.000 C 
BRANCH  28  29
ATOM     29  C   UNL     1      54.355  19.380  74.153  1.00  0.00    -0.003 C 
ATOM     30  C   UNL     1      53.524  19.260  72.876  1.00  0.00     0.004 C 
ENDBRANCH  28  29
ENDBRANCH  27  28
ENDBRANCH  26  27
ENDBRANCH  25  26
ENDBRANCH  24  25
ENDBRANCH  23  24
ENDBRANCH  22  23
ENDBRANCH  21  22
ENDBRANCH  20  21
ENDBRANCH  19  20
ENDBRANCH  18  19
ENDBRANCH  17  18
ENDBRANCH   1  17
TORSDOF 26
ENDMDL
MODEL 3
REMARK VINA RESULT:    -2.955     15.243     18.318
REMARK INTER + INTRA:         -13.444
REMARK INTER:                  -8.710
REMARK INTRA:                  -4.734
REMARK UNBOUND:                -5.998
REMARK SMILES CCCCCCCCCCCCCCCCCCCCCCCCCCCC(=O)[O-]
REMARK SMILES IDX 15 1 16 2 17 3 18 4 19 5 20 6 21 7 22 8 23 9 24 10 25 11
REMARK SMILES IDX 26 12 27 13 28 14 29 15 30 16 14 17 13 18 12 19 11 20 10 21
REMARK SMILES IDX 9 22 8 23 7 24 6 25 5 26 4 27 3 28 2 29 1 30
REMARK H PARENT
REMARK Flexibility Score: inf
ROOT
ATOM      1  C   UNL     1      47.270  20.475  74.361  1.00  0.00     0.000 C 
ENDROOT
BRANCH   1   2
ATOM      2  C   UNL     1      46.372  19.265  74.671  1.00  0.00     0.000 C 
BRANCH   2   3
ATOM      3  C   UNL     1      45.622  19.336  76.018  1.00  0.00     0.000 C 
BRANCH   3   4
ATOM      4  C   UNL     1      45.887  18.166  76.983  1.00  0.00     0.000 C 
BRANCH   4   5
ATOM      5  C   UNL     1      46.637  18.597  78.256  1.00  0.00     0.000 C 
BRANCH   5   6
ATOM      6  C   UNL     1      47.351  19.950  78.082  1.00  0.00     0.000 C 
BRANCH   6   7
ATOM      7  C   UNL     1      48.688  20.012  78.837  1.00  0.00     0.000 C 
BRANCH   7   8
ATOM      8  C   UNL     1      49.651  20.997  78.164  1.00  0.00     0.000 C 
BRANCH   8   9
ATOM      9  C   UNL     1      48.942  21.797  77.060  1.00  0.00     0.000 C 
BRANCH   9  10
ATOM     10  C   UNL     1      49.909  22.719  76.285  1.00  0.00     0.000 C 
BRANCH  10  11
ATOM     11  C   UNL     1      50.717  21.996  75.190  1.00  0.00     0.000 C 
BRANCH  11  12
ATOM     12  C   UNL     1      52.220  21.851  75.482  1.00  0.00     0.006 C 
BRANCH  12  13
ATOM     13  C   UNL     1      53.052  21.612  74.214  1.00  0.00     0.053 C 
BRANCH  13  14
ATOM     14  C   UNL     1      53.944  22.779  73.927  1.00  0.00     0.041 C 
ATOM     15  O   UNL     1      53.554  23.707  73.170  1.00  0.00    -0.550 OA
ATOM     16  O   UNL     1      55.192  22.867  74.533  1.00  0.00    -0.550 OA
ENDBRANCH  13  14
ENDBRANCH  12  13
ENDBRANCH  11  12
ENDBRANCH  10  11
ENDBRANCH   9  10
ENDBRANCH   8   9
ENDBRANCH   7   8
ENDBRANCH   6   7
ENDBRANCH   5   6
ENDBRANCH   4   5
ENDBRANCH   3   4
ENDBRANCH   2   3
ENDBRANCH   1   2
BRANCH   1  17
ATOM     17  C   UNL     1      46.544  21.568  73.560  1.00  0.00     0.000 C 
BRANCH  17  18
ATOM     18  C   UNL     1      46.041  22.720  74.446  1.00  0.00     0.000 C 
BRANCH  18  19
ATOM     19  C   UNL     1      44.522  22.965  74.329  1.00  0.00     0.000 C 
BRANCH  19  20
ATOM     20  C   UNL     1      43.756  21.689  73.937  1.00  0.00     0.000 C 
BRANCH  20  21
ATOM     21  C   UNL     1      42.511  21.451  74.811  1.00  0.00     0.000 C 
BRANCH  21  22
ATOM     22  C   UNL     1      41.976  22.705  75.529  1.00  0.00    -0.000 C 
BRANCH  22  23
ATOM     23  C   UNL     1      40.666  22.498  76.312  1.00  0.00    -0.000 C 
BRANCH  23  24
ATOM     24  C   UNL     1      40.838  22.212  77.818  1.00  0.00    -0.000 C 
BRANCH  24  25
ATOM     25  C   UNL     1      40.795  20.723  78.212  1.00  0.00    -0.000 C 
BRANCH  25  26
ATOM     26  C   UNL     1      41.840  20.355  79.277  1.00  0.00    -0.000 C 
BRANCH  26  27
ATOM     27  C   UNL     1      43.272  20.297  78.712  1.00  0.00    -0.000 C 
BRANCH  27  28
ATOM     28  C   UNL     1      44.195  21.458  79.134  1.00  0.00    -0.000 C 
BRANCH  28  29
ATOM     29  C   UNL     1      44.604  22.409  77.997  1.00  0.00    -0.003 C 
ATOM     30  C   UNL     1      45.815  23.272  78.352  1.00  0.00     0.004 C 
ENDBRANCH  28  29
ENDBRANCH  27  28
ENDBRANCH  26  27
ENDBRANCH  25  26
ENDBRANCH  24  25
ENDBRANCH  23  24
ENDBRANCH  22  23
ENDBRANCH  21  22
ENDBRANCH  20  21
ENDBRANCH  19  20
ENDBRANCH  18  19
ENDBRANCH  17  18
ENDBRANCH   1  17
TORSDOF 26
ENDMDL
MODEL 4
REMARK VINA RESULT:    -2.954      1.234      4.249
REMARK INTER + INTRA:         -13.443
REMARK INTER:                  -8.146
REMARK INTRA:                  -5.297
REMARK UNBOUND:                -5.998
REMARK SMILES CCCCCCCCCCCCCCCCCCCCCCCCCCCC(=O)[O-]
REMARK SMILES IDX 15 1 16 2 17 3 18 4 19 5 20 6 21 7 22 8 23 9 24 10 25 11
REMARK SMILES IDX 26 12 27 13 28 14 29 15 30 16 14 17 13 18 12 19 11 20 10 21
REMARK SMILES IDX 9 22 8 23 7 24 6 25 5 26 4 27 3 28 2 29 1 30
REMARK H PARENT
REMARK Flexibility Score: inf
ROOT
ATOM      1  C   UNL     1      54.716  33.085  89.652  1.00  0.00     0.000 C 
ENDROOT
BRANCH   1   2
ATOM      2  C   UNL     1      53.907  34.272  89.101  1.00  0.00     0.000 C 
BRANCH   2   3
ATOM      3  C   UNL     1      53.931  34.421  87.565  1.00  0.00     0.000 C 
BRANCH   3   4
ATOM      4  C   UNL     1      52.688  35.089  86.949  1.00  0.00     0.000 C 
BRANCH   4   5
ATOM      5  C   UNL     1      51.370  34.587  87.565  1.00  0.00     0.000 C 
BRANCH   5   6
ATOM      6  C   UNL     1      50.227  35.606  87.410  1.00  0.00     0.000 C 
BRANCH   6   7
ATOM      7  C   UNL     1      48.858  34.934  87.225  1.00  0.00     0.000 C 
BRANCH   7   8
ATOM      8  C   UNL     1      48.930  33.828  86.165  1.00  0.00     0.000 C 
BRANCH   8   9
ATOM      9  C   UNL     1      48.323  32.518  86.690  1.00  0.00     0.000 C 
BRANCH   9  10
ATOM     10  C   UNL     1      48.122  32.532  88.221  1.00  0.00     0.000 C 
BRANCH  10  11
ATOM     11  C   UNL     1      48.150  31.134  88.867  1.00  0.00     0.000 C 
BRANCH  11  12
ATOM     12  C   UNL     1      47.397  31.022  90.203  1.00  0.00     0.006 C 
BRANCH  12  13
ATOM     13  C   UNL     1      46.022  31.704  90.171  1.00  0.00     0.053 C 
BRANCH  13  14
ATOM     14  C   UNL     1      45.169  31.252  91.314  1.00  0.00     0.041 C 
ATOM     15  O   UNL     1      44.760  32.081  92.170  1.00  0.00    -0.550 OA
ATOM     16  O   UNL     1      44.785  29.920  91.412  1.00  0.00    -0.550 OA
ENDBRANCH  13  14
ENDBRANCH  12  13
ENDBRANCH  11  12
ENDBRANCH  10  11
ENDBRANCH   9  10
ENDBRANCH   8   9
ENDBRANCH   7   8
ENDBRANCH   6   7
ENDBRANCH   5   6
ENDBRANCH   4   5
ENDBRANCH   3   4
ENDBRANCH   2   3
ENDBRANCH   1   2
BRANCH   1  17
ATOM     17  C   UNL     1      53.870  32.136  90.515  1.00  0.00     0.000 C 
BRANCH  17  18
ATOM     18  C   UNL     1      52.389  32.545  90.575  1.00  0.00     0.000 C 
BRANCH  18  19
ATOM     19  C   UNL     1      51.702  32.172  91.905  1.00  0.00     0.000 C 
BRANCH  19  20
ATOM     20  C   UNL     1      50.616  31.097  91.717  1.00  0.00     0.000 C 
BRANCH  20  21
ATOM     21  C   UNL     1      51.192  29.670  91.683  1.00  0.00     0.000 C 
BRANCH  21  22
ATOM     22  C   UNL     1      50.754  28.825  90.472  1.00  0.00    -0.000 C 
BRANCH  22  23
ATOM     23  C   UNL     1      51.906  28.206  89.659  1.00  0.00    -0.000 C 
BRANCH  23  24
ATOM     24  C   UNL     1      52.587  29.157  88.653  1.00  0.00    -0.000 C 
BRANCH  24  25
ATOM     25  C   UNL     1      51.642  30.137  87.933  1.00  0.00    -0.000 C 
BRANCH  25  26
ATOM     26  C   UNL     1      52.380  31.088  86.977  1.00  0.00    -0.000 C 
BRANCH  26  27
ATOM     27  C   UNL     1      51.636  31.286  85.643  1.00  0.00    -0.000 C 
BRANCH  27  28
ATOM     28  C   UNL     1      52.287  32.289  84.668  1.00  0.00    -0.000 C 
BRANCH  28  29
ATOM     29  C   UNL     1      51.344  32.851  83.590  1.00  0.00    -0.003 C 
ATOM     30  C   UNL     1      51.465  34.366  83.429  1.00  0.00     0.004 C 
ENDBRANCH  28  29
ENDBRANCH  27  28
ENDBRANCH  26  27
ENDBRANCH  25  26
ENDBRANCH  24  25
ENDBRANCH  23  24
ENDBRANCH  22  23
ENDBRANCH  21  22
ENDBRANCH  20  21
ENDBRANCH  19  20
ENDBRANCH  18  19
ENDBRANCH  17  18
ENDBRANCH   1  17
TORSDOF 26
ENDMDL
MODEL 5
REMARK VINA RESULT:    -2.899      3.385      6.332
REMARK INTER + INTRA:         -13.304
REMARK INTER:                  -7.750
REMARK INTRA:                  -5.554
REMARK UNBOUND:                -5.998
REMARK SMILES CCCCCCCCCCCCCCCCCCCCCCCCCCCC(=O)[O-]
REMARK SMILES IDX 15 1 16 2 17 3 18 4 19 5 20 6 21 7 22 8 23 9 24 10 25 11
REMARK SMILES IDX 26 12 27 13 28 14 29 15 30 16 14 17 13 18 12 19 11 20 10 21
REMARK SMILES IDX 9 22 8 23 7 24 6 25 5 26 4 27 3 28 2 29 1 30
REMARK H PARENT
REMARK Flexibility Score: inf
ROOT
ATOM      1  C   UNL     1      47.135  31.222  87.994  1.00  0.00     0.000 C 
ENDROOT
BRANCH   1   2
ATOM      2  C   UNL     1      47.990  31.985  86.967  1.00  0.00     0.000 C 
BRANCH   2   3
ATOM      3  C   UNL     1      49.008  32.975  87.573  1.00  0.00     0.000 C 
BRANCH   3   4
ATOM      4  C   UNL     1      48.752  34.459  87.255  1.00  0.00     0.000 C 
BRANCH   4   5
ATOM      5  C   UNL     1      50.032  35.312  87.306  1.00  0.00     0.000 C 
BRANCH   5   6
ATOM      6  C   UNL     1      51.286  34.467  87.591  1.00  0.00     0.000 C 
BRANCH   6   7
ATOM      7  C   UNL     1      52.575  35.132  87.085  1.00  0.00     0.000 C 
BRANCH   7   8
ATOM      8  C   UNL     1      53.321  34.212  86.112  1.00  0.00     0.000 C 
BRANCH   8   9
ATOM      9  C   UNL     1      53.027  34.595  84.653  1.00  0.00     0.000 C 
BRANCH   9  10
ATOM     10  C   UNL     1      52.363  33.446  83.863  1.00  0.00     0.000 C 
BRANCH  10  11
ATOM     11  C   UNL     1      50.839  33.345  84.071  1.00  0.00     0.000 C 
BRANCH  11  12
ATOM     12  C   UNL     1      50.047  34.605  83.685  1.00  0.00     0.006 C 
BRANCH  12  13
ATOM     13  C   UNL     1      48.898  34.311  82.710  1.00  0.00     0.053 C 
BRANCH  13  14
ATOM     14  C   UNL     1      49.365  34.384  81.290  1.00  0.00     0.041 C 
ATOM     15  O   UNL     1      50.464  34.933  81.009  1.00  0.00    -0.550 OA
ATOM     16  O   UNL     1      48.609  33.805  80.278  1.00  0.00    -0.550 OA
ENDBRANCH  13  14
ENDBRANCH  12  13
ENDBRANCH  11  12
ENDBRANCH  10  11
ENDBRANCH   9  10
ENDBRANCH   8   9
ENDBRANCH   7   8
ENDBRANCH   6   7
ENDBRANCH   5   6
ENDBRANCH   4   5
ENDBRANCH   3   4
ENDBRANCH   2   3
ENDBRANCH   1   2
BRANCH   1  17
ATOM     17  C   UNL     1      46.776  32.072  89.223  1.00  0.00     0.000 C 
BRANCH  17  18
ATOM     18  C   UNL     1      46.416  31.221  90.451  1.00  0.00     0.000 C 
BRANCH  18  19
ATOM     19  C   UNL     1      45.848  29.832  90.090  1.00  0.00     0.000 C 
BRANCH  19  20
ATOM     20  C   UNL     1      46.557  28.698  90.851  1.00  0.00     0.000 C 
BRANCH  20  21
ATOM     21  C   UNL     1      48.060  28.966  91.051  1.00  0.00     0.000 C 
BRANCH  21  22
ATOM     22  C   UNL     1      48.938  28.672  89.819  1.00  0.00    -0.000 C 
BRANCH  22  23
ATOM     23  C   UNL     1      50.132  29.628  89.629  1.00  0.00    -0.000 C 
BRANCH  23  24
ATOM     24  C   UNL     1      50.089  30.912  90.482  1.00  0.00    -0.000 C 
BRANCH  24  25
ATOM     25  C   UNL     1      51.342  31.803  90.390  1.00  0.00    -0.000 C 
BRANCH  25  26
ATOM     26  C   UNL     1      52.601  31.027  89.970  1.00  0.00    -0.000 C 
BRANCH  26  27
ATOM     27  C   UNL     1      53.245  31.586  88.688  1.00  0.00    -0.000 C 
BRANCH  27  28
ATOM     28  C   UNL     1      53.115  30.690  87.440  1.00  0.00    -0.000 C 
BRANCH  28  29
ATOM     29  C   UNL     1      51.800  30.853  86.659  1.00  0.00    -0.003 C 
ATOM     30  C   UNL     1      51.767  30.025  85.374  1.00  0.00     0.004 C 
ENDBRANCH  28  29
ENDBRANCH  27  28
ENDBRANCH  26  27
ENDBRANCH  25  26
ENDBRANCH  24  25
ENDBRANCH  23  24
ENDBRANCH  22  23
ENDBRANCH  21  22
ENDBRANCH  20  21
ENDBRANCH  19  20
ENDBRANCH  18  19
ENDBRANCH  17  18
ENDBRANCH   1  17
TORSDOF 26
ENDMDL
MODEL 6
REMARK VINA RESULT:    -2.866     14.720     17.719
REMARK INTER + INTRA:         -13.220
REMARK INTER:                  -8.402
REMARK INTRA:                  -4.818
REMARK UNBOUND:                -5.998
REMARK SMILES CCCCCCCCCCCCCCCCCCCCCCCCCCCC(=O)[O-]
REMARK SMILES IDX 15 1 16 2 17 3 18 4 19 5 20 6 21 7 22 8 23 9 24 10 25 11
REMARK SMILES IDX 26 12 27 13 28 14 29 15 30 16 14 17 13 18 12 19 11 20 10 21
REMARK SMILES IDX 9 22 8 23 7 24 6 25 5 26 4 27 3 28 2 29 1 30
REMARK H PARENT
REMARK Flexibility Score: inf
ROOT
ATOM      1  C   UNL     1      45.858  23.027  78.764  1.00  0.00     0.000 C 
ENDROOT
BRANCH   1   2
ATOM      2  C   UNL     1      45.281  21.686  79.248  1.00  0.00     0.000 C 
BRANCH   2   3
ATOM      3  C   UNL     1      45.995  20.432  78.700  1.00  0.00     0.000 C 
BRANCH   3   4
ATOM      4  C   UNL     1      45.071  19.362  78.088  1.00  0.00     0.000 C 
BRANCH   4   5
ATOM      5  C   UNL     1      45.364  19.098  76.600  1.00  0.00     0.000 C 
BRANCH   5   6
ATOM      6  C   UNL     1      46.733  19.652  76.167  1.00  0.00     0.000 C 
BRANCH   6   7
ATOM      7  C   UNL     1      46.794  19.966  74.665  1.00  0.00     0.000 C 
BRANCH   7   8
ATOM      8  C   UNL     1      48.047  20.783  74.327  1.00  0.00     0.000 C 
BRANCH   8   9
ATOM      9  C   UNL     1      47.975  22.188  74.946  1.00  0.00     0.000 C 
BRANCH   9  10
ATOM     10  C   UNL     1      49.373  22.788  75.210  1.00  0.00     0.000 C 
BRANCH  10  11
ATOM     11  C   UNL     1      49.615  23.184  76.679  1.00  0.00     0.000 C 
BRANCH  11  12
ATOM     12  C   UNL     1      50.446  22.179  77.493  1.00  0.00     0.006 C 
BRANCH  12  13
ATOM     13  C   UNL     1      49.592  21.066  78.116  1.00  0.00     0.053 C 
BRANCH  13  14
ATOM     14  C   UNL     1      49.879  20.920  79.577  1.00  0.00     0.041 C 
ATOM     15  O   UNL     1      48.950  20.653  80.385  1.00  0.00    -0.550 OA
ATOM     16  O   UNL     1      51.183  21.033  80.046  1.00  0.00    -0.550 OA
ENDBRANCH  13  14
ENDBRANCH  12  13
ENDBRANCH  11  12
ENDBRANCH  10  11
ENDBRANCH   9  10
ENDBRANCH   8   9
ENDBRANCH   7   8
ENDBRANCH   6   7
ENDBRANCH   5   6
ENDBRANCH   4   5
ENDBRANCH   3   4
ENDBRANCH   2   3
ENDBRANCH   1   2
BRANCH   1  17
ATOM     17  C   UNL     1      45.723  23.224  77.246  1.00  0.00     0.000 C 
BRANCH  17  18
ATOM     18  C   UNL     1      44.287  23.000  76.743  1.00  0.00     0.000 C 
BRANCH  18  19
ATOM     19  C   UNL     1      44.219  22.528  75.275  1.00  0.00     0.000 C 
BRANCH  19  20
ATOM     20  C   UNL     1      43.095  21.501  75.047  1.00  0.00     0.000 C 
BRANCH  20  21
ATOM     21  C   UNL     1      41.691  22.128  75.134  1.00  0.00     0.000 C 
BRANCH  21  22
ATOM     22  C   UNL     1      40.796  21.554  76.249  1.00  0.00    -0.000 C 
BRANCH  22  23
ATOM     23  C   UNL     1      40.548  22.503  77.438  1.00  0.00    -0.000 C 
BRANCH  23  24
ATOM     24  C   UNL     1      41.320  22.155  78.728  1.00  0.00    -0.000 C 
BRANCH  24  25
ATOM     25  C   UNL     1      41.799  20.695  78.833  1.00  0.00    -0.000 C 
BRANCH  25  26
ATOM     26  C   UNL     1      41.029  19.886  79.889  1.00  0.00    -0.000 C 
BRANCH  26  27
ATOM     27  C   UNL     1      39.609  19.507  79.431  1.00  0.00    -0.000 C 
BRANCH  27  28
ATOM     28  C   UNL     1      38.610  19.199  80.566  1.00  0.00    -0.000 C 
BRANCH  28  29
ATOM     29  C   UNL     1      37.471  20.221  80.722  1.00  0.00    -0.003 C 
ATOM     30  C   UNL     1      37.725  21.514  79.946  1.00  0.00     0.004 C 
ENDBRANCH  28  29
ENDBRANCH  27  28
ENDBRANCH  26  27
ENDBRANCH  25  26
ENDBRANCH  24  25
ENDBRANCH  23  24
ENDBRANCH  22  23
ENDBRANCH  21  22
ENDBRANCH  20  21
ENDBRANCH  19  20
ENDBRANCH  18  19
ENDBRANCH  17  18
ENDBRANCH   1  17
TORSDOF 26
ENDMDL
MODEL 7
REMARK VINA RESULT:    -2.862      2.795      4.473
REMARK INTER + INTRA:         -13.210
REMARK INTER:                  -7.597
REMARK INTRA:                  -5.613
REMARK UNBOUND:                -5.998
REMARK SMILES CCCCCCCCCCCCCCCCCCCCCCCCCCCC(=O)[O-]
REMARK SMILES IDX 15 1 16 2 17 3 18 4 19 5 20 6 21 7 22 8 23 9 24 10 25 11
REMARK SMILES IDX 26 12 27 13 28 14 29 15 30 16 14 17 13 18 12 19 11 20 10 21
REMARK SMILES IDX 9 22 8 23 7 24 6 25 5 26 4 27 3 28 2 29 1 30
REMARK H PARENT
REMARK Flexibility Score: inf
ROOT
ATOM      1  C   UNL     1      49.850  30.484  87.304  1.00  0.00     0.000 C 
ENDROOT
BRANCH   1   2
ATOM      2  C   UNL     1      49.271  31.289  86.127  1.00  0.00     0.000 C 
BRANCH   2   3
ATOM      3  C   UNL     1      48.283  32.406  86.524  1.00  0.00     0.000 C 
BRANCH   3   4
ATOM      4  C   UNL     1      48.795  33.388  87.595  1.00  0.00     0.000 C 
BRANCH   4   5
ATOM      5  C   UNL     1      48.877  34.839  87.086  1.00  0.00     0.000 C 
BRANCH   5   6
ATOM      6  C   UNL     1      50.313  35.391  87.124  1.00  0.00     0.000 C 
BRANCH   6   7
ATOM      7  C   UNL     1      51.300  34.421  87.791  1.00  0.00     0.000 C 
BRANCH   7   8
ATOM      8  C   UNL     1      52.505  34.155  86.881  1.00  0.00     0.000 C 
BRANCH   8   9
ATOM      9  C   UNL     1      52.198  34.548  85.427  1.00  0.00     0.000 C 
BRANCH   9  10
ATOM     10  C   UNL     1      52.100  33.323  84.493  1.00  0.00     0.000 C 
BRANCH  10  11
ATOM     11  C   UNL     1      50.786  33.253  83.691  1.00  0.00     0.000 C 
BRANCH  11  12
ATOM     12  C   UNL     1      50.094  34.606  83.460  1.00  0.00     0.006 C 
BRANCH  12  13
ATOM     13  C   UNL     1      48.563  34.497  83.447  1.00  0.00     0.053 C 
BRANCH  13  14
ATOM     14  C   UNL     1      48.110  33.375  82.566  1.00  0.00     0.041 C 
ATOM     15  O   UNL     1      47.486  32.396  83.054  1.00  0.00    -0.550 OA
ATOM     16  O   UNL     1      48.337  33.430  81.196  1.00  0.00    -0.550 OA
ENDBRANCH  13  14
ENDBRANCH  12  13
ENDBRANCH  11  12
ENDBRANCH  10  11
ENDBRANCH   9  10
ENDBRANCH   8   9
ENDBRANCH   7   8
ENDBRANCH   6   7
ENDBRANCH   5   6
ENDBRANCH   4   5
ENDBRANCH   3   4
ENDBRANCH   2   3
ENDBRANCH   1   2
BRANCH   1  17
ATOM     17  C   UNL     1      51.318  30.831  87.600  1.00  0.00     0.000 C 
BRANCH  17  18
ATOM     18  C   UNL     1      52.149  29.602  88.005  1.00  0.00     0.000 C 
BRANCH  18  19
ATOM     19  C   UNL     1      53.663  29.779  87.763  1.00  0.00     0.000 C 
BRANCH  19  20
ATOM     20  C   UNL     1      54.395  30.299  89.013  1.00  0.00     0.000 C 
BRANCH  20  21
ATOM     21  C   UNL     1      54.731  31.799  88.924  1.00  0.00     0.000 C 
BRANCH  21  22
ATOM     22  C   UNL     1      53.927  32.700  89.882  1.00  0.00    -0.000 C 
BRANCH  22  23
ATOM     23  C   UNL     1      53.394  31.996  91.144  1.00  0.00    -0.000 C 
BRANCH  23  24
ATOM     24  C   UNL     1      51.882  32.160  91.400  1.00  0.00    -0.000 C 
BRANCH  24  25
ATOM     25  C   UNL     1      51.077  30.848  91.446  1.00  0.00    -0.000 C 
BRANCH  25  26
ATOM     26  C   UNL     1      49.643  31.005  90.915  1.00  0.00    -0.000 C 
BRANCH  26  27
ATOM     27  C   UNL     1      48.930  29.655  90.716  1.00  0.00    -0.000 C 
BRANCH  27  28
ATOM     28  C   UNL     1      47.453  29.747  90.278  1.00  0.00    -0.000 C 
BRANCH  28  29
ATOM     29  C   UNL     1      46.743  31.056  90.664  1.00  0.00    -0.003 C 
ATOM     30  C   UNL     1      46.069  31.737  89.473  1.00  0.00     0.004 C 
ENDBRANCH  28  29
ENDBRANCH  27  28
ENDBRANCH  26  27
ENDBRANCH  25  26
ENDBRANCH  24  25
ENDBRANCH  23  24
ENDBRANCH  22  23
ENDBRANCH  21  22
ENDBRANCH  20  21
ENDBRANCH  19  20
ENDBRANCH  18  19
ENDBRANCH  17  18
ENDBRANCH   1  17
TORSDOF 26
ENDMDL
MODEL 8
REMARK VINA RESULT:    -2.858      2.387      6.702
REMARK INTER + INTRA:         -13.201
REMARK INTER:                  -7.361
REMARK INTRA:                  -5.840
REMARK UNBOUND:                -5.998
REMARK SMILES CCCCCCCCCCCCCCCCCCCCCCCCCCCC(=O)[O-]
REMARK SMILES IDX 15 1 16 2 17 3 18 4 19 5 20 6 21 7 22 8 23 9 24 10 25 11
REMARK SMILES IDX 26 12 27 13 28 14 29 15 30 16 14 17 13 18 12 19 11 20 10 21
REMARK SMILES IDX 9 22 8 23 7 24 6 25 5 26 4 27 3 28 2 29 1 30
REMARK H PARENT
REMARK Flexibility Score: inf
ROOT
ATOM      1  C   UNL     1      47.810  29.983  90.287  1.00  0.00     0.000 C 
ENDROOT
BRANCH   1   2
ATOM      2  C   UNL     1      48.932  30.877  90.843  1.00  0.00     0.000 C 
BRANCH   2   3
ATOM      3  C   UNL     1      50.332  30.613  90.250  1.00  0.00     0.000 C 
BRANCH   3   4
ATOM      4  C   UNL     1      50.912  31.756  89.398  1.00  0.00     0.000 C 
BRANCH   4   5
ATOM      5  C   UNL     1      51.444  31.277  88.035  1.00  0.00     0.000 C 
BRANCH   5   6
ATOM      6  C   UNL     1      51.974  29.834  88.090  1.00  0.00     0.000 C 
BRANCH   6   7
ATOM      7  C   UNL     1      53.341  29.680  87.405  1.00  0.00     0.000 C 
BRANCH   7   8
ATOM      8  C   UNL     1      53.596  30.833  86.427  1.00  0.00     0.000 C 
BRANCH   8   9
ATOM      9  C   UNL     1      55.065  31.280  86.470  1.00  0.00     0.000 C 
BRANCH   9  10
ATOM     10  C   UNL     1      55.511  31.705  87.886  1.00  0.00     0.000 C 
BRANCH  10  11
ATOM     11  C   UNL     1      54.878  33.024  88.369  1.00  0.00     0.000 C 
BRANCH  11  12
ATOM     12  C   UNL     1      54.293  32.980  89.791  1.00  0.00     0.006 C 
BRANCH  12  13
ATOM     13  C   UNL     1      55.008  31.968  90.698  1.00  0.00     0.053 C 
BRANCH  13  14
ATOM     14  C   UNL     1      54.050  30.944  91.222  1.00  0.00     0.041 C 
ATOM     15  O   UNL     1      54.136  29.743  90.851  1.00  0.00    -0.550 OA
ATOM     16  O   UNL     1      53.088  31.306  92.158  1.00  0.00    -0.550 OA
ENDBRANCH  13  14
ENDBRANCH  12  13
ENDBRANCH  11  12
ENDBRANCH  10  11
ENDBRANCH   9  10
ENDBRANCH   8   9
ENDBRANCH   7   8
ENDBRANCH   6   7
ENDBRANCH   5   6
ENDBRANCH   4   5
ENDBRANCH   3   4
ENDBRANCH   2   3
ENDBRANCH   1   2
BRANCH   1  17
ATOM     17  C   UNL     1      46.614  30.786  89.753  1.00  0.00     0.000 C 
BRANCH  17  18
ATOM     18  C   UNL     1      47.041  31.972  88.871  1.00  0.00     0.000 C 
BRANCH  18  19
ATOM     19  C   UNL     1      47.463  31.555  87.446  1.00  0.00     0.000 C 
BRANCH  19  20
ATOM     20  C   UNL     1      48.354  32.614  86.771  1.00  0.00     0.000 C 
BRANCH  20  21
ATOM     21  C   UNL     1      48.539  33.873  87.636  1.00  0.00     0.000 C 
BRANCH  21  22
ATOM     22  C   UNL     1      48.947  35.139  86.857  1.00  0.00    -0.000 C 
BRANCH  22  23
ATOM     23  C   UNL     1      50.251  35.806  87.335  1.00  0.00    -0.000 C 
BRANCH  23  24
ATOM     24  C   UNL     1      51.468  34.866  87.448  1.00  0.00    -0.000 C 
BRANCH  24  25
ATOM     25  C   UNL     1      52.687  35.263  86.594  1.00  0.00    -0.000 C 
BRANCH  25  26
ATOM     26  C   UNL     1      52.745  34.519  85.250  1.00  0.00    -0.000 C 
BRANCH  26  27
ATOM     27  C   UNL     1      51.609  33.492  85.087  1.00  0.00    -0.000 C 
BRANCH  27  28
ATOM     28  C   UNL     1      51.372  32.994  83.647  1.00  0.00    -0.000 C 
BRANCH  28  29
ATOM     29  C   UNL     1      50.294  31.906  83.506  1.00  0.00    -0.003 C 
ATOM     30  C   UNL     1      50.540  30.707  84.423  1.00  0.00     0.004 C 
ENDBRANCH  28  29
ENDBRANCH  27  28
ENDBRANCH  26  27
ENDBRANCH  25  26
ENDBRANCH  24  25
ENDBRANCH  23  24
ENDBRANCH  22  23
ENDBRANCH  21  22
ENDBRANCH  20  21
ENDBRANCH  19  20
ENDBRANCH  18  19
ENDBRANCH  17  18
ENDBRANCH   1  17
TORSDOF 26
ENDMDL
MODEL 9
REMARK VINA RESULT:    -2.815      2.934      4.810
REMARK INTER + INTRA:         -13.092
REMARK INTER:                  -7.326
REMARK INTRA:                  -5.766
REMARK UNBOUND:                -5.998
REMARK SMILES CCCCCCCCCCCCCCCCCCCCCCCCCCCC(=O)[O-]
REMARK SMILES IDX 15 1 16 2 17 3 18 4 19 5 20 6 21 7 22 8 23 9 24 10 25 11
REMARK SMILES IDX 26 12 27 13 28 14 29 15 30 16 14 17 13 18 12 19 11 20 10 21
REMARK SMILES IDX 9 22 8 23 7 24 6 25 5 26 4 27 3 28 2 29 1 30
REMARK H PARENT
REMARK Flexibility Score: inf
ROOT
ATOM      1  C   UNL     1      55.721  31.822  88.177  1.00  0.00     0.000 C 
ENDROOT
BRANCH   1   2
ATOM      2  C   UNL     1      54.635  31.237  87.257  1.00  0.00     0.000 C 
BRANCH   2   3
ATOM      3  C   UNL     1      53.939  32.262  86.336  1.00  0.00     0.000 C 
BRANCH   3   4
ATOM      4  C   UNL     1      53.992  33.723  86.817  1.00  0.00     0.000 C 
BRANCH   4   5
ATOM      5  C   UNL     1      52.715  34.156  87.559  1.00  0.00     0.000 C 
BRANCH   5   6
ATOM      6  C   UNL     1      52.087  35.422  86.949  1.00  0.00     0.000 C 
BRANCH   6   7
ATOM      7  C   UNL     1      50.557  35.448  87.089  1.00  0.00     0.000 C 
BRANCH   7   8
ATOM      8  C   UNL     1      50.039  34.136  87.688  1.00  0.00     0.000 C 
BRANCH   8   9
ATOM      9  C   UNL     1      48.637  33.800  87.157  1.00  0.00     0.000 C 
BRANCH   9  10
ATOM     10  C   UNL     1      48.642  32.583  86.207  1.00  0.00     0.000 C 
BRANCH  10  11
ATOM     11  C   UNL     1      50.053  32.083  85.841  1.00  0.00     0.000 C 
BRANCH  11  12
ATOM     12  C   UNL     1      50.393  32.139  84.342  1.00  0.00     0.006 C 
BRANCH  12  13
ATOM     13  C   UNL     1      51.254  33.355  83.972  1.00  0.00     0.053 C 
BRANCH  13  14
ATOM     14  C   UNL     1      50.468  34.352  83.180  1.00  0.00     0.041 C 
ATOM     15  O   UNL     1      50.854  34.698  82.031  1.00  0.00    -0.550 OA
ATOM     16  O   UNL     1      49.281  34.866  83.688  1.00  0.00    -0.550 OA
ENDBRANCH  13  14
ENDBRANCH  12  13
ENDBRANCH  11  12
ENDBRANCH  10  11
ENDBRANCH   9  10
ENDBRANCH   8   9
ENDBRANCH   7   8
ENDBRANCH   6   7
ENDBRANCH   5   6
ENDBRANCH   4   5
ENDBRANCH   3   4
ENDBRANCH   2   3
ENDBRANCH   1   2
BRANCH   1  17
ATOM     17  C   UNL     1      55.442  31.569  89.667  1.00  0.00     0.000 C 
BRANCH  17  18
ATOM     18  C   UNL     1      55.293  32.870  90.473  1.00  0.00     0.000 C 
BRANCH  18  19
ATOM     19  C   UNL     1      53.834  33.187  90.861  1.00  0.00     0.000 C 
BRANCH  19  20
ATOM     20  C   UNL     1      52.995  31.912  91.059  1.00  0.00     0.000 C 
BRANCH  20  21
ATOM     21  C   UNL     1      51.610  32.003  90.394  1.00  0.00     0.000 C 
BRANCH  21  22
ATOM     22  C   UNL     1      51.464  31.193  89.091  1.00  0.00    -0.000 C 
BRANCH  22  23
ATOM     23  C   UNL     1      51.904  29.720  89.187  1.00  0.00    -0.000 C 
BRANCH  23  24
ATOM     24  C   UNL     1      50.773  28.684  89.023  1.00  0.00    -0.000 C 
BRANCH  24  25
ATOM     25  C   UNL     1      50.265  28.054  90.333  1.00  0.00    -0.000 C 
BRANCH  25  26
ATOM     26  C   UNL     1      49.208  28.916  91.043  1.00  0.00    -0.000 C 
BRANCH  26  27
ATOM     27  C   UNL     1      48.264  29.631  90.059  1.00  0.00    -0.000 C 
BRANCH  27  28
ATOM     28  C   UNL     1      47.911  31.087  90.425  1.00  0.00    -0.000 C 
BRANCH  28  29
ATOM     29  C   UNL     1      46.905  31.768  89.481  1.00  0.00    -0.003 C 
ATOM     30  C   UNL     1      46.230  30.784  88.526  1.00  0.00     0.004 C 
ENDBRANCH  28  29
ENDBRANCH  27  28
ENDBRANCH  26  27
ENDBRANCH  25  26
ENDBRANCH  24  25
ENDBRANCH  23  24
ENDBRANCH  22  23
ENDBRANCH  21  22
ENDBRANCH  20  21
ENDBRANCH  19  20
ENDBRANCH  18  19
ENDBRANCH  17  18
ENDBRANCH   1  17
TORSDOF 26
ENDMDL
