MODEL 1
REMARK VINA RESULT:    10.649      0.000      0.000
REMARK INTER + INTRA:          18.706
REMARK INTER:                  19.365
REMARK INTRA:                  -0.659
REMARK UNBOUND:                -0.659
REMARK SMILES CCCCCCCCCCCCCC[C@@H](C)C(=O)[O-]
REMARK SMILES IDX 9 1 10 2 11 3 12 4 13 5 14 6 15 7 16 8 17 9 18 10 19 11 8 12
REMARK SMILES IDX 7 13 6 14 5 15 4 16 3 17 2 18 1 19
REMARK H PARENT
REMARK Flexibility Score: inf
ROOT
ATOM      1  C   UNL     1     -18.259  16.871  16.529  1.00  0.00     0.000 C 
ENDROOT
BRANCH   1   2
ATOM      2  C   UNL     1     -19.100  17.178  17.785  1.00  0.00     0.000 C 
BRANCH   2   3
ATOM      3  C   UNL     1     -18.826  16.271  18.999  1.00  0.00     0.000 C 
BRANCH   3   4
ATOM      4  C   UNL     1     -18.964  17.011  20.340  1.00  0.00     0.000 C 
BRANCH   4   5
ATOM      5  C   UNL     1     -19.118  18.534  20.173  1.00  0.00     0.001 C 
BRANCH   5   6
ATOM      6  C   UNL     1     -17.829  19.356  20.384  1.00  0.00     0.009 C 
BRANCH   6   7
ATOM      7  C   UNL     1     -17.572  19.783  21.847  1.00  0.00     0.032 C 
ATOM      8  C   UNL     1     -18.888  20.179  22.525  1.00  0.00     0.014 C 
BRANCH   7   9
ATOM      9  C   UNL     1     -16.906  18.687  22.632  1.00  0.00     0.044 C 
ATOM     10  O   UNL     1     -16.075  17.925  22.072  1.00  0.00    -0.550 OA
ATOM     11  O   UNL     1     -17.201  18.508  23.979  1.00  0.00    -0.550 OA
ENDBRANCH   7   9
ENDBRANCH   6   7
ENDBRANCH   5   6
ENDBRANCH   4   5
ENDBRANCH   3   4
ENDBRANCH   2   3
ENDBRANCH   1   2
BRANCH   1  12
ATOM     12  C   UNL     1     -19.070  16.541  15.264  1.00  0.00     0.000 C 
BRANCH  12  13
ATOM     13  C   UNL     1     -18.804  17.523  14.113  1.00  0.00    -0.000 C 
BRANCH  13  14
ATOM     14  C   UNL     1     -18.888  16.815  12.756  1.00  0.00    -0.000 C 
BRANCH  14  15
ATOM     15  C   UNL     1     -18.218  17.649  11.658  1.00  0.00    -0.000 C 
BRANCH  15  16
ATOM     16  C   UNL     1     -18.460  17.031  10.271  1.00  0.00    -0.000 C 
BRANCH  16  17
ATOM     17  C   UNL     1     -17.147  16.823   9.487  1.00  0.00    -0.000 C 
BRANCH  17  18
ATOM     18  C   UNL     1     -16.343  15.595   9.947  1.00  0.00    -0.003 C 
ATOM     19  C   UNL     1     -17.034  14.272   9.620  1.00  0.00     0.004 C 
ENDBRANCH  17  18
ENDBRANCH  16  17
ENDBRANCH  15  16
ENDBRANCH  14  15
ENDBRANCH  13  14
ENDBRANCH  12  13
ENDBRANCH   1  12
TORSDOF 14
ENDMDL
MODEL 2
REMARK VINA RESULT:    11.552      2.189      2.823
REMARK INTER + INTRA:          20.349
REMARK INTER:                  19.460
REMARK INTRA:                   0.888
REMARK UNBOUND:                -0.659
REMARK SMILES CCCCCCCCCCCCCC[C@@H](C)C(=O)[O-]
REMARK SMILES IDX 9 1 10 2 11 3 12 4 13 5 14 6 15 7 16 8 17 9 18 10 19 11 8 12
REMARK SMILES IDX 7 13 6 14 5 15 4 16 3 17 2 18 1 19
REMARK H PARENT
REMARK Flexibility Score: inf
ROOT
ATOM      1  C   UNL     1     -18.256  17.020  17.772  1.00  0.00     0.000 C 
ENDROOT
BRANCH   1   2
ATOM      2  C   UNL     1     -19.125  17.135  19.041  1.00  0.00     0.000 C 
BRANCH   2   3
ATOM      3  C   UNL     1     -18.439  16.706  20.350  1.00  0.00     0.000 C 
BRANCH   3   4
ATOM      4  C   UNL     1     -18.750  17.648  21.525  1.00  0.00     0.000 C 
BRANCH   4   5
ATOM      5  C   UNL     1     -19.103  19.078  21.071  1.00  0.00     0.001 C 
BRANCH   5   6
ATOM      6  C   UNL     1     -18.611  20.206  22.002  1.00  0.00     0.009 C 
BRANCH   6   7
ATOM      7  C   UNL     1     -18.439  21.578  21.313  1.00  0.00     0.032 C 
ATOM      8  C   UNL     1     -16.984  22.048  21.416  1.00  0.00     0.014 C 
BRANCH   7   9
ATOM      9  C   UNL     1     -18.853  21.524  19.868  1.00  0.00     0.044 C 
ATOM     10  O   UNL     1     -19.125  20.418  19.330  1.00  0.00    -0.550 OA
ATOM     11  O   UNL     1     -18.940  22.690  19.117  1.00  0.00    -0.550 OA
ENDBRANCH   7   9
ENDBRANCH   6   7
ENDBRANCH   5   6
ENDBRANCH   4   5
ENDBRANCH   3   4
ENDBRANCH   2   3
ENDBRANCH   1   2
BRANCH   1  12
ATOM     12  C   UNL     1     -19.037  16.875  16.454  1.00  0.00     0.000 C 
BRANCH  12  13
ATOM     13  C   UNL     1     -19.124  18.189  15.665  1.00  0.00    -0.000 C 
BRANCH  13  14
ATOM     14  C   UNL     1     -19.058  17.929  14.156  1.00  0.00    -0.000 C 
BRANCH  14  15
ATOM     15  C   UNL     1     -18.956  16.429  13.859  1.00  0.00    -0.000 C 
BRANCH  15  16
ATOM     16  C   UNL     1     -18.835  16.171  12.349  1.00  0.00    -0.000 C 
BRANCH  16  17
ATOM     17  C   UNL     1     -18.512  17.458  11.561  1.00  0.00    -0.000 C 
BRANCH  17  18
ATOM     18  C   UNL     1     -17.388  17.282  10.527  1.00  0.00    -0.003 C 
ATOM     19  C   UNL     1     -17.908  17.140   9.097  1.00  0.00     0.004 C 
ENDBRANCH  17  18
ENDBRANCH  16  17
ENDBRANCH  15  16
ENDBRANCH  14  15
ENDBRANCH  13  14
ENDBRANCH  12  13
ENDBRANCH   1  12
TORSDOF 14
ENDMDL
