MODEL 1
REMARK VINA RESULT:    -2.404      0.000      0.000
REMARK INTER + INTRA:          -4.091
REMARK INTER:                  -3.388
REMARK INTRA:                  -0.703
REMARK UNBOUND:                -0.703
REMARK SMILES CCCCCCCCC(=O)[O-]
REMARK SMILES IDX 6 1 7 2 8 3 9 4 10 5 11 6 5 7 4 8 3 9 2 10 1 11
REMARK H PARENT
REMARK Flexibility Score: inf
ROOT
ATOM      1  C   UNL     1      74.020  88.993  92.923  1.00  0.00     0.000 C 
ENDROOT
BRANCH   1   2
ATOM      2  C   UNL     1      73.418  88.379  91.648  1.00  0.00     0.006 C 
BRANCH   2   3
ATOM      3  C   UNL     1      74.368  87.385  90.966  1.00  0.00     0.053 C 
BRANCH   3   4
ATOM      4  C   UNL     1      74.393  87.618  89.489  1.00  0.00     0.041 C 
ATOM      5  O   UNL     1      75.351  88.241  88.961  1.00  0.00    -0.550 OA
ATOM      6  O   UNL     1      73.333  87.190  88.699  1.00  0.00    -0.550 OA
ENDBRANCH   3   4
ENDBRANCH   2   3
ENDBRANCH   1   2
BRANCH   1   7
ATOM      7  C   UNL     1      74.345  90.486  92.764  1.00  0.00     0.000 C 
BRANCH   7   8
ATOM      8  C   UNL     1      75.808  90.771  93.122  1.00  0.00    -0.000 C 
BRANCH   8   9
ATOM      9  C   UNL     1      76.643  91.031  91.858  1.00  0.00    -0.000 C 
BRANCH   9  10
ATOM     10  C   UNL     1      77.451  89.799  91.422  1.00  0.00    -0.003 C 
ATOM     11  C   UNL     1      77.786  88.869  92.588  1.00  0.00     0.004 C 
ENDBRANCH   9  10
ENDBRANCH   8   9
ENDBRANCH   7   8
ENDBRANCH   1   7
TORSDOF 7
ENDMDL
MODEL 2
REMARK VINA RESULT:    -2.373      1.504      2.040
REMARK INTER + INTRA:          -4.047
REMARK INTER:                  -3.347
REMARK INTRA:                  -0.699
REMARK UNBOUND:                -0.703
REMARK SMILES CCCCCCCCC(=O)[O-]
REMARK SMILES IDX 6 1 7 2 8 3 9 4 10 5 11 6 5 7 4 8 3 9 2 10 1 11
REMARK H PARENT
REMARK Flexibility Score: inf
ROOT
ATOM      1  C   UNL     1      74.131  89.958  92.704  1.00  0.00     0.000 C 
ENDROOT
BRANCH   1   2
ATOM      2  C   UNL     1      74.296  88.461  92.393  1.00  0.00     0.006 C 
BRANCH   2   3
ATOM      3  C   UNL     1      73.989  88.125  90.928  1.00  0.00     0.053 C 
BRANCH   3   4
ATOM      4  C   UNL     1      72.713  87.351  90.828  1.00  0.00     0.041 C 
ATOM      5  O   UNL     1      72.193  86.849  91.860  1.00  0.00    -0.550 OA
ATOM      6  O   UNL     1      72.121  87.142  89.589  1.00  0.00    -0.550 OA
ENDBRANCH   3   4
ENDBRANCH   2   3
ENDBRANCH   1   2
BRANCH   1   7
ATOM      7  C   UNL     1      75.468  90.716  92.687  1.00  0.00     0.000 C 
BRANCH   7   8
ATOM      8  C   UNL     1      76.629  89.789  93.067  1.00  0.00    -0.000 C 
BRANCH   8   9
ATOM      9  C   UNL     1      77.795  89.933  92.076  1.00  0.00    -0.000 C 
BRANCH   9  10
ATOM     10  C   UNL     1      77.877  88.759  91.089  1.00  0.00    -0.003 C 
ATOM     11  C   UNL     1      77.328  89.109  89.707  1.00  0.00     0.004 C 
ENDBRANCH   9  10
ENDBRANCH   8   9
ENDBRANCH   7   8
ENDBRANCH   1   7
TORSDOF 7
ENDMDL
MODEL 3
REMARK VINA RESULT:    -2.300      2.744      4.561
REMARK INTER + INTRA:          -3.944
REMARK INTER:                  -3.233
REMARK INTRA:                  -0.711
REMARK UNBOUND:                -0.703
REMARK SMILES CCCCCCCCC(=O)[O-]
REMARK SMILES IDX 6 1 7 2 8 3 9 4 10 5 11 6 5 7 4 8 3 9 2 10 1 11
REMARK H PARENT
REMARK Flexibility Score: inf
ROOT
ATOM      1  C   UNL     1      74.267  89.513  92.352  1.00  0.00     0.000 C 
ENDROOT
BRANCH   1   2
ATOM      2  C   UNL     1      75.702  89.399  92.892  1.00  0.00     0.006 C 
BRANCH   2   3
ATOM      3  C   UNL     1      76.760  89.723  91.829  1.00  0.00     0.053 C 
BRANCH   3   4
ATOM      4  C   UNL     1      77.446  91.011  92.154  1.00  0.00     0.041 C 
ATOM      5  O   UNL     1      76.912  92.110  91.848  1.00  0.00    -0.550 OA
ATOM      6  O   UNL     1      78.701  91.000  92.751  1.00  0.00    -0.550 OA
ENDBRANCH   3   4
ENDBRANCH   2   3
ENDBRANCH   1   2
BRANCH   1   7
ATOM      7  C   UNL     1      73.489  88.192  92.459  1.00  0.00     0.000 C 
BRANCH   7   8
ATOM      8  C   UNL     1      73.093  87.675  91.071  1.00  0.00    -0.000 C 
BRANCH   8   9
ATOM      9  C   UNL     1      73.914  86.433  90.692  1.00  0.00    -0.000 C 
BRANCH   9  10
ATOM     10  C   UNL     1      75.234  86.790  89.992  1.00  0.00    -0.003 C 
ATOM     11  C   UNL     1      75.064  87.872  88.925  1.00  0.00     0.004 C 
ENDBRANCH   9  10
ENDBRANCH   8   9
ENDBRANCH   7   8
ENDBRANCH   1   7
TORSDOF 7
ENDMDL
MODEL 4
REMARK VINA RESULT:    -2.299     15.205     17.002
REMARK INTER + INTRA:          -3.943
REMARK INTER:                  -3.285
REMARK INTRA:                  -0.658
REMARK UNBOUND:                -0.703
REMARK SMILES CCCCCCCCC(=O)[O-]
REMARK SMILES IDX 6 1 7 2 8 3 9 4 10 5 11 6 5 7 4 8 3 9 2 10 1 11
REMARK H PARENT
REMARK Flexibility Score: inf
ROOT
ATOM      1  C   UNL     1      74.545  87.858  73.083  1.00  0.00     0.000 C 
ENDROOT
BRANCH   1   2
ATOM      2  C   UNL     1      75.425  86.997  74.003  1.00  0.00     0.006 C 
BRANCH   2   3
ATOM      3  C   UNL     1      74.838  86.851  75.414  1.00  0.00     0.053 C 
BRANCH   3   4
ATOM      4  C   UNL     1      74.194  85.510  75.573  1.00  0.00     0.041 C 
ATOM      5  O   UNL     1      74.373  84.614  74.706  1.00  0.00    -0.550 OA
ATOM      6  O   UNL     1      73.357  85.264  76.654  1.00  0.00    -0.550 OA
ENDBRANCH   3   4
ENDBRANCH   2   3
ENDBRANCH   1   2
BRANCH   1   7
ATOM      7  C   UNL     1      75.112  89.271  72.876  1.00  0.00     0.000 C 
BRANCH   7   8
ATOM      8  C   UNL     1      74.037  90.336  73.124  1.00  0.00    -0.000 C 
BRANCH   8   9
ATOM      9  C   UNL     1      74.388  91.197  74.347  1.00  0.00    -0.000 C 
BRANCH   9  10
ATOM     10  C   UNL     1      75.804  90.920  74.876  1.00  0.00    -0.003 C 
ATOM     11  C   UNL     1      75.812  90.481  76.341  1.00  0.00     0.004 C 
ENDBRANCH   9  10
ENDBRANCH   8   9
ENDBRANCH   7   8
ENDBRANCH   1   7
TORSDOF 7
ENDMDL
MODEL 5
REMARK VINA RESULT:    -2.225      2.169      2.788
REMARK INTER + INTRA:          -3.838
REMARK INTER:                  -3.369
REMARK INTRA:                  -0.469
REMARK UNBOUND:                -0.703
REMARK SMILES CCCCCCCCC(=O)[O-]
REMARK SMILES IDX 6 1 7 2 8 3 9 4 10 5 11 6 5 7 4 8 3 9 2 10 1 11
REMARK H PARENT
REMARK Flexibility Score: inf
ROOT
ATOM      1  C   UNL     1      74.298  88.588  91.676  1.00  0.00     0.000 C 
ENDROOT
BRANCH   1   2
ATOM      2  C   UNL     1      74.612  87.130  92.051  1.00  0.00     0.006 C 
BRANCH   2   3
ATOM      3  C   UNL     1      75.820  86.571  91.287  1.00  0.00     0.053 C 
BRANCH   3   4
ATOM      4  C   UNL     1      77.075  87.253  91.729  1.00  0.00     0.041 C 
ATOM      5  O   UNL     1      77.438  87.195  92.933  1.00  0.00    -0.550 OA
ATOM      6  O   UNL     1      77.821  87.994  90.820  1.00  0.00    -0.550 OA
ENDBRANCH   3   4
ENDBRANCH   2   3
ENDBRANCH   1   2
BRANCH   1   7
ATOM      7  C   UNL     1      73.883  89.434  92.890  1.00  0.00     0.000 C 
BRANCH   7   8
ATOM      8  C   UNL     1      74.658  90.757  92.928  1.00  0.00    -0.000 C 
BRANCH   8   9
ATOM      9  C   UNL     1      76.167  90.515  92.768  1.00  0.00    -0.000 C 
BRANCH   9  10
ATOM     10  C   UNL     1      76.866  91.642  91.993  1.00  0.00    -0.003 C 
ATOM     11  C   UNL     1      78.145  92.125  92.678  1.00  0.00     0.004 C 
ENDBRANCH   9  10
ENDBRANCH   8   9
ENDBRANCH   7   8
ENDBRANCH   1   7
TORSDOF 7
ENDMDL
MODEL 6
REMARK VINA RESULT:    -2.178     15.446     16.285
REMARK INTER + INTRA:          -3.772
REMARK INTER:                  -2.909
REMARK INTRA:                  -0.863
REMARK UNBOUND:                -0.703
REMARK SMILES CCCCCCCCC(=O)[O-]
REMARK SMILES IDX 6 1 7 2 8 3 9 4 10 5 11 6 5 7 4 8 3 9 2 10 1 11
REMARK H PARENT
REMARK Flexibility Score: inf
ROOT
ATOM      1  C   UNL     1      92.124  84.500  92.441  1.00  0.00     0.000 C 
ENDROOT
BRANCH   1   2
ATOM      2  C   UNL     1      91.576  83.152  92.940  1.00  0.00     0.006 C 
BRANCH   2   3
ATOM      3  C   UNL     1      90.790  82.399  91.859  1.00  0.00     0.053 C 
BRANCH   3   4
ATOM      4  C   UNL     1      89.321  82.493  92.123  1.00  0.00     0.041 C 
ATOM      5  O   UNL     1      88.735  83.605  92.059  1.00  0.00    -0.550 OA
ATOM      6  O   UNL     1      88.606  81.359  92.489  1.00  0.00    -0.550 OA
ENDBRANCH   3   4
ENDBRANCH   2   3
ENDBRANCH   1   2
BRANCH   1   7
ATOM      7  C   UNL     1      91.378  85.701  93.042  1.00  0.00     0.000 C 
BRANCH   7   8
ATOM      8  C   UNL     1      90.726  86.548  91.942  1.00  0.00    -0.000 C 
BRANCH   8   9
ATOM      9  C   UNL     1      91.253  86.148  90.555  1.00  0.00    -0.000 C 
BRANCH   9  10
ATOM     10  C   UNL     1      90.125  85.786  89.578  1.00  0.00    -0.003 C 
ATOM     11  C   UNL     1      90.420  84.517  88.779  1.00  0.00     0.004 C 
ENDBRANCH   9  10
ENDBRANCH   8   9
ENDBRANCH   7   8
ENDBRANCH   1   7
TORSDOF 7
ENDMDL
MODEL 7
REMARK VINA RESULT:    -2.166      2.417      4.570
REMARK INTER + INTRA:          -3.755
REMARK INTER:                  -2.933
REMARK INTRA:                  -0.822
REMARK UNBOUND:                -0.703
REMARK SMILES CCCCCCCCC(=O)[O-]
REMARK SMILES IDX 6 1 7 2 8 3 9 4 10 5 11 6 5 7 4 8 3 9 2 10 1 11
REMARK H PARENT
REMARK Flexibility Score: inf
ROOT
ATOM      1  C   UNL     1      76.884  88.927  90.320  1.00  0.00     0.000 C 
ENDROOT
BRANCH   1   2
ATOM      2  C   UNL     1      77.870  89.195  91.468  1.00  0.00     0.006 C 
BRANCH   2   3
ATOM      3  C   UNL     1      77.181  89.754  92.720  1.00  0.00     0.053 C 
BRANCH   3   4
ATOM      4  C   UNL     1      76.372  90.963  92.371  1.00  0.00     0.041 C 
ATOM      5  O   UNL     1      76.934  91.992  91.914  1.00  0.00    -0.550 OA
ATOM      6  O   UNL     1      75.001  90.972  92.597  1.00  0.00    -0.550 OA
ENDBRANCH   3   4
ENDBRANCH   2   3
ENDBRANCH   1   2
BRANCH   1   7
ATOM      7  C   UNL     1      76.719  87.429  90.020  1.00  0.00     0.000 C 
BRANCH   7   8
ATOM      8  C   UNL     1      75.412  86.891  90.614  1.00  0.00    -0.000 C 
BRANCH   8   9
ATOM      9  C   UNL     1      74.264  87.893  90.416  1.00  0.00    -0.000 C 
BRANCH   9  10
ATOM     10  C   UNL     1      73.399  88.055  91.675  1.00  0.00    -0.003 C 
ATOM     11  C   UNL     1      74.095  87.550  92.939  1.00  0.00     0.004 C 
ENDBRANCH   9  10
ENDBRANCH   8   9
ENDBRANCH   7   8
ENDBRANCH   1   7
TORSDOF 7
ENDMDL
