MODEL 1
REMARK VINA RESULT:    -3.089      0.000      0.000
REMARK INTER + INTRA:         -11.989
REMARK INTER:                  -7.785
REMARK INTRA:                  -4.204
REMARK UNBOUND:                -4.204
REMARK SMILES CCCCCCCCCCCCCCCCCCCCCCCCCCCC(=O)[O-]
REMARK SMILES IDX 15 1 16 2 17 3 18 4 19 5 20 6 21 7 22 8 23 9 24 10 25 11
REMARK SMILES IDX 26 12 27 13 28 14 29 15 30 16 14 17 13 18 12 19 11 20 10 21
REMARK SMILES IDX 9 22 8 23 7 24 6 25 5 26 4 27 3 28 2 29 1 30
REMARK H PARENT
REMARK Flexibility Score: inf
ROOT
ATOM      1  C   UNL     1       7.226  -2.263  -3.165  1.00  0.00     0.000 C 
ENDROOT
BRANCH   1   2
ATOM      2  C   UNL     1       8.234  -1.976  -2.046  1.00  0.00     0.000 C 
BRANCH   2   3
ATOM      3  C   UNL     1       8.325  -0.471  -1.757  1.00  0.00     0.000 C 
BRANCH   3   4
ATOM      4  C   UNL     1       7.178   0.334  -2.397  1.00  0.00     0.000 C 
BRANCH   4   5
ATOM      5  C   UNL     1       7.625   1.538  -3.246  1.00  0.00     0.000 C 
BRANCH   5   6
ATOM      6  C   UNL     1       6.552   1.995  -4.246  1.00  0.00     0.000 C 
BRANCH   6   7
ATOM      7  C   UNL     1       5.812   0.791  -4.848  1.00  0.00     0.000 C 
BRANCH   7   8
ATOM      8  C   UNL     1       4.295   1.018  -4.953  1.00  0.00     0.000 C 
BRANCH   8   9
ATOM      9  C   UNL     1       3.841   2.302  -4.237  1.00  0.00     0.000 C 
BRANCH   9  10
ATOM     10  C   UNL     1       2.314   2.480  -4.255  1.00  0.00     0.000 C 
BRANCH  10  11
ATOM     11  C   UNL     1       1.575   1.225  -4.739  1.00  0.00     0.000 C 
BRANCH  11  12
ATOM     12  C   UNL     1       0.694   0.645  -3.622  1.00  0.00     0.006 C 
BRANCH  12  13
ATOM     13  C   UNL     1       0.656   1.546  -2.381  1.00  0.00     0.053 C 
BRANCH  13  14
ATOM     14  C   UNL     1      -0.727   1.679  -1.820  1.00  0.00     0.041 C 
ATOM     15  O   UNL     1      -1.716   1.226  -2.453  1.00  0.00    -0.550 OA
ATOM     16  O   UNL     1      -0.921   2.298  -0.592  1.00  0.00    -0.550 OA
ENDBRANCH  13  14
ENDBRANCH  12  13
ENDBRANCH  11  12
ENDBRANCH  10  11
ENDBRANCH   9  10
ENDBRANCH   8   9
ENDBRANCH   7   8
ENDBRANCH   6   7
ENDBRANCH   5   6
ENDBRANCH   4   5
ENDBRANCH   3   4
ENDBRANCH   2   3
ENDBRANCH   1   2
BRANCH   1  17
ATOM     17  C   UNL     1       7.268  -3.743  -3.575  1.00  0.00     0.000 C 
BRANCH  17  18
ATOM     18  C   UNL     1       6.399  -4.034  -4.809  1.00  0.00     0.000 C 
BRANCH  18  19
ATOM     19  C   UNL     1       5.427  -2.882  -5.125  1.00  0.00     0.000 C 
BRANCH  19  20
ATOM     20  C   UNL     1       4.795  -3.015  -6.520  1.00  0.00     0.000 C 
BRANCH  20  21
ATOM     21  C   UNL     1       3.350  -2.492  -6.561  1.00  0.00     0.000 C 
BRANCH  21  22
ATOM     22  C   UNL     1       2.718  -2.403  -5.157  1.00  0.00    -0.000 C 
BRANCH  22  23
ATOM     23  C   UNL     1       1.186  -2.537  -5.163  1.00  0.00    -0.000 C 
BRANCH  23  24
ATOM     24  C   UNL     1       0.706  -3.858  -5.781  1.00  0.00    -0.000 C 
BRANCH  24  25
ATOM     25  C   UNL     1       1.132  -5.052  -4.914  1.00  0.00    -0.000 C 
BRANCH  25  26
ATOM     26  C   UNL     1       1.906  -6.116  -5.708  1.00  0.00    -0.000 C 
BRANCH  26  27
ATOM     27  C   UNL     1       3.378  -6.231  -5.270  1.00  0.00    -0.000 C 
BRANCH  27  28
ATOM     28  C   UNL     1       3.545  -6.085  -3.742  1.00  0.00    -0.000 C 
BRANCH  28  29
ATOM     29  C   UNL     1       4.239  -7.290  -3.080  1.00  0.00    -0.003 C 
ATOM     30  C   UNL     1       3.760  -8.633  -3.628  1.00  0.00     0.004 C 
ENDBRANCH  28  29
ENDBRANCH  27  28
ENDBRANCH  26  27
ENDBRANCH  25  26
ENDBRANCH  24  25
ENDBRANCH  23  24
ENDBRANCH  22  23
ENDBRANCH  21  22
ENDBRANCH  20  21
ENDBRANCH  19  20
ENDBRANCH  18  19
ENDBRANCH  17  18
ENDBRANCH   1  17
TORSDOF 26
ENDMDL
MODEL 2
REMARK VINA RESULT:    -3.088      5.096      8.084
REMARK INTER + INTRA:         -11.986
REMARK INTER:                  -6.562
REMARK INTRA:                  -5.424
REMARK UNBOUND:                -4.204
REMARK SMILES CCCCCCCCCCCCCCCCCCCCCCCCCCCC(=O)[O-]
REMARK SMILES IDX 15 1 16 2 17 3 18 4 19 5 20 6 21 7 22 8 23 9 24 10 25 11
REMARK SMILES IDX 26 12 27 13 28 14 29 15 30 16 14 17 13 18 12 19 11 20 10 21
REMARK SMILES IDX 9 22 8 23 7 24 6 25 5 26 4 27 3 28 2 29 1 30
REMARK H PARENT
REMARK Flexibility Score: inf
ROOT
ATOM      1  C   UNL     1      10.270  -4.628  -0.673  1.00  0.00     0.000 C 
ENDROOT
BRANCH   1   2
ATOM      2  C   UNL     1      10.230  -5.073   0.794  1.00  0.00     0.000 C 
BRANCH   2   3
ATOM      3  C   UNL     1       8.797  -5.035   1.344  1.00  0.00     0.000 C 
BRANCH   3   4
ATOM      4  C   UNL     1       8.666  -4.186   2.622  1.00  0.00     0.000 C 
BRANCH   4   5
ATOM      5  C   UNL     1       9.408  -2.837   2.584  1.00  0.00     0.000 C 
BRANCH   5   6
ATOM      6  C   UNL     1       8.548  -1.699   2.015  1.00  0.00     0.000 C 
BRANCH   6   7
ATOM      7  C   UNL     1       9.108  -1.204   0.673  1.00  0.00     0.000 C 
BRANCH   7   8
ATOM      8  C   UNL     1      10.621  -0.936   0.723  1.00  0.00     0.000 C 
BRANCH   8   9
ATOM      9  C   UNL     1      10.965   0.545   0.482  1.00  0.00     0.000 C 
BRANCH   9  10
ATOM     10  C   UNL     1      10.447   1.461   1.602  1.00  0.00     0.000 C 
BRANCH  10  11
ATOM     11  C   UNL     1       9.796   2.744   1.067  1.00  0.00     0.000 C 
BRANCH  11  12
ATOM     12  C   UNL     1       8.278   2.726   1.303  1.00  0.00     0.006 C 
BRANCH  12  13
ATOM     13  C   UNL     1       7.893   1.952   2.570  1.00  0.00     0.053 C 
BRANCH  13  14
ATOM     14  C   UNL     1       7.594   2.864   3.721  1.00  0.00     0.041 C 
ATOM     15  O   UNL     1       8.097   2.644   4.854  1.00  0.00    -0.550 OA
ATOM     16  O   UNL     1       6.764   3.962   3.540  1.00  0.00    -0.550 OA
ENDBRANCH  13  14
ENDBRANCH  12  13
ENDBRANCH  11  12
ENDBRANCH  10  11
ENDBRANCH   9  10
ENDBRANCH   8   9
ENDBRANCH   7   8
ENDBRANCH   6   7
ENDBRANCH   5   6
ENDBRANCH   4   5
ENDBRANCH   3   4
ENDBRANCH   2   3
ENDBRANCH   1   2
BRANCH   1  17
ATOM     17  C   UNL     1       8.882  -4.165  -1.143  1.00  0.00     0.000 C 
BRANCH  17  18
ATOM     18  C   UNL     1       8.406  -4.921  -2.395  1.00  0.00     0.000 C 
BRANCH  18  19
ATOM     19  C   UNL     1       7.641  -4.011  -3.373  1.00  0.00     0.000 C 
BRANCH  19  20
ATOM     20  C   UNL     1       7.577  -2.553  -2.887  1.00  0.00     0.000 C 
BRANCH  20  21
ATOM     21  C   UNL     1       6.933  -1.618  -3.923  1.00  0.00     0.000 C 
BRANCH  21  22
ATOM     22  C   UNL     1       6.837  -0.163  -3.420  1.00  0.00    -0.000 C 
BRANCH  22  23
ATOM     23  C   UNL     1       7.534   0.066  -2.069  1.00  0.00    -0.000 C 
BRANCH  23  24
ATOM     24  C   UNL     1       8.459   1.292  -2.075  1.00  0.00    -0.000 C 
BRANCH  24  25
ATOM     25  C   UNL     1       9.193   1.413  -3.420  1.00  0.00    -0.000 C 
BRANCH  25  26
ATOM     26  C   UNL     1      10.702   1.150  -3.297  1.00  0.00    -0.000 C 
BRANCH  26  27
ATOM     27  C   UNL     1      11.060  -0.339  -3.455  1.00  0.00    -0.000 C 
BRANCH  27  28
ATOM     28  C   UNL     1      10.405  -0.968  -4.704  1.00  0.00    -0.000 C 
BRANCH  28  29
ATOM     29  C   UNL     1      10.858  -2.414  -4.975  1.00  0.00    -0.003 C 
ATOM     30  C   UNL     1      11.400  -3.117  -3.732  1.00  0.00     0.004 C 
ENDBRANCH  28  29
ENDBRANCH  27  28
ENDBRANCH  26  27
ENDBRANCH  25  26
ENDBRANCH  24  25
ENDBRANCH  23  24
ENDBRANCH  22  23
ENDBRANCH  21  22
ENDBRANCH  20  21
ENDBRANCH  19  20
ENDBRANCH  18  19
ENDBRANCH  17  18
ENDBRANCH   1  17
TORSDOF 26
ENDMDL
MODEL 3
REMARK VINA RESULT:    -3.011      5.448      8.159
REMARK INTER + INTRA:         -11.792
REMARK INTER:                  -6.381
REMARK INTRA:                  -5.411
REMARK UNBOUND:                -4.204
REMARK SMILES CCCCCCCCCCCCCCCCCCCCCCCCCCCC(=O)[O-]
REMARK SMILES IDX 15 1 16 2 17 3 18 4 19 5 20 6 21 7 22 8 23 9 24 10 25 11
REMARK SMILES IDX 26 12 27 13 28 14 29 15 30 16 14 17 13 18 12 19 11 20 10 21
REMARK SMILES IDX 9 22 8 23 7 24 6 25 5 26 4 27 3 28 2 29 1 30
REMARK H PARENT
REMARK Flexibility Score: inf
ROOT
ATOM      1  C   UNL     1       7.641  -0.836  -2.045  1.00  0.00     0.000 C 
ENDROOT
BRANCH   1   2
ATOM      2  C   UNL     1       8.255   0.505  -2.462  1.00  0.00     0.000 C 
BRANCH   2   3
ATOM      3  C   UNL     1       7.218   1.635  -2.386  1.00  0.00     0.000 C 
BRANCH   3   4
ATOM      4  C   UNL     1       7.603   2.737  -1.381  1.00  0.00     0.000 C 
BRANCH   4   5
ATOM      5  C   UNL     1       8.802   3.608  -1.799  1.00  0.00     0.000 C 
BRANCH   5   6
ATOM      6  C   UNL     1      10.007   3.454  -0.859  1.00  0.00     0.000 C 
BRANCH   6   7
ATOM      7  C   UNL     1      10.997   2.411  -1.398  1.00  0.00     0.000 C 
BRANCH   7   8
ATOM      8  C   UNL     1      11.439   1.403  -0.325  1.00  0.00     0.000 C 
BRANCH   8   9
ATOM      9  C   UNL     1      11.203   1.922   1.104  1.00  0.00     0.000 C 
BRANCH   9  10
ATOM     10  C   UNL     1      10.385   0.942   1.961  1.00  0.00     0.000 C 
BRANCH  10  11
ATOM     11  C   UNL     1       8.901   0.904   1.567  1.00  0.00     0.000 C 
BRANCH  11  12
ATOM     12  C   UNL     1       8.012   1.334   2.744  1.00  0.00     0.006 C 
BRANCH  12  13
ATOM     13  C   UNL     1       7.349   2.697   2.506  1.00  0.00     0.053 C 
BRANCH  13  14
ATOM     14  C   UNL     1       7.771   3.716   3.520  1.00  0.00     0.041 C 
ATOM     15  O   UNL     1       8.968   3.774   3.904  1.00  0.00    -0.550 OA
ATOM     16  O   UNL     1       6.840   4.608   4.037  1.00  0.00    -0.550 OA
ENDBRANCH  13  14
ENDBRANCH  12  13
ENDBRANCH  11  12
ENDBRANCH  10  11
ENDBRANCH   9  10
ENDBRANCH   8   9
ENDBRANCH   7   8
ENDBRANCH   6   7
ENDBRANCH   5   6
ENDBRANCH   4   5
ENDBRANCH   3   4
ENDBRANCH   2   3
ENDBRANCH   1   2
BRANCH   1  17
ATOM     17  C   UNL     1       7.260  -1.672  -3.277  1.00  0.00     0.000 C 
BRANCH  17  18
ATOM     18  C   UNL     1       7.677  -3.145  -3.137  1.00  0.00     0.000 C 
BRANCH  18  19
ATOM     19  C   UNL     1       8.401  -3.424  -1.808  1.00  0.00     0.000 C 
BRANCH  19  20
ATOM     20  C   UNL     1       9.799  -4.029  -2.018  1.00  0.00     0.000 C 
BRANCH  20  21
ATOM     21  C   UNL     1      10.917  -3.118  -1.487  1.00  0.00     0.000 C 
BRANCH  21  22
ATOM     22  C   UNL     1      10.437  -2.209  -0.336  1.00  0.00    -0.000 C 
BRANCH  22  23
ATOM     23  C   UNL     1      11.291  -2.328   0.937  1.00  0.00    -0.000 C 
BRANCH  23  24
ATOM     24  C   UNL     1      10.505  -2.886   2.132  1.00  0.00    -0.000 C 
BRANCH  24  25
ATOM     25  C   UNL     1       8.996  -2.672   1.939  1.00  0.00    -0.000 C 
BRANCH  25  26
ATOM     26  C   UNL     1       8.190  -3.973   2.079  1.00  0.00    -0.000 C 
BRANCH  26  27
ATOM     27  C   UNL     1       9.079  -5.229   2.048  1.00  0.00    -0.000 C 
BRANCH  27  28
ATOM     28  C   UNL     1       8.870  -6.060   0.763  1.00  0.00    -0.000 C 
BRANCH  28  29
ATOM     29  C   UNL     1      10.115  -6.860   0.338  1.00  0.00    -0.003 C 
ATOM     30  C   UNL     1      11.425  -6.216   0.787  1.00  0.00     0.004 C 
ENDBRANCH  28  29
ENDBRANCH  27  28
ENDBRANCH  26  27
ENDBRANCH  25  26
ENDBRANCH  24  25
ENDBRANCH  23  24
ENDBRANCH  22  23
ENDBRANCH  21  22
ENDBRANCH  20  21
ENDBRANCH  19  20
ENDBRANCH  18  19
ENDBRANCH  17  18
ENDBRANCH   1  17
TORSDOF 26
ENDMDL
MODEL 4
REMARK VINA RESULT:    -3.006      1.299      2.801
REMARK INTER + INTRA:         -11.778
REMARK INTER:                  -8.431
REMARK INTRA:                  -3.348
REMARK UNBOUND:                -4.204
REMARK SMILES CCCCCCCCCCCCCCCCCCCCCCCCCCCC(=O)[O-]
REMARK SMILES IDX 15 1 16 2 17 3 18 4 19 5 20 6 21 7 22 8 23 9 24 10 25 11
REMARK SMILES IDX 26 12 27 13 28 14 29 15 30 16 14 17 13 18 12 19 11 20 10 21
REMARK SMILES IDX 9 22 8 23 7 24 6 25 5 26 4 27 3 28 2 29 1 30
REMARK H PARENT
REMARK Flexibility Score: inf
ROOT
ATOM      1  C   UNL     1       8.329  -1.918  -1.739  1.00  0.00     0.000 C 
ENDROOT
BRANCH   1   2
ATOM      2  C   UNL     1       8.741  -0.752  -0.832  1.00  0.00     0.000 C 
BRANCH   2   3
ATOM      3  C   UNL     1       8.215   0.584  -1.376  1.00  0.00     0.000 C 
BRANCH   3   4
ATOM      4  C   UNL     1       7.171   0.408  -2.496  1.00  0.00     0.000 C 
BRANCH   4   5
ATOM      5  C   UNL     1       6.982   1.635  -3.406  1.00  0.00     0.000 C 
BRANCH   5   6
ATOM      6  C   UNL     1       6.462   2.866  -2.649  1.00  0.00     0.000 C 
BRANCH   6   7
ATOM      7  C   UNL     1       5.119   3.340  -3.224  1.00  0.00     0.000 C 
BRANCH   7   8
ATOM      8  C   UNL     1       5.003   3.097  -4.737  1.00  0.00     0.000 C 
BRANCH   8   9
ATOM      9  C   UNL     1       3.567   3.290  -5.256  1.00  0.00     0.000 C 
BRANCH   9  10
ATOM     10  C   UNL     1       2.549   3.478  -4.119  1.00  0.00     0.000 C 
BRANCH  10  11
ATOM     11  C   UNL     1       1.785   2.189  -3.785  1.00  0.00     0.000 C 
BRANCH  11  12
ATOM     12  C   UNL     1       1.054   2.320  -2.441  1.00  0.00     0.006 C 
BRANCH  12  13
ATOM     13  C   UNL     1       0.063   1.174  -2.201  1.00  0.00     0.053 C 
BRANCH  13  14
ATOM     14  C   UNL     1      -1.271   1.668  -1.729  1.00  0.00     0.041 C 
ATOM     15  O   UNL     1      -2.213   1.835  -2.546  1.00  0.00    -0.550 OA
ATOM     16  O   UNL     1      -1.473   1.938  -0.382  1.00  0.00    -0.550 OA
ENDBRANCH  13  14
ENDBRANCH  12  13
ENDBRANCH  11  12
ENDBRANCH  10  11
ENDBRANCH   9  10
ENDBRANCH   8   9
ENDBRANCH   7   8
ENDBRANCH   6   7
ENDBRANCH   5   6
ENDBRANCH   4   5
ENDBRANCH   3   4
ENDBRANCH   2   3
ENDBRANCH   1   2
BRANCH   1  17
ATOM     17  C   UNL     1       8.867  -3.251  -1.197  1.00  0.00     0.000 C 
BRANCH  17  18
ATOM     18  C   UNL     1       8.477  -4.444  -2.085  1.00  0.00     0.000 C 
BRANCH  18  19
ATOM     19  C   UNL     1       8.060  -4.007  -3.501  1.00  0.00     0.000 C 
BRANCH  19  20
ATOM     20  C   UNL     1       6.790  -4.727  -3.985  1.00  0.00     0.000 C 
BRANCH  20  21
ATOM     21  C   UNL     1       5.923  -3.839  -4.892  1.00  0.00     0.000 C 
BRANCH  21  22
ATOM     22  C   UNL     1       6.255  -2.340  -4.737  1.00  0.00    -0.000 C 
BRANCH  22  23
ATOM     23  C   UNL     1       5.463  -1.433  -5.693  1.00  0.00    -0.000 C 
BRANCH  23  24
ATOM     24  C   UNL     1       4.491  -0.498  -4.960  1.00  0.00    -0.000 C 
BRANCH  24  25
ATOM     25  C   UNL     1       3.077  -0.609  -5.551  1.00  0.00    -0.000 C 
BRANCH  25  26
ATOM     26  C   UNL     1       2.668  -2.062  -5.840  1.00  0.00    -0.000 C 
BRANCH  26  27
ATOM     27  C   UNL     1       1.763  -2.653  -4.744  1.00  0.00    -0.000 C 
BRANCH  27  28
ATOM     28  C   UNL     1       1.500  -4.160  -4.955  1.00  0.00    -0.000 C 
BRANCH  28  29
ATOM     29  C   UNL     1       2.716  -5.048  -4.633  1.00  0.00    -0.003 C 
ATOM     30  C   UNL     1       2.370  -6.242  -3.746  1.00  0.00     0.004 C 
ENDBRANCH  28  29
ENDBRANCH  27  28
ENDBRANCH  26  27
ENDBRANCH  25  26
ENDBRANCH  24  25
ENDBRANCH  23  24
ENDBRANCH  22  23
ENDBRANCH  21  22
ENDBRANCH  20  21
ENDBRANCH  19  20
ENDBRANCH  18  19
ENDBRANCH  17  18
ENDBRANCH   1  17
TORSDOF 26
ENDMDL
MODEL 5
REMARK VINA RESULT:    -3.001      5.211      9.989
REMARK INTER + INTRA:         -11.766
REMARK INTER:                  -7.065
REMARK INTRA:                  -4.701
REMARK UNBOUND:                -4.204
REMARK SMILES CCCCCCCCCCCCCCCCCCCCCCCCCCCC(=O)[O-]
REMARK SMILES IDX 15 1 16 2 17 3 18 4 19 5 20 6 21 7 22 8 23 9 24 10 25 11
REMARK SMILES IDX 26 12 27 13 28 14 29 15 30 16 14 17 13 18 12 19 11 20 10 21
REMARK SMILES IDX 9 22 8 23 7 24 6 25 5 26 4 27 3 28 2 29 1 30
REMARK H PARENT
REMARK Flexibility Score: inf
ROOT
ATOM      1  C   UNL     1       6.622  -2.671  -4.205  1.00  0.00     0.000 C 
ENDROOT
BRANCH   1   2
ATOM      2  C   UNL     1       7.475  -3.942  -4.284  1.00  0.00     0.000 C 
BRANCH   2   3
ATOM      3  C   UNL     1       6.761  -5.129  -3.622  1.00  0.00     0.000 C 
BRANCH   3   4
ATOM      4  C   UNL     1       7.648  -6.384  -3.520  1.00  0.00     0.000 C 
BRANCH   4   5
ATOM      5  C   UNL     1       8.000  -6.815  -2.084  1.00  0.00     0.000 C 
BRANCH   5   6
ATOM      6  C   UNL     1       9.513  -6.853  -1.826  1.00  0.00     0.000 C 
BRANCH   6   7
ATOM      7  C   UNL     1      10.298  -6.459  -3.086  1.00  0.00     0.000 C 
BRANCH   7   8
ATOM      8  C   UNL     1      11.081  -5.148  -2.912  1.00  0.00     0.000 C 
BRANCH   8   9
ATOM      9  C   UNL     1      10.891  -4.530  -1.516  1.00  0.00     0.000 C 
BRANCH   9  10
ATOM     10  C   UNL     1       9.924  -3.335  -1.526  1.00  0.00     0.000 C 
BRANCH  10  11
ATOM     11  C   UNL     1       8.871  -3.413  -0.411  1.00  0.00     0.000 C 
BRANCH  11  12
ATOM     12  C   UNL     1       9.515  -3.824   0.922  1.00  0.00     0.006 C 
BRANCH  12  13
ATOM     13  C   UNL     1       8.477  -4.039   2.030  1.00  0.00     0.053 C 
BRANCH  13  14
ATOM     14  C   UNL     1       8.499  -5.440   2.562  1.00  0.00     0.041 C 
ATOM     15  O   UNL     1       8.363  -6.419   1.783  1.00  0.00    -0.550 OA
ATOM     16  O   UNL     1       8.677  -5.663   3.921  1.00  0.00    -0.550 OA
ENDBRANCH  13  14
ENDBRANCH  12  13
ENDBRANCH  11  12
ENDBRANCH  10  11
ENDBRANCH   9  10
ENDBRANCH   8   9
ENDBRANCH   7   8
ENDBRANCH   6   7
ENDBRANCH   5   6
ENDBRANCH   4   5
ENDBRANCH   3   4
ENDBRANCH   2   3
ENDBRANCH   1   2
BRANCH   1  17
ATOM     17  C   UNL     1       7.250  -1.647  -3.248  1.00  0.00     0.000 C 
BRANCH  17  18
ATOM     18  C   UNL     1       6.666  -0.237  -3.434  1.00  0.00     0.000 C 
BRANCH  18  19
ATOM     19  C   UNL     1       7.248   0.775  -2.430  1.00  0.00     0.000 C 
BRANCH  19  20
ATOM     20  C   UNL     1       8.645   0.370  -1.934  1.00  0.00     0.000 C 
BRANCH  20  21
ATOM     21  C   UNL     1       8.682   0.129  -0.416  1.00  0.00     0.000 C 
BRANCH  21  22
ATOM     22  C   UNL     1      10.123   0.077   0.134  1.00  0.00    -0.000 C 
BRANCH  22  23
ATOM     23  C   UNL     1      10.193  -0.221   1.641  1.00  0.00    -0.000 C 
BRANCH  23  24
ATOM     24  C   UNL     1       8.815  -0.204   2.317  1.00  0.00    -0.000 C 
BRANCH  24  25
ATOM     25  C   UNL     1       8.717   0.951   3.326  1.00  0.00    -0.000 C 
BRANCH  25  26
ATOM     26  C   UNL     1       7.405   1.740   3.199  1.00  0.00    -0.000 C 
BRANCH  26  27
ATOM     27  C   UNL     1       7.636   3.234   2.907  1.00  0.00    -0.000 C 
BRANCH  27  28
ATOM     28  C   UNL     1       7.277   3.607   1.452  1.00  0.00    -0.000 C 
BRANCH  28  29
ATOM     29  C   UNL     1       8.373   4.418   0.736  1.00  0.00    -0.003 C 
ATOM     30  C   UNL     1       9.655   3.622   0.503  1.00  0.00     0.004 C 
ENDBRANCH  28  29
ENDBRANCH  27  28
ENDBRANCH  26  27
ENDBRANCH  25  26
ENDBRANCH  24  25
ENDBRANCH  23  24
ENDBRANCH  22  23
ENDBRANCH  21  22
ENDBRANCH  20  21
ENDBRANCH  19  20
ENDBRANCH  18  19
ENDBRANCH  17  18
ENDBRANCH   1  17
TORSDOF 26
ENDMDL
MODEL 6
REMARK VINA RESULT:    -2.960      1.947      4.550
REMARK INTER + INTRA:         -11.662
REMARK INTER:                  -8.183
REMARK INTRA:                  -3.479
REMARK UNBOUND:                -4.204
REMARK SMILES CCCCCCCCCCCCCCCCCCCCCCCCCCCC(=O)[O-]
REMARK SMILES IDX 15 1 16 2 17 3 18 4 19 5 20 6 21 7 22 8 23 9 24 10 25 11
REMARK SMILES IDX 26 12 27 13 28 14 29 15 30 16 14 17 13 18 12 19 11 20 10 21
REMARK SMILES IDX 9 22 8 23 7 24 6 25 5 26 4 27 3 28 2 29 1 30
REMARK H PARENT
REMARK Flexibility Score: inf
ROOT
ATOM      1  C   UNL     1       6.424   1.850  -4.067  1.00  0.00     0.000 C 
ENDROOT
BRANCH   1   2
ATOM      2  C   UNL     1       4.911   2.066  -4.193  1.00  0.00     0.000 C 
BRANCH   2   3
ATOM      3  C   UNL     1       4.358   1.374  -5.448  1.00  0.00     0.000 C 
BRANCH   3   4
ATOM      4  C   UNL     1       4.853  -0.076  -5.603  1.00  0.00     0.000 C 
BRANCH   4   5
ATOM      5  C   UNL     1       3.793  -1.157  -5.321  1.00  0.00     0.000 C 
BRANCH   5   6
ATOM      6  C   UNL     1       2.367  -0.697  -5.657  1.00  0.00     0.000 C 
BRANCH   6   7
ATOM      7  C   UNL     1       1.457  -0.780  -4.422  1.00  0.00     0.000 C 
BRANCH   7   8
ATOM      8  C   UNL     1       0.492   0.412  -4.315  1.00  0.00     0.000 C 
BRANCH   8   9
ATOM      9  C   UNL     1       0.821   1.331  -3.125  1.00  0.00     0.000 C 
BRANCH   9  10
ATOM     10  C   UNL     1       1.302   2.722  -3.570  1.00  0.00     0.000 C 
BRANCH  10  11
ATOM     11  C   UNL     1       1.850   3.561  -2.407  1.00  0.00     0.000 C 
BRANCH  11  12
ATOM     12  C   UNL     1       1.124   3.220  -1.097  1.00  0.00     0.006 C 
BRANCH  12  13
ATOM     13  C   UNL     1       0.144   4.320  -0.669  1.00  0.00     0.053 C 
BRANCH  13  14
ATOM     14  C   UNL     1       0.700   5.693  -0.898  1.00  0.00     0.041 C 
ATOM     15  O   UNL     1       0.110   6.497  -1.666  1.00  0.00    -0.550 OA
ATOM     16  O   UNL     1       1.867   6.086  -0.256  1.00  0.00    -0.550 OA
ENDBRANCH  13  14
ENDBRANCH  12  13
ENDBRANCH  11  12
ENDBRANCH  10  11
ENDBRANCH   9  10
ENDBRANCH   8   9
ENDBRANCH   7   8
ENDBRANCH   6   7
ENDBRANCH   5   6
ENDBRANCH   4   5
ENDBRANCH   3   4
ENDBRANCH   2   3
ENDBRANCH   1   2
BRANCH   1  17
ATOM     17  C   UNL     1       6.891   2.071  -2.620  1.00  0.00     0.000 C 
BRANCH  17  18
ATOM     18  C   UNL     1       7.671   0.868  -2.066  1.00  0.00     0.000 C 
BRANCH  18  19
ATOM     19  C   UNL     1       7.247  -0.458  -2.724  1.00  0.00     0.000 C 
BRANCH  19  20
ATOM     20  C   UNL     1       8.061  -1.655  -2.207  1.00  0.00     0.000 C 
BRANCH  20  21
ATOM     21  C   UNL     1       7.620  -2.983  -2.843  1.00  0.00     0.000 C 
BRANCH  21  22
ATOM     22  C   UNL     1       6.872  -2.775  -4.176  1.00  0.00    -0.000 C 
BRANCH  22  23
ATOM     23  C   UNL     1       6.265  -4.067  -4.748  1.00  0.00    -0.000 C 
BRANCH  23  24
ATOM     24  C   UNL     1       6.802  -5.331  -4.062  1.00  0.00    -0.000 C 
BRANCH  24  25
ATOM     25  C   UNL     1       5.646  -6.223  -3.581  1.00  0.00    -0.000 C 
BRANCH  25  26
ATOM     26  C   UNL     1       5.031  -7.059  -4.715  1.00  0.00    -0.000 C 
BRANCH  26  27
ATOM     27  C   UNL     1       3.493  -7.102  -4.653  1.00  0.00    -0.000 C 
BRANCH  27  28
ATOM     28  C   UNL     1       2.905  -5.886  -3.905  1.00  0.00    -0.000 C 
BRANCH  28  29
ATOM     29  C   UNL     1       2.616  -4.682  -4.821  1.00  0.00    -0.003 C 
ATOM     30  C   UNL     1       1.124  -4.404  -4.994  1.00  0.00     0.004 C 
ENDBRANCH  28  29
ENDBRANCH  27  28
ENDBRANCH  26  27
ENDBRANCH  25  26
ENDBRANCH  24  25
ENDBRANCH  23  24
ENDBRANCH  22  23
ENDBRANCH  21  22
ENDBRANCH  20  21
ENDBRANCH  19  20
ENDBRANCH  18  19
ENDBRANCH  17  18
ENDBRANCH   1  17
TORSDOF 26
ENDMDL
MODEL 7
REMARK VINA RESULT:    -2.938      1.377      2.207
REMARK INTER + INTRA:         -11.609
REMARK INTER:                  -7.389
REMARK INTRA:                  -4.219
REMARK UNBOUND:                -4.204
REMARK SMILES CCCCCCCCCCCCCCCCCCCCCCCCCCCC(=O)[O-]
REMARK SMILES IDX 15 1 16 2 17 3 18 4 19 5 20 6 21 7 22 8 23 9 24 10 25 11
REMARK SMILES IDX 26 12 27 13 28 14 29 15 30 16 14 17 13 18 12 19 11 20 10 21
REMARK SMILES IDX 9 22 8 23 7 24 6 25 5 26 4 27 3 28 2 29 1 30
REMARK H PARENT
REMARK Flexibility Score: inf
ROOT
ATOM      1  C   UNL     1       7.231  -1.019  -2.869  1.00  0.00     0.000 C 
ENDROOT
BRANCH   1   2
ATOM      2  C   UNL     1       7.692   0.197  -2.056  1.00  0.00     0.000 C 
BRANCH   2   3
ATOM      3  C   UNL     1       7.852   1.433  -2.954  1.00  0.00     0.000 C 
BRANCH   3   4
ATOM      4  C   UNL     1       6.636   2.377  -2.898  1.00  0.00     0.000 C 
BRANCH   4   5
ATOM      5  C   UNL     1       5.672   2.265  -4.093  1.00  0.00     0.000 C 
BRANCH   5   6
ATOM      6  C   UNL     1       6.292   1.537  -5.295  1.00  0.00     0.000 C 
BRANCH   6   7
ATOM      7  C   UNL     1       5.347   0.451  -5.829  1.00  0.00     0.000 C 
BRANCH   7   8
ATOM      8  C   UNL     1       4.302   0.010  -4.792  1.00  0.00     0.000 C 
BRANCH   8   9
ATOM      9  C   UNL     1       2.929  -0.278  -5.425  1.00  0.00     0.000 C 
BRANCH   9  10
ATOM     10  C   UNL     1       1.779   0.423  -4.684  1.00  0.00     0.000 C 
BRANCH  10  11
ATOM     11  C   UNL     1       2.146   1.839  -4.219  1.00  0.00     0.000 C 
BRANCH  11  12
ATOM     12  C   UNL     1       0.999   2.464  -3.411  1.00  0.00     0.006 C 
BRANCH  12  13
ATOM     13  C   UNL     1       0.474   1.523  -2.319  1.00  0.00     0.053 C 
BRANCH  13  14
ATOM     14  C   UNL     1      -1.019   1.397  -2.349  1.00  0.00     0.041 C 
ATOM     15  O   UNL     1      -1.699   1.644  -1.320  1.00  0.00    -0.550 OA
ATOM     16  O   UNL     1      -1.659   1.012  -3.520  1.00  0.00    -0.550 OA
ENDBRANCH  13  14
ENDBRANCH  12  13
ENDBRANCH  11  12
ENDBRANCH  10  11
ENDBRANCH   9  10
ENDBRANCH   8   9
ENDBRANCH   7   8
ENDBRANCH   6   7
ENDBRANCH   5   6
ENDBRANCH   4   5
ENDBRANCH   3   4
ENDBRANCH   2   3
ENDBRANCH   1   2
BRANCH   1  17
ATOM     17  C   UNL     1       7.960  -2.292  -2.412  1.00  0.00     0.000 C 
BRANCH  17  18
ATOM     18  C   UNL     1       7.593  -3.515  -3.269  1.00  0.00     0.000 C 
BRANCH  18  19
ATOM     19  C   UNL     1       6.918  -3.120  -4.595  1.00  0.00     0.000 C 
BRANCH  19  20
ATOM     20  C   UNL     1       5.519  -3.738  -4.747  1.00  0.00     0.000 C 
BRANCH  20  21
ATOM     21  C   UNL     1       5.093  -3.871  -6.218  1.00  0.00     0.000 C 
BRANCH  21  22
ATOM     22  C   UNL     1       3.568  -3.719  -6.402  1.00  0.00    -0.000 C 
BRANCH  22  23
ATOM     23  C   UNL     1       2.768  -3.952  -5.110  1.00  0.00    -0.000 C 
BRANCH  23  24
ATOM     24  C   UNL     1       2.281  -5.401  -4.964  1.00  0.00    -0.000 C 
BRANCH  24  25
ATOM     25  C   UNL     1       2.742  -5.998  -3.626  1.00  0.00    -0.000 C 
BRANCH  25  26
ATOM     26  C   UNL     1       3.305  -7.421  -3.773  1.00  0.00    -0.000 C 
BRANCH  26  27
ATOM     27  C   UNL     1       4.844  -7.452  -3.777  1.00  0.00    -0.000 C 
BRANCH  27  28
ATOM     28  C   UNL     1       5.421  -7.600  -5.203  1.00  0.00    -0.000 C 
BRANCH  28  29
ATOM     29  C   UNL     1       6.849  -7.042  -5.350  1.00  0.00    -0.003 C 
ATOM     30  C   UNL     1       7.652  -7.100  -4.052  1.00  0.00     0.004 C 
ENDBRANCH  28  29
ENDBRANCH  27  28
ENDBRANCH  26  27
ENDBRANCH  25  26
ENDBRANCH  24  25
ENDBRANCH  23  24
ENDBRANCH  22  23
ENDBRANCH  21  22
ENDBRANCH  20  21
ENDBRANCH  19  20
ENDBRANCH  18  19
ENDBRANCH  17  18
ENDBRANCH   1  17
TORSDOF 26
ENDMDL
MODEL 8
REMARK VINA RESULT:    -2.933      1.571      2.441
REMARK INTER + INTRA:         -11.594
REMARK INTER:                  -6.757
REMARK INTRA:                  -4.837
REMARK UNBOUND:                -4.204
REMARK SMILES CCCCCCCCCCCCCCCCCCCCCCCCCCCC(=O)[O-]
REMARK SMILES IDX 15 1 16 2 17 3 18 4 19 5 20 6 21 7 22 8 23 9 24 10 25 11
REMARK SMILES IDX 26 12 27 13 28 14 29 15 30 16 14 17 13 18 12 19 11 20 10 21
REMARK SMILES IDX 9 22 8 23 7 24 6 25 5 26 4 27 3 28 2 29 1 30
REMARK H PARENT
REMARK Flexibility Score: inf
ROOT
ATOM      1  C   UNL     1       8.118  -1.324  -1.760  1.00  0.00     0.000 C 
ENDROOT
BRANCH   1   2
ATOM      2  C   UNL     1       7.236  -0.624  -2.801  1.00  0.00     0.000 C 
BRANCH   2   3
ATOM      3  C   UNL     1       7.510   0.887  -2.830  1.00  0.00     0.000 C 
BRANCH   3   4
ATOM      4  C   UNL     1       8.536   1.292  -3.905  1.00  0.00     0.000 C 
BRANCH   4   5
ATOM      5  C   UNL     1       9.001   0.147  -4.823  1.00  0.00     0.000 C 
BRANCH   5   6
ATOM      6  C   UNL     1       8.452   0.267  -6.252  1.00  0.00     0.000 C 
BRANCH   6   7
ATOM      7  C   UNL     1       7.359  -0.781  -6.513  1.00  0.00     0.000 C 
BRANCH   7   8
ATOM      8  C   UNL     1       6.388  -0.361  -7.628  1.00  0.00     0.000 C 
BRANCH   8   9
ATOM      9  C   UNL     1       4.956  -0.141  -7.110  1.00  0.00     0.000 C 
BRANCH   9  10
ATOM     10  C   UNL     1       4.922   0.611  -5.769  1.00  0.00     0.000 C 
BRANCH  10  11
ATOM     11  C   UNL     1       3.845   0.076  -4.815  1.00  0.00     0.000 C 
BRANCH  11  12
ATOM     12  C   UNL     1       2.442   0.480  -5.292  1.00  0.00     0.006 C 
BRANCH  12  13
ATOM     13  C   UNL     1       1.339  -0.010  -4.345  1.00  0.00     0.053 C 
BRANCH  13  14
ATOM     14  C   UNL     1       0.728   1.111  -3.561  1.00  0.00     0.041 C 
ATOM     15  O   UNL     1      -0.345   0.933  -2.927  1.00  0.00    -0.550 OA
ATOM     16  O   UNL     1       1.348   2.353  -3.525  1.00  0.00    -0.550 OA
ENDBRANCH  13  14
ENDBRANCH  12  13
ENDBRANCH  11  12
ENDBRANCH  10  11
ENDBRANCH   9  10
ENDBRANCH   8   9
ENDBRANCH   7   8
ENDBRANCH   6   7
ENDBRANCH   5   6
ENDBRANCH   4   5
ENDBRANCH   3   4
ENDBRANCH   2   3
ENDBRANCH   1   2
BRANCH   1  17
ATOM     17  C   UNL     1       8.345  -2.797  -2.135  1.00  0.00     0.000 C 
BRANCH  17  18
ATOM     18  C   UNL     1       7.801  -3.137  -3.532  1.00  0.00     0.000 C 
BRANCH  18  19
ATOM     19  C   UNL     1       7.126  -4.520  -3.576  1.00  0.00     0.000 C 
BRANCH  19  20
ATOM     20  C   UNL     1       6.301  -4.728  -4.857  1.00  0.00     0.000 C 
BRANCH  20  21
ATOM     21  C   UNL     1       5.267  -3.612  -5.076  1.00  0.00     0.000 C 
BRANCH  21  22
ATOM     22  C   UNL     1       4.593  -3.701  -6.461  1.00  0.00    -0.000 C 
BRANCH  22  23
ATOM     23  C   UNL     1       3.119  -3.262  -6.455  1.00  0.00    -0.000 C 
BRANCH  23  24
ATOM     24  C   UNL     1       2.489  -3.308  -5.056  1.00  0.00    -0.000 C 
BRANCH  24  25
ATOM     25  C   UNL     1       1.292  -4.271  -5.029  1.00  0.00    -0.000 C 
BRANCH  25  26
ATOM     26  C   UNL     1       1.703  -5.734  -5.264  1.00  0.00    -0.000 C 
BRANCH  26  27
ATOM     27  C   UNL     1       1.915  -6.509  -3.951  1.00  0.00    -0.000 C 
BRANCH  27  28
ATOM     28  C   UNL     1       3.333  -6.304  -3.375  1.00  0.00    -0.000 C 
BRANCH  28  29
ATOM     29  C   UNL     1       4.215  -7.564  -3.445  1.00  0.00    -0.003 C 
ATOM     30  C   UNL     1       4.519  -8.006  -4.875  1.00  0.00     0.004 C 
ENDBRANCH  28  29
ENDBRANCH  27  28
ENDBRANCH  26  27
ENDBRANCH  25  26
ENDBRANCH  24  25
ENDBRANCH  23  24
ENDBRANCH  22  23
ENDBRANCH  21  22
ENDBRANCH  20  21
ENDBRANCH  19  20
ENDBRANCH  18  19
ENDBRANCH  17  18
ENDBRANCH   1  17
TORSDOF 26
ENDMDL
MODEL 9
REMARK VINA RESULT:    -2.906      5.300      8.706
REMARK INTER + INTRA:         -11.528
REMARK INTER:                  -5.809
REMARK INTRA:                  -5.719
REMARK UNBOUND:                -4.204
REMARK SMILES CCCCCCCCCCCCCCCCCCCCCCCCCCCC(=O)[O-]
REMARK SMILES IDX 15 1 16 2 17 3 18 4 19 5 20 6 21 7 22 8 23 9 24 10 25 11
REMARK SMILES IDX 26 12 27 13 28 14 29 15 30 16 14 17 13 18 12 19 11 20 10 21
REMARK SMILES IDX 9 22 8 23 7 24 6 25 5 26 4 27 3 28 2 29 1 30
REMARK H PARENT
REMARK Flexibility Score: inf
ROOT
ATOM      1  C   UNL     1       9.391  -2.091  -2.638  1.00  0.00     0.000 C 
ENDROOT
BRANCH   1   2
ATOM      2  C   UNL     1       9.905  -3.255  -1.782  1.00  0.00     0.000 C 
BRANCH   2   3
ATOM      3  C   UNL     1       8.748  -3.972  -1.072  1.00  0.00     0.000 C 
BRANCH   3   4
ATOM      4  C   UNL     1       8.991  -4.155   0.438  1.00  0.00     0.000 C 
BRANCH   4   5
ATOM      5  C   UNL     1       9.698  -2.975   1.130  1.00  0.00     0.000 C 
BRANCH   5   6
ATOM      6  C   UNL     1       8.738  -1.830   1.484  1.00  0.00     0.000 C 
BRANCH   6   7
ATOM      7  C   UNL     1       9.383  -0.464   1.203  1.00  0.00     0.000 C 
BRANCH   7   8
ATOM      8  C   UNL     1      10.791  -0.585   0.600  1.00  0.00     0.000 C 
BRANCH   8   9
ATOM      9  C   UNL     1      11.144   0.601  -0.315  1.00  0.00     0.000 C 
BRANCH   9  10
ATOM     10  C   UNL     1      11.038   1.954   0.407  1.00  0.00     0.000 C 
BRANCH  10  11
ATOM     11  C   UNL     1      10.346   3.029  -0.443  1.00  0.00     0.000 C 
BRANCH  11  12
ATOM     12  C   UNL     1       9.280   3.771   0.377  1.00  0.00     0.006 C 
BRANCH  12  13
ATOM     13  C   UNL     1       9.082   3.158   1.769  1.00  0.00     0.053 C 
BRANCH  13  14
ATOM     14  C   UNL     1       7.633   3.031   2.130  1.00  0.00     0.041 C 
ATOM     15  O   UNL     1       7.257   2.158   2.955  1.00  0.00    -0.550 OA
ATOM     16  O   UNL     1       6.698   3.885   1.559  1.00  0.00    -0.550 OA
ENDBRANCH  13  14
ENDBRANCH  12  13
ENDBRANCH  11  12
ENDBRANCH  10  11
ENDBRANCH   9  10
ENDBRANCH   8   9
ENDBRANCH   7   8
ENDBRANCH   6   7
ENDBRANCH   5   6
ENDBRANCH   4   5
ENDBRANCH   3   4
ENDBRANCH   2   3
ENDBRANCH   1   2
BRANCH   1  17
ATOM     17  C   UNL     1       7.855  -2.084  -2.689  1.00  0.00     0.000 C 
BRANCH  17  18
ATOM     18  C   UNL     1       7.281  -0.667  -2.847  1.00  0.00     0.000 C 
BRANCH  18  19
ATOM     19  C   UNL     1       7.792   0.296  -1.759  1.00  0.00     0.000 C 
BRANCH  19  20
ATOM     20  C   UNL     1       7.424   1.759  -2.054  1.00  0.00     0.000 C 
BRANCH  20  21
ATOM     21  C   UNL     1       6.461   1.894  -3.245  1.00  0.00     0.000 C 
BRANCH  21  22
ATOM     22  C   UNL     1       5.831   3.299  -3.333  1.00  0.00    -0.000 C 
BRANCH  22  23
ATOM     23  C   UNL     1       6.221   4.222  -2.166  1.00  0.00    -0.000 C 
BRANCH  23  24
ATOM     24  C   UNL     1       7.091   5.407  -2.608  1.00  0.00    -0.000 C 
BRANCH  24  25
ATOM     25  C   UNL     1       7.935   5.035  -3.837  1.00  0.00    -0.000 C 
BRANCH  25  26
ATOM     26  C   UNL     1       9.404   4.752  -3.484  1.00  0.00    -0.000 C 
BRANCH  26  27
ATOM     27  C   UNL     1      10.192   4.150  -4.661  1.00  0.00    -0.000 C 
BRANCH  27  28
ATOM     28  C   UNL     1      11.158   3.034  -4.207  1.00  0.00    -0.000 C 
BRANCH  28  29
ATOM     29  C   UNL     1      10.454   1.704  -3.884  1.00  0.00    -0.003 C 
ATOM     30  C   UNL     1       9.668   1.139  -5.065  1.00  0.00     0.004 C 
ENDBRANCH  28  29
ENDBRANCH  27  28
ENDBRANCH  26  27
ENDBRANCH  25  26
ENDBRANCH  24  25
ENDBRANCH  23  24
ENDBRANCH  22  23
ENDBRANCH  21  22
ENDBRANCH  20  21
ENDBRANCH  19  20
ENDBRANCH  18  19
ENDBRANCH  17  18
ENDBRANCH   1  17
TORSDOF 26
ENDMDL
