MODEL 1
REMARK VINA RESULT:     2.360      0.000      0.000
REMARK INTER + INTRA:           3.539
REMARK INTER:                   2.912
REMARK INTRA:                   0.627
REMARK UNBOUND:                 0.627
REMARK SMILES C=C1[C@H]2CC[C@@H]3[C@H]2C(C)(C)CCC[C@]13C
REMARK SMILES IDX 14 1 6 2 7 3 3 4 2 5 1 6 4 7 5 8 15 9 8 10 9 11 10 12 11 13
REMARK SMILES IDX 13 15 12 16
REMARK H PARENT
REMARK Flexibility Score: 80.00
ROOT
ATOM      1  C   UNL     1     152.340 135.825 161.384  1.00  0.00    -0.008 C 
ATOM      2  C   UNL     1     151.574 137.080 161.961  1.00  0.00     0.003 C 
ATOM      3  C   UNL     1     152.668 138.150 162.152  1.00  0.00     0.006 C 
ATOM      4  C   UNL     1     153.188 138.016 160.720  1.00  0.00     0.019 C 
ATOM      5  C   UNL     1     153.420 136.536 160.606  1.00  0.00    -0.068 C 
ATOM      6  C   UNL     1     154.371 135.960 159.862  1.00  0.00     0.009 C 
ATOM      7  C   UNL     1     151.905 138.325 159.912  1.00  0.00     0.008 C 
ATOM      8  C   UNL     1     150.778 137.771 160.819  1.00  0.00     0.005 C 
ATOM      9  C   UNL     1     151.472 134.948 160.439  1.00  0.00     0.016 C 
ENDROOT
BRANCH   3  10
ATOM     10  C   UNL     1     153.679 138.042 163.373  1.00  0.00    -0.032 C 
ATOM     11  C   UNL     1     155.125 138.402 162.949  1.00  0.00     0.011 C 
ATOM     12  C   UNL     1     153.263 139.102 164.431  1.00  0.00     0.011 C 
BRANCH  10  13
ATOM     13  C   UNL     1     153.654 136.681 164.126  1.00  0.00     0.007 CG0
ATOM     14  G   UNL     1     154.030 135.455 163.298  1.00  0.00     0.000 G0
ENDBRANCH  10  13
ENDBRANCH   3  10
BRANCH   1  15
ATOM     15  C   UNL     1     152.897 134.897 162.496  1.00  0.00     0.011 C 
BRANCH  15  16
ATOM     16  C   UNL     1     154.046 135.461 163.324  1.00  0.00     0.001 CG0
ATOM     17  G   UNL     1     153.630 136.677 164.147  1.00  0.00     0.000 G0
ENDBRANCH  15  16
ENDBRANCH   1  15
TORSDOF 0
ENDMDL
MODEL 2
REMARK VINA RESULT:     3.653      1.657      3.838
REMARK INTER + INTRA:           5.134
REMARK INTER:                   4.502
REMARK INTRA:                   0.632
REMARK UNBOUND:                 0.627
REMARK SMILES C=C1[C@H]2CC[C@@H]3[C@H]2C(C)(C)CCC[C@]13C
REMARK SMILES IDX 14 1 6 2 7 3 3 4 2 5 1 6 4 7 5 8 15 9 8 10 9 11 10 12 11 13
REMARK SMILES IDX 13 15 12 16
REMARK H PARENT
REMARK Flexibility Score: 80.00
ROOT
ATOM      1  C   UNL     1     153.315 136.116 162.711  1.00  0.00    -0.008 C 
ATOM      2  C   UNL     1     153.986 136.614 161.371  1.00  0.00     0.003 C 
ATOM      3  C   UNL     1     152.973 137.613 160.776  1.00  0.00     0.006 C 
ATOM      4  C   UNL     1     152.868 138.428 162.065  1.00  0.00     0.019 C 
ATOM      5  C   UNL     1     152.560 137.368 163.084  1.00  0.00    -0.068 C 
ATOM      6  C   UNL     1     151.813 137.547 164.180  1.00  0.00     0.009 C 
ATOM      7  C   UNL     1     154.348 138.828 162.279  1.00  0.00     0.008 C 
ATOM      8  C   UNL     1     155.125 137.619 161.703  1.00  0.00     0.005 C 
ATOM      9  C   UNL     1     154.341 135.746 163.818  1.00  0.00     0.016 C 
ENDROOT
BRANCH   3  10
ATOM     10  C   UNL     1     151.654 137.077 160.069  1.00  0.00    -0.032 C 
ATOM     11  C   UNL     1     150.419 137.935 160.445  1.00  0.00     0.011 C 
ATOM     12  C   UNL     1     151.838 137.235 158.534  1.00  0.00     0.011 C 
BRANCH  10  13
ATOM     13  C   UNL     1     151.357 135.567 160.293  1.00  0.00     0.007 CG0
ATOM     14  G   UNL     1     151.121 135.142 161.740  1.00  0.00     0.000 G0
ENDBRANCH  10  13
ENDBRANCH   3  10
BRANCH   1  15
ATOM     15  C   UNL     1     152.395 134.884 162.501  1.00  0.00     0.011 C 
BRANCH  15  16
ATOM     16  C   UNL     1     151.106 135.137 161.726  1.00  0.00     0.001 CG0
ATOM     17  G   UNL     1     151.367 135.583 160.290  1.00  0.00     0.000 G0
ENDBRANCH  15  16
ENDBRANCH   1  15
TORSDOF 0
ENDMDL
MODEL 3
REMARK VINA RESULT:     4.201      1.735      3.401
REMARK INTER + INTRA:           5.810
REMARK INTER:                   5.178
REMARK INTRA:                   0.632
REMARK UNBOUND:                 0.627
REMARK SMILES C=C1[C@H]2CC[C@@H]3[C@H]2C(C)(C)CCC[C@]13C
REMARK SMILES IDX 14 1 6 2 7 3 3 4 2 5 1 6 4 7 5 8 15 9 8 10 9 11 10 12 11 13
REMARK SMILES IDX 13 15 12 16
REMARK H PARENT
REMARK Flexibility Score: 80.00
ROOT
ATOM      1  C   UNL     1     152.300 136.305 161.100  1.00  0.00    -0.008 C 
ATOM      2  C   UNL     1     153.865 136.467 161.239  1.00  0.00     0.003 C 
ATOM      3  C   UNL     1     154.062 137.213 162.574  1.00  0.00     0.006 C 
ATOM      4  C   UNL     1     153.205 136.226 163.367  1.00  0.00     0.019 C 
ATOM      5  C   UNL     1     151.938 136.191 162.561  1.00  0.00    -0.068 C 
ATOM      6  C   UNL     1     150.712 136.000 163.061  1.00  0.00     0.009 C 
ATOM      7  C   UNL     1     153.946 134.898 163.080  1.00  0.00     0.008 C 
ATOM      8  C   UNL     1     154.493 135.105 161.646  1.00  0.00     0.005 C 
ATOM      9  C   UNL     1     151.875 135.024 160.331  1.00  0.00     0.016 C 
ENDROOT
BRANCH   3  10
ATOM     10  C   UNL     1     153.762 138.771 162.664  1.00  0.00    -0.032 C 
ATOM     11  C   UNL     1     153.038 139.136 163.984  1.00  0.00     0.011 C 
ATOM     12  C   UNL     1     155.125 139.518 162.698  1.00  0.00     0.011 C 
BRANCH  10  13
ATOM     13  C   UNL     1     153.001 139.364 161.443  1.00  0.00     0.007 CG0
ATOM     14  G   UNL     1     151.602 138.804 161.195  1.00  0.00     0.000 G0
ENDBRANCH  10  13
ENDBRANCH   3  10
BRANCH   1  15
ATOM     15  C   UNL     1     151.630 137.513 160.395  1.00  0.00     0.011 C 
BRANCH  15  16
ATOM     16  C   UNL     1     151.606 138.818 161.184  1.00  0.00     0.001 CG0
ATOM     17  G   UNL     1     153.007 139.356 161.466  1.00  0.00     0.000 G0
ENDBRANCH  15  16
ENDBRANCH   1  15
TORSDOF 0
ENDMDL
MODEL 4
REMARK VINA RESULT:     4.288     20.796     22.582
REMARK INTER + INTRA:           5.917
REMARK INTER:                   5.283
REMARK INTRA:                   0.634
REMARK UNBOUND:                 0.627
REMARK SMILES C=C1[C@H]2CC[C@@H]3[C@H]2C(C)(C)CCC[C@]13C
REMARK SMILES IDX 14 1 6 2 7 3 3 4 2 5 1 6 4 7 5 8 15 9 8 10 9 11 10 12 11 13
REMARK SMILES IDX 13 15 12 16
REMARK H PARENT
REMARK Flexibility Score: 80.00
ROOT
ATOM      1  C   UNL     1     137.231 152.348 163.547  1.00  0.00    -0.008 C 
ATOM      2  C   UNL     1     138.159 153.616 163.396  1.00  0.00     0.003 C 
ATOM      3  C   UNL     1     137.785 154.211 162.023  1.00  0.00     0.006 C 
ATOM      4  C   UNL     1     136.289 154.247 162.336  1.00  0.00     0.019 C 
ATOM      5  C   UNL     1     136.026 152.837 162.781  1.00  0.00    -0.068 C 
ATOM      6  C   UNL     1     134.878 152.173 162.600  1.00  0.00     0.009 C 
ATOM      7  C   UNL     1     136.277 155.122 163.613  1.00  0.00     0.008 C 
ATOM      8  C   UNL     1     137.621 154.764 164.295  1.00  0.00     0.005 C 
ATOM      9  C   UNL     1     136.850 152.030 165.020  1.00  0.00     0.016 C 
ENDROOT
BRANCH   3  10
ATOM     10  C   UNL     1     138.298 153.515 160.690  1.00  0.00    -0.032 C 
ATOM     11  C   UNL     1     137.193 153.482 159.604  1.00  0.00     0.011 C 
ATOM     12  C   UNL     1     139.448 154.385 160.110  1.00  0.00     0.011 C 
BRANCH  10  13
ATOM     13  C   UNL     1     138.913 152.100 160.885  1.00  0.00     0.007 CG0
ATOM     14  G   UNL     1     137.967 151.031 161.427  1.00  0.00     0.000 G0
ENDBRANCH  10  13
ENDBRANCH   3  10
BRANCH   1  15
ATOM     15  C   UNL     1     137.861 151.065 162.945  1.00  0.00     0.011 C 
BRANCH  15  16
ATOM     16  C   UNL     1     137.979 151.029 161.424  1.00  0.00     0.001 CG0
ATOM     17  G   UNL     1     138.923 152.102 160.887  1.00  0.00     0.000 G0
ENDBRANCH  15  16
ENDBRANCH   1  15
TORSDOF 0
ENDMDL
MODEL 5
REMARK VINA RESULT:     4.597      1.489      3.161
REMARK INTER + INTRA:           6.299
REMARK INTER:                   5.672
REMARK INTRA:                   0.626
REMARK UNBOUND:                 0.627
REMARK SMILES C=C1[C@H]2CC[C@@H]3[C@H]2C(C)(C)CCC[C@]13C
REMARK SMILES IDX 14 1 6 2 7 3 3 4 2 5 1 6 4 7 5 8 15 9 8 10 9 11 10 12 11 13
REMARK SMILES IDX 13 15 12 16
REMARK H PARENT
REMARK Flexibility Score: 80.00
ROOT
ATOM      1  C   UNL     1     152.667 137.412 160.295  1.00  0.00    -0.008 C 
ATOM      2  C   UNL     1     153.546 136.252 160.907  1.00  0.00     0.003 C 
ATOM      3  C   UNL     1     153.190 136.245 162.408  1.00  0.00     0.006 C 
ATOM      4  C   UNL     1     151.684 136.169 162.152  1.00  0.00     0.019 C 
ATOM      5  C   UNL     1     151.467 137.315 161.205  1.00  0.00    -0.068 C 
ATOM      6  C   UNL     1     150.355 138.055 161.133  1.00  0.00     0.009 C 
ATOM      7  C   UNL     1     151.595 134.875 161.307  1.00  0.00     0.008 C 
ATOM      8  C   UNL     1     152.930 134.877 160.523  1.00  0.00     0.005 C 
ATOM      9  C   UNL     1     152.253 137.164 158.817  1.00  0.00     0.016 C 
ENDROOT
BRANCH   3  10
ATOM     10  C   UNL     1     153.774 137.369 163.367  1.00  0.00    -0.032 C 
ATOM     11  C   UNL     1     152.708 137.866 164.376  1.00  0.00     0.011 C 
ATOM     12  C   UNL     1     154.908 136.730 164.216  1.00  0.00     0.011 C 
BRANCH  10  13
ATOM     13  C   UNL     1     154.437 138.573 162.638  1.00  0.00     0.007 CG0
ATOM     14  G   UNL     1     153.515 139.399 161.743  1.00  0.00     0.000 G0
ENDBRANCH  10  13
ENDBRANCH   3  10
BRANCH   1  15
ATOM     15  C   UNL     1     153.370 138.794 160.353  1.00  0.00     0.011 C 
BRANCH  15  16
ATOM     16  C   UNL     1     153.530 139.404 161.741  1.00  0.00     0.001 CG0
ATOM     17  G   UNL     1     154.445 138.577 162.641  1.00  0.00     0.000 G0
ENDBRANCH  15  16
ENDBRANCH   1  15
TORSDOF 0
ENDMDL
MODEL 6
REMARK VINA RESULT:     4.780     21.201     23.083
REMARK INTER + INTRA:           6.525
REMARK INTER:                   5.867
REMARK INTRA:                   0.657
REMARK UNBOUND:                 0.627
REMARK SMILES C=C1[C@H]2CC[C@@H]3[C@H]2C(C)(C)CCC[C@]13C
REMARK SMILES IDX 14 1 6 2 7 3 3 4 2 5 1 6 4 7 5 8 15 9 8 10 9 11 10 12 11 13
REMARK SMILES IDX 13 15 12 16
REMARK H PARENT
REMARK Flexibility Score: 80.00
ROOT
ATOM      1  C   UNL     1     136.114 153.063 162.331  1.00  0.00    -0.008 C 
ATOM      2  C   UNL     1     137.258 152.006 162.071  1.00  0.00     0.003 C 
ATOM      3  C   UNL     1     138.562 152.828 162.101  1.00  0.00     0.006 C 
ATOM      4  C   UNL     1     138.245 153.469 163.452  1.00  0.00     0.019 C 
ATOM      5  C   UNL     1     136.866 154.020 163.223  1.00  0.00    -0.068 C 
ATOM      6  C   UNL     1     136.373 155.125 163.795  1.00  0.00     0.009 C 
ATOM      7  C   UNL     1     138.076 152.212 164.340  1.00  0.00     0.008 C 
ATOM      8  C   UNL     1     137.490 151.167 163.359  1.00  0.00     0.005 C 
ATOM      9  C   UNL     1     134.883 152.475 163.075  1.00  0.00     0.016 C 
ENDROOT
BRANCH   3  10
ATOM     10  C   UNL     1     138.950 153.744 160.862  1.00  0.00    -0.032 C 
ATOM     11  C   UNL     1     139.496 155.120 161.321  1.00  0.00     0.011 C 
ATOM     12  C   UNL     1     140.114 153.050 160.101  1.00  0.00     0.011 C 
BRANCH  10  13
ATOM     13  C   UNL     1     137.823 153.930 159.806  1.00  0.00     0.007 CG0
ATOM     14  G   UNL     1     136.559 154.631 160.297  1.00  0.00     0.000 G0
ENDBRANCH  10  13
ENDBRANCH   3  10
BRANCH   1  15
ATOM     15  C   UNL     1     135.596 153.721 161.025  1.00  0.00     0.011 C 
BRANCH  15  16
ATOM     16  C   UNL     1     136.573 154.650 160.312  1.00  0.00     0.001 CG0
ATOM     17  G   UNL     1     137.812 153.915 159.804  1.00  0.00     0.000 G0
ENDBRANCH  15  16
ENDBRANCH   1  15
TORSDOF 0
ENDMDL
MODEL 7
REMARK VINA RESULT:     5.164      1.981      4.085
REMARK INTER + INTRA:           6.999
REMARK INTER:                   5.741
REMARK INTRA:                   1.257
REMARK UNBOUND:                 0.627
REMARK SMILES C=C1[C@H]2CC[C@@H]3[C@H]2C(C)(C)CCC[C@]13C
REMARK SMILES IDX 14 1 6 2 7 3 3 4 2 5 1 6 4 7 5 8 15 9 8 10 9 11 10 12 11 13
REMARK SMILES IDX 13 15 12 16
REMARK H PARENT
REMARK Flexibility Score: 80.00
ROOT
ATOM      1  C   UNL     1     153.431 137.680 162.442  1.00  0.00    -0.008 C 
ATOM      2  C   UNL     1     151.941 137.223 162.696  1.00  0.00     0.003 C 
ATOM      3  C   UNL     1     151.536 136.481 161.406  1.00  0.00     0.006 C 
ATOM      4  C   UNL     1     152.758 135.561 161.433  1.00  0.00     0.019 C 
ATOM      5  C   UNL     1     153.888 136.543 161.563  1.00  0.00    -0.068 C 
ATOM      6  C   UNL     1     155.115 136.376 161.054  1.00  0.00     0.009 C 
ATOM      7  C   UNL     1     152.591 134.894 162.820  1.00  0.00     0.008 C 
ATOM      8  C   UNL     1     151.930 136.009 163.667  1.00  0.00     0.005 C 
ATOM      9  C   UNL     1     154.288 137.749 163.737  1.00  0.00     0.016 C 
ENDROOT
BRANCH   3  10
ATOM     10  C   UNL     1     151.196 137.306 160.090  1.00  0.00    -0.032 C 
ATOM     11  C   UNL     1     151.041 136.376 158.861  1.00  0.00     0.011 C 
ATOM     12  C   UNL     1     149.813 137.984 160.297  1.00  0.00     0.011 C 
BRANCH  10  13
ATOM     13  C   UNL     1     152.179 138.469 159.774  1.00  0.00     0.007 CG0
ATOM     14  G   UNL     1     152.370 139.500 160.883  1.00  0.00     0.000 G0
ENDBRANCH  10  13
ENDBRANCH   3  10
BRANCH   1  15
ATOM     15  C   UNL     1     153.525 139.066 161.750  1.00  0.00     0.011 C 
BRANCH  15  16
ATOM     16  C   UNL     1     152.346 139.450 160.862  1.00  0.00     0.001 CG0
ATOM     17  G   UNL     1     152.132 138.463 159.717  1.00  0.00     0.000 G0
ENDBRANCH  15  16
ENDBRANCH   1  15
TORSDOF 0
ENDMDL
MODEL 8
REMARK VINA RESULT:     5.166      1.280      3.573
REMARK INTER + INTRA:           7.001
REMARK INTER:                   6.357
REMARK INTRA:                   0.643
REMARK UNBOUND:                 0.627
REMARK SMILES C=C1[C@H]2CC[C@@H]3[C@H]2C(C)(C)CCC[C@]13C
REMARK SMILES IDX 14 1 6 2 7 3 3 4 2 5 1 6 4 7 5 8 15 9 8 10 9 11 10 12 11 13
REMARK SMILES IDX 13 15 12 16
REMARK H PARENT
REMARK Flexibility Score: 80.00
ROOT
ATOM      1  C   UNL     1     154.214 137.815 162.947  1.00  0.00    -0.008 C 
ATOM      2  C   UNL     1     153.733 137.852 161.443  1.00  0.00     0.003 C 
ATOM      3  C   UNL     1     152.349 137.172 161.460  1.00  0.00     0.006 C 
ATOM      4  C   UNL     1     151.813 138.066 162.579  1.00  0.00     0.019 C 
ATOM      5  C   UNL     1     152.874 137.921 163.632  1.00  0.00    -0.068 C 
ATOM      6  C   UNL     1     152.661 137.973 164.952  1.00  0.00     0.009 C 
ATOM      7  C   UNL     1     152.004 139.468 161.950  1.00  0.00     0.008 C 
ATOM      8  C   UNL     1     153.273 139.292 161.081  1.00  0.00     0.005 C 
ATOM      9  C   UNL     1     155.125 139.012 163.336  1.00  0.00     0.016 C 
ENDROOT
BRANCH   3  10
ATOM     10  C   UNL     1     152.243 135.592 161.591  1.00  0.00    -0.032 C 
ATOM     11  C   UNL     1     151.106 135.176 162.558  1.00  0.00     0.011 C 
ATOM     12  C   UNL     1     151.854 135.023 160.198  1.00  0.00     0.011 C 
BRANCH  10  13
ATOM     13  C   UNL     1     153.571 134.875 161.970  1.00  0.00     0.007 CG0
ATOM     14  G   UNL     1     154.156 135.235 163.333  1.00  0.00     0.000 G0
ENDBRANCH  10  13
ENDBRANCH   3  10
BRANCH   1  15
ATOM     15  C   UNL     1     154.982 136.514 163.300  1.00  0.00     0.011 C 
BRANCH  15  16
ATOM     16  C   UNL     1     154.152 135.235 163.327  1.00  0.00     0.001 CG0
ATOM     17  G   UNL     1     153.571 134.887 161.958  1.00  0.00     0.000 G0
ENDBRANCH  15  16
ENDBRANCH   1  15
TORSDOF 0
ENDMDL
