MODEL 1
REMARK VINA RESULT:    -3.500      0.000      0.000
REMARK INTER + INTRA:          -6.378
REMARK INTER:                  -5.546
REMARK INTRA:                  -0.832
REMARK UNBOUND:                -0.832
REMARK SMILES CCCCCCCCCCCC(=O)[O-]
REMARK SMILES IDX 7 1 8 2 9 3 10 4 11 5 12 6 13 7 14 8 6 9 5 10 4 11 3 12 2 13
REMARK SMILES IDX 1 14
REMARK H PARENT
REMARK Flexibility Score: inf
ROOT
ATOM      1  C   UNL     1       8.851   4.539   0.737  1.00  0.00     0.000 C 
ENDROOT
BRANCH   1   2
ATOM      2  C   UNL     1       8.755   5.979   1.253  1.00  0.00     0.000 C 
BRANCH   2   3
ATOM      3  C   UNL     1       9.935   6.311   2.179  1.00  0.00     0.000 C 
BRANCH   3   4
ATOM      4  C   UNL     1       9.485   6.760   3.582  1.00  0.00     0.006 C 
BRANCH   4   5
ATOM      5  C   UNL     1       8.376   5.891   4.199  1.00  0.00     0.053 C 
BRANCH   5   6
ATOM      6  C   UNL     1       7.078   6.629   4.301  1.00  0.00     0.041 C 
ATOM      7  O   UNL     1       7.019   7.731   4.910  1.00  0.00    -0.550 OA
ATOM      8  O   UNL     1       5.937   6.116   3.697  1.00  0.00    -0.550 OA
ENDBRANCH   5   6
ENDBRANCH   4   5
ENDBRANCH   3   4
ENDBRANCH   2   3
ENDBRANCH   1   2
BRANCH   1   9
ATOM      9  C   UNL     1      10.119   3.849   1.267  1.00  0.00     0.000 C 
BRANCH   9  10
ATOM     10  C   UNL     1       9.821   2.496   1.933  1.00  0.00    -0.000 C 
BRANCH  10  11
ATOM     11  C   UNL     1      10.125   2.498   3.439  1.00  0.00    -0.000 C 
BRANCH  11  12
ATOM     12  C   UNL     1       9.997   1.088   4.026  1.00  0.00    -0.000 C 
BRANCH  12  13
ATOM     13  C   UNL     1       9.629   1.142   5.514  1.00  0.00    -0.003 C 
ATOM     14  C   UNL     1       8.330   0.389   5.787  1.00  0.00     0.004 C 
ENDBRANCH  12  13
ENDBRANCH  11  12
ENDBRANCH  10  11
ENDBRANCH   9  10
ENDBRANCH   1   9
TORSDOF 10
ENDMDL
MODEL 2
REMARK VINA RESULT:    -3.160     21.383     22.457
REMARK INTER + INTRA:          -5.839
REMARK INTER:                  -4.430
REMARK INTRA:                  -1.410
REMARK UNBOUND:                -0.832
REMARK SMILES CCCCCCCCCCCC(=O)[O-]
REMARK SMILES IDX 7 1 8 2 9 3 10 4 11 5 12 6 13 7 14 8 6 9 5 10 4 11 3 12 2 13
REMARK SMILES IDX 1 14
REMARK H PARENT
REMARK Flexibility Score: inf
ROOT
ATOM      1  C   UNL     1      -4.482  -6.450  -9.813  1.00  0.00     0.000 C 
ENDROOT
BRANCH   1   2
ATOM      2  C   UNL     1      -5.820  -5.788  -9.465  1.00  0.00     0.000 C 
BRANCH   2   3
ATOM      3  C   UNL     1      -6.989  -6.758  -9.693  1.00  0.00     0.000 C 
BRANCH   3   4
ATOM      4  C   UNL     1      -8.220  -6.423  -8.830  1.00  0.00     0.006 C 
BRANCH   4   5
ATOM      5  C   UNL     1      -7.969  -6.496  -7.315  1.00  0.00     0.053 C 
BRANCH   5   6
ATOM      6  C   UNL     1      -8.156  -5.167  -6.651  1.00  0.00     0.041 C 
ATOM      7  O   UNL     1      -7.157  -4.474  -6.324  1.00  0.00    -0.550 OA
ATOM      8  O   UNL     1      -9.437  -4.679  -6.423  1.00  0.00    -0.550 OA
ENDBRANCH   5   6
ENDBRANCH   4   5
ENDBRANCH   3   4
ENDBRANCH   2   3
ENDBRANCH   1   2
BRANCH   1   9
ATOM      9  C   UNL     1      -4.107  -7.514  -8.769  1.00  0.00     0.000 C 
BRANCH   9  10
ATOM     10  C   UNL     1      -3.915  -8.908  -9.388  1.00  0.00    -0.000 C 
BRANCH  10  11
ATOM     11  C   UNL     1      -4.801  -9.976  -8.730  1.00  0.00    -0.000 C 
BRANCH  11  12
ATOM     12  C   UNL     1      -5.114  -9.609  -7.274  1.00  0.00    -0.000 C 
BRANCH  12  13
ATOM     13  C   UNL     1      -6.575  -9.919  -6.931  1.00  0.00    -0.003 C 
ATOM     14  C   UNL     1      -7.406 -10.123  -8.195  1.00  0.00     0.004 C 
ENDBRANCH  12  13
ENDBRANCH  11  12
ENDBRANCH  10  11
ENDBRANCH   9  10
ENDBRANCH   1   9
TORSDOF 10
ENDMDL
MODEL 3
REMARK VINA RESULT:    -3.057      1.517      2.232
REMARK INTER + INTRA:          -5.675
REMARK INTER:                  -5.031
REMARK INTRA:                  -0.644
REMARK UNBOUND:                -0.832
REMARK SMILES CCCCCCCCCCCC(=O)[O-]
REMARK SMILES IDX 7 1 8 2 9 3 10 4 11 5 12 6 13 7 14 8 6 9 5 10 4 11 3 12 2 13
REMARK SMILES IDX 1 14
REMARK H PARENT
REMARK Flexibility Score: inf
ROOT
ATOM      1  C   UNL     1       7.865   5.442   1.342  1.00  0.00     0.000 C 
ENDROOT
BRANCH   1   2
ATOM      2  C   UNL     1       8.417   6.128   2.597  1.00  0.00     0.000 C 
BRANCH   2   3
ATOM      3  C   UNL     1       7.340   6.227   3.688  1.00  0.00     0.000 C 
BRANCH   3   4
ATOM      4  C   UNL     1       7.934   6.329   5.105  1.00  0.00     0.006 C 
BRANCH   4   5
ATOM      5  C   UNL     1       7.509   7.588   5.879  1.00  0.00     0.053 C 
BRANCH   5   6
ATOM      6  C   UNL     1       7.269   8.751   4.968  1.00  0.00     0.041 C 
ATOM      7  O   UNL     1       6.138   9.304   4.929  1.00  0.00    -0.550 OA
ATOM      8  O   UNL     1       8.304   9.247   4.186  1.00  0.00    -0.550 OA
ENDBRANCH   5   6
ENDBRANCH   4   5
ENDBRANCH   3   4
ENDBRANCH   2   3
ENDBRANCH   1   2
BRANCH   1   9
ATOM      9  C   UNL     1       8.944   4.577   0.669  1.00  0.00     0.000 C 
BRANCH   9  10
ATOM     10  C   UNL     1      10.125   4.271   1.603  1.00  0.00    -0.000 C 
BRANCH  10  11
ATOM     11  C   UNL     1      10.060   2.856   2.196  1.00  0.00    -0.000 C 
BRANCH  11  12
ATOM     12  C   UNL     1      10.125   2.899   3.727  1.00  0.00    -0.000 C 
BRANCH  12  13
ATOM     13  C   UNL     1      10.105   1.485   4.318  1.00  0.00    -0.003 C 
ATOM     14  C   UNL     1       9.878   0.437   3.231  1.00  0.00     0.004 C 
ENDBRANCH  12  13
ENDBRANCH  11  12
ENDBRANCH  10  11
ENDBRANCH   9  10
ENDBRANCH   1   9
TORSDOF 10
ENDMDL
MODEL 4
REMARK VINA RESULT:    -2.942      2.810      5.502
REMARK INTER + INTRA:          -5.493
REMARK INTER:                  -4.110
REMARK INTRA:                  -1.383
REMARK UNBOUND:                -0.832
REMARK SMILES CCCCCCCCCCCC(=O)[O-]
REMARK SMILES IDX 7 1 8 2 9 3 10 4 11 5 12 6 13 7 14 8 6 9 5 10 4 11 3 12 2 13
REMARK SMILES IDX 1 14
REMARK H PARENT
REMARK Flexibility Score: inf
ROOT
ATOM      1  C   UNL     1       6.464   6.042   3.735  1.00  0.00     0.000 C 
ENDROOT
BRANCH   1   2
ATOM      2  C   UNL     1       6.554   5.815   2.222  1.00  0.00     0.000 C 
BRANCH   2   3
ATOM      3  C   UNL     1       7.867   6.379   1.658  1.00  0.00     0.000 C 
BRANCH   3   4
ATOM      4  C   UNL     1       8.869   5.279   1.265  1.00  0.00     0.006 C 
BRANCH   4   5
ATOM      5  C   UNL     1      10.061   5.136   2.227  1.00  0.00     0.053 C 
BRANCH   5   6
ATOM      6  C   UNL     1      10.078   3.800   2.902  1.00  0.00     0.041 C 
ATOM      7  O   UNL     1      10.125   2.743   2.219  1.00  0.00    -0.550 OA
ATOM      8  O   UNL     1      10.076   3.723   4.289  1.00  0.00    -0.550 OA
ENDBRANCH   5   6
ENDBRANCH   4   5
ENDBRANCH   3   4
ENDBRANCH   2   3
ENDBRANCH   1   2
BRANCH   1   9
ATOM      9  C   UNL     1       6.453   7.544   4.066  1.00  0.00     0.000 C 
BRANCH   9  10
ATOM     10  C   UNL     1       7.534   7.932   5.088  1.00  0.00    -0.000 C 
BRANCH  10  11
ATOM     11  C   UNL     1       8.654   6.887   5.192  1.00  0.00    -0.000 C 
BRANCH  11  12
ATOM     12  C   UNL     1      10.025   7.525   4.934  1.00  0.00    -0.000 C 
BRANCH  12  13
ATOM     13  C   UNL     1       9.880   8.997   4.532  1.00  0.00    -0.003 C 
ATOM     14  C   UNL     1      10.125   9.186   3.038  1.00  0.00     0.004 C 
ENDBRANCH  12  13
ENDBRANCH  11  12
ENDBRANCH  10  11
ENDBRANCH   9  10
ENDBRANCH   1   9
TORSDOF 10
ENDMDL
MODEL 5
REMARK VINA RESULT:    -2.859     21.550     22.829
REMARK INTER + INTRA:          -5.361
REMARK INTER:                  -4.320
REMARK INTRA:                  -1.042
REMARK UNBOUND:                -0.832
REMARK SMILES CCCCCCCCCCCC(=O)[O-]
REMARK SMILES IDX 7 1 8 2 9 3 10 4 11 5 12 6 13 7 14 8 6 9 5 10 4 11 3 12 2 13
REMARK SMILES IDX 1 14
REMARK H PARENT
REMARK Flexibility Score: inf
ROOT
ATOM      1  C   UNL     1      -6.388 -10.090  -7.523  1.00  0.00     0.000 C 
ENDROOT
BRANCH   1   2
ATOM      2  C   UNL     1      -7.413  -9.064  -7.028  1.00  0.00     0.000 C 
BRANCH   2   3
ATOM      3  C   UNL     1      -7.889  -8.164  -8.177  1.00  0.00     0.000 C 
BRANCH   3   4
ATOM      4  C   UNL     1      -9.156  -7.364  -7.824  1.00  0.00     0.006 C 
BRANCH   4   5
ATOM      5  C   UNL     1      -9.092  -5.875  -8.204  1.00  0.00     0.053 C 
BRANCH   5   6
ATOM      6  C   UNL     1      -8.950  -4.996  -7.001  1.00  0.00     0.041 C 
ATOM      7  O   UNL     1      -9.885  -4.221  -6.667  1.00  0.00    -0.550 OA
ATOM      8  O   UNL     1      -7.796  -5.054  -6.229  1.00  0.00    -0.550 OA
ENDBRANCH   5   6
ENDBRANCH   4   5
ENDBRANCH   3   4
ENDBRANCH   2   3
ENDBRANCH   1   2
BRANCH   1   9
ATOM      9  C   UNL     1      -4.973  -9.730  -7.042  1.00  0.00     0.000 C 
BRANCH   9  10
ATOM     10  C   UNL     1      -3.889 -10.088  -8.071  1.00  0.00    -0.000 C 
BRANCH  10  11
ATOM     11  C   UNL     1      -3.878  -9.136  -9.276  1.00  0.00    -0.000 C 
BRANCH  11  12
ATOM     12  C   UNL     1      -4.079  -7.683  -8.829  1.00  0.00    -0.000 C 
BRANCH  12  13
ATOM     13  C   UNL     1      -4.897  -6.899  -9.861  1.00  0.00    -0.003 C 
ATOM     14  C   UNL     1      -5.296  -5.528  -9.321  1.00  0.00     0.004 C 
ENDBRANCH  12  13
ENDBRANCH  11  12
ENDBRANCH  10  11
ENDBRANCH   9  10
ENDBRANCH   1   9
TORSDOF 10
ENDMDL
MODEL 6
REMARK VINA RESULT:    -2.750      1.303      2.011
REMARK INTER + INTRA:          -5.189
REMARK INTER:                  -4.784
REMARK INTRA:                  -0.405
REMARK UNBOUND:                -0.832
REMARK SMILES CCCCCCCCCCCC(=O)[O-]
REMARK SMILES IDX 7 1 8 2 9 3 10 4 11 5 12 6 13 7 14 8 6 9 5 10 4 11 3 12 2 13
REMARK SMILES IDX 1 14
REMARK H PARENT
REMARK Flexibility Score: inf
ROOT
ATOM      1  C   UNL     1       9.763   4.697   2.317  1.00  0.00     0.000 C 
ENDROOT
BRANCH   1   2
ATOM      2  C   UNL     1       9.333   5.969   3.058  1.00  0.00     0.000 C 
BRANCH   2   3
ATOM      3  C   UNL     1       7.931   5.804   3.664  1.00  0.00     0.000 C 
BRANCH   3   4
ATOM      4  C   UNL     1       7.783   6.509   5.025  1.00  0.00     0.006 C 
BRANCH   4   5
ATOM      5  C   UNL     1       7.730   8.043   4.940  1.00  0.00     0.053 C 
BRANCH   5   6
ATOM      6  C   UNL     1       6.337   8.544   4.718  1.00  0.00     0.041 C 
ATOM      7  O   UNL     1       5.507   7.850   4.073  1.00  0.00    -0.550 OA
ATOM      8  O   UNL     1       5.944   9.765   5.252  1.00  0.00    -0.550 OA
ENDBRANCH   5   6
ENDBRANCH   4   5
ENDBRANCH   3   4
ENDBRANCH   2   3
ENDBRANCH   1   2
BRANCH   1   9
ATOM      9  C   UNL     1      10.124   3.579   3.308  1.00  0.00     0.000 C 
BRANCH   9  10
ATOM     10  C   UNL     1      10.124   2.187   2.656  1.00  0.00    -0.000 C 
BRANCH  10  11
ATOM     11  C   UNL     1       9.656   1.083   3.615  1.00  0.00    -0.000 C 
BRANCH  11  12
ATOM     12  C   UNL     1      10.080   1.392   5.056  1.00  0.00    -0.000 C 
BRANCH  12  13
ATOM     13  C   UNL     1       8.932   1.124   6.036  1.00  0.00    -0.003 C 
ATOM     14  C   UNL     1       8.015   0.018   5.520  1.00  0.00     0.004 C 
ENDBRANCH  12  13
ENDBRANCH  11  12
ENDBRANCH  10  11
ENDBRANCH   9  10
ENDBRANCH   1   9
TORSDOF 10
ENDMDL
MODEL 7
REMARK VINA RESULT:    -2.685     21.446     22.536
REMARK INTER + INTRA:          -5.087
REMARK INTER:                  -4.342
REMARK INTRA:                  -0.745
REMARK UNBOUND:                -0.832
REMARK SMILES CCCCCCCCCCCC(=O)[O-]
REMARK SMILES IDX 7 1 8 2 9 3 10 4 11 5 12 6 13 7 14 8 6 9 5 10 4 11 3 12 2 13
REMARK SMILES IDX 1 14
REMARK H PARENT
REMARK Flexibility Score: inf
ROOT
ATOM      1  C   UNL     1      -6.779  -7.630  -8.706  1.00  0.00     0.000 C 
ENDROOT
BRANCH   1   2
ATOM      2  C   UNL     1      -7.780  -7.485  -9.857  1.00  0.00     0.000 C 
BRANCH   2   3
ATOM      3  C   UNL     1      -8.796  -6.370  -9.566  1.00  0.00     0.000 C 
BRANCH   3   4
ATOM      4  C   UNL     1      -9.399  -6.465  -8.152  1.00  0.00     0.006 C 
BRANCH   4   5
ATOM      5  C   UNL     1     -10.120  -5.191  -7.684  1.00  0.00     0.053 C 
BRANCH   5   6
ATOM      6  C   UNL     1      -9.249  -4.344  -6.810  1.00  0.00     0.041 C 
ATOM      7  O   UNL     1      -9.565  -3.149  -6.566  1.00  0.00    -0.550 OA
ATOM      8  O   UNL     1      -8.104  -4.883  -6.237  1.00  0.00    -0.550 OA
ENDBRANCH   5   6
ENDBRANCH   4   5
ENDBRANCH   3   4
ENDBRANCH   2   3
ENDBRANCH   1   2
BRANCH   1   9
ATOM      9  C   UNL     1      -5.645  -6.599  -8.830  1.00  0.00     0.000 C 
BRANCH   9  10
ATOM     10  C   UNL     1      -4.260  -7.254  -8.954  1.00  0.00    -0.000 C 
BRANCH  10  11
ATOM     11  C   UNL     1      -4.303  -8.594  -9.703  1.00  0.00    -0.000 C 
BRANCH  11  12
ATOM     12  C   UNL     1      -3.718  -9.721  -8.845  1.00  0.00    -0.000 C 
BRANCH  12  13
ATOM     13  C   UNL     1      -3.587  -9.286  -7.381  1.00  0.00    -0.003 C 
ATOM     14  C   UNL     1      -2.378  -9.942  -6.718  1.00  0.00     0.004 C 
ENDBRANCH  12  13
ENDBRANCH  11  12
ENDBRANCH  10  11
ENDBRANCH   9  10
ENDBRANCH   1   9
TORSDOF 10
ENDMDL
