MODEL 1
REMARK VINA RESULT:     2.070      0.000      0.000
REMARK INTER + INTRA:           4.943
REMARK INTER:                   2.977
REMARK INTRA:                   1.966
REMARK UNBOUND:                 1.966
REMARK SMILES O=c1c(O[C@@H]2O[C@@H](CO)[C@@H](O)[C@H](O)[C@@H]2O)c(-c2ccc(O)cc2)oc2cc(O)cc(O)c12
REMARK SMILES IDX 4 1 3 2 16 3 24 4 2 5 25 6 1 7 32 8 26 9 30 10 27 11 29 12
REMARK SMILES IDX 17 13 18 14 19 15 20 16 23 17 22 18 21 19 31 21 28 23 5 25
REMARK SMILES IDX 14 26 6 27 12 28 7 29 10 30 15 31 13 33 8 35 9 36 11 38
REMARK H PARENT 21 20 31 22 28 24 15 32 13 34 9 37 11 39
REMARK Flexibility Score: inf
ROOT
ATOM      1  O   UNL     1      34.946 -32.547   9.741  1.00  0.00    -0.454 OA
ENDROOT
BRANCH   1   2
ATOM      2  C   UNL     1      35.491 -32.514   8.439  1.00  0.00     0.214 A 
ATOM      3  C   UNL     1      36.878 -32.298   8.305  1.00  0.00     0.180 A 
ATOM      4  O   UNL     1      37.452 -32.330   7.108  1.00  0.00    -0.452 OA
ATOM      5  C   UNL     1      34.734 -32.719   7.260  1.00  0.00     0.239 A 
ATOM      6  C   UNL     1      36.781 -32.530   5.983  1.00  0.00     0.146 A 
ATOM      7  O   UNL     1      33.490 -32.899   7.324  1.00  0.00    -0.285 OA
ATOM      8  C   UNL     1      35.382 -32.727   6.006  1.00  0.00     0.111 A 
ATOM      9  C   UNL     1      37.477 -32.541   4.771  1.00  0.00     0.094 A 
ATOM     10  C   UNL     1      34.697 -32.928   4.782  1.00  0.00     0.134 A 
ATOM     11  C   UNL     1      36.795 -32.742   3.567  1.00  0.00     0.123 A 
ATOM     12  C   UNL     1      35.413 -32.933   3.575  1.00  0.00     0.093 A 
BRANCH   3  13
ATOM     13  C   UNL     1      37.740 -32.048   9.478  1.00  0.00     0.021 A 
ATOM     14  C   UNL     1      37.877 -30.742   9.975  1.00  0.00     0.016 A 
ATOM     15  C   UNL     1      38.674 -30.493  11.096  1.00  0.00     0.047 A 
ATOM     16  C   UNL     1      39.330 -31.546  11.741  1.00  0.00     0.115 A 
ATOM     17  C   UNL     1      38.381 -33.106  10.144  1.00  0.00     0.016 A 
ATOM     18  C   UNL     1      39.179 -32.855  11.264  1.00  0.00     0.047 A 
BRANCH  16  19
ATOM     19  O   UNL     1      40.125 -31.284  12.854  1.00  0.00    -0.508 OA
ATOM     20  H   UNL     1      39.837 -30.621  13.565  1.00  0.00     0.293 HD
ENDBRANCH  16  19
ENDBRANCH   3  13
BRANCH  10  21
ATOM     21  O   UNL     1      33.315 -33.124   4.754  1.00  0.00    -0.507 OA
ATOM     22  H   UNL     1      32.895 -34.006   5.025  1.00  0.00     0.293 HD
ENDBRANCH  10  21
BRANCH  11  23
ATOM     23  O   UNL     1      37.483 -32.753   2.355  1.00  0.00    -0.508 OA
ATOM     24  H   UNL     1      36.993 -32.783   1.469  1.00  0.00     0.293 HD
ENDBRANCH  11  23
ENDBRANCH   1   2
BRANCH   1  25
ATOM     25  C   UNL     1      35.372 -31.783  10.876  1.00  0.00     0.339 C 
ATOM     26  C   UNL     1      34.946 -30.304  10.737  1.00  0.00     0.214 C 
ATOM     27  O   UNL     1      34.895 -32.344  12.090  1.00  0.00    -0.332 OA
ATOM     28  C   UNL     1      33.425 -30.133  10.906  1.00  0.00     0.180 C 
ATOM     29  C   UNL     1      33.479 -32.352  12.138  1.00  0.00     0.179 C 
ATOM     30  C   UNL     1      32.918 -30.908  12.140  1.00  0.00     0.177 C 
BRANCH  26  31
ATOM     31  O   UNL     1      35.343 -29.797   9.488  1.00  0.00    -0.384 OA
ATOM     32  H   UNL     1      36.310 -30.001   9.389  1.00  0.00     0.211 HD
ENDBRANCH  26  31
BRANCH  28  33
ATOM     33  O   UNL     1      32.768 -30.588   9.750  1.00  0.00    -0.387 OA
ATOM     34  H   UNL     1      33.412 -30.503   8.999  1.00  0.00     0.211 HD
ENDBRANCH  28  33
BRANCH  29  35
ATOM     35  C   UNL     1      33.026 -33.125  13.385  1.00  0.00     0.191 C 
BRANCH  35  36
ATOM     36  O   UNL     1      31.885 -32.529  13.940  1.00  0.00    -0.394 OA
ATOM     37  H   UNL     1      32.177 -32.074  14.773  1.00  0.00     0.210 HD
ENDBRANCH  35  36
ENDBRANCH  29  35
BRANCH  30  38
ATOM     38  O   UNL     1      33.235 -30.220  13.327  1.00  0.00    -0.387 OA
ATOM     39  H   UNL     1      34.137 -29.824  13.225  1.00  0.00     0.211 HD
ENDBRANCH  30  38
ENDBRANCH   1  25
TORSDOF 11
ENDMDL
