MODEL 1
REMARK VINA RESULT:    -3.043      0.000      0.000
REMARK INTER + INTRA:          -3.688
REMARK INTER:                  -3.577
REMARK INTRA:                  -0.110
REMARK UNBOUND:                -0.110
REMARK SMILES O=C([O-])CCC(=O)[O-]
REMARK SMILES IDX 4 1 2 2 1 3 3 4 5 5 6 6 7 7 8 8
REMARK H PARENT
REMARK Flexibility Score: inf
ROOT
ATOM      1  C   UNL     1       8.492 -17.128  25.581  1.00  0.00     0.059 C 
ENDROOT
BRANCH   1   2
ATOM      2  C   UNL     1       7.125 -17.735  25.485  1.00  0.00     0.042 C 
ATOM      3  O   UNL     1       6.761 -18.611  26.312  1.00  0.00    -0.550 OA
ATOM      4  O   UNL     1       6.270 -17.363  24.455  1.00  0.00    -0.550 OA
ENDBRANCH   1   2
BRANCH   1   5
ATOM      5  C   UNL     1       8.423 -15.604  25.739  1.00  0.00     0.059 C 
BRANCH   5   6
ATOM      6  C   UNL     1       8.782 -14.901  24.465  1.00  0.00     0.042 C 
ATOM      7  O   UNL     1       9.990 -14.715  24.162  1.00  0.00    -0.550 OA
ATOM      8  O   UNL     1       7.781 -14.414  23.635  1.00  0.00    -0.550 OA
ENDBRANCH   5   6
ENDBRANCH   1   5
TORSDOF 3
ENDMDL
MODEL 2
REMARK VINA RESULT:    -3.018      1.046      1.857
REMARK INTER + INTRA:          -3.657
REMARK INTER:                  -3.588
REMARK INTRA:                  -0.069
REMARK UNBOUND:                -0.110
REMARK SMILES O=C([O-])CCC(=O)[O-]
REMARK SMILES IDX 4 1 2 2 1 3 3 4 5 5 6 6 7 7 8 8
REMARK H PARENT
REMARK Flexibility Score: inf
ROOT
ATOM      1  C   UNL     1       7.970 -16.324  25.886  1.00  0.00     0.059 C 
ENDROOT
BRANCH   1   2
ATOM      2  C   UNL     1       7.053 -17.427  25.451  1.00  0.00     0.042 C 
ATOM      3  O   UNL     1       6.350 -17.294  24.415  1.00  0.00    -0.550 OA
ATOM      4  O   UNL     1       6.943 -18.583  26.213  1.00  0.00    -0.550 OA
ENDBRANCH   1   2
BRANCH   1   5
ATOM      5  C   UNL     1       8.289 -15.366  24.733  1.00  0.00     0.059 C 
BRANCH   5   6
ATOM      6  C   UNL     1       9.764 -15.272  24.485  1.00  0.00     0.042 C 
ATOM      7  O   UNL     1      10.216 -14.430  23.665  1.00  0.00    -0.550 OA
ATOM      8  O   UNL     1      10.634 -16.142  25.129  1.00  0.00    -0.550 OA
ENDBRANCH   5   6
ENDBRANCH   1   5
TORSDOF 3
ENDMDL
MODEL 3
REMARK VINA RESULT:    -3.017      2.024      3.204
REMARK INTER + INTRA:          -3.656
REMARK INTER:                  -3.533
REMARK INTRA:                  -0.123
REMARK UNBOUND:                -0.110
REMARK SMILES O=C([O-])CCC(=O)[O-]
REMARK SMILES IDX 4 1 2 2 1 3 3 4 5 5 6 6 7 7 8 8
REMARK H PARENT
REMARK Flexibility Score: inf
ROOT
ATOM      1  C   UNL     1       8.580 -15.470  23.137  1.00  0.00     0.059 C 
ENDROOT
BRANCH   1   2
ATOM      2  C   UNL     1       7.122 -15.300  22.834  1.00  0.00     0.042 C 
ATOM      3  O   UNL     1       6.273 -16.065  23.360  1.00  0.00    -0.550 OA
ATOM      4  O   UNL     1       6.707 -14.324  21.937  1.00  0.00    -0.550 OA
ENDBRANCH   1   2
BRANCH   1   5
ATOM      5  C   UNL     1       8.983 -14.719  24.411  1.00  0.00     0.059 C 
BRANCH   5   6
ATOM      6  C   UNL     1       9.024 -15.630  25.600  1.00  0.00     0.042 C 
ATOM      7  O   UNL     1       7.982 -15.837  26.276  1.00  0.00    -0.550 OA
ATOM      8  O   UNL     1      10.223 -16.215  25.985  1.00  0.00    -0.550 OA
ENDBRANCH   5   6
ENDBRANCH   1   5
TORSDOF 3
ENDMDL
MODEL 4
REMARK VINA RESULT:    -2.978      1.909      2.289
REMARK INTER + INTRA:          -3.611
REMARK INTER:                  -3.452
REMARK INTRA:                  -0.159
REMARK UNBOUND:                -0.110
REMARK SMILES O=C([O-])CCC(=O)[O-]
REMARK SMILES IDX 4 1 2 2 1 3 3 4 5 5 6 6 7 7 8 8
REMARK H PARENT
REMARK Flexibility Score: inf
ROOT
ATOM      1  C   UNL     1       7.566 -15.949  22.538  1.00  0.00     0.059 C 
ENDROOT
BRANCH   1   2
ATOM      2  C   UNL     1       7.131 -17.130  23.352  1.00  0.00     0.042 C 
ATOM      3  O   UNL     1       5.988 -17.151  23.877  1.00  0.00    -0.550 OA
ATOM      4  O   UNL     1       8.006 -18.188  23.564  1.00  0.00    -0.550 OA
ENDBRANCH   1   2
BRANCH   1   5
ATOM      5  C   UNL     1       7.709 -14.690  23.401  1.00  0.00     0.059 C 
BRANCH   5   6
ATOM      6  C   UNL     1       8.886 -14.785  24.325  1.00  0.00     0.042 C 
ATOM      7  O   UNL     1      10.055 -14.642  23.879  1.00  0.00    -0.550 OA
ATOM      8  O   UNL     1       8.691 -15.073  25.669  1.00  0.00    -0.550 OA
ENDBRANCH   5   6
ENDBRANCH   1   5
TORSDOF 3
ENDMDL
MODEL 5
REMARK VINA RESULT:    -2.954      1.454      3.312
REMARK INTER + INTRA:          -3.583
REMARK INTER:                  -3.464
REMARK INTRA:                  -0.119
REMARK UNBOUND:                -0.110
REMARK SMILES O=C([O-])CCC(=O)[O-]
REMARK SMILES IDX 4 1 2 2 1 3 3 4 5 5 6 6 7 7 8 8
REMARK H PARENT
REMARK Flexibility Score: inf
ROOT
ATOM      1  C   UNL     1       8.228 -15.824  25.879  1.00  0.00     0.059 C 
ENDROOT
BRANCH   1   2
ATOM      2  C   UNL     1       9.670 -15.894  25.477  1.00  0.00     0.042 C 
ATOM      3  O   UNL     1      10.478 -16.600  26.136  1.00  0.00    -0.550 OA
ATOM      4  O   UNL     1      10.129 -15.146  24.400  1.00  0.00    -0.550 OA
ENDBRANCH   1   2
BRANCH   1   5
ATOM      5  C   UNL     1       7.469 -17.096  25.484  1.00  0.00     0.059 C 
BRANCH   5   6
ATOM      6  C   UNL     1       6.808 -16.952  24.147  1.00  0.00     0.042 C 
ATOM      7  O   UNL     1       6.355 -17.965  23.551  1.00  0.00    -0.550 OA
ATOM      8  O   UNL     1       6.730 -15.705  23.541  1.00  0.00    -0.550 OA
ENDBRANCH   5   6
ENDBRANCH   1   5
TORSDOF 3
ENDMDL
MODEL 6
REMARK VINA RESULT:    -2.935      1.531      2.070
REMARK INTER + INTRA:          -3.560
REMARK INTER:                  -3.422
REMARK INTRA:                  -0.138
REMARK UNBOUND:                -0.110
REMARK SMILES O=C([O-])CCC(=O)[O-]
REMARK SMILES IDX 4 1 2 2 1 3 3 4 5 5 6 6 7 7 8 8
REMARK H PARENT
REMARK Flexibility Score: inf
ROOT
ATOM      1  C   UNL     1       7.461 -17.057  25.469  1.00  0.00     0.059 C 
ENDROOT
BRANCH   1   2
ATOM      2  C   UNL     1       7.003 -16.921  24.048  1.00  0.00     0.042 C 
ATOM      3  O   UNL     1       6.869 -17.942  23.326  1.00  0.00    -0.550 OA
ATOM      4  O   UNL     1       6.767 -15.661  23.512  1.00  0.00    -0.550 OA
ENDBRANCH   1   2
BRANCH   1   5
ATOM      5  C   UNL     1       8.236 -15.819  25.934  1.00  0.00     0.059 C 
BRANCH   5   6
ATOM      6  C   UNL     1       9.671 -15.871  25.503  1.00  0.00     0.042 C 
ATOM      7  O   UNL     1      10.499 -16.570  26.143  1.00  0.00    -0.550 OA
ATOM      8  O   UNL     1      10.099 -15.114  24.421  1.00  0.00    -0.550 OA
ENDBRANCH   5   6
ENDBRANCH   1   5
TORSDOF 3
ENDMDL
MODEL 7
REMARK VINA RESULT:    -2.928      2.174      3.116
REMARK INTER + INTRA:          -3.551
REMARK INTER:                  -3.442
REMARK INTRA:                  -0.110
REMARK UNBOUND:                -0.110
REMARK SMILES O=C([O-])CCC(=O)[O-]
REMARK SMILES IDX 4 1 2 2 1 3 3 4 5 5 6 6 7 7 8 8
REMARK H PARENT
REMARK Flexibility Score: inf
ROOT
ATOM      1  C   UNL     1       9.245 -14.761  24.219  1.00  0.00     0.059 C 
ENDROOT
BRANCH   1   2
ATOM      2  C   UNL     1       9.244 -15.595  25.464  1.00  0.00     0.042 C 
ATOM      3  O   UNL     1       8.218 -15.645  26.192  1.00  0.00    -0.550 OA
ATOM      4  O   UNL     1      10.390 -16.283  25.842  1.00  0.00    -0.550 OA
ENDBRANCH   1   2
BRANCH   1   5
ATOM      5  C   UNL     1       7.844 -14.658  23.606  1.00  0.00     0.059 C 
BRANCH   5   6
ATOM      6  C   UNL     1       7.458 -15.920  22.894  1.00  0.00     0.042 C 
ATOM      7  O   UNL     1       8.072 -16.272  21.853  1.00  0.00    -0.550 OA
ATOM      8  O   UNL     1       6.394 -16.681  23.358  1.00  0.00    -0.550 OA
ENDBRANCH   5   6
ENDBRANCH   1   5
TORSDOF 3
ENDMDL
MODEL 8
REMARK VINA RESULT:    -2.926     12.904     14.083
REMARK INTER + INTRA:          -3.550
REMARK INTER:                  -3.462
REMARK INTRA:                  -0.088
REMARK UNBOUND:                -0.110
REMARK SMILES O=C([O-])CCC(=O)[O-]
REMARK SMILES IDX 4 1 2 2 1 3 3 4 5 5 6 6 7 7 8 8
REMARK H PARENT
REMARK Flexibility Score: inf
ROOT
ATOM      1  C   UNL     1      21.369 -20.504  22.510  1.00  0.00     0.059 C 
ENDROOT
BRANCH   1   2
ATOM      2  C   UNL     1      20.623 -19.233  22.238  1.00  0.00     0.042 C 
ATOM      3  O   UNL     1      19.676 -18.881  22.989  1.00  0.00    -0.550 OA
ATOM      4  O   UNL     1      20.946 -18.460  21.130  1.00  0.00    -0.550 OA
ENDBRANCH   1   2
BRANCH   1   5
ATOM      5  C   UNL     1      21.429 -20.814  24.010  1.00  0.00     0.059 C 
BRANCH   5   6
ATOM      6  C   UNL     1      20.810 -22.141  24.325  1.00  0.00     0.042 C 
ATOM      7  O   UNL     1      21.458 -23.204  24.135  1.00  0.00    -0.550 OA
ATOM      8  O   UNL     1      19.502 -22.205  24.788  1.00  0.00    -0.550 OA
ENDBRANCH   5   6
ENDBRANCH   1   5
TORSDOF 3
ENDMDL
MODEL 9
REMARK VINA RESULT:    -2.902      0.834      3.789
REMARK INTER + INTRA:          -3.521
REMARK INTER:                  -3.442
REMARK INTRA:                  -0.079
REMARK UNBOUND:                -0.110
REMARK SMILES O=C([O-])CCC(=O)[O-]
REMARK SMILES IDX 4 1 2 2 1 3 3 4 5 5 6 6 7 7 8 8
REMARK H PARENT
REMARK Flexibility Score: inf
ROOT
ATOM      1  C   UNL     1       9.380 -15.876  25.271  1.00  0.00     0.059 C 
ENDROOT
BRANCH   1   2
ATOM      2  C   UNL     1       9.248 -14.858  24.179  1.00  0.00     0.042 C 
ATOM      3  O   UNL     1      10.275 -14.398  23.614  1.00  0.00    -0.550 OA
ATOM      4  O   UNL     1       7.993 -14.387  23.814  1.00  0.00    -0.550 OA
ENDBRANCH   1   2
BRANCH   1   5
ATOM      5  C   UNL     1       8.018 -16.232  25.878  1.00  0.00     0.059 C 
BRANCH   5   6
ATOM      6  C   UNL     1       7.516 -17.550  25.372  1.00  0.00     0.042 C 
ATOM      7  O   UNL     1       7.774 -17.918  24.196  1.00  0.00    -0.550 OA
ATOM      8  O   UNL     1       6.726 -18.352  26.186  1.00  0.00    -0.550 OA
ENDBRANCH   5   6
ENDBRANCH   1   5
TORSDOF 3
ENDMDL
