MODEL 1
REMARK VINA RESULT:    -3.742      0.000      0.000
REMARK INTER + INTRA:         -12.631
REMARK INTER:                  -8.555
REMARK INTRA:                  -4.076
REMARK UNBOUND:                -4.076
REMARK SMILES CCCCCCCCCCCCCCCCCCCCCCCC(=O)[O-]
REMARK SMILES IDX 13 1 14 2 15 3 16 4 17 5 18 6 19 7 20 8 21 9 22 10 23 11
REMARK SMILES IDX 24 12 25 13 26 14 12 15 11 16 10 17 9 18 8 19 7 20 6 21 5 22
REMARK SMILES IDX 4 23 3 24 2 25 1 26
REMARK H PARENT
REMARK Flexibility Score: inf
ROOT
ATOM      1  C   UNL     1      19.916  11.481 -20.485  1.00  0.00     0.000 C 
ENDROOT
BRANCH   1   2
ATOM      2  C   UNL     1      18.418  11.154 -20.356  1.00  0.00     0.000 C 
BRANCH   2   3
ATOM      3  C   UNL     1      17.575  12.381 -19.976  1.00  0.00     0.000 C 
BRANCH   3   4
ATOM      4  C   UNL     1      17.129  12.362 -18.503  1.00  0.00     0.000 C 
BRANCH   4   5
ATOM      5  C   UNL     1      18.069  13.165 -17.591  1.00  0.00     0.000 C 
BRANCH   5   6
ATOM      6  C   UNL     1      18.662  12.315 -16.457  1.00  0.00     0.000 C 
BRANCH   6   7
ATOM      7  C   UNL     1      18.286  10.838 -16.620  1.00  0.00     0.000 C 
BRANCH   7   8
ATOM      8  C   UNL     1      19.523   9.989 -16.953  1.00  0.00     0.000 C 
BRANCH   8   9
ATOM      9  C   UNL     1      19.468   8.591 -16.302  1.00  0.00     0.000 C 
BRANCH   9  10
ATOM     10  C   UNL     1      20.257   7.519 -17.073  1.00  0.00     0.006 C 
BRANCH  10  11
ATOM     11  C   UNL     1      19.494   6.966 -18.281  1.00  0.00     0.053 C 
BRANCH  11  12
ATOM     12  C   UNL     1      18.509   5.927 -17.848  1.00  0.00     0.041 C 
ATOM     13  O   UNL     1      18.865   4.992 -17.083  1.00  0.00    -0.550 OA
ATOM     14  O   UNL     1      17.202   5.969 -18.320  1.00  0.00    -0.550 OA
ENDBRANCH  11  12
ENDBRANCH  10  11
ENDBRANCH   9  10
ENDBRANCH   8   9
ENDBRANCH   7   8
ENDBRANCH   6   7
ENDBRANCH   5   6
ENDBRANCH   4   5
ENDBRANCH   3   4
ENDBRANCH   2   3
ENDBRANCH   1   2
BRANCH   1  15
ATOM     15  C   UNL     1      20.198  12.998 -20.509  1.00  0.00     0.000 C 
BRANCH  15  16
ATOM     16  C   UNL     1      21.357  13.435 -19.594  1.00  0.00     0.000 C 
BRANCH  16  17
ATOM     17  C   UNL     1      21.812  12.389 -18.558  1.00  0.00     0.000 C 
BRANCH  17  18
ATOM     18  C   UNL     1      22.150  12.945 -17.162  1.00  0.00    -0.000 C 
BRANCH  18  19
ATOM     19  C   UNL     1      22.192  14.483 -17.121  1.00  0.00    -0.000 C 
BRANCH  19  20
ATOM     20  C   UNL     1      21.113  15.085 -16.201  1.00  0.00    -0.000 C 
BRANCH  20  21
ATOM     21  C   UNL     1      20.576  16.461 -16.639  1.00  0.00    -0.000 C 
BRANCH  21  22
ATOM     22  C   UNL     1      19.778  16.406 -17.950  1.00  0.00    -0.000 C 
BRANCH  22  23
ATOM     23  C   UNL     1      20.558  17.069 -19.094  1.00  0.00    -0.000 C 
BRANCH  23  24
ATOM     24  C   UNL     1      19.902  16.846 -20.466  1.00  0.00    -0.000 C 
BRANCH  24  25
ATOM     25  C   UNL     1      20.912  16.917 -21.621  1.00  0.00    -0.003 C 
ATOM     26  C   UNL     1      22.337  16.702 -21.118  1.00  0.00     0.004 C 
ENDBRANCH  24  25
ENDBRANCH  23  24
ENDBRANCH  22  23
ENDBRANCH  21  22
ENDBRANCH  20  21
ENDBRANCH  19  20
ENDBRANCH  18  19
ENDBRANCH  17  18
ENDBRANCH  16  17
ENDBRANCH  15  16
ENDBRANCH   1  15
TORSDOF 22
ENDMDL
MODEL 2
REMARK VINA RESULT:    -3.728      3.554      7.785
REMARK INTER + INTRA:         -12.599
REMARK INTER:                  -8.825
REMARK INTRA:                  -3.774
REMARK UNBOUND:                -4.076
REMARK SMILES CCCCCCCCCCCCCCCCCCCCCCCC(=O)[O-]
REMARK SMILES IDX 13 1 14 2 15 3 16 4 17 5 18 6 19 7 20 8 21 9 22 10 23 11
REMARK SMILES IDX 24 12 25 13 26 14 12 15 11 16 10 17 9 18 8 19 7 20 6 21 5 22
REMARK SMILES IDX 4 23 3 24 2 25 1 26
REMARK H PARENT
REMARK Flexibility Score: inf
ROOT
ATOM      1  C   UNL     1      18.909  13.578 -17.438  1.00  0.00     0.000 C 
ENDROOT
BRANCH   1   2
ATOM      2  C   UNL     1      19.447  13.835 -16.019  1.00  0.00     0.000 C 
BRANCH   2   3
ATOM      3  C   UNL     1      20.976  13.976 -15.982  1.00  0.00     0.000 C 
BRANCH   3   4
ATOM      4  C   UNL     1      21.676  13.147 -17.075  1.00  0.00     0.000 C 
BRANCH   4   5
ATOM      5  C   UNL     1      22.781  13.934 -17.797  1.00  0.00     0.000 C 
BRANCH   5   6
ATOM      6  C   UNL     1      22.903  15.380 -17.294  1.00  0.00     0.000 C 
BRANCH   6   7
ATOM      7  C   UNL     1      22.339  16.370 -18.320  1.00  0.00     0.000 C 
BRANCH   7   8
ATOM      8  C   UNL     1      21.175  17.176 -17.725  1.00  0.00     0.000 C 
BRANCH   8   9
ATOM      9  C   UNL     1      19.821  16.820 -18.375  1.00  0.00     0.000 C 
BRANCH   9  10
ATOM     10  C   UNL     1      19.941  16.345 -19.833  1.00  0.00     0.006 C 
BRANCH  10  11
ATOM     11  C   UNL     1      19.736  17.473 -20.849  1.00  0.00     0.053 C 
BRANCH  11  12
ATOM     12  C   UNL     1      18.323  17.487 -21.339  1.00  0.00     0.041 C 
ATOM     13  O   UNL     1      17.609  18.515 -21.193  1.00  0.00    -0.550 OA
ATOM     14  O   UNL     1      17.779  16.351 -21.926  1.00  0.00    -0.550 OA
ENDBRANCH  11  12
ENDBRANCH  10  11
ENDBRANCH   9  10
ENDBRANCH   8   9
ENDBRANCH   7   8
ENDBRANCH   6   7
ENDBRANCH   5   6
ENDBRANCH   4   5
ENDBRANCH   3   4
ENDBRANCH   2   3
ENDBRANCH   1   2
BRANCH   1  15
ATOM     15  C   UNL     1      17.994  12.336 -17.516  1.00  0.00     0.000 C 
BRANCH  15  16
ATOM     16  C   UNL     1      18.243  11.304 -16.399  1.00  0.00     0.000 C 
BRANCH  16  17
ATOM     17  C   UNL     1      19.380  10.300 -16.669  1.00  0.00     0.000 C 
BRANCH  17  18
ATOM     18  C   UNL     1      19.141   8.873 -16.139  1.00  0.00    -0.000 C 
BRANCH  18  19
ATOM     19  C   UNL     1      19.941   7.805 -16.904  1.00  0.00    -0.000 C 
BRANCH  19  20
ATOM     20  C   UNL     1      19.049   6.895 -17.770  1.00  0.00    -0.000 C 
BRANCH  20  21
ATOM     21  C   UNL     1      19.241   7.047 -19.290  1.00  0.00    -0.000 C 
BRANCH  21  22
ATOM     22  C   UNL     1      18.111   7.843 -19.962  1.00  0.00    -0.000 C 
BRANCH  22  23
ATOM     23  C   UNL     1      18.464   9.335 -20.040  1.00  0.00    -0.000 C 
BRANCH  23  24
ATOM     24  C   UNL     1      19.879   9.582 -20.587  1.00  0.00    -0.000 C 
BRANCH  24  25
ATOM     25  C   UNL     1      20.584  10.754 -19.889  1.00  0.00    -0.003 C 
ATOM     26  C   UNL     1      22.018  10.387 -19.514  1.00  0.00     0.004 C 
ENDBRANCH  24  25
ENDBRANCH  23  24
ENDBRANCH  22  23
ENDBRANCH  21  22
ENDBRANCH  20  21
ENDBRANCH  19  20
ENDBRANCH  18  19
ENDBRANCH  17  18
ENDBRANCH  16  17
ENDBRANCH  15  16
ENDBRANCH   1  15
TORSDOF 22
ENDMDL
MODEL 3
REMARK VINA RESULT:    -3.702      3.488      7.169
REMARK INTER + INTRA:         -12.540
REMARK INTER:                  -7.947
REMARK INTRA:                  -4.593
REMARK UNBOUND:                -4.076
REMARK SMILES CCCCCCCCCCCCCCCCCCCCCCCC(=O)[O-]
REMARK SMILES IDX 13 1 14 2 15 3 16 4 17 5 18 6 19 7 20 8 21 9 22 10 23 11
REMARK SMILES IDX 24 12 25 13 26 14 12 15 11 16 10 17 9 18 8 19 7 20 6 21 5 22
REMARK SMILES IDX 4 23 3 24 2 25 1 26
REMARK H PARENT
REMARK Flexibility Score: inf
ROOT
ATOM      1  C   UNL     1      18.540  13.181 -18.786  1.00  0.00     0.000 C 
ENDROOT
BRANCH   1   2
ATOM      2  C   UNL     1      17.916  11.853 -18.320  1.00  0.00     0.000 C 
BRANCH   2   3
ATOM      3  C   UNL     1      17.938  11.692 -16.793  1.00  0.00     0.000 C 
BRANCH   3   4
ATOM      4  C   UNL     1      19.289  12.094 -16.173  1.00  0.00     0.000 C 
BRANCH   4   5
ATOM      5  C   UNL     1      19.142  13.154 -15.070  1.00  0.00     0.000 C 
BRANCH   5   6
ATOM      6  C   UNL     1      19.869  14.464 -15.408  1.00  0.00     0.000 C 
BRANCH   6   7
ATOM      7  C   UNL     1      21.164  14.192 -16.182  1.00  0.00     0.000 C 
BRANCH   7   8
ATOM      8  C   UNL     1      21.709  15.482 -16.814  1.00  0.00     0.000 C 
BRANCH   8   9
ATOM      9  C   UNL     1      20.636  16.587 -16.913  1.00  0.00     0.000 C 
BRANCH   9  10
ATOM     10  C   UNL     1      19.980  16.688 -18.300  1.00  0.00     0.006 C 
BRANCH  10  11
ATOM     11  C   UNL     1      20.986  16.569 -19.449  1.00  0.00     0.053 C 
BRANCH  11  12
ATOM     12  C   UNL     1      20.276  16.523 -20.765  1.00  0.00     0.041 C 
ATOM     13  O   UNL     1      20.889  16.165 -21.806  1.00  0.00    -0.550 OA
ATOM     14  O   UNL     1      18.944  16.911 -20.850  1.00  0.00    -0.550 OA
ENDBRANCH  11  12
ENDBRANCH  10  11
ENDBRANCH   9  10
ENDBRANCH   8   9
ENDBRANCH   7   8
ENDBRANCH   6   7
ENDBRANCH   5   6
ENDBRANCH   4   5
ENDBRANCH   3   4
ENDBRANCH   2   3
ENDBRANCH   1   2
BRANCH   1  15
ATOM     15  C   UNL     1      18.922  13.170 -20.282  1.00  0.00     0.000 C 
BRANCH  15  16
ATOM     16  C   UNL     1      20.303  12.550 -20.572  1.00  0.00     0.000 C 
BRANCH  16  17
ATOM     17  C   UNL     1      21.439  12.999 -19.632  1.00  0.00     0.000 C 
BRANCH  17  18
ATOM     18  C   UNL     1      22.364  11.873 -19.132  1.00  0.00    -0.000 C 
BRANCH  18  19
ATOM     19  C   UNL     1      21.597  10.704 -18.489  1.00  0.00    -0.000 C 
BRANCH  19  20
ATOM     20  C   UNL     1      22.296   9.347 -18.694  1.00  0.00    -0.000 C 
BRANCH  20  21
ATOM     21  C   UNL     1      21.941   8.621 -20.005  1.00  0.00    -0.000 C 
BRANCH  21  22
ATOM     22  C   UNL     1      20.471   8.804 -20.413  1.00  0.00    -0.000 C 
BRANCH  22  23
ATOM     23  C   UNL     1      19.580   7.753 -19.735  1.00  0.00    -0.000 C 
BRANCH  23  24
ATOM     24  C   UNL     1      18.694   8.350 -18.630  1.00  0.00    -0.000 C 
BRANCH  24  25
ATOM     25  C   UNL     1      18.824   7.596 -17.298  1.00  0.00    -0.003 C 
ATOM     26  C   UNL     1      19.611   8.416 -16.278  1.00  0.00     0.004 C 
ENDBRANCH  24  25
ENDBRANCH  23  24
ENDBRANCH  22  23
ENDBRANCH  21  22
ENDBRANCH  20  21
ENDBRANCH  19  20
ENDBRANCH  18  19
ENDBRANCH  17  18
ENDBRANCH  16  17
ENDBRANCH  15  16
ENDBRANCH   1  15
TORSDOF 22
ENDMDL
MODEL 4
REMARK VINA RESULT:    -3.682      1.517      3.758
REMARK INTER + INTRA:         -12.493
REMARK INTER:                  -8.242
REMARK INTRA:                  -4.251
REMARK UNBOUND:                -4.076
REMARK SMILES CCCCCCCCCCCCCCCCCCCCCCCC(=O)[O-]
REMARK SMILES IDX 13 1 14 2 15 3 16 4 17 5 18 6 19 7 20 8 21 9 22 10 23 11
REMARK SMILES IDX 24 12 25 13 26 14 12 15 11 16 10 17 9 18 8 19 7 20 6 21 5 22
REMARK SMILES IDX 4 23 3 24 2 25 1 26
REMARK H PARENT
REMARK Flexibility Score: inf
ROOT
ATOM      1  C   UNL     1      19.641  14.841 -20.287  1.00  0.00     0.000 C 
ENDROOT
BRANCH   1   2
ATOM      2  C   UNL     1      19.417  13.599 -19.406  1.00  0.00     0.000 C 
BRANCH   2   3
ATOM      3  C   UNL     1      18.240  12.737 -19.886  1.00  0.00     0.000 C 
BRANCH   3   4
ATOM      4  C   UNL     1      17.495  12.049 -18.727  1.00  0.00     0.000 C 
BRANCH   4   5
ATOM      5  C   UNL     1      17.862  12.640 -17.357  1.00  0.00     0.000 C 
BRANCH   5   6
ATOM      6  C   UNL     1      18.263  11.563 -16.336  1.00  0.00     0.000 C 
BRANCH   6   7
ATOM      7  C   UNL     1      19.434  10.721 -16.855  1.00  0.00     0.000 C 
BRANCH   7   8
ATOM      8  C   UNL     1      19.110   9.221 -16.778  1.00  0.00     0.000 C 
BRANCH   8   9
ATOM      9  C   UNL     1      18.724   8.633 -18.152  1.00  0.00     0.000 C 
BRANCH   9  10
ATOM     10  C   UNL     1      19.593   7.437 -18.578  1.00  0.00     0.006 C 
BRANCH  10  11
ATOM     11  C   UNL     1      20.622   7.035 -17.516  1.00  0.00     0.053 C 
BRANCH  11  12
ATOM     12  C   UNL     1      20.467   5.592 -17.155  1.00  0.00     0.041 C 
ATOM     13  O   UNL     1      19.327   5.055 -17.155  1.00  0.00    -0.550 OA
ATOM     14  O   UNL     1      21.578   4.846 -16.781  1.00  0.00    -0.550 OA
ENDBRANCH  11  12
ENDBRANCH  10  11
ENDBRANCH   9  10
ENDBRANCH   8   9
ENDBRANCH   7   8
ENDBRANCH   6   7
ENDBRANCH   5   6
ENDBRANCH   4   5
ENDBRANCH   3   4
ENDBRANCH   2   3
ENDBRANCH   1   2
BRANCH   1  15
ATOM     15  C   UNL     1      20.066  16.083 -19.474  1.00  0.00     0.000 C 
BRANCH  15  16
ATOM     16  C   UNL     1      19.661  16.029 -17.989  1.00  0.00     0.000 C 
BRANCH  16  17
ATOM     17  C   UNL     1      20.658  16.675 -17.008  1.00  0.00     0.000 C 
BRANCH  17  18
ATOM     18  C   UNL     1      21.649  15.704 -16.340  1.00  0.00    -0.000 C 
BRANCH  18  19
ATOM     19  C   UNL     1      21.140  14.252 -16.306  1.00  0.00    -0.000 C 
BRANCH  19  20
ATOM     20  C   UNL     1      22.102  13.265 -16.995  1.00  0.00    -0.000 C 
BRANCH  20  21
ATOM     21  C   UNL     1      22.938  13.862 -18.142  1.00  0.00    -0.000 C 
BRANCH  21  22
ATOM     22  C   UNL     1      24.056  12.924 -18.622  1.00  0.00    -0.000 C 
BRANCH  22  23
ATOM     23  C   UNL     1      23.998  11.581 -17.881  1.00  0.00    -0.000 C 
BRANCH  23  24
ATOM     24  C   UNL     1      23.822  10.386 -18.831  1.00  0.00    -0.000 C 
BRANCH  24  25
ATOM     25  C   UNL     1      22.378   9.863 -18.858  1.00  0.00    -0.003 C 
ATOM     26  C   UNL     1      21.547  10.599 -19.907  1.00  0.00     0.004 C 
ENDBRANCH  24  25
ENDBRANCH  23  24
ENDBRANCH  22  23
ENDBRANCH  21  22
ENDBRANCH  20  21
ENDBRANCH  19  20
ENDBRANCH  18  19
ENDBRANCH  17  18
ENDBRANCH  16  17
ENDBRANCH  15  16
ENDBRANCH   1  15
TORSDOF 22
ENDMDL
MODEL 5
REMARK VINA RESULT:    -3.669      4.239      8.413
REMARK INTER + INTRA:         -12.464
REMARK INTER:                  -8.693
REMARK INTRA:                  -3.770
REMARK UNBOUND:                -4.076
REMARK SMILES CCCCCCCCCCCCCCCCCCCCCCCC(=O)[O-]
REMARK SMILES IDX 13 1 14 2 15 3 16 4 17 5 18 6 19 7 20 8 21 9 22 10 23 11
REMARK SMILES IDX 24 12 25 13 26 14 12 15 11 16 10 17 9 18 8 19 7 20 6 21 5 22
REMARK SMILES IDX 4 23 3 24 2 25 1 26
REMARK H PARENT
REMARK Flexibility Score: inf
ROOT
ATOM      1  C   UNL     1      21.794  13.133 -19.346  1.00  0.00     0.000 C 
ENDROOT
BRANCH   1   2
ATOM      2  C   UNL     1      22.387  12.624 -18.019  1.00  0.00     0.000 C 
BRANCH   2   3
ATOM      3  C   UNL     1      22.141  13.592 -16.851  1.00  0.00     0.000 C 
BRANCH   3   4
ATOM      4  C   UNL     1      20.784  13.359 -16.163  1.00  0.00     0.000 C 
BRANCH   4   5
ATOM      5  C   UNL     1      20.134  14.665 -15.680  1.00  0.00     0.000 C 
BRANCH   5   6
ATOM      6  C   UNL     1      20.589  15.888 -16.490  1.00  0.00     0.000 C 
BRANCH   6   7
ATOM      7  C   UNL     1      19.651  16.143 -17.676  1.00  0.00     0.000 C 
BRANCH   7   8
ATOM      8  C   UNL     1      20.438  16.614 -18.908  1.00  0.00     0.000 C 
BRANCH   8   9
ATOM      9  C   UNL     1      21.848  17.126 -18.545  1.00  0.00     0.000 C 
BRANCH   9  10
ATOM     10  C   UNL     1      22.961  16.565 -19.446  1.00  0.00     0.006 C 
BRANCH  10  11
ATOM     11  C   UNL     1      24.215  16.156 -18.666  1.00  0.00     0.053 C 
BRANCH  11  12
ATOM     12  C   UNL     1      25.230  17.254 -18.692  1.00  0.00     0.041 C 
ATOM     13  O   UNL     1      25.159  18.166 -19.559  1.00  0.00    -0.550 OA
ATOM     14  O   UNL     1      26.279  17.252 -17.780  1.00  0.00    -0.550 OA
ENDBRANCH  11  12
ENDBRANCH  10  11
ENDBRANCH   9  10
ENDBRANCH   8   9
ENDBRANCH   7   8
ENDBRANCH   6   7
ENDBRANCH   5   6
ENDBRANCH   4   5
ENDBRANCH   3   4
ENDBRANCH   2   3
ENDBRANCH   1   2
BRANCH   1  15
ATOM     15  C   UNL     1      20.574  12.309 -19.810  1.00  0.00     0.000 C 
BRANCH  15  16
ATOM     16  C   UNL     1      19.274  13.128 -19.929  1.00  0.00     0.000 C 
BRANCH  16  17
ATOM     17  C   UNL     1      18.026  12.481 -19.298  1.00  0.00     0.000 C 
BRANCH  17  18
ATOM     18  C   UNL     1      17.737  12.890 -17.841  1.00  0.00    -0.000 C 
BRANCH  18  19
ATOM     19  C   UNL     1      17.738  11.697 -16.869  1.00  0.00    -0.000 C 
BRANCH  19  20
ATOM     20  C   UNL     1      18.449  10.458 -17.445  1.00  0.00    -0.000 C 
BRANCH  20  21
ATOM     21  C   UNL     1      19.453   9.780 -16.494  1.00  0.00    -0.000 C 
BRANCH  21  22
ATOM     22  C   UNL     1      19.411   8.247 -16.569  1.00  0.00    -0.000 C 
BRANCH  22  23
ATOM     23  C   UNL     1      18.783   7.781 -17.891  1.00  0.00    -0.000 C 
BRANCH  23  24
ATOM     24  C   UNL     1      18.011   6.459 -17.747  1.00  0.00    -0.000 C 
BRANCH  24  25
ATOM     25  C   UNL     1      18.932   5.270 -17.433  1.00  0.00    -0.003 C 
ATOM     26  C   UNL     1      18.542   4.042 -18.253  1.00  0.00     0.004 C 
ENDBRANCH  24  25
ENDBRANCH  23  24
ENDBRANCH  22  23
ENDBRANCH  21  22
ENDBRANCH  20  21
ENDBRANCH  19  20
ENDBRANCH  18  19
ENDBRANCH  17  18
ENDBRANCH  16  17
ENDBRANCH  15  16
ENDBRANCH   1  15
TORSDOF 22
ENDMDL
MODEL 6
REMARK VINA RESULT:    -3.621      3.466      7.619
REMARK INTER + INTRA:         -12.355
REMARK INTER:                  -8.216
REMARK INTRA:                  -4.139
REMARK UNBOUND:                -4.076
REMARK SMILES CCCCCCCCCCCCCCCCCCCCCCCC(=O)[O-]
REMARK SMILES IDX 13 1 14 2 15 3 16 4 17 5 18 6 19 7 20 8 21 9 22 10 23 11
REMARK SMILES IDX 24 12 25 13 26 14 12 15 11 16 10 17 9 18 8 19 7 20 6 21 5 22
REMARK SMILES IDX 4 23 3 24 2 25 1 26
REMARK H PARENT
REMARK Flexibility Score: inf
ROOT
ATOM      1  C   UNL     1      20.253  12.870 -20.244  1.00  0.00     0.000 C 
ENDROOT
BRANCH   1   2
ATOM      2  C   UNL     1      21.561  13.451 -19.678  1.00  0.00     0.000 C 
BRANCH   2   3
ATOM      3  C   UNL     1      22.231  12.518 -18.658  1.00  0.00     0.000 C 
BRANCH   3   4
ATOM      4  C   UNL     1      22.491  13.205 -17.306  1.00  0.00     0.000 C 
BRANCH   4   5
ATOM      5  C   UNL     1      22.371  14.735 -17.387  1.00  0.00     0.000 C 
BRANCH   5   6
ATOM      6  C   UNL     1      21.458  15.316 -16.297  1.00  0.00     0.000 C 
BRANCH   6   7
ATOM      7  C   UNL     1      20.606  16.467 -16.847  1.00  0.00     0.000 C 
BRANCH   7   8
ATOM      8  C   UNL     1      21.149  16.956 -18.198  1.00  0.00     0.000 C 
BRANCH   8   9
ATOM      9  C   UNL     1      20.053  17.021 -19.282  1.00  0.00     0.000 C 
BRANCH   9  10
ATOM     10  C   UNL     1      20.599  16.941 -20.718  1.00  0.00     0.006 C 
BRANCH  10  11
ATOM     11  C   UNL     1      19.798  17.789 -21.712  1.00  0.00     0.053 C 
BRANCH  11  12
ATOM     12  C   UNL     1      18.339  17.476 -21.612  1.00  0.00     0.041 C 
ATOM     13  O   UNL     1      17.906  16.344 -21.956  1.00  0.00    -0.550 OA
ATOM     14  O   UNL     1      17.448  18.448 -21.172  1.00  0.00    -0.550 OA
ENDBRANCH  11  12
ENDBRANCH  10  11
ENDBRANCH   9  10
ENDBRANCH   8   9
ENDBRANCH   7   8
ENDBRANCH   6   7
ENDBRANCH   5   6
ENDBRANCH   4   5
ENDBRANCH   3   4
ENDBRANCH   2   3
ENDBRANCH   1   2
BRANCH   1  15
ATOM     15  C   UNL     1      18.997  13.592 -19.713  1.00  0.00     0.000 C 
BRANCH  15  16
ATOM     16  C   UNL     1      18.282  12.847 -18.570  1.00  0.00     0.000 C 
BRANCH  16  17
ATOM     17  C   UNL     1      18.589  13.364 -17.151  1.00  0.00     0.000 C 
BRANCH  17  18
ATOM     18  C   UNL     1      18.993  12.284 -16.128  1.00  0.00    -0.000 C 
BRANCH  18  19
ATOM     19  C   UNL     1      19.571  11.019 -16.786  1.00  0.00    -0.000 C 
BRANCH  19  20
ATOM     20  C   UNL     1      18.833   9.735 -16.361  1.00  0.00    -0.000 C 
BRANCH  20  21
ATOM     21  C   UNL     1      19.657   8.439 -16.477  1.00  0.00    -0.000 C 
BRANCH  21  22
ATOM     22  C   UNL     1      20.180   8.185 -17.899  1.00  0.00    -0.000 C 
BRANCH  22  23
ATOM     23  C   UNL     1      19.222   7.273 -18.680  1.00  0.00    -0.000 C 
BRANCH  23  24
ATOM     24  C   UNL     1      18.803   7.872 -20.032  1.00  0.00    -0.000 C 
BRANCH  24  25
ATOM     25  C   UNL     1      18.359   9.338 -19.915  1.00  0.00    -0.003 C 
ATOM     26  C   UNL     1      18.191   9.972 -21.295  1.00  0.00     0.004 C 
ENDBRANCH  24  25
ENDBRANCH  23  24
ENDBRANCH  22  23
ENDBRANCH  21  22
ENDBRANCH  20  21
ENDBRANCH  19  20
ENDBRANCH  18  19
ENDBRANCH  17  18
ENDBRANCH  16  17
ENDBRANCH  15  16
ENDBRANCH   1  15
TORSDOF 22
ENDMDL
MODEL 7
REMARK VINA RESULT:    -3.613      1.727      4.392
REMARK INTER + INTRA:         -12.336
REMARK INTER:                  -7.742
REMARK INTRA:                  -4.594
REMARK UNBOUND:                -4.076
REMARK SMILES CCCCCCCCCCCCCCCCCCCCCCCC(=O)[O-]
REMARK SMILES IDX 13 1 14 2 15 3 16 4 17 5 18 6 19 7 20 8 21 9 22 10 23 11
REMARK SMILES IDX 24 12 25 13 26 14 12 15 11 16 10 17 9 18 8 19 7 20 6 21 5 22
REMARK SMILES IDX 4 23 3 24 2 25 1 26
REMARK H PARENT
REMARK Flexibility Score: inf
ROOT
ATOM      1  C   UNL     1      21.064  14.739 -16.032  1.00  0.00     0.000 C 
ENDROOT
BRANCH   1   2
ATOM      2  C   UNL     1      19.854  13.933 -15.527  1.00  0.00     0.000 C 
BRANCH   2   3
ATOM      3  C   UNL     1      19.693  12.589 -16.255  1.00  0.00     0.000 C 
BRANCH   3   4
ATOM      4  C   UNL     1      18.268  12.019 -16.140  1.00  0.00     0.000 C 
BRANCH   4   5
ATOM      5  C   UNL     1      17.615  11.780 -17.511  1.00  0.00     0.000 C 
BRANCH   5   6
ATOM      6  C   UNL     1      18.083  12.786 -18.573  1.00  0.00     0.000 C 
BRANCH   6   7
ATOM      7  C   UNL     1      18.573  12.067 -19.836  1.00  0.00     0.000 C 
BRANCH   7   8
ATOM      8  C   UNL     1      20.089  12.238 -20.013  1.00  0.00     0.000 C 
BRANCH   8   9
ATOM      9  C   UNL     1      20.826  10.886 -20.107  1.00  0.00     0.000 C 
BRANCH   9  10
ATOM     10  C   UNL     1      20.074   9.724 -19.435  1.00  0.00     0.006 C 
BRANCH  10  11
ATOM     11  C   UNL     1      20.612   9.389 -18.040  1.00  0.00     0.053 C 
BRANCH  11  12
ATOM     12  C   UNL     1      19.621   8.565 -17.280  1.00  0.00     0.041 C 
ATOM     13  O   UNL     1      19.610   8.586 -16.020  1.00  0.00    -0.550 OA
ATOM     14  O   UNL     1      18.731   7.744 -17.962  1.00  0.00    -0.550 OA
ENDBRANCH  11  12
ENDBRANCH  10  11
ENDBRANCH   9  10
ENDBRANCH   8   9
ENDBRANCH   7   8
ENDBRANCH   6   7
ENDBRANCH   5   6
ENDBRANCH   4   5
ENDBRANCH   3   4
ENDBRANCH   2   3
ENDBRANCH   1   2
BRANCH   1  15
ATOM     15  C   UNL     1      20.684  16.160 -16.500  1.00  0.00     0.000 C 
BRANCH  15  16
ATOM     16  C   UNL     1      19.594  16.191 -17.587  1.00  0.00     0.000 C 
BRANCH  16  17
ATOM     17  C   UNL     1      20.022  16.804 -18.935  1.00  0.00     0.000 C 
BRANCH  17  18
ATOM     18  C   UNL     1      20.669  15.822 -19.930  1.00  0.00    -0.000 C 
BRANCH  18  19
ATOM     19  C   UNL     1      21.855  16.435 -20.695  1.00  0.00    -0.000 C 
BRANCH  19  20
ATOM     20  C   UNL     1      23.186  15.712 -20.413  1.00  0.00    -0.000 C 
BRANCH  20  21
ATOM     21  C   UNL     1      23.831  16.037 -19.053  1.00  0.00    -0.000 C 
BRANCH  21  22
ATOM     22  C   UNL     1      23.990  14.803 -18.152  1.00  0.00    -0.000 C 
BRANCH  22  23
ATOM     23  C   UNL     1      23.342  13.569 -18.797  1.00  0.00    -0.000 C 
BRANCH  23  24
ATOM     24  C   UNL     1      23.106  12.430 -17.791  1.00  0.00    -0.000 C 
BRANCH  24  25
ATOM     25  C   UNL     1      24.102  11.274 -17.965  1.00  0.00    -0.003 C 
ATOM     26  C   UNL     1      24.487  11.096 -19.432  1.00  0.00     0.004 C 
ENDBRANCH  24  25
ENDBRANCH  23  24
ENDBRANCH  22  23
ENDBRANCH  21  22
ENDBRANCH  20  21
ENDBRANCH  19  20
ENDBRANCH  18  19
ENDBRANCH  17  18
ENDBRANCH  16  17
ENDBRANCH  15  16
ENDBRANCH   1  15
TORSDOF 22
ENDMDL
MODEL 8
REMARK VINA RESULT:    -3.613      1.318      3.056
REMARK INTER + INTRA:         -12.335
REMARK INTER:                  -7.998
REMARK INTRA:                  -4.337
REMARK UNBOUND:                -4.076
REMARK SMILES CCCCCCCCCCCCCCCCCCCCCCCC(=O)[O-]
REMARK SMILES IDX 13 1 14 2 15 3 16 4 17 5 18 6 19 7 20 8 21 9 22 10 23 11
REMARK SMILES IDX 24 12 25 13 26 14 12 15 11 16 10 17 9 18 8 19 7 20 6 21 5 22
REMARK SMILES IDX 4 23 3 24 2 25 1 26
REMARK H PARENT
REMARK Flexibility Score: inf
ROOT
ATOM      1  C   UNL     1      17.392  11.595 -19.083  1.00  0.00     0.000 C 
ENDROOT
BRANCH   1   2
ATOM      2  C   UNL     1      18.432  11.887 -20.179  1.00  0.00     0.000 C 
BRANCH   2   3
ATOM      3  C   UNL     1      19.108  13.256 -20.005  1.00  0.00     0.000 C 
BRANCH   3   4
ATOM      4  C   UNL     1      20.573  13.260 -20.476  1.00  0.00     0.000 C 
BRANCH   4   5
ATOM      5  C   UNL     1      21.068  11.861 -20.878  1.00  0.00     0.000 C 
BRANCH   5   6
ATOM      6  C   UNL     1      22.476  11.556 -20.344  1.00  0.00     0.000 C 
BRANCH   6   7
ATOM      7  C   UNL     1      22.516  10.193 -19.641  1.00  0.00     0.000 C 
BRANCH   7   8
ATOM      8  C   UNL     1      21.466  10.120 -18.523  1.00  0.00     0.000 C 
BRANCH   8   9
ATOM      9  C   UNL     1      20.549   8.886 -18.657  1.00  0.00     0.000 C 
BRANCH   9  10
ATOM     10  C   UNL     1      20.327   8.134 -17.334  1.00  0.00     0.006 C 
BRANCH  10  11
ATOM     11  C   UNL     1      18.847   7.882 -17.029  1.00  0.00     0.053 C 
BRANCH  11  12
ATOM     12  C   UNL     1      18.366   6.656 -17.739  1.00  0.00     0.041 C 
ATOM     13  O   UNL     1      18.624   5.512 -17.279  1.00  0.00    -0.550 OA
ATOM     14  O   UNL     1      17.663   6.775 -18.932  1.00  0.00    -0.550 OA
ENDBRANCH  11  12
ENDBRANCH  10  11
ENDBRANCH   9  10
ENDBRANCH   8   9
ENDBRANCH   7   8
ENDBRANCH   6   7
ENDBRANCH   5   6
ENDBRANCH   4   5
ENDBRANCH   3   4
ENDBRANCH   2   3
ENDBRANCH   1   2
BRANCH   1  15
ATOM     15  C   UNL     1      17.644  12.399 -17.790  1.00  0.00     0.000 C 
BRANCH  15  16
ATOM     16  C   UNL     1      18.187  11.554 -16.622  1.00  0.00     0.000 C 
BRANCH  16  17
ATOM     17  C   UNL     1      19.533  12.023 -16.037  1.00  0.00     0.000 C 
BRANCH  17  18
ATOM     18  C   UNL     1      19.592  13.505 -15.621  1.00  0.00    -0.000 C 
BRANCH  18  19
ATOM     19  C   UNL     1      20.874  14.213 -16.093  1.00  0.00    -0.000 C 
BRANCH  19  20
ATOM     20  C   UNL     1      21.779  13.303 -16.944  1.00  0.00    -0.000 C 
BRANCH  20  21
ATOM     21  C   UNL     1      22.879  14.033 -17.737  1.00  0.00    -0.000 C 
BRANCH  21  22
ATOM     22  C   UNL     1      22.958  15.533 -17.414  1.00  0.00    -0.000 C 
BRANCH  22  23
ATOM     23  C   UNL     1      22.475  16.375 -18.603  1.00  0.00    -0.000 C 
BRANCH  23  24
ATOM     24  C   UNL     1      21.271  17.263 -18.252  1.00  0.00    -0.000 C 
BRANCH  24  25
ATOM     25  C   UNL     1      19.940  16.670 -18.738  1.00  0.00    -0.003 C 
ATOM     26  C   UNL     1      19.728  16.939 -20.226  1.00  0.00     0.004 C 
ENDBRANCH  24  25
ENDBRANCH  23  24
ENDBRANCH  22  23
ENDBRANCH  21  22
ENDBRANCH  20  21
ENDBRANCH  19  20
ENDBRANCH  18  19
ENDBRANCH  17  18
ENDBRANCH  16  17
ENDBRANCH  15  16
ENDBRANCH   1  15
TORSDOF 22
ENDMDL
MODEL 9
REMARK VINA RESULT:    -3.566      1.486      2.413
REMARK INTER + INTRA:         -12.227
REMARK INTER:                  -8.298
REMARK INTRA:                  -3.930
REMARK UNBOUND:                -4.076
REMARK SMILES CCCCCCCCCCCCCCCCCCCCCCCC(=O)[O-]
REMARK SMILES IDX 13 1 14 2 15 3 16 4 17 5 18 6 19 7 20 8 21 9 22 10 23 11
REMARK SMILES IDX 24 12 25 13 26 14 12 15 11 16 10 17 9 18 8 19 7 20 6 21 5 22
REMARK SMILES IDX 4 23 3 24 2 25 1 26
REMARK H PARENT
REMARK Flexibility Score: inf
ROOT
ATOM      1  C   UNL     1      21.336  12.411 -20.079  1.00  0.00     0.000 C 
ENDROOT
BRANCH   1   2
ATOM      2  C   UNL     1      20.157  13.339 -19.739  1.00  0.00     0.000 C 
BRANCH   2   3
ATOM      3  C   UNL     1      18.792  12.679 -19.988  1.00  0.00     0.000 C 
BRANCH   3   4
ATOM      4  C   UNL     1      17.875  12.724 -18.753  1.00  0.00     0.000 C 
BRANCH   4   5
ATOM      5  C   UNL     1      18.527  13.439 -17.559  1.00  0.00     0.000 C 
BRANCH   5   6
ATOM      6  C   UNL     1      18.827  12.488 -16.391  1.00  0.00     0.000 C 
BRANCH   6   7
ATOM      7  C   UNL     1      18.176  11.118 -16.615  1.00  0.00     0.000 C 
BRANCH   7   8
ATOM      8  C   UNL     1      19.210   9.989 -16.482  1.00  0.00     0.000 C 
BRANCH   8   9
ATOM      9  C   UNL     1      20.077   9.835 -17.749  1.00  0.00     0.000 C 
BRANCH   9  10
ATOM     10  C   UNL     1      19.332   9.198 -18.934  1.00  0.00     0.006 C 
BRANCH  10  11
ATOM     11  C   UNL     1      18.671   7.862 -18.579  1.00  0.00     0.053 C 
BRANCH  11  12
ATOM     12  C   UNL     1      19.708   6.814 -18.327  1.00  0.00     0.041 C 
ATOM     13  O   UNL     1      20.624   6.610 -19.168  1.00  0.00    -0.550 OA
ATOM     14  O   UNL     1      19.644   6.034 -17.178  1.00  0.00    -0.550 OA
ENDBRANCH  11  12
ENDBRANCH  10  11
ENDBRANCH   9  10
ENDBRANCH   8   9
ENDBRANCH   7   8
ENDBRANCH   6   7
ENDBRANCH   5   6
ENDBRANCH   4   5
ENDBRANCH   3   4
ENDBRANCH   2   3
ENDBRANCH   1   2
BRANCH   1  15
ATOM     15  C   UNL     1      22.552  12.624 -19.152  1.00  0.00     0.000 C 
BRANCH  15  16
ATOM     16  C   UNL     1      22.181  13.041 -17.716  1.00  0.00     0.000 C 
BRANCH  16  17
ATOM     17  C   UNL     1      22.437  14.520 -17.370  1.00  0.00     0.000 C 
BRANCH  17  18
ATOM     18  C   UNL     1      21.750  15.027 -16.088  1.00  0.00    -0.000 C 
BRANCH  18  19
ATOM     19  C   UNL     1      20.621  16.035 -16.368  1.00  0.00    -0.000 C 
BRANCH  19  20
ATOM     20  C   UNL     1      20.904  16.922 -17.595  1.00  0.00    -0.000 C 
BRANCH  20  21
ATOM     21  C   UNL     1      19.851  16.840 -18.717  1.00  0.00    -0.000 C 
BRANCH  21  22
ATOM     22  C   UNL     1      20.457  16.982 -20.121  1.00  0.00    -0.000 C 
BRANCH  22  23
ATOM     23  C   UNL     1      19.389  16.766 -21.203  1.00  0.00    -0.000 C 
BRANCH  23  24
ATOM     24  C   UNL     1      19.052  18.054 -21.970  1.00  0.00    -0.000 C 
BRANCH  24  25
ATOM     25  C   UNL     1      17.783  18.740 -21.442  1.00  0.00    -0.003 C 
ATOM     26  C   UNL     1      16.530  17.982 -21.874  1.00  0.00     0.004 C 
ENDBRANCH  24  25
ENDBRANCH  23  24
ENDBRANCH  22  23
ENDBRANCH  21  22
ENDBRANCH  20  21
ENDBRANCH  19  20
ENDBRANCH  18  19
ENDBRANCH  17  18
ENDBRANCH  16  17
ENDBRANCH  15  16
ENDBRANCH   1  15
TORSDOF 22
ENDMDL
