MODEL 1
REMARK VINA RESULT:    56.245      0.000      0.000
REMARK INTER + INTRA:          87.779
REMARK INTER:                  89.127
REMARK INTRA:                  -1.348
REMARK UNBOUND:                -1.348
REMARK SMILES C[C@H]1O[C@H](O[C@H]2[C@H](Oc3cc(O)c4c(c3)O[C@@H](c3ccc(O)cc3)CC4=O)O[C@H](CO)[C@@H](O)[C@@H]2O)[C@@H](O)[C@H](O)[C@H]1O
REMARK SMILES IDX 6 1 34 2 32 3 29 4 28 5 7 6 5 7 4 8 1 9 2 10 40 11 3 12
REMARK SMILES IDX 38 13 36 14 41 15 39 17 37 19 35 21 8 23 9 24 10 25 15 26
REMARK SMILES IDX 11 27 14 28 13 29 16 30 26 31 17 32 27 33 25 34 12 35 18 37
REMARK SMILES IDX 19 38 24 39 20 40 23 41 21 42 22 43 33 45 30 47 31 48
REMARK H PARENT 41 16 39 18 37 20 35 22 12 36 22 44 33 46 31 49
REMARK Flexibility Score: inf
ROOT
ATOM      1  C   UNL     1      20.480  -0.126  13.335  1.00  0.00     0.221 C 
ATOM      2  C   UNL     1      20.650  -1.539  13.937  1.00  0.00     0.181 C 
ATOM      3  C   UNL     1      19.783  -2.561  13.163  1.00  0.00     0.177 C 
ATOM      4  C   UNL     1      18.422  -1.928  12.753  1.00  0.00     0.179 C 
ATOM      5  O   UNL     1      18.114  -0.845  13.604  1.00  0.00    -0.332 OA
ATOM      6  C   UNL     1      18.966   0.264  13.356  1.00  0.00     0.339 C 
ENDROOT
BRANCH   1   7
ATOM      7  O   UNL     1      20.929  -0.111  11.981  1.00  0.00    -0.337 OA
BRANCH   7   8
ATOM      8  C   UNL     1      21.831   0.952  11.711  1.00  0.00     0.282 C 
ATOM      9  C   UNL     1      24.789   1.633  12.700  1.00  0.00     0.041 C 
ATOM     10  C   UNL     1      24.111   1.437  11.336  1.00  0.00     0.150 C 
ATOM     11  C   UNL     1      23.628   2.770  10.689  1.00  0.00     0.174 C 
ATOM     12  O   UNL     1      23.113   0.421  11.414  1.00  0.00    -0.344 OA
ATOM     13  C   UNL     1      22.456   2.475   9.737  1.00  0.00     0.179 C 
ATOM     14  C   UNL     1      21.309   1.739  10.480  1.00  0.00     0.202 C 
BRANCH  11  15
ATOM     15  O   UNL     1      23.217   3.683  11.677  1.00  0.00    -0.388 OA
ATOM     16  H   UNL     1      22.224   3.728  11.629  1.00  0.00     0.211 HD
ENDBRANCH  11  15
BRANCH  13  17
ATOM     17  O   UNL     1      22.928   1.681   8.674  1.00  0.00    -0.387 OA
ATOM     18  H   UNL     1      23.275   2.291   7.975  1.00  0.00     0.211 HD
ENDBRANCH  13  17
BRANCH  14  19
ATOM     19  O   UNL     1      20.352   2.684  10.900  1.00  0.00    -0.385 OA
ATOM     20  H   UNL     1      20.446   3.468  10.301  1.00  0.00     0.211 HD
ENDBRANCH  14  19
ENDBRANCH   7   8
ENDBRANCH   1   7
BRANCH   2  21
ATOM     21  O   UNL     1      20.260  -1.500  15.286  1.00  0.00    -0.387 OA
ATOM     22  H   UNL     1      19.766  -0.648  15.423  1.00  0.00     0.211 HD
ENDBRANCH   2  21
BRANCH   6  23
ATOM     23  O   UNL     1      18.734   1.246  14.369  1.00  0.00    -0.462 OA
BRANCH  23  24
ATOM     24  C   UNL     1      17.629   2.099  14.300  1.00  0.00     0.130 A 
ATOM     25  C   UNL     1      17.006   2.348  13.071  1.00  0.00     0.093 A 
ATOM     26  C   UNL     1      17.116   2.675  15.471  1.00  0.00     0.094 A 
ATOM     27  C   UNL     1      15.835   3.118  13.015  1.00  0.00     0.133 A 
ATOM     28  C   UNL     1      15.951   3.439  15.424  1.00  0.00     0.138 A 
ATOM     29  C   UNL     1      15.288   3.646  14.204  1.00  0.00     0.102 A 
ATOM     30  O   UNL     1      15.433   3.955  16.615  1.00  0.00    -0.484 OA
ATOM     31  C   UNL     1      13.981   4.337  14.243  1.00  0.00     0.174 C 
ATOM     32  C   UNL     1      14.312   4.843  16.677  1.00  0.00     0.211 C 
ATOM     33  O   UNL     1      13.416   4.726  13.188  1.00  0.00    -0.294 OA
ATOM     34  C   UNL     1      13.291   4.519  15.569  1.00  0.00     0.131 C 
BRANCH  27  35
ATOM     35  O   UNL     1      15.215   3.348  11.786  1.00  0.00    -0.507 OA
ATOM     36  H   UNL     1      15.624   3.046  10.912  1.00  0.00     0.293 HD
ENDBRANCH  27  35
BRANCH  32  37
ATOM     37  C   UNL     1      14.799   6.288  16.732  1.00  0.00    -0.007 A 
ATOM     38  C   UNL     1      15.538   6.822  17.815  1.00  0.00     0.011 A 
ATOM     39  C   UNL     1      14.529   7.118  15.626  1.00  0.00     0.011 A 
ATOM     40  C   UNL     1      16.025   8.133  17.764  1.00  0.00     0.046 A 
ATOM     41  C   UNL     1      15.017   8.426  15.582  1.00  0.00     0.046 A 
ATOM     42  C   UNL     1      15.776   8.936  16.646  1.00  0.00     0.115 A 
BRANCH  42  43
ATOM     43  O   UNL     1      16.288  10.227  16.571  1.00  0.00    -0.508 OA
ATOM     44  H   UNL     1      15.717  11.040  16.796  1.00  0.00     0.293 HD
ENDBRANCH  42  43
ENDBRANCH  32  37
ENDBRANCH  23  24
ENDBRANCH   6  23
BRANCH   3  45
ATOM     45  O   UNL     1      20.472  -2.973  12.012  1.00  0.00    -0.387 OA
ATOM     46  H   UNL     1      20.588  -2.170  11.444  1.00  0.00     0.211 HD
ENDBRANCH   3  45
BRANCH   4  47
ATOM     47  C   UNL     1      17.294  -2.966  12.837  1.00  0.00     0.191 C 
BRANCH  47  48
ATOM     48  O   UNL     1      17.044  -3.308  14.175  1.00  0.00    -0.394 OA
ATOM     49  H   UNL     1      16.444  -4.099  14.156  1.00  0.00     0.210 HD
ENDBRANCH  47  48
ENDBRANCH   4  47
TORSDOF 14
ENDMDL
MODEL 2
REMARK VINA RESULT:    56.616      3.824     11.818
REMARK INTER + INTRA:          88.367
REMARK INTER:                  89.659
REMARK INTRA:                  -1.292
REMARK UNBOUND:                -1.348
REMARK SMILES C[C@H]1O[C@H](O[C@H]2[C@H](Oc3cc(O)c4c(c3)O[C@@H](c3ccc(O)cc3)CC4=O)O[C@H](CO)[C@@H](O)[C@@H]2O)[C@@H](O)[C@H](O)[C@H]1O
REMARK SMILES IDX 6 1 34 2 32 3 29 4 28 5 7 6 5 7 4 8 1 9 2 10 40 11 3 12
REMARK SMILES IDX 38 13 36 14 41 15 39 17 37 19 35 21 8 23 9 24 10 25 15 26
REMARK SMILES IDX 11 27 14 28 13 29 16 30 26 31 17 32 27 33 25 34 12 35 18 37
REMARK SMILES IDX 19 38 24 39 20 40 23 41 21 42 22 43 33 45 30 47 31 48
REMARK H PARENT 41 16 39 18 37 20 35 22 12 36 22 44 33 46 31 49
REMARK Flexibility Score: inf
ROOT
ATOM      1  C   UNL     1      13.589  12.309  16.112  1.00  0.00     0.221 C 
ATOM      2  C   UNL     1      12.156  12.881  16.030  1.00  0.00     0.181 C 
ATOM      3  C   UNL     1      11.464  12.795  17.412  1.00  0.00     0.177 C 
ATOM      4  C   UNL     1      11.855  11.478  18.141  1.00  0.00     0.179 C 
ATOM      5  O   UNL     1      12.268  10.506  17.204  1.00  0.00    -0.332 OA
ATOM      6  C   UNL     1      13.528  10.839  16.640  1.00  0.00     0.339 C 
ENDROOT
BRANCH   1   7
ATOM      7  O   UNL     1      14.375  13.080  17.018  1.00  0.00    -0.337 OA
BRANCH   7   8
ATOM      8  C   UNL     1      15.644  13.433  16.486  1.00  0.00     0.282 C 
ATOM      9  C   UNL     1      16.578  15.377  14.132  1.00  0.00     0.041 C 
ATOM     10  C   UNL     1      16.887  15.249  15.631  1.00  0.00     0.150 C 
ATOM     11  C   UNL     1      18.160  14.401  15.930  1.00  0.00     0.174 C 
ATOM     12  O   UNL     1      15.723  14.844  16.350  1.00  0.00    -0.344 OA
ATOM     13  C   UNL     1      18.042  13.791  17.337  1.00  0.00     0.179 C 
ATOM     14  C   UNL     1      16.741  12.955  17.473  1.00  0.00     0.202 C 
BRANCH  11  15
ATOM     15  O   UNL     1      18.310  13.375  14.980  1.00  0.00    -0.388 OA
ATOM     16  H   UNL     1      17.690  12.644  15.249  1.00  0.00     0.211 HD
ENDBRANCH  11  15
BRANCH  13  17
ATOM     17  O   UNL     1      18.045  14.834  18.283  1.00  0.00    -0.387 OA
ATOM     18  H   UNL     1      18.415  14.472  19.128  1.00  0.00     0.211 HD
ENDBRANCH  13  17
BRANCH  14  19
ATOM     19  O   UNL     1      17.036  11.600  17.224  1.00  0.00    -0.385 OA
ATOM     20  H   UNL     1      16.175  11.109  17.274  1.00  0.00     0.211 HD
ENDBRANCH  14  19
ENDBRANCH   7   8
ENDBRANCH   1   7
BRANCH   2  21
ATOM     21  O   UNL     1      11.432  12.138  15.082  1.00  0.00    -0.387 OA
ATOM     22  H   UNL     1      12.032  11.415  14.757  1.00  0.00     0.211 HD
ENDBRANCH   2  21
BRANCH   6  23
ATOM     23  O   UNL     1      13.797   9.929  15.570  1.00  0.00    -0.462 OA
BRANCH  23  24
ATOM     24  C   UNL     1      14.149   8.602  15.829  1.00  0.00     0.130 A 
ATOM     25  C   UNL     1      14.682   8.244  17.073  1.00  0.00     0.093 A 
ATOM     26  C   UNL     1      13.928   7.617  14.856  1.00  0.00     0.094 A 
ATOM     27  C   UNL     1      14.936   6.897  17.373  1.00  0.00     0.133 A 
ATOM     28  C   UNL     1      14.176   6.276  15.147  1.00  0.00     0.138 A 
ATOM     29  C   UNL     1      14.656   5.903  16.411  1.00  0.00     0.102 A 
ATOM     30  O   UNL     1      13.895   5.312  14.175  1.00  0.00    -0.484 OA
ATOM     31  C   UNL     1      14.756   4.457  16.706  1.00  0.00     0.174 C 
ATOM     32  C   UNL     1      14.212   3.924  14.318  1.00  0.00     0.211 C 
ATOM     33  O   UNL     1      15.349   4.039  17.735  1.00  0.00    -0.294 OA
ATOM     34  C   UNL     1      14.080   3.476  15.786  1.00  0.00     0.131 C 
BRANCH  27  35
ATOM     35  O   UNL     1      15.456   6.551  18.621  1.00  0.00    -0.507 OA
ATOM     36  H   UNL     1      14.892   6.103  19.331  1.00  0.00     0.293 HD
ENDBRANCH  27  35
BRANCH  32  37
ATOM     37  C   UNL     1      15.551   3.626  13.649  1.00  0.00    -0.007 A 
ATOM     38  C   UNL     1      15.760   3.706  12.251  1.00  0.00     0.011 A 
ATOM     39  C   UNL     1      16.643   3.296  14.476  1.00  0.00     0.011 A 
ATOM     40  C   UNL     1      17.035   3.502  11.711  1.00  0.00     0.046 A 
ATOM     41  C   UNL     1      17.913   3.093  13.931  1.00  0.00     0.046 A 
ATOM     42  C   UNL     1      18.116   3.204  12.548  1.00  0.00     0.115 A 
BRANCH  42  43
ATOM     43  O   UNL     1      19.394   3.037  12.023  1.00  0.00    -0.508 OA
ATOM     44  H   UNL     1      20.227   3.198  12.588  1.00  0.00     0.293 HD
ENDBRANCH  42  43
ENDBRANCH  32  37
ENDBRANCH  23  24
ENDBRANCH   6  23
BRANCH   3  45
ATOM     45  O   UNL     1      11.853  13.894  18.192  1.00  0.00    -0.387 OA
ATOM     46  H   UNL     1      12.771  14.135  17.910  1.00  0.00     0.211 HD
ENDBRANCH   3  45
BRANCH   4  47
ATOM     47  C   UNL     1      10.666  10.927  18.941  1.00  0.00     0.191 C 
BRANCH  47  48
ATOM     48  O   UNL     1       9.652  10.495  18.071  1.00  0.00    -0.394 OA
ATOM     49  H   UNL     1       9.729  11.050  17.251  1.00  0.00     0.210 HD
ENDBRANCH  47  48
ENDBRANCH   4  47
TORSDOF 14
ENDMDL
MODEL 3
REMARK VINA RESULT:    58.162      1.413      1.789
REMARK INTER + INTRA:          90.816
REMARK INTER:                  92.357
REMARK INTRA:                  -1.541
REMARK UNBOUND:                -1.348
REMARK SMILES C[C@H]1O[C@H](O[C@H]2[C@H](Oc3cc(O)c4c(c3)O[C@@H](c3ccc(O)cc3)CC4=O)O[C@H](CO)[C@@H](O)[C@@H]2O)[C@@H](O)[C@H](O)[C@H]1O
REMARK SMILES IDX 6 1 34 2 32 3 29 4 28 5 7 6 5 7 4 8 1 9 2 10 40 11 3 12
REMARK SMILES IDX 38 13 36 14 41 15 39 17 37 19 35 21 8 23 9 24 10 25 15 26
REMARK SMILES IDX 11 27 14 28 13 29 16 30 26 31 17 32 27 33 25 34 12 35 18 37
REMARK SMILES IDX 19 38 24 39 20 40 23 41 21 42 22 43 33 45 30 47 31 48
REMARK H PARENT 41 16 39 18 37 20 35 22 12 36 22 44 33 46 31 49
REMARK Flexibility Score: inf
ROOT
ATOM      1  C   UNL     1      20.214  -0.145  12.582  1.00  0.00     0.221 C 
ATOM      2  C   UNL     1      20.556  -1.457  13.322  1.00  0.00     0.181 C 
ATOM      3  C   UNL     1      19.571  -2.578  12.910  1.00  0.00     0.177 C 
ATOM      4  C   UNL     1      18.135  -2.009  12.730  1.00  0.00     0.179 C 
ATOM      5  O   UNL     1      17.988  -0.814  13.468  1.00  0.00    -0.332 OA
ATOM      6  C   UNL     1      18.731   0.246  12.885  1.00  0.00     0.339 C 
ENDROOT
BRANCH   1   7
ATOM      7  O   UNL     1      20.353  -0.323  11.173  1.00  0.00    -0.337 OA
BRANCH   7   8
ATOM      8  C   UNL     1      20.163   0.880  10.443  1.00  0.00     0.282 C 
ATOM      9  C   UNL     1      19.618   3.908  11.295  1.00  0.00     0.041 C 
ATOM     10  C   UNL     1      20.675   3.184  10.447  1.00  0.00     0.150 C 
ATOM     11  C   UNL     1      20.342   3.170   8.925  1.00  0.00     0.174 C 
ATOM     12  O   UNL     1      20.972   1.904  11.001  1.00  0.00    -0.344 OA
ATOM     13  C   UNL     1      21.020   1.954   8.271  1.00  0.00     0.179 C 
ATOM     14  C   UNL     1      20.595   0.636   8.973  1.00  0.00     0.202 C 
BRANCH  11  15
ATOM     15  O   UNL     1      18.952   3.103   8.720  1.00  0.00    -0.388 OA
ATOM     16  H   UNL     1      18.586   4.001   8.946  1.00  0.00     0.211 HD
ENDBRANCH  11  15
BRANCH  13  17
ATOM     17  O   UNL     1      22.416   2.116   8.356  1.00  0.00    -0.387 OA
ATOM     18  H   UNL     1      22.725   1.629   9.162  1.00  0.00     0.211 HD
ENDBRANCH  13  17
BRANCH  14  19
ATOM     19  O   UNL     1      19.526   0.059   8.261  1.00  0.00    -0.385 OA
ATOM     20  H   UNL     1      18.696   0.481   8.605  1.00  0.00     0.211 HD
ENDBRANCH  14  19
ENDBRANCH   7   8
ENDBRANCH   1   7
BRANCH   2  21
ATOM     21  O   UNL     1      20.472  -1.226  14.705  1.00  0.00    -0.387 OA
ATOM     22  H   UNL     1      20.176  -0.284  14.826  1.00  0.00     0.211 HD
ENDBRANCH   2  21
BRANCH   6  23
ATOM     23  O   UNL     1      18.698   1.363  13.776  1.00  0.00    -0.462 OA
BRANCH  23  24
ATOM     24  C   UNL     1      17.561   2.171  13.872  1.00  0.00     0.130 A 
ATOM     25  C   UNL     1      16.780   2.424  12.738  1.00  0.00     0.093 A 
ATOM     26  C   UNL     1      17.177   2.694  15.115  1.00  0.00     0.094 A 
ATOM     27  C   UNL     1      15.582   3.146  12.852  1.00  0.00     0.133 A 
ATOM     28  C   UNL     1      15.987   3.409  15.236  1.00  0.00     0.138 A 
ATOM     29  C   UNL     1      15.169   3.620  14.115  1.00  0.00     0.102 A 
ATOM     30  O   UNL     1      15.604   3.872  16.498  1.00  0.00    -0.484 OA
ATOM     31  C   UNL     1      13.852   4.254  14.338  1.00  0.00     0.174 C 
ATOM     32  C   UNL     1      14.466   4.710  16.726  1.00  0.00     0.211 C 
ATOM     33  O   UNL     1      13.144   4.647  13.374  1.00  0.00    -0.294 OA
ATOM     34  C   UNL     1      13.327   4.373  15.744  1.00  0.00     0.131 C 
BRANCH  27  35
ATOM     35  O   UNL     1      14.804   3.382  11.717  1.00  0.00    -0.507 OA
ATOM     36  H   UNL     1      15.216   3.577  10.815  1.00  0.00     0.293 HD
ENDBRANCH  27  35
BRANCH  32  37
ATOM     37  C   UNL     1      14.899   6.173  16.765  1.00  0.00    -0.007 A 
ATOM     38  C   UNL     1      15.567   6.760  17.867  1.00  0.00     0.011 A 
ATOM     39  C   UNL     1      14.656   6.965  15.625  1.00  0.00     0.011 A 
ATOM     40  C   UNL     1      16.011   8.086  17.804  1.00  0.00     0.046 A 
ATOM     41  C   UNL     1      15.101   8.287  15.569  1.00  0.00     0.046 A 
ATOM     42  C   UNL     1      15.789   8.850  16.654  1.00  0.00     0.115 A 
BRANCH  42  43
ATOM     43  O   UNL     1      16.260  10.156  16.568  1.00  0.00    -0.508 OA
ATOM     44  H   UNL     1      15.826  10.840  15.949  1.00  0.00     0.293 HD
ENDBRANCH  42  43
ENDBRANCH  32  37
ENDBRANCH  23  24
ENDBRANCH   6  23
BRANCH   3  45
ATOM     45  O   UNL     1      20.002  -3.152  11.704  1.00  0.00    -0.387 OA
ATOM     46  H   UNL     1      19.306  -3.803  11.432  1.00  0.00     0.211 HD
ENDBRANCH   3  45
BRANCH   4  47
ATOM     47  C   UNL     1      17.085  -3.023  13.206  1.00  0.00     0.191 C 
BRANCH  47  48
ATOM     48  O   UNL     1      17.334  -3.394  14.537  1.00  0.00    -0.394 OA
ATOM     49  H   UNL     1      17.507  -2.552  15.035  1.00  0.00     0.210 HD
ENDBRANCH  47  48
ENDBRANCH   4  47
TORSDOF 14
ENDMDL
