MODEL 1
REMARK VINA RESULT:    -5.088      0.000      0.000
REMARK INTER + INTRA:          -7.824
REMARK INTER:                  -7.765
REMARK INTRA:                  -0.059
REMARK UNBOUND:                -0.059
REMARK SMILES CC1=CCC[C@H](C)C(=O)C[C@H](C(C)C)C(=O)C1
REMARK SMILES IDX 8 1 9 2 6 3 7 4 5 5 4 6 3 7 2 8 1 9 10 11 11 12 15 13 16 14
REMARK SMILES IDX 17 15 12 17 13 18 14 19
REMARK H PARENT
REMARK Flexibility Score: 70.00
ROOT
ATOM      1  C   UNL     1      -4.533 -13.450  27.671  1.00  0.00     0.136 C 
ATOM      2  O   UNL     1      -4.596 -14.409  26.913  1.00  0.00    -0.299 OA
ENDROOT
BRANCH   1   3
ATOM      3  C   UNL     1      -3.429 -12.428  27.504  1.00  0.00     0.053 C 
ATOM      4  C   UNL     1      -3.437 -11.900  26.066  1.00  0.00     0.016 C 
BRANCH   3   5
ATOM      5  C   UNL     1      -3.559 -11.253  28.502  1.00  0.00     0.015 C 
BRANCH   5   6
ATOM      6  C   UNL     1      -2.713 -11.420  29.772  1.00  0.00     0.028 C 
BRANCH   6   7
ATOM      7  C   UNL     1      -3.536 -11.187  31.017  1.00  0.00    -0.028 C 
ATOM      8  C   UNL     1      -4.083 -12.162  31.778  1.00  0.00    -0.070 CG0
ATOM      9  C   UNL     1      -4.881 -11.752  32.989  1.00  0.00     0.039 C 
ATOM     10  G   UNL     1      -3.936 -13.638  31.457  1.00  0.00     0.000 G0
ENDBRANCH   6   7
ENDBRANCH   5   6
ENDBRANCH   3   5
ENDBRANCH   1   3
BRANCH   1  11
ATOM     11  C   UNL     1      -5.529 -13.338  28.801  1.00  0.00     0.087 C 
BRANCH  11  12
ATOM     12  C   UNL     1      -5.661 -14.628  29.653  1.00  0.00     0.066 C 
BRANCH  12  13
ATOM     13  C   UNL     1      -5.248 -14.355  31.097  1.00  0.00     0.140 C 
ATOM     14  O   UNL     1      -5.955 -14.779  32.000  1.00  0.00    -0.299 OA
BRANCH  13  15
ATOM     15  C   UNL     1      -3.952 -13.664  31.474  1.00  0.00     0.106 CG0
ATOM     16  G   UNL     1      -4.097 -12.184  31.778  1.00  0.00     0.000 G0
ENDBRANCH  13  15
ENDBRANCH  12  13
BRANCH  12  17
ATOM     17  C   UNL     1      -7.115 -15.199  29.604  1.00  0.00    -0.006 C 
ATOM     18  C   UNL     1      -7.116 -16.734  29.494  1.00  0.00     0.008 C 
ATOM     19  C   UNL     1      -7.928 -14.618  28.431  1.00  0.00     0.008 C 
ENDBRANCH  12  17
ENDBRANCH  11  12
ENDBRANCH   1  11
TORSDOF 1
ENDMDL
MODEL 2
REMARK VINA RESULT:    -4.890      1.887      4.018
REMARK INTER + INTRA:          -7.523
REMARK INTER:                  -7.388
REMARK INTRA:                  -0.134
REMARK UNBOUND:                -0.059
REMARK SMILES CC1=CCC[C@H](C)C(=O)C[C@H](C(C)C)C(=O)C1
REMARK SMILES IDX 8 1 9 2 6 3 7 4 5 5 4 6 3 7 2 8 1 9 10 11 11 12 15 13 16 14
REMARK SMILES IDX 17 15 12 17 13 18 14 19
REMARK H PARENT
REMARK Flexibility Score: 70.00
ROOT
ATOM      1  C   UNL     1      -4.407 -12.562  32.077  1.00  0.00     0.136 C 
ATOM      2  O   UNL     1      -4.947 -12.889  33.124  1.00  0.00    -0.299 OA
ENDROOT
BRANCH   1   3
ATOM      3  C   UNL     1      -4.199 -11.095  31.762  1.00  0.00     0.053 C 
ATOM      4  C   UNL     1      -5.166 -10.253  32.599  1.00  0.00     0.016 C 
BRANCH   3   5
ATOM      5  C   UNL     1      -2.742 -10.640  32.015  1.00  0.00     0.015 C 
BRANCH   5   6
ATOM      6  C   UNL     1      -1.927 -10.425  30.731  1.00  0.00     0.028 C 
BRANCH   6   7
ATOM      7  C   UNL     1      -1.060 -11.621  30.422  1.00  0.00    -0.028 C 
ATOM      8  C   UNL     1      -1.281 -12.500  29.419  1.00  0.00    -0.070 CG0
ATOM      9  C   UNL     1      -0.314 -13.645  29.253  1.00  0.00     0.039 C 
ATOM     10  G   UNL     1      -2.459 -12.388  28.468  1.00  0.00     0.000 G0
ENDBRANCH   6   7
ENDBRANCH   5   6
ENDBRANCH   3   5
ENDBRANCH   1   3
BRANCH   1  11
ATOM     11  C   UNL     1      -4.011 -13.630  31.086  1.00  0.00     0.087 C 
BRANCH  11  12
ATOM     12  C   UNL     1      -4.612 -13.429  29.670  1.00  0.00     0.066 C 
BRANCH  12  13
ATOM     13  C   UNL     1      -3.512 -13.475  28.614  1.00  0.00     0.140 C 
ATOM     14  O   UNL     1      -3.518 -14.386  27.799  1.00  0.00    -0.299 OA
BRANCH  13  15
ATOM     15  C   UNL     1      -2.461 -12.392  28.463  1.00  0.00     0.106 CG0
ATOM     16  G   UNL     1      -1.293 -12.515  29.424  1.00  0.00     0.000 G0
ENDBRANCH  13  15
ENDBRANCH  12  13
BRANCH  12  17
ATOM     17  C   UNL     1      -5.708 -14.500  29.358  1.00  0.00    -0.006 C 
ATOM     18  C   UNL     1      -6.819 -13.926  28.461  1.00  0.00     0.008 C 
ATOM     19  C   UNL     1      -6.349 -15.066  30.639  1.00  0.00     0.008 C 
ENDBRANCH  12  17
ENDBRANCH  11  12
ENDBRANCH   1  11
TORSDOF 1
ENDMDL
MODEL 3
REMARK VINA RESULT:    -4.796      1.564      2.363
REMARK INTER + INTRA:          -7.379
REMARK INTER:                  -7.608
REMARK INTRA:                   0.229
REMARK UNBOUND:                -0.059
REMARK SMILES CC1=CCC[C@H](C)C(=O)C[C@H](C(C)C)C(=O)C1
REMARK SMILES IDX 8 1 9 2 6 3 7 4 5 5 4 6 3 7 2 8 1 9 10 11 11 12 15 13 16 14
REMARK SMILES IDX 17 15 12 17 13 18 14 19
REMARK H PARENT
REMARK Flexibility Score: 70.00
ROOT
ATOM      1  C   UNL     1      -4.141 -12.903  28.060  1.00  0.00     0.136 C 
ATOM      2  O   UNL     1      -4.102 -13.973  27.469  1.00  0.00    -0.299 OA
ENDROOT
BRANCH   1   3
ATOM      3  C   UNL     1      -3.199 -11.786  27.662  1.00  0.00     0.053 C 
ATOM      4  C   UNL     1      -3.306 -11.543  26.154  1.00  0.00     0.016 C 
BRANCH   3   5
ATOM      5  C   UNL     1      -3.482 -10.475  28.434  1.00  0.00     0.015 C 
BRANCH   5   6
ATOM      6  C   UNL     1      -2.491 -10.199  29.573  1.00  0.00     0.028 C 
BRANCH   6   7
ATOM      7  C   UNL     1      -1.566 -11.371  29.796  1.00  0.00    -0.028 C 
ATOM      8  C   UNL     1      -1.631 -12.222  30.845  1.00  0.00    -0.070 CG0
ATOM      9  C   UNL     1      -0.623 -13.341  30.913  1.00  0.00     0.039 C 
ATOM     10  G   UNL     1      -2.661 -12.089  31.951  1.00  0.00     0.000 G0
ENDBRANCH   6   7
ENDBRANCH   5   6
ENDBRANCH   3   5
ENDBRANCH   1   3
BRANCH   1  11
ATOM     11  C   UNL     1      -5.092 -12.737  29.221  1.00  0.00     0.087 C 
BRANCH  11  12
ATOM     12  C   UNL     1      -4.572 -13.343  30.552  1.00  0.00     0.066 C 
BRANCH  12  13
ATOM     13  C   UNL     1      -4.095 -12.237  31.488  1.00  0.00     0.140 C 
ATOM     14  O   UNL     1      -4.919 -11.461  31.950  1.00  0.00    -0.299 OA
BRANCH  13  15
ATOM     15  C   UNL     1      -2.658 -12.107  31.954  1.00  0.00     0.106 CG0
ATOM     16  G   UNL     1      -1.628 -12.222  30.846  1.00  0.00     0.000 G0
ENDBRANCH  13  15
ENDBRANCH  12  13
BRANCH  12  17
ATOM     17  C   UNL     1      -5.669 -14.209  31.252  1.00  0.00    -0.006 C 
ATOM     18  C   UNL     1      -5.068 -15.097  32.357  1.00  0.00     0.008 C 
ATOM     19  C   UNL     1      -6.426 -15.106  30.255  1.00  0.00     0.008 C 
ENDBRANCH  12  17
ENDBRANCH  11  12
ENDBRANCH   1  11
TORSDOF 1
ENDMDL
MODEL 4
REMARK VINA RESULT:    -4.780      1.917      3.996
REMARK INTER + INTRA:          -7.354
REMARK INTER:                  -7.448
REMARK INTRA:                   0.094
REMARK UNBOUND:                -0.059
REMARK SMILES CC1=CCC[C@H](C)C(=O)C[C@H](C(C)C)C(=O)C1
REMARK SMILES IDX 8 1 9 2 6 3 7 4 5 5 4 6 3 7 2 8 1 9 10 11 11 12 15 13 16 14
REMARK SMILES IDX 17 15 12 17 13 18 14 19
REMARK H PARENT
REMARK Flexibility Score: 70.00
ROOT
ATOM      1  C   UNL     1      -3.951 -13.787  31.417  1.00  0.00     0.136 C 
ATOM      2  O   UNL     1      -2.903 -14.012  32.007  1.00  0.00    -0.299 OA
ENDROOT
BRANCH   1   3
ATOM      3  C   UNL     1      -5.209 -13.486  32.204  1.00  0.00     0.053 C 
ATOM      4  C   UNL     1      -5.701 -14.765  32.887  1.00  0.00     0.016 C 
BRANCH   3   5
ATOM      5  C   UNL     1      -4.993 -12.371  33.255  1.00  0.00     0.015 C 
BRANCH   5   6
ATOM      6  C   UNL     1      -4.999 -10.953  32.667  1.00  0.00     0.028 C 
BRANCH   6   7
ATOM      7  C   UNL     1      -3.658 -10.598  32.071  1.00  0.00    -0.028 C 
ATOM      8  C   UNL     1      -3.434 -10.348  30.761  1.00  0.00    -0.070 CG0
ATOM      9  C   UNL     1      -2.028 -10.011  30.334  1.00  0.00     0.039 C 
ATOM     10  G   UNL     1      -4.529 -10.403  29.712  1.00  0.00     0.000 G0
ENDBRANCH   6   7
ENDBRANCH   5   6
ENDBRANCH   3   5
ENDBRANCH   1   3
BRANCH   1  11
ATOM     11  C   UNL     1      -3.982 -13.875  29.910  1.00  0.00     0.087 C 
BRANCH  11  12
ATOM     12  C   UNL     1      -5.075 -12.992  29.251  1.00  0.00     0.066 C 
BRANCH  12  13
ATOM     13  C   UNL     1      -4.488 -11.650  28.825  1.00  0.00     0.140 C 
ATOM     14  O   UNL     1      -4.032 -11.540  27.696  1.00  0.00    -0.299 OA
BRANCH  13  15
ATOM     15  C   UNL     1      -4.528 -10.411  29.699  1.00  0.00     0.106 CG0
ATOM     16  G   UNL     1      -3.440 -10.356  30.755  1.00  0.00     0.000 G0
ENDBRANCH  13  15
ENDBRANCH  12  13
BRANCH  12  17
ATOM     17  C   UNL     1      -5.729 -13.711  28.027  1.00  0.00    -0.006 C 
ATOM     18  C   UNL     1      -6.776 -14.747  28.473  1.00  0.00     0.008 C 
ATOM     19  C   UNL     1      -4.684 -14.414  27.140  1.00  0.00     0.008 C 
ENDBRANCH  12  17
ENDBRANCH  11  12
ENDBRANCH   1  11
TORSDOF 1
ENDMDL
MODEL 5
REMARK VINA RESULT:    -4.767      1.959      2.539
REMARK INTER + INTRA:          -7.335
REMARK INTER:                  -7.502
REMARK INTRA:                   0.167
REMARK UNBOUND:                -0.059
REMARK SMILES CC1=CCC[C@H](C)C(=O)C[C@H](C(C)C)C(=O)C1
REMARK SMILES IDX 8 1 9 2 6 3 7 4 5 5 4 6 3 7 2 8 1 9 10 11 11 12 15 13 16 14
REMARK SMILES IDX 17 15 12 17 13 18 14 19
REMARK H PARENT
REMARK Flexibility Score: 70.00
ROOT
ATOM      1  C   UNL     1      -2.518 -12.863  28.156  1.00  0.00     0.136 C 
ATOM      2  O   UNL     1      -2.250 -11.836  27.548  1.00  0.00    -0.299 OA
ENDROOT
BRANCH   1   3
ATOM      3  C   UNL     1      -1.507 -13.457  29.115  1.00  0.00     0.053 C 
ATOM      4  C   UNL     1      -0.522 -14.334  28.336  1.00  0.00     0.016 C 
BRANCH   3   5
ATOM      5  C   UNL     1      -0.741 -12.372  29.908  1.00  0.00     0.015 C 
BRANCH   5   6
ATOM      6  C   UNL     1      -1.469 -11.899  31.175  1.00  0.00     0.028 C 
BRANCH   6   7
ATOM      7  C   UNL     1      -2.251 -13.022  31.812  1.00  0.00    -0.028 C 
ATOM      8  C   UNL     1      -3.600 -13.096  31.862  1.00  0.00    -0.070 CG0
ATOM      9  C   UNL     1      -4.220 -14.290  32.543  1.00  0.00     0.039 C 
ATOM     10  G   UNL     1      -4.507 -12.029  31.276  1.00  0.00     0.000 G0
ENDBRANCH   6   7
ENDBRANCH   5   6
ENDBRANCH   3   5
ENDBRANCH   1   3
BRANCH   1  11
ATOM     11  C   UNL     1      -3.834 -13.554  27.892  1.00  0.00     0.087 C 
BRANCH  11  12
ATOM     12  C   UNL     1      -4.772 -13.614  29.126  1.00  0.00     0.066 C 
BRANCH  12  13
ATOM     13  C   UNL     1      -4.844 -12.249  29.805  1.00  0.00     0.140 C 
ATOM     14  O   UNL     1      -5.261 -11.295  29.164  1.00  0.00    -0.299 OA
BRANCH  13  15
ATOM     15  C   UNL     1      -4.512 -12.031  31.269  1.00  0.00     0.106 CG0
ATOM     16  G   UNL     1      -3.598 -13.084  31.867  1.00  0.00     0.000 G0
ENDBRANCH  13  15
ENDBRANCH  12  13
BRANCH  12  17
ATOM     17  C   UNL     1      -6.204 -14.098  28.732  1.00  0.00    -0.006 C 
ATOM     18  C   UNL     1      -6.781 -15.067  29.780  1.00  0.00     0.008 C 
ATOM     19  C   UNL     1      -6.227 -14.789  27.355  1.00  0.00     0.008 C 
ENDBRANCH  12  17
ENDBRANCH  11  12
ENDBRANCH   1  11
TORSDOF 1
ENDMDL
MODEL 6
REMARK VINA RESULT:    -4.723      2.250      4.340
REMARK INTER + INTRA:          -7.268
REMARK INTER:                  -7.252
REMARK INTRA:                  -0.016
REMARK UNBOUND:                -0.059
REMARK SMILES CC1=CCC[C@H](C)C(=O)C[C@H](C(C)C)C(=O)C1
REMARK SMILES IDX 8 1 9 2 6 3 7 4 5 5 4 6 3 7 2 8 1 9 10 11 11 12 15 13 16 14
REMARK SMILES IDX 17 15 12 17 13 18 14 19
REMARK H PARENT
REMARK Flexibility Score: 70.00
ROOT
ATOM      1  C   UNL     1      -2.160 -12.389  31.422  1.00  0.00     0.136 C 
ATOM      2  O   UNL     1      -2.457 -11.498  32.204  1.00  0.00    -0.299 OA
ENDROOT
BRANCH   1   3
ATOM      3  C   UNL     1      -0.935 -12.244  30.543  1.00  0.00     0.053 C 
ATOM      4  C   UNL     1       0.300 -12.732  31.306  1.00  0.00     0.016 C 
BRANCH   3   5
ATOM      5  C   UNL     1      -1.074 -13.015  29.208  1.00  0.00     0.015 C 
BRANCH   5   6
ATOM      6  C   UNL     1      -2.030 -12.353  28.205  1.00  0.00     0.028 C 
BRANCH   6   7
ATOM      7  C   UNL     1      -2.839 -13.383  27.453  1.00  0.00    -0.028 C 
ATOM      8  C   UNL     1      -4.153 -13.631  27.650  1.00  0.00    -0.070 CG0
ATOM      9  C   UNL     1      -4.806 -14.701  26.811  1.00  0.00     0.039 C 
ATOM     10  G   UNL     1      -4.986 -12.891  28.679  1.00  0.00     0.000 G0
ENDBRANCH   6   7
ENDBRANCH   5   6
ENDBRANCH   3   5
ENDBRANCH   1   3
BRANCH   1  11
ATOM     11  C   UNL     1      -3.059 -13.597  31.304  1.00  0.00     0.087 C 
BRANCH  11  12
ATOM     12  C   UNL     1      -4.573 -13.256  31.307  1.00  0.00     0.066 C 
BRANCH  12  13
ATOM     13  C   UNL     1      -5.211 -13.657  29.981  1.00  0.00     0.140 C 
ATOM     14  O   UNL     1      -5.995 -14.595  29.965  1.00  0.00    -0.299 OA
BRANCH  13  15
ATOM     15  C   UNL     1      -4.996 -12.890  28.690  1.00  0.00     0.106 CG0
ATOM     16  G   UNL     1      -4.159 -13.623  27.658  1.00  0.00     0.000 G0
ENDBRANCH  13  15
ENDBRANCH  12  13
BRANCH  12  17
ATOM     17  C   UNL     1      -5.312 -13.952  32.496  1.00  0.00    -0.006 C 
ATOM     18  C   UNL     1      -5.354 -13.049  33.742  1.00  0.00     0.008 C 
ATOM     19  C   UNL     1      -4.661 -15.294  32.880  1.00  0.00     0.008 C 
ENDBRANCH  12  17
ENDBRANCH  11  12
ENDBRANCH   1  11
TORSDOF 1
ENDMDL
MODEL 7
REMARK VINA RESULT:    -4.673      2.391      5.389
REMARK INTER + INTRA:          -7.191
REMARK INTER:                  -7.586
REMARK INTRA:                   0.395
REMARK UNBOUND:                -0.059
REMARK SMILES CC1=CCC[C@H](C)C(=O)C[C@H](C(C)C)C(=O)C1
REMARK SMILES IDX 8 1 9 2 6 3 7 4 5 5 4 6 3 7 2 8 1 9 10 11 11 12 15 13 16 14
REMARK SMILES IDX 17 15 12 17 13 18 14 19
REMARK H PARENT
REMARK Flexibility Score: 70.00
ROOT
ATOM      1  C   UNL     1      -4.163 -13.047  31.771  1.00  0.00     0.136 C 
ATOM      2  O   UNL     1      -4.864 -12.166  32.249  1.00  0.00    -0.299 OA
ENDROOT
BRANCH   1   3
ATOM      3  C   UNL     1      -4.744 -14.423  31.522  1.00  0.00     0.053 C 
ATOM      4  C   UNL     1      -5.098 -15.076  32.861  1.00  0.00     0.016 C 
BRANCH   3   5
ATOM      5  C   UNL     1      -5.991 -14.377  30.606  1.00  0.00     0.015 C 
BRANCH   5   6
ATOM      6  C   UNL     1      -5.902 -13.329  29.488  1.00  0.00     0.028 C 
BRANCH   6   7
ATOM      7  C   UNL     1      -5.113 -13.847  28.309  1.00  0.00    -0.028 C 
ATOM      8  C   UNL     1      -4.167 -13.149  27.642  1.00  0.00    -0.070 CG0
ATOM      9  C   UNL     1      -3.477 -13.819  26.481  1.00  0.00     0.039 C 
ATOM     10  G   UNL     1      -3.783 -11.726  28.004  1.00  0.00     0.000 G0
ENDBRANCH   6   7
ENDBRANCH   5   6
ENDBRANCH   3   5
ENDBRANCH   1   3
BRANCH   1  11
ATOM     11  C   UNL     1      -2.706 -12.759  31.494  1.00  0.00     0.087 C 
BRANCH  11  12
ATOM     12  C   UNL     1      -2.336 -12.785  29.988  1.00  0.00     0.066 C 
BRANCH  12  13
ATOM     13  C   UNL     1      -2.957 -11.591  29.268  1.00  0.00     0.140 C 
ATOM     14  O   UNL     1      -2.719 -10.466  29.682  1.00  0.00    -0.299 OA
BRANCH  13  15
ATOM     15  C   UNL     1      -3.782 -11.722  28.002  1.00  0.00     0.106 CG0
ATOM     16  G   UNL     1      -4.160 -13.148  27.646  1.00  0.00     0.000 G0
ENDBRANCH  13  15
ENDBRANCH  12  13
BRANCH  12  17
ATOM     17  C   UNL     1      -0.787 -12.796  29.780  1.00  0.00    -0.006 C 
ATOM     18  C   UNL     1      -0.345 -13.966  28.883  1.00  0.00     0.008 C 
ATOM     19  C   UNL     1      -0.022 -12.879  31.114  1.00  0.00     0.008 C 
ENDBRANCH  12  17
ENDBRANCH  11  12
ENDBRANCH   1  11
TORSDOF 1
ENDMDL
MODEL 8
REMARK VINA RESULT:    -4.606      2.778      4.570
REMARK INTER + INTRA:          -7.088
REMARK INTER:                  -7.583
REMARK INTRA:                   0.494
REMARK UNBOUND:                -0.059
REMARK SMILES CC1=CCC[C@H](C)C(=O)C[C@H](C(C)C)C(=O)C1
REMARK SMILES IDX 8 1 9 2 6 3 7 4 5 5 4 6 3 7 2 8 1 9 10 11 11 12 15 13 16 14
REMARK SMILES IDX 17 15 12 17 13 18 14 19
REMARK H PARENT
REMARK Flexibility Score: 70.00
ROOT
ATOM      1  C   UNL     1      -4.948 -11.006  30.406  1.00  0.00     0.136 C 
ATOM      2  O   UNL     1      -5.451  -9.893  30.336  1.00  0.00    -0.299 OA
ENDROOT
BRANCH   1   3
ATOM      3  C   UNL     1      -4.479 -11.539  31.744  1.00  0.00     0.053 C 
ATOM      4  C   UNL     1      -5.161 -10.757  32.870  1.00  0.00     0.016 C 
BRANCH   3   5
ATOM      5  C   UNL     1      -4.756 -13.053  31.903  1.00  0.00     0.015 C 
BRANCH   5   6
ATOM      6  C   UNL     1      -3.693 -13.950  31.253  1.00  0.00     0.028 C 
BRANCH   6   7
ATOM      7  C   UNL     1      -2.308 -13.614  31.750  1.00  0.00    -0.028 C 
ATOM      8  C   UNL     1      -1.324 -13.073  30.997  1.00  0.00    -0.070 CG0
ATOM      9  C   UNL     1       0.006 -12.803  31.655  1.00  0.00     0.039 C 
ATOM     10  G   UNL     1      -1.499 -12.740  29.527  1.00  0.00     0.000 G0
ENDBRANCH   6   7
ENDBRANCH   5   6
ENDBRANCH   3   5
ENDBRANCH   1   3
BRANCH   1  11
ATOM     11  C   UNL     1      -4.748 -11.805  29.141  1.00  0.00     0.087 C 
BRANCH  11  12
ATOM     12  C   UNL     1      -3.479 -11.408  28.340  1.00  0.00     0.066 C 
BRANCH  12  13
ATOM     13  C   UNL     1      -2.247 -11.458  29.238  1.00  0.00     0.140 C 
ATOM     14  O   UNL     1      -1.908 -10.442  29.827  1.00  0.00    -0.299 OA
BRANCH  13  15
ATOM     15  C   UNL     1      -1.472 -12.731  29.515  1.00  0.00     0.106 CG0
ATOM     16  G   UNL     1      -1.341 -13.077  30.987  1.00  0.00     0.000 G0
ENDBRANCH  13  15
ENDBRANCH  12  13
BRANCH  12  17
ATOM     17  C   UNL     1      -3.279 -12.330  27.094  1.00  0.00    -0.006 C 
ATOM     18  C   UNL     1      -3.526 -11.566  25.780  1.00  0.00     0.008 C 
ATOM     19  C   UNL     1      -4.199 -13.564  27.129  1.00  0.00     0.008 C 
ENDBRANCH  12  17
ENDBRANCH  11  12
ENDBRANCH   1  11
TORSDOF 1
ENDMDL
MODEL 9
REMARK VINA RESULT:    -4.564      2.004      4.724
REMARK INTER + INTRA:          -7.025
REMARK INTER:                  -7.023
REMARK INTRA:                  -0.002
REMARK UNBOUND:                -0.059
REMARK SMILES CC1=CCC[C@H](C)C(=O)C[C@H](C(C)C)C(=O)C1
REMARK SMILES IDX 8 1 9 2 6 3 7 4 5 5 4 6 3 7 2 8 1 9 10 11 11 12 15 13 16 14
REMARK SMILES IDX 17 15 12 17 13 18 14 19
REMARK H PARENT
REMARK Flexibility Score: 70.00
ROOT
ATOM      1  C   UNL     1      -5.744 -14.200  30.130  1.00  0.00     0.136 C 
ATOM      2  O   UNL     1      -5.649 -14.671  31.255  1.00  0.00    -0.299 OA
ENDROOT
BRANCH   1   3
ATOM      3  C   UNL     1      -6.217 -15.072  28.985  1.00  0.00     0.053 C 
ATOM      4  C   UNL     1      -7.663 -15.507  29.241  1.00  0.00     0.016 C 
BRANCH   3   5
ATOM      5  C   UNL     1      -6.110 -14.356  27.618  1.00  0.00     0.015 C 
BRANCH   5   6
ATOM      6  C   UNL     1      -4.778 -14.595  26.893  1.00  0.00     0.028 C 
BRANCH   6   7
ATOM      7  C   UNL     1      -4.130 -13.293  26.487  1.00  0.00    -0.028 C 
ATOM      8  C   UNL     1      -3.182 -12.644  27.199  1.00  0.00    -0.070 CG0
ATOM      9  C   UNL     1      -2.644 -11.348  26.647  1.00  0.00     0.039 C 
ATOM     10  G   UNL     1      -2.650 -13.157  28.524  1.00  0.00     0.000 G0
ENDBRANCH   6   7
ENDBRANCH   5   6
ENDBRANCH   3   5
ENDBRANCH   1   3
BRANCH   1  11
ATOM     11  C   UNL     1      -5.327 -12.769  29.892  1.00  0.00     0.087 C 
BRANCH  11  12
ATOM     12  C   UNL     1      -4.049 -12.349  30.665  1.00  0.00     0.066 C 
BRANCH  12  13
ATOM     13  C   UNL     1      -2.866 -12.226  29.709  1.00  0.00     0.140 C 
ATOM     14  O   UNL     1      -2.014 -11.378  29.935  1.00  0.00    -0.299 OA
BRANCH  13  15
ATOM     15  C   UNL     1      -2.641 -13.166  28.541  1.00  0.00     0.106 CG0
ATOM     16  G   UNL     1      -3.183 -12.660  27.217  1.00  0.00     0.000 G0
ENDBRANCH  13  15
ENDBRANCH  12  13
BRANCH  12  17
ATOM     17  C   UNL     1      -4.263 -11.007  31.437  1.00  0.00    -0.006 C 
ATOM     18  C   UNL     1      -4.803 -11.252  32.858  1.00  0.00     0.008 C 
ATOM     19  C   UNL     1      -5.227 -10.059  30.699  1.00  0.00     0.008 C 
ENDBRANCH  12  17
ENDBRANCH  11  12
ENDBRANCH   1  11
TORSDOF 1
ENDMDL
