MODEL 1
REMARK VINA RESULT:     8.569      0.000      0.000
REMARK INTER + INTRA:          21.401
REMARK INTER:                  21.594
REMARK INTRA:                  -0.193
REMARK UNBOUND:                -0.193
REMARK SMILES CCCCCCCCCCCCCCCCCCCCCCCCCCCC(=O)[O-]
REMARK SMILES IDX 15 1 16 2 17 3 18 4 19 5 20 6 21 7 22 8 23 9 24 10 25 11
REMARK SMILES IDX 26 12 27 13 28 14 29 15 30 16 14 17 13 18 12 19 11 20 10 21
REMARK SMILES IDX 9 22 8 23 7 24 6 25 5 26 4 27 3 28 2 29 1 30
REMARK H PARENT
REMARK Flexibility Score: inf
ROOT
ATOM      1  C   UNL     1      -4.899  36.346  21.688  1.00  0.00     0.000 C 
ENDROOT
BRANCH   1   2
ATOM      2  C   UNL     1      -5.248  37.321  20.549  1.00  0.00     0.000 C 
BRANCH   2   3
ATOM      3  C   UNL     1      -4.906  38.783  20.877  1.00  0.00     0.000 C 
BRANCH   3   4
ATOM      4  C   UNL     1      -5.786  39.423  21.965  1.00  0.00     0.000 C 
BRANCH   4   5
ATOM      5  C   UNL     1      -4.974  40.019  23.131  1.00  0.00     0.000 C 
BRANCH   5   6
ATOM      6  C   UNL     1      -5.336  39.391  24.487  1.00  0.00     0.000 C 
BRANCH   6   7
ATOM      7  C   UNL     1      -5.548  37.869  24.400  1.00  0.00     0.000 C 
BRANCH   7   8
ATOM      8  C   UNL     1      -5.056  37.136  25.658  1.00  0.00     0.000 C 
BRANCH   8   9
ATOM      9  C   UNL     1      -4.029  37.953  26.457  1.00  0.00     0.000 C 
BRANCH   9  10
ATOM     10  C   UNL     1      -2.728  37.161  26.639  1.00  0.00     0.000 C 
BRANCH  10  11
ATOM     11  C   UNL     1      -2.995  35.798  27.296  1.00  0.00     0.000 C 
BRANCH  11  12
ATOM     12  C   UNL     1      -2.019  35.498  28.446  1.00  0.00     0.006 C 
BRANCH  12  13
ATOM     13  C   UNL     1      -2.177  34.079  29.003  1.00  0.00     0.053 C 
BRANCH  13  14
ATOM     14  C   UNL     1      -0.922  33.647  29.696  1.00  0.00     0.041 C 
ATOM     15  O   UNL     1      -0.149  34.506  30.200  1.00  0.00    -0.550 OA
ATOM     16  O   UNL     1      -0.633  32.294  29.831  1.00  0.00    -0.550 OA
ENDBRANCH  13  14
ENDBRANCH  12  13
ENDBRANCH  11  12
ENDBRANCH  10  11
ENDBRANCH   9  10
ENDBRANCH   8   9
ENDBRANCH   7   8
ENDBRANCH   6   7
ENDBRANCH   5   6
ENDBRANCH   4   5
ENDBRANCH   3   4
ENDBRANCH   2   3
ENDBRANCH   1   2
BRANCH   1  17
ATOM     17  C   UNL     1      -6.122  35.540  22.177  1.00  0.00     0.000 C 
BRANCH  17  18
ATOM     18  C   UNL     1      -6.060  34.032  21.858  1.00  0.00     0.000 C 
BRANCH  18  19
ATOM     19  C   UNL     1      -6.123  33.666  20.365  1.00  0.00     0.000 C 
BRANCH  19  20
ATOM     20  C   UNL     1      -5.966  34.889  19.442  1.00  0.00     0.000 C 
BRANCH  20  21
ATOM     21  C   UNL     1      -5.373  34.523  18.070  1.00  0.00     0.000 C 
BRANCH  21  22
ATOM     22  C   UNL     1      -3.999  35.160  17.779  1.00  0.00    -0.000 C 
BRANCH  22  23
ATOM     23  C   UNL     1      -3.323  34.702  16.471  1.00  0.00    -0.000 C 
BRANCH  23  24
ATOM     24  C   UNL     1      -2.553  35.820  15.735  1.00  0.00    -0.000 C 
BRANCH  24  25
ATOM     25  C   UNL     1      -2.990  35.949  14.267  1.00  0.00    -0.000 C 
BRANCH  25  26
ATOM     26  C   UNL     1      -3.204  37.416  13.878  1.00  0.00    -0.000 C 
BRANCH  26  27
ATOM     27  C   UNL     1      -4.645  37.854  14.170  1.00  0.00    -0.000 C 
BRANCH  27  28
ATOM     28  C   UNL     1      -4.678  39.246  14.817  1.00  0.00    -0.000 C 
BRANCH  28  29
ATOM     29  C   UNL     1      -5.243  40.322  13.875  1.00  0.00    -0.003 C 
ATOM     30  C   UNL     1      -5.141  41.730  14.458  1.00  0.00     0.004 C 
ENDBRANCH  28  29
ENDBRANCH  27  28
ENDBRANCH  26  27
ENDBRANCH  25  26
ENDBRANCH  24  25
ENDBRANCH  23  24
ENDBRANCH  22  23
ENDBRANCH  21  22
ENDBRANCH  20  21
ENDBRANCH  19  20
ENDBRANCH  18  19
ENDBRANCH  17  18
ENDBRANCH   1  17
TORSDOF 26
ENDMDL
