MODEL 1
REMARK VINA RESULT:    -4.050      0.000      0.000
REMARK INTER + INTRA:         -16.168
REMARK INTER:                 -10.678
REMARK INTRA:                  -5.490
REMARK UNBOUND:                -5.490
REMARK SMILES CCCCCCCCCCCCCCCCCCCCCCCCCCCCCC(=O)[O-]
REMARK SMILES IDX 16 1 17 2 18 3 19 4 20 5 21 6 22 7 23 8 24 9 25 10 26 11
REMARK SMILES IDX 27 12 28 13 29 14 30 15 31 16 32 17 15 18 14 19 13 20 12 21
REMARK SMILES IDX 11 22 10 23 9 24 8 25 7 26 6 27 5 28 4 29 3 30 2 31 1 32
REMARK H PARENT
REMARK Flexibility Score: inf
ROOT
ATOM      1  C   UNL     1       7.276 -18.944  31.476  1.00  0.00     0.000 C 
ENDROOT
BRANCH   1   2
ATOM      2  C   UNL     1       6.990 -18.098  32.733  1.00  0.00     0.000 C 
BRANCH   2   3
ATOM      3  C   UNL     1       7.120 -16.588  32.485  1.00  0.00     0.000 C 
BRANCH   3   4
ATOM      4  C   UNL     1       7.747 -15.883  33.697  1.00  0.00     0.000 C 
BRANCH   4   5
ATOM      5  C   UNL     1       8.070 -16.854  34.847  1.00  0.00     0.000 C 
BRANCH   5   6
ATOM      6  C   UNL     1       9.564 -16.944  35.216  1.00  0.00     0.000 C 
BRANCH   6   7
ATOM      7  C   UNL     1      10.231 -15.605  35.595  1.00  0.00     0.000 C 
BRANCH   7   8
ATOM      8  C   UNL     1      10.996 -14.913  34.452  1.00  0.00     0.000 C 
BRANCH   8   9
ATOM      9  C   UNL     1      11.479 -13.500  34.827  1.00  0.00     0.000 C 
BRANCH   9  10
ATOM     10  C   UNL     1      10.554 -12.812  35.842  1.00  0.00     0.000 C 
BRANCH  10  11
ATOM     11  C   UNL     1       9.282 -12.245  35.191  1.00  0.00     0.000 C 
BRANCH  11  12
ATOM     12  C   UNL     1       8.106 -12.138  36.175  1.00  0.00     0.000 C 
BRANCH  12  13
ATOM     13  C   UNL     1       7.312 -13.448  36.295  1.00  0.00     0.006 C 
BRANCH  13  14
ATOM     14  C   UNL     1       7.518 -14.086  37.673  1.00  0.00     0.053 C 
BRANCH  14  15
ATOM     15  C   UNL     1       6.260 -14.012  38.484  1.00  0.00     0.041 C 
ATOM     16  O   UNL     1       5.296 -13.299  38.097  1.00  0.00    -0.550 OA
ATOM     17  O   UNL     1       6.157 -14.720  39.674  1.00  0.00    -0.550 OA
ENDBRANCH  14  15
ENDBRANCH  13  14
ENDBRANCH  12  13
ENDBRANCH  11  12
ENDBRANCH  10  11
ENDBRANCH   9  10
ENDBRANCH   8   9
ENDBRANCH   7   8
ENDBRANCH   6   7
ENDBRANCH   5   6
ENDBRANCH   4   5
ENDBRANCH   3   4
ENDBRANCH   2   3
ENDBRANCH   1   2
BRANCH   1  18
ATOM     18  C   UNL     1       6.105 -19.827  31.009  1.00  0.00     0.000 C 
BRANCH  18  19
ATOM     19  C   UNL     1       6.328 -20.430  29.612  1.00  0.00     0.000 C 
BRANCH  19  20
ATOM     20  C   UNL     1       6.735 -21.911  29.666  1.00  0.00     0.000 C 
BRANCH  20  21
ATOM     21  C   UNL     1       8.120 -22.162  29.039  1.00  0.00     0.000 C 
BRANCH  21  22
ATOM     22  C   UNL     1       8.638 -20.953  28.244  1.00  0.00     0.000 C 
BRANCH  22  23
ATOM     23  C   UNL     1       9.964 -20.406  28.796  1.00  0.00     0.000 C 
BRANCH  23  24
ATOM     24  C   UNL     1      10.195 -20.891  30.235  1.00  0.00    -0.000 C 
BRANCH  24  25
ATOM     25  C   UNL     1      10.742 -19.794  31.168  1.00  0.00    -0.000 C 
BRANCH  25  26
ATOM     26  C   UNL     1      10.758 -18.372  30.573  1.00  0.00    -0.000 C 
BRANCH  26  27
ATOM     27  C   UNL     1      10.826 -17.270  31.642  1.00  0.00    -0.000 C 
BRANCH  27  28
ATOM     28  C   UNL     1      10.454 -15.905  31.047  1.00  0.00    -0.000 C 
BRANCH  28  29
ATOM     29  C   UNL     1       9.856 -16.007  29.631  1.00  0.00    -0.000 C 
BRANCH  29  30
ATOM     30  C   UNL     1       8.561 -15.199  29.406  1.00  0.00    -0.000 C 
BRANCH  30  31
ATOM     31  C   UNL     1       7.434 -16.024  28.767  1.00  0.00    -0.003 C 
ATOM     32  C   UNL     1       7.962 -17.343  28.212  1.00  0.00     0.004 C 
ENDBRANCH  30  31
ENDBRANCH  29  30
ENDBRANCH  28  29
ENDBRANCH  27  28
ENDBRANCH  26  27
ENDBRANCH  25  26
ENDBRANCH  24  25
ENDBRANCH  23  24
ENDBRANCH  22  23
ENDBRANCH  21  22
ENDBRANCH  20  21
ENDBRANCH  19  20
ENDBRANCH  18  19
ENDBRANCH   1  18
TORSDOF 28
ENDMDL
MODEL 2
REMARK VINA RESULT:    -3.955      4.098      8.734
REMARK INTER + INTRA:         -15.918
REMARK INTER:                 -10.403
REMARK INTRA:                  -5.516
REMARK UNBOUND:                -5.490
REMARK SMILES CCCCCCCCCCCCCCCCCCCCCCCCCCCCCC(=O)[O-]
REMARK SMILES IDX 16 1 17 2 18 3 19 4 20 5 21 6 22 7 23 8 24 9 25 10 26 11
REMARK SMILES IDX 27 12 28 13 29 14 30 15 31 16 32 17 15 18 14 19 13 20 12 21
REMARK SMILES IDX 11 22 10 23 9 24 8 25 7 26 6 27 5 28 4 29 3 30 2 31 1 32
REMARK H PARENT
REMARK Flexibility Score: inf
ROOT
ATOM      1  C   UNL     1       9.632 -17.994  32.922  1.00  0.00     0.000 C 
ENDROOT
BRANCH   1   2
ATOM      2  C   UNL     1      10.424 -17.302  31.795  1.00  0.00     0.000 C 
BRANCH   2   3
ATOM      3  C   UNL     1      11.124 -18.294  30.854  1.00  0.00     0.000 C 
BRANCH   3   4
ATOM      4  C   UNL     1      10.752 -19.742  31.205  1.00  0.00     0.000 C 
BRANCH   4   5
ATOM      5  C   UNL     1      10.015 -20.460  30.060  1.00  0.00     0.000 C 
BRANCH   5   6
ATOM      6  C   UNL     1       8.483 -20.525  30.218  1.00  0.00     0.000 C 
BRANCH   6   7
ATOM      7  C   UNL     1       7.683 -19.626  29.253  1.00  0.00     0.000 C 
BRANCH   7   8
ATOM      8  C   UNL     1       7.558 -18.154  29.689  1.00  0.00     0.000 C 
BRANCH   8   9
ATOM      9  C   UNL     1       8.065 -17.170  28.621  1.00  0.00     0.000 C 
BRANCH   9  10
ATOM     10  C   UNL     1       8.468 -15.811  29.214  1.00  0.00     0.000 C 
BRANCH  10  11
ATOM     11  C   UNL     1       9.812 -15.303  28.664  1.00  0.00     0.000 C 
BRANCH  11  12
ATOM     12  C   UNL     1      10.540 -16.352  27.810  1.00  0.00     0.000 C 
BRANCH  12  13
ATOM     13  C   UNL     1      10.784 -15.878  26.369  1.00  0.00     0.006 C 
BRANCH  13  14
ATOM     14  C   UNL     1      12.193 -16.257  25.901  1.00  0.00     0.053 C 
BRANCH  14  15
ATOM     15  C   UNL     1      13.110 -15.075  25.971  1.00  0.00     0.041 C 
ATOM     16  O   UNL     1      14.304 -15.219  26.346  1.00  0.00    -0.550 OA
ATOM     17  O   UNL     1      12.642 -13.811  25.636  1.00  0.00    -0.550 OA
ENDBRANCH  14  15
ENDBRANCH  13  14
ENDBRANCH  12  13
ENDBRANCH  11  12
ENDBRANCH  10  11
ENDBRANCH   9  10
ENDBRANCH   8   9
ENDBRANCH   7   8
ENDBRANCH   6   7
ENDBRANCH   5   6
ENDBRANCH   4   5
ENDBRANCH   3   4
ENDBRANCH   2   3
ENDBRANCH   1   2
BRANCH   1  18
ATOM     18  C   UNL     1       8.320 -17.291  33.317  1.00  0.00     0.000 C 
BRANCH  18  19
ATOM     19  C   UNL     1       8.264 -16.921  34.810  1.00  0.00     0.000 C 
BRANCH  19  20
ATOM     20  C   UNL     1       9.659 -16.708  35.418  1.00  0.00     0.000 C 
BRANCH  20  21
ATOM     21  C   UNL     1       9.798 -15.334  36.099  1.00  0.00     0.000 C 
BRANCH  21  22
ATOM     22  C   UNL     1      10.973 -14.513  35.544  1.00  0.00     0.000 C 
BRANCH  22  23
ATOM     23  C   UNL     1      11.088 -14.603  34.015  1.00  0.00     0.000 C 
BRANCH  23  24
ATOM     24  C   UNL     1      10.351 -13.434  33.344  1.00  0.00    -0.000 C 
BRANCH  24  25
ATOM     25  C   UNL     1       9.008 -13.843  32.710  1.00  0.00    -0.000 C 
BRANCH  25  26
ATOM     26  C   UNL     1       7.752 -13.399  33.485  1.00  0.00    -0.000 C 
BRANCH  26  27
ATOM     27  C   UNL     1       8.066 -12.449  34.652  1.00  0.00    -0.000 C 
BRANCH  27  28
ATOM     28  C   UNL     1       7.048 -12.619  35.788  1.00  0.00    -0.000 C 
BRANCH  28  29
ATOM     29  C   UNL     1       6.184 -13.885  35.638  1.00  0.00    -0.000 C 
BRANCH  29  30
ATOM     30  C   UNL     1       6.214 -14.846  36.845  1.00  0.00    -0.000 C 
BRANCH  30  31
ATOM     31  C   UNL     1       6.898 -14.245  38.083  1.00  0.00    -0.003 C 
ATOM     32  C   UNL     1       5.926 -14.141  39.253  1.00  0.00     0.004 C 
ENDBRANCH  30  31
ENDBRANCH  29  30
ENDBRANCH  28  29
ENDBRANCH  27  28
ENDBRANCH  26  27
ENDBRANCH  25  26
ENDBRANCH  24  25
ENDBRANCH  23  24
ENDBRANCH  22  23
ENDBRANCH  21  22
ENDBRANCH  20  21
ENDBRANCH  19  20
ENDBRANCH  18  19
ENDBRANCH   1  18
TORSDOF 28
ENDMDL
MODEL 3
REMARK VINA RESULT:    -3.886      3.731      8.562
REMARK INTER + INTRA:         -15.737
REMARK INTER:                 -10.899
REMARK INTRA:                  -4.837
REMARK UNBOUND:                -5.490
REMARK SMILES CCCCCCCCCCCCCCCCCCCCCCCCCCCCCC(=O)[O-]
REMARK SMILES IDX 16 1 17 2 18 3 19 4 20 5 21 6 22 7 23 8 24 9 25 10 26 11
REMARK SMILES IDX 27 12 28 13 29 14 30 15 31 16 32 17 15 18 14 19 13 20 12 21
REMARK SMILES IDX 11 22 10 23 9 24 8 25 7 26 6 27 5 28 4 29 3 30 2 31 1 32
REMARK H PARENT
REMARK Flexibility Score: inf
ROOT
ATOM      1  C   UNL     1       7.128 -17.735  33.114  1.00  0.00     0.000 C 
ENDROOT
BRANCH   1   2
ATOM      2  C   UNL     1       6.802 -17.151  31.725  1.00  0.00     0.000 C 
BRANCH   2   3
ATOM      3  C   UNL     1       6.312 -18.210  30.727  1.00  0.00     0.000 C 
BRANCH   3   4
ATOM      4  C   UNL     1       6.997 -19.562  30.978  1.00  0.00     0.000 C 
BRANCH   4   5
ATOM      5  C   UNL     1       7.284 -20.332  29.677  1.00  0.00     0.000 C 
BRANCH   5   6
ATOM      6  C   UNL     1       8.537 -21.230  29.720  1.00  0.00     0.000 C 
BRANCH   6   7
ATOM      7  C   UNL     1       9.884 -20.486  29.610  1.00  0.00     0.000 C 
BRANCH   7   8
ATOM      8  C   UNL     1      10.667 -20.361  30.930  1.00  0.00     0.000 C 
BRANCH   8   9
ATOM      9  C   UNL     1      10.345 -19.065  31.695  1.00  0.00     0.000 C 
BRANCH   9  10
ATOM     10  C   UNL     1      11.030 -17.834  31.083  1.00  0.00     0.000 C 
BRANCH  10  11
ATOM     11  C   UNL     1      10.037 -16.898  30.373  1.00  0.00     0.000 C 
BRANCH  11  12
ATOM     12  C   UNL     1      10.269 -16.824  28.856  1.00  0.00     0.000 C 
BRANCH  12  13
ATOM     13  C   UNL     1       8.974 -16.572  28.069  1.00  0.00     0.006 C 
BRANCH  13  14
ATOM     14  C   UNL     1       8.493 -17.856  27.385  1.00  0.00     0.053 C 
BRANCH  14  15
ATOM     15  C   UNL     1       9.451 -18.276  26.313  1.00  0.00     0.041 C 
ATOM     16  O   UNL     1       9.945 -19.435  26.321  1.00  0.00    -0.550 OA
ATOM     17  O   UNL     1       9.811 -17.383  25.312  1.00  0.00    -0.550 OA
ENDBRANCH  14  15
ENDBRANCH  13  14
ENDBRANCH  12  13
ENDBRANCH  11  12
ENDBRANCH  10  11
ENDBRANCH   9  10
ENDBRANCH   8   9
ENDBRANCH   7   8
ENDBRANCH   6   7
ENDBRANCH   5   6
ENDBRANCH   4   5
ENDBRANCH   3   4
ENDBRANCH   2   3
ENDBRANCH   1   2
BRANCH   1  18
ATOM     18  C   UNL     1       6.871 -16.780  34.295  1.00  0.00     0.000 C 
BRANCH  18  19
ATOM     19  C   UNL     1       7.653 -17.169  35.561  1.00  0.00     0.000 C 
BRANCH  19  20
ATOM     20  C   UNL     1       9.146 -17.403  35.284  1.00  0.00     0.000 C 
BRANCH  20  21
ATOM     21  C   UNL     1       9.979 -16.116  35.435  1.00  0.00     0.000 C 
BRANCH  21  22
ATOM     22  C   UNL     1      10.426 -15.537  34.083  1.00  0.00     0.000 C 
BRANCH  22  23
ATOM     23  C   UNL     1      10.825 -14.056  34.177  1.00  0.00     0.000 C 
BRANCH  23  24
ATOM     24  C   UNL     1       9.579 -13.161  34.254  1.00  0.00    -0.000 C 
BRANCH  24  25
ATOM     25  C   UNL     1       9.460 -12.394  35.585  1.00  0.00    -0.000 C 
BRANCH  25  26
ATOM     26  C   UNL     1       8.023 -12.201  36.107  1.00  0.00    -0.000 C 
BRANCH  26  27
ATOM     27  C   UNL     1       7.309 -13.526  36.417  1.00  0.00    -0.000 C 
BRANCH  27  28
ATOM     28  C   UNL     1       7.853 -14.155  37.707  1.00  0.00    -0.000 C 
BRANCH  28  29
ATOM     29  C   UNL     1       7.038 -13.770  38.955  1.00  0.00    -0.000 C 
BRANCH  29  30
ATOM     30  C   UNL     1       5.948 -14.782  39.364  1.00  0.00    -0.000 C 
BRANCH  30  31
ATOM     31  C   UNL     1       4.550 -14.414  38.843  1.00  0.00    -0.003 C 
ATOM     32  C   UNL     1       4.129 -15.330  37.699  1.00  0.00     0.004 C 
ENDBRANCH  30  31
ENDBRANCH  29  30
ENDBRANCH  28  29
ENDBRANCH  27  28
ENDBRANCH  26  27
ENDBRANCH  25  26
ENDBRANCH  24  25
ENDBRANCH  23  24
ENDBRANCH  22  23
ENDBRANCH  21  22
ENDBRANCH  20  21
ENDBRANCH  19  20
ENDBRANCH  18  19
ENDBRANCH   1  18
TORSDOF 28
ENDMDL
MODEL 4
REMARK VINA RESULT:    -3.868      1.386      3.491
REMARK INTER + INTRA:         -15.688
REMARK INTER:                  -9.888
REMARK INTRA:                  -5.799
REMARK UNBOUND:                -5.490
REMARK SMILES CCCCCCCCCCCCCCCCCCCCCCCCCCCCCC(=O)[O-]
REMARK SMILES IDX 16 1 17 2 18 3 19 4 20 5 21 6 22 7 23 8 24 9 25 10 26 11
REMARK SMILES IDX 27 12 28 13 29 14 30 15 31 16 32 17 15 18 14 19 13 20 12 21
REMARK SMILES IDX 11 22 10 23 9 24 8 25 7 26 6 27 5 28 4 29 3 30 2 31 1 32
REMARK H PARENT
REMARK Flexibility Score: inf
ROOT
ATOM      1  C   UNL     1       7.940 -15.126  30.898  1.00  0.00     0.000 C 
ENDROOT
BRANCH   1   2
ATOM      2  C   UNL     1       7.143 -15.538  32.151  1.00  0.00     0.000 C 
BRANCH   2   3
ATOM      3  C   UNL     1       6.585 -16.967  32.067  1.00  0.00     0.000 C 
BRANCH   3   4
ATOM      4  C   UNL     1       7.315 -17.902  33.041  1.00  0.00     0.000 C 
BRANCH   4   5
ATOM      5  C   UNL     1       7.787 -17.179  34.316  1.00  0.00     0.000 C 
BRANCH   5   6
ATOM      6  C   UNL     1       9.304 -17.262  34.581  1.00  0.00     0.000 C 
BRANCH   6   7
ATOM      7  C   UNL     1       9.934 -15.996  35.199  1.00  0.00     0.000 C 
BRANCH   7   8
ATOM      8  C   UNL     1      10.127 -14.822  34.221  1.00  0.00     0.000 C 
BRANCH   8   9
ATOM      9  C   UNL     1       9.347 -13.563  34.640  1.00  0.00     0.000 C 
BRANCH   9  10
ATOM     10  C   UNL     1       9.235 -13.419  36.165  1.00  0.00     0.000 C 
BRANCH  10  11
ATOM     11  C   UNL     1       7.813 -13.048  36.619  1.00  0.00     0.000 C 
BRANCH  11  12
ATOM     12  C   UNL     1       6.753 -14.047  36.130  1.00  0.00     0.000 C 
BRANCH  12  13
ATOM     13  C   UNL     1       6.681 -15.310  37.000  1.00  0.00     0.006 C 
BRANCH  13  14
ATOM     14  C   UNL     1       5.273 -15.494  37.579  1.00  0.00     0.053 C 
BRANCH  14  15
ATOM     15  C   UNL     1       5.085 -14.639  38.794  1.00  0.00     0.041 C 
ATOM     16  O   UNL     1       6.025 -14.493  39.620  1.00  0.00    -0.550 OA
ATOM     17  O   UNL     1       3.866 -14.014  39.023  1.00  0.00    -0.550 OA
ENDBRANCH  14  15
ENDBRANCH  13  14
ENDBRANCH  12  13
ENDBRANCH  11  12
ENDBRANCH  10  11
ENDBRANCH   9  10
ENDBRANCH   8   9
ENDBRANCH   7   8
ENDBRANCH   6   7
ENDBRANCH   5   6
ENDBRANCH   4   5
ENDBRANCH   3   4
ENDBRANCH   2   3
ENDBRANCH   1   2
BRANCH   1  18
ATOM     18  C   UNL     1       8.270 -16.279  29.932  1.00  0.00     0.000 C 
BRANCH  18  19
ATOM     19  C   UNL     1       9.782 -16.497  29.752  1.00  0.00     0.000 C 
BRANCH  19  20
ATOM     20  C   UNL     1      10.511 -16.704  31.089  1.00  0.00     0.000 C 
BRANCH  20  21
ATOM     21  C   UNL     1      11.200 -18.080  31.174  1.00  0.00     0.000 C 
BRANCH  21  22
ATOM     22  C   UNL     1      10.211 -19.223  31.449  1.00  0.00     0.000 C 
BRANCH  22  23
ATOM     23  C   UNL     1      10.448 -20.441  30.542  1.00  0.00     0.000 C 
BRANCH  23  24
ATOM     24  C   UNL     1       9.142 -20.873  29.860  1.00  0.00    -0.000 C 
BRANCH  24  25
ATOM     25  C   UNL     1       7.906 -20.106  30.367  1.00  0.00    -0.000 C 
BRANCH  25  26
ATOM     26  C   UNL     1       6.572 -20.873  30.278  1.00  0.00    -0.000 C 
BRANCH  26  27
ATOM     27  C   UNL     1       5.579 -20.247  29.288  1.00  0.00    -0.000 C 
BRANCH  27  28
ATOM     28  C   UNL     1       5.964 -18.796  28.966  1.00  0.00    -0.000 C 
BRANCH  28  29
ATOM     29  C   UNL     1       6.122 -18.535  27.457  1.00  0.00    -0.000 C 
BRANCH  29  30
ATOM     30  C   UNL     1       7.217 -19.368  26.758  1.00  0.00    -0.000 C 
BRANCH  30  31
ATOM     31  C   UNL     1       8.352 -18.511  26.176  1.00  0.00    -0.003 C 
ATOM     32  C   UNL     1       9.663 -18.757  26.914  1.00  0.00     0.004 C 
ENDBRANCH  30  31
ENDBRANCH  29  30
ENDBRANCH  28  29
ENDBRANCH  27  28
ENDBRANCH  26  27
ENDBRANCH  25  26
ENDBRANCH  24  25
ENDBRANCH  23  24
ENDBRANCH  22  23
ENDBRANCH  21  22
ENDBRANCH  20  21
ENDBRANCH  19  20
ENDBRANCH  18  19
ENDBRANCH   1  18
TORSDOF 28
ENDMDL
MODEL 5
REMARK VINA RESULT:    -3.855      2.111      5.945
REMARK INTER + INTRA:         -15.655
REMARK INTER:                 -10.738
REMARK INTRA:                  -4.916
REMARK UNBOUND:                -5.490
REMARK SMILES CCCCCCCCCCCCCCCCCCCCCCCCCCCCCC(=O)[O-]
REMARK SMILES IDX 16 1 17 2 18 3 19 4 20 5 21 6 22 7 23 8 24 9 25 10 26 11
REMARK SMILES IDX 27 12 28 13 29 14 30 15 31 16 32 17 15 18 14 19 13 20 12 21
REMARK SMILES IDX 11 22 10 23 9 24 8 25 7 26 6 27 5 28 4 29 3 30 2 31 1 32
REMARK H PARENT
REMARK Flexibility Score: inf
ROOT
ATOM      1  C   UNL     1       7.851 -20.063  30.579  1.00  0.00     0.000 C 
ENDROOT
BRANCH   1   2
ATOM      2  C   UNL     1       6.420 -20.486  30.193  1.00  0.00     0.000 C 
BRANCH   2   3
ATOM      3  C   UNL     1       6.335 -21.936  29.696  1.00  0.00     0.000 C 
BRANCH   3   4
ATOM      4  C   UNL     1       4.932 -22.517  29.929  1.00  0.00     0.000 C 
BRANCH   4   5
ATOM      5  C   UNL     1       4.880 -23.480  31.129  1.00  0.00     0.000 C 
BRANCH   5   6
ATOM      6  C   UNL     1       3.979 -23.016  32.291  1.00  0.00     0.000 C 
BRANCH   6   7
ATOM      7  C   UNL     1       3.484 -21.558  32.199  1.00  0.00     0.000 C 
BRANCH   7   8
ATOM      8  C   UNL     1       3.735 -20.705  33.457  1.00  0.00     0.000 C 
BRANCH   8   9
ATOM      9  C   UNL     1       4.398 -19.353  33.138  1.00  0.00     0.000 C 
BRANCH   9  10
ATOM     10  C   UNL     1       4.276 -18.350  34.295  1.00  0.00     0.000 C 
BRANCH  10  11
ATOM     11  C   UNL     1       4.581 -18.987  35.662  1.00  0.00     0.000 C 
BRANCH  11  12
ATOM     12  C   UNL     1       5.299 -18.024  36.620  1.00  0.00     0.000 C 
BRANCH  12  13
ATOM     13  C   UNL     1       4.809 -16.575  36.482  1.00  0.00     0.006 C 
BRANCH  13  14
ATOM     14  C   UNL     1       5.657 -15.629  37.340  1.00  0.00     0.053 C 
BRANCH  14  15
ATOM     15  C   UNL     1       4.811 -14.951  38.375  1.00  0.00     0.041 C 
ATOM     16  O   UNL     1       3.587 -15.229  38.475  1.00  0.00    -0.550 OA
ATOM     17  O   UNL     1       5.372 -14.002  39.219  1.00  0.00    -0.550 OA
ENDBRANCH  14  15
ENDBRANCH  13  14
ENDBRANCH  12  13
ENDBRANCH  11  12
ENDBRANCH  10  11
ENDBRANCH   9  10
ENDBRANCH   8   9
ENDBRANCH   7   8
ENDBRANCH   6   7
ENDBRANCH   5   6
ENDBRANCH   4   5
ENDBRANCH   3   4
ENDBRANCH   2   3
ENDBRANCH   1   2
BRANCH   1  18
ATOM     18  C   UNL     1       8.971 -20.836  29.860  1.00  0.00     0.000 C 
BRANCH  18  19
ATOM     19  C   UNL     1      10.370 -20.531  30.425  1.00  0.00     0.000 C 
BRANCH  19  20
ATOM     20  C   UNL     1      10.351 -19.402  31.467  1.00  0.00     0.000 C 
BRANCH  20  21
ATOM     21  C   UNL     1      10.864 -18.067  30.894  1.00  0.00     0.000 C 
BRANCH  21  22
ATOM     22  C   UNL     1      10.952 -16.960  31.956  1.00  0.00     0.000 C 
BRANCH  22  23
ATOM     23  C   UNL     1      10.497 -15.592  31.424  1.00  0.00     0.000 C 
BRANCH  23  24
ATOM     24  C   UNL     1      10.613 -14.518  32.516  1.00  0.00    -0.000 C 
BRANCH  24  25
ATOM     25  C   UNL     1      11.215 -15.047  33.831  1.00  0.00    -0.000 C 
BRANCH  25  26
ATOM     26  C   UNL     1      10.259 -15.048  35.040  1.00  0.00    -0.000 C 
BRANCH  26  27
ATOM     27  C   UNL     1      10.006 -16.452  35.610  1.00  0.00    -0.000 C 
BRANCH  27  28
ATOM     28  C   UNL     1       8.556 -16.891  35.367  1.00  0.00    -0.000 C 
BRANCH  28  29
ATOM     29  C   UNL     1       8.358 -17.591  34.009  1.00  0.00    -0.000 C 
BRANCH  29  30
ATOM     30  C   UNL     1       7.316 -16.937  33.079  1.00  0.00    -0.000 C 
BRANCH  30  31
ATOM     31  C   UNL     1       6.791 -15.592  33.605  1.00  0.00    -0.003 C 
ATOM     32  C   UNL     1       7.088 -14.463  32.625  1.00  0.00     0.004 C 
ENDBRANCH  30  31
ENDBRANCH  29  30
ENDBRANCH  28  29
ENDBRANCH  27  28
ENDBRANCH  26  27
ENDBRANCH  25  26
ENDBRANCH  24  25
ENDBRANCH  23  24
ENDBRANCH  22  23
ENDBRANCH  21  22
ENDBRANCH  20  21
ENDBRANCH  19  20
ENDBRANCH  18  19
ENDBRANCH   1  18
TORSDOF 28
ENDMDL
MODEL 6
REMARK VINA RESULT:    -3.842      1.440      4.304
REMARK INTER + INTRA:         -15.620
REMARK INTER:                 -10.952
REMARK INTRA:                  -4.668
REMARK UNBOUND:                -5.490
REMARK SMILES CCCCCCCCCCCCCCCCCCCCCCCCCCCCCC(=O)[O-]
REMARK SMILES IDX 16 1 17 2 18 3 19 4 20 5 21 6 22 7 23 8 24 9 25 10 26 11
REMARK SMILES IDX 27 12 28 13 29 14 30 15 31 16 32 17 15 18 14 19 13 20 12 21
REMARK SMILES IDX 11 22 10 23 9 24 8 25 7 26 6 27 5 28 4 29 3 30 2 31 1 32
REMARK H PARENT
REMARK Flexibility Score: inf
ROOT
ATOM      1  C   UNL     1       7.805 -15.866  30.880  1.00  0.00     0.000 C 
ENDROOT
BRANCH   1   2
ATOM      2  C   UNL     1       7.412 -15.378  32.288  1.00  0.00     0.000 C 
BRANCH   2   3
ATOM      3  C   UNL     1       7.017 -16.523  33.233  1.00  0.00     0.000 C 
BRANCH   3   4
ATOM      4  C   UNL     1       7.991 -17.703  33.104  1.00  0.00     0.000 C 
BRANCH   4   5
ATOM      5  C   UNL     1       9.304 -17.476  33.875  1.00  0.00     0.000 C 
BRANCH   5   6
ATOM      6  C   UNL     1       9.125 -17.108  35.362  1.00  0.00     0.000 C 
BRANCH   6   7
ATOM      7  C   UNL     1       9.986 -15.927  35.856  1.00  0.00     0.000 C 
BRANCH   7   8
ATOM      8  C   UNL     1      10.228 -14.818  34.814  1.00  0.00     0.000 C 
BRANCH   8   9
ATOM      9  C   UNL     1       9.890 -13.415  35.348  1.00  0.00     0.000 C 
BRANCH   9  10
ATOM     10  C   UNL     1       8.412 -13.049  35.149  1.00  0.00     0.000 C 
BRANCH  10  11
ATOM     11  C   UNL     1       7.539 -13.446  36.351  1.00  0.00     0.000 C 
BRANCH  11  12
ATOM     12  C   UNL     1       6.451 -14.467  35.986  1.00  0.00     0.000 C 
BRANCH  12  13
ATOM     13  C   UNL     1       6.230 -15.517  37.085  1.00  0.00     0.006 C 
BRANCH  13  14
ATOM     14  C   UNL     1       4.787 -15.472  37.600  1.00  0.00     0.053 C 
BRANCH  14  15
ATOM     15  C   UNL     1       4.675 -14.563  38.784  1.00  0.00     0.041 C 
ATOM     16  O   UNL     1       3.563 -14.061  39.098  1.00  0.00    -0.550 OA
ATOM     17  O   UNL     1       5.803 -14.257  39.536  1.00  0.00    -0.550 OA
ENDBRANCH  14  15
ENDBRANCH  13  14
ENDBRANCH  12  13
ENDBRANCH  11  12
ENDBRANCH  10  11
ENDBRANCH   9  10
ENDBRANCH   8   9
ENDBRANCH   7   8
ENDBRANCH   6   7
ENDBRANCH   5   6
ENDBRANCH   4   5
ENDBRANCH   3   4
ENDBRANCH   2   3
ENDBRANCH   1   2
BRANCH   1  18
ATOM     18  C   UNL     1       9.053 -15.188  30.285  1.00  0.00     0.000 C 
BRANCH  18  19
ATOM     19  C   UNL     1      10.356 -15.941  30.607  1.00  0.00     0.000 C 
BRANCH  19  20
ATOM     20  C   UNL     1      10.321 -17.406  30.145  1.00  0.00     0.000 C 
BRANCH  20  21
ATOM     21  C   UNL     1      11.205 -18.317  31.017  1.00  0.00     0.000 C 
BRANCH  21  22
ATOM     22  C   UNL     1      10.651 -19.746  31.134  1.00  0.00     0.000 C 
BRANCH  22  23
ATOM     23  C   UNL     1       9.213 -19.868  30.607  1.00  0.00     0.000 C 
BRANCH  23  24
ATOM     24  C   UNL     1       9.105 -21.002  29.577  1.00  0.00    -0.000 C 
BRANCH  24  25
ATOM     25  C   UNL     1       9.979 -20.778  28.329  1.00  0.00    -0.000 C 
BRANCH  25  26
ATOM     26  C   UNL     1       9.210 -20.660  26.999  1.00  0.00    -0.000 C 
BRANCH  26  27
ATOM     27  C   UNL     1       7.686 -20.599  27.185  1.00  0.00    -0.000 C 
BRANCH  27  28
ATOM     28  C   UNL     1       6.997 -21.758  26.453  1.00  0.00    -0.000 C 
BRANCH  28  29
ATOM     29  C   UNL     1       5.883 -22.419  27.287  1.00  0.00    -0.000 C 
BRANCH  29  30
ATOM     30  C   UNL     1       6.288 -23.719  28.011  1.00  0.00    -0.000 C 
BRANCH  30  31
ATOM     31  C   UNL     1       6.341 -23.571  29.540  1.00  0.00    -0.003 C 
ATOM     32  C   UNL     1       5.642 -22.295  29.995  1.00  0.00     0.004 C 
ENDBRANCH  30  31
ENDBRANCH  29  30
ENDBRANCH  28  29
ENDBRANCH  27  28
ENDBRANCH  26  27
ENDBRANCH  25  26
ENDBRANCH  24  25
ENDBRANCH  23  24
ENDBRANCH  22  23
ENDBRANCH  21  22
ENDBRANCH  20  21
ENDBRANCH  19  20
ENDBRANCH  18  19
ENDBRANCH   1  18
TORSDOF 28
ENDMDL
MODEL 7
REMARK VINA RESULT:    -3.823      1.507      5.000
REMARK INTER + INTRA:         -15.569
REMARK INTER:                 -10.683
REMARK INTRA:                  -4.887
REMARK UNBOUND:                -5.490
REMARK SMILES CCCCCCCCCCCCCCCCCCCCCCCCCCCCCC(=O)[O-]
REMARK SMILES IDX 16 1 17 2 18 3 19 4 20 5 21 6 22 7 23 8 24 9 25 10 26 11
REMARK SMILES IDX 27 12 28 13 29 14 30 15 31 16 32 17 15 18 14 19 13 20 12 21
REMARK SMILES IDX 11 22 10 23 9 24 8 25 7 26 6 27 5 28 4 29 3 30 2 31 1 32
REMARK H PARENT
REMARK Flexibility Score: inf
ROOT
ATOM      1  C   UNL     1      10.775 -14.919  32.077  1.00  0.00     0.000 C 
ENDROOT
BRANCH   1   2
ATOM      2  C   UNL     1      10.088 -13.589  32.445  1.00  0.00     0.000 C 
BRANCH   2   3
ATOM      3  C   UNL     1      10.958 -12.359  32.145  1.00  0.00     0.000 C 
BRANCH   3   4
ATOM      4  C   UNL     1      12.445 -12.739  32.082  1.00  0.00     0.000 C 
BRANCH   4   5
ATOM      5  C   UNL     1      13.219 -12.319  33.344  1.00  0.00     0.000 C 
BRANCH   5   6
ATOM      6  C   UNL     1      13.249 -13.377  34.465  1.00  0.00     0.000 C 
BRANCH   6   7
ATOM      7  C   UNL     1      12.306 -13.102  35.655  1.00  0.00     0.000 C 
BRANCH   7   8
ATOM      8  C   UNL     1      11.911 -11.625  35.844  1.00  0.00     0.000 C 
BRANCH   8   9
ATOM      9  C   UNL     1      10.407 -11.378  35.632  1.00  0.00     0.000 C 
BRANCH   9  10
ATOM     10  C   UNL     1       9.538 -12.506  36.209  1.00  0.00     0.000 C 
BRANCH  10  11
ATOM     11  C   UNL     1       8.207 -12.669  35.454  1.00  0.00     0.000 C 
BRANCH  11  12
ATOM     12  C   UNL     1       6.996 -12.747  36.395  1.00  0.00     0.000 C 
BRANCH  12  13
ATOM     13  C   UNL     1       6.824 -14.136  37.028  1.00  0.00     0.006 C 
BRANCH  13  14
ATOM     14  C   UNL     1       5.345 -14.534  37.078  1.00  0.00     0.053 C 
BRANCH  14  15
ATOM     15  C   UNL     1       4.882 -14.675  38.495  1.00  0.00     0.041 C 
ATOM     16  O   UNL     1       5.714 -14.651  39.441  1.00  0.00    -0.550 OA
ATOM     17  O   UNL     1       3.531 -14.848  38.772  1.00  0.00    -0.550 OA
ENDBRANCH  14  15
ENDBRANCH  13  14
ENDBRANCH  12  13
ENDBRANCH  11  12
ENDBRANCH  10  11
ENDBRANCH   9  10
ENDBRANCH   8   9
ENDBRANCH   7   8
ENDBRANCH   6   7
ENDBRANCH   5   6
ENDBRANCH   4   5
ENDBRANCH   3   4
ENDBRANCH   2   3
ENDBRANCH   1   2
BRANCH   1  18
ATOM     18  C   UNL     1      10.707 -16.005  33.167  1.00  0.00     0.000 C 
BRANCH  18  19
ATOM     19  C   UNL     1       9.988 -15.532  34.442  1.00  0.00     0.000 C 
BRANCH  19  20
ATOM     20  C   UNL     1       9.684 -16.686  35.411  1.00  0.00     0.000 C 
BRANCH  20  21
ATOM     21  C   UNL     1       8.207 -17.121  35.358  1.00  0.00     0.000 C 
BRANCH  21  22
ATOM     22  C   UNL     1       7.440 -16.475  34.194  1.00  0.00     0.000 C 
BRANCH  22  23
ATOM     23  C   UNL     1       6.650 -17.499  33.365  1.00  0.00     0.000 C 
BRANCH  23  24
ATOM     24  C   UNL     1       7.582 -18.258  32.408  1.00  0.00    -0.000 C 
BRANCH  24  25
ATOM     25  C   UNL     1       6.986 -18.451  31.001  1.00  0.00    -0.000 C 
BRANCH  25  26
ATOM     26  C   UNL     1       6.392 -19.845  30.723  1.00  0.00    -0.000 C 
BRANCH  26  27
ATOM     27  C   UNL     1       7.430 -20.854  30.209  1.00  0.00    -0.000 C 
BRANCH  27  28
ATOM     28  C   UNL     1       8.045 -20.383  28.884  1.00  0.00    -0.000 C 
BRANCH  28  29
ATOM     29  C   UNL     1       9.544 -20.052  28.999  1.00  0.00    -0.000 C 
BRANCH  29  30
ATOM     30  C   UNL     1      10.269 -20.703  30.195  1.00  0.00    -0.000 C 
BRANCH  30  31
ATOM     31  C   UNL     1      10.707 -19.690  31.265  1.00  0.00    -0.003 C 
ATOM     32  C   UNL     1      10.980 -18.322  30.650  1.00  0.00     0.004 C 
ENDBRANCH  30  31
ENDBRANCH  29  30
ENDBRANCH  28  29
ENDBRANCH  27  28
ENDBRANCH  26  27
ENDBRANCH  25  26
ENDBRANCH  24  25
ENDBRANCH  23  24
ENDBRANCH  22  23
ENDBRANCH  21  22
ENDBRANCH  20  21
ENDBRANCH  19  20
ENDBRANCH  18  19
ENDBRANCH   1  18
TORSDOF 28
ENDMDL
MODEL 8
REMARK VINA RESULT:    -3.799      3.592      8.833
REMARK INTER + INTRA:         -15.506
REMARK INTER:                 -10.198
REMARK INTRA:                  -5.308
REMARK UNBOUND:                -5.490
REMARK SMILES CCCCCCCCCCCCCCCCCCCCCCCCCCCCCC(=O)[O-]
REMARK SMILES IDX 16 1 17 2 18 3 19 4 20 5 21 6 22 7 23 8 24 9 25 10 26 11
REMARK SMILES IDX 27 12 28 13 29 14 30 15 31 16 32 17 15 18 14 19 13 20 12 21
REMARK SMILES IDX 11 22 10 23 9 24 8 25 7 26 6 27 5 28 4 29 3 30 2 31 1 32
REMARK H PARENT
REMARK Flexibility Score: inf
ROOT
ATOM      1  C   UNL     1       7.693 -16.121  32.568  1.00  0.00     0.000 C 
ENDROOT
BRANCH   1   2
ATOM      2  C   UNL     1       8.090 -16.161  31.079  1.00  0.00     0.000 C 
BRANCH   2   3
ATOM      3  C   UNL     1       9.601 -16.000  30.855  1.00  0.00     0.000 C 
BRANCH   3   4
ATOM      4  C   UNL     1      10.184 -17.222  30.130  1.00  0.00     0.000 C 
BRANCH   4   5
ATOM      5  C   UNL     1      11.110 -18.060  31.030  1.00  0.00     0.000 C 
BRANCH   5   6
ATOM      6  C   UNL     1      10.605 -19.487  31.326  1.00  0.00     0.000 C 
BRANCH   6   7
ATOM      7  C   UNL     1       9.173 -19.792  30.841  1.00  0.00     0.000 C 
BRANCH   7   8
ATOM      8  C   UNL     1       9.071 -20.886  29.761  1.00  0.00     0.000 C 
BRANCH   8   9
ATOM      9  C   UNL     1       9.966 -20.604  28.541  1.00  0.00     0.000 C 
BRANCH   9  10
ATOM     10  C   UNL     1       9.285 -20.968  27.213  1.00  0.00     0.000 C 
BRANCH  10  11
ATOM     11  C   UNL     1       7.775 -20.676  27.227  1.00  0.00     0.000 C 
BRANCH  11  12
ATOM     12  C   UNL     1       6.955 -21.745  26.489  1.00  0.00     0.000 C 
BRANCH  12  13
ATOM     13  C   UNL     1       5.665 -22.122  27.231  1.00  0.00     0.006 C 
BRANCH  13  14
ATOM     14  C   UNL     1       5.718 -21.654  28.690  1.00  0.00     0.053 C 
BRANCH  14  15
ATOM     15  C   UNL     1       5.834 -22.825  29.617  1.00  0.00     0.041 C 
ATOM     16  O   UNL     1       6.614 -23.776  29.344  1.00  0.00    -0.550 OA
ATOM     17  O   UNL     1       5.071 -22.873  30.776  1.00  0.00    -0.550 OA
ENDBRANCH  14  15
ENDBRANCH  13  14
ENDBRANCH  12  13
ENDBRANCH  11  12
ENDBRANCH  10  11
ENDBRANCH   9  10
ENDBRANCH   8   9
ENDBRANCH   7   8
ENDBRANCH   6   7
ENDBRANCH   5   6
ENDBRANCH   4   5
ENDBRANCH   3   4
ENDBRANCH   2   3
ENDBRANCH   1   2
BRANCH   1  18
ATOM     18  C   UNL     1       7.868 -17.452  33.322  1.00  0.00     0.000 C 
BRANCH  18  19
ATOM     19  C   UNL     1       9.171 -17.512  34.139  1.00  0.00     0.000 C 
BRANCH  19  20
ATOM     20  C   UNL     1       9.051 -16.794  35.493  1.00  0.00     0.000 C 
BRANCH  20  21
ATOM     21  C   UNL     1      10.219 -15.822  35.747  1.00  0.00     0.000 C 
BRANCH  21  22
ATOM     22  C   UNL     1      10.709 -15.136  34.462  1.00  0.00     0.000 C 
BRANCH  22  23
ATOM     23  C   UNL     1      10.307 -13.655  34.392  1.00  0.00     0.000 C 
BRANCH  23  24
ATOM     24  C   UNL     1      10.029 -13.100  35.797  1.00  0.00    -0.000 C 
BRANCH  24  25
ATOM     25  C   UNL     1       8.553 -12.719  36.021  1.00  0.00    -0.000 C 
BRANCH  25  26
ATOM     26  C   UNL     1       7.597 -13.086  34.870  1.00  0.00    -0.000 C 
BRANCH  26  27
ATOM     27  C   UNL     1       6.419 -13.966  35.320  1.00  0.00    -0.000 C 
BRANCH  27  28
ATOM     28  C   UNL     1       6.587 -14.402  36.782  1.00  0.00    -0.000 C 
BRANCH  28  29
ATOM     29  C   UNL     1       5.978 -15.787  37.070  1.00  0.00    -0.000 C 
BRANCH  29  30
ATOM     30  C   UNL     1       5.294 -16.467  35.866  1.00  0.00    -0.000 C 
BRANCH  30  31
ATOM     31  C   UNL     1       5.256 -17.999  35.974  1.00  0.00    -0.003 C 
ATOM     32  C   UNL     1       6.228 -18.501  37.036  1.00  0.00     0.004 C 
ENDBRANCH  30  31
ENDBRANCH  29  30
ENDBRANCH  28  29
ENDBRANCH  27  28
ENDBRANCH  26  27
ENDBRANCH  25  26
ENDBRANCH  24  25
ENDBRANCH  23  24
ENDBRANCH  22  23
ENDBRANCH  21  22
ENDBRANCH  20  21
ENDBRANCH  19  20
ENDBRANCH  18  19
ENDBRANCH   1  18
TORSDOF 28
ENDMDL
MODEL 9
REMARK VINA RESULT:    -3.771      2.675      4.775
REMARK INTER + INTRA:         -15.433
REMARK INTER:                  -9.602
REMARK INTRA:                  -5.832
REMARK UNBOUND:                -5.490
REMARK SMILES CCCCCCCCCCCCCCCCCCCCCCCCCCCCCC(=O)[O-]
REMARK SMILES IDX 16 1 17 2 18 3 19 4 20 5 21 6 22 7 23 8 24 9 25 10 26 11
REMARK SMILES IDX 27 12 28 13 29 14 30 15 31 16 32 17 15 18 14 19 13 20 12 21
REMARK SMILES IDX 11 22 10 23 9 24 8 25 7 26 6 27 5 28 4 29 3 30 2 31 1 32
REMARK H PARENT
REMARK Flexibility Score: inf
ROOT
ATOM      1  C   UNL     1       9.857 -16.442  29.920  1.00  0.00     0.000 C 
ENDROOT
BRANCH   1   2
ATOM      2  C   UNL     1       8.786 -15.368  30.196  1.00  0.00     0.000 C 
BRANCH   2   3
ATOM      3  C   UNL     1       9.211 -14.357  31.272  1.00  0.00     0.000 C 
BRANCH   3   4
ATOM      4  C   UNL     1       8.203 -14.331  32.430  1.00  0.00     0.000 C 
BRANCH   4   5
ATOM      5  C   UNL     1       7.103 -15.397  32.285  1.00  0.00     0.000 C 
BRANCH   5   6
ATOM      6  C   UNL     1       6.916 -16.305  33.517  1.00  0.00     0.000 C 
BRANCH   6   7
ATOM      7  C   UNL     1       7.897 -17.492  33.615  1.00  0.00     0.000 C 
BRANCH   7   8
ATOM      8  C   UNL     1       9.163 -17.222  34.449  1.00  0.00     0.000 C 
BRANCH   8   9
ATOM      9  C   UNL     1       8.921 -16.222  35.594  1.00  0.00     0.000 C 
BRANCH   9  10
ATOM     10  C   UNL     1      10.221 -15.579  36.100  1.00  0.00     0.000 C 
BRANCH  10  11
ATOM     11  C   UNL     1      10.527 -14.241  35.405  1.00  0.00     0.000 C 
BRANCH  11  12
ATOM     12  C   UNL     1      11.457 -14.399  34.193  1.00  0.00     0.000 C 
BRANCH  12  13
ATOM     13  C   UNL     1      12.797 -13.670  34.374  1.00  0.00     0.006 C 
BRANCH  13  14
ATOM     14  C   UNL     1      12.790 -12.826  35.653  1.00  0.00     0.053 C 
BRANCH  14  15
ATOM     15  C   UNL     1      12.889 -11.368  35.327  1.00  0.00     0.041 C 
ATOM     16  O   UNL     1      12.145 -10.863  34.444  1.00  0.00    -0.550 OA
ATOM     17  O   UNL     1      13.812 -10.567  35.987  1.00  0.00    -0.550 OA
ENDBRANCH  14  15
ENDBRANCH  13  14
ENDBRANCH  12  13
ENDBRANCH  11  12
ENDBRANCH  10  11
ENDBRANCH   9  10
ENDBRANCH   8   9
ENDBRANCH   7   8
ENDBRANCH   6   7
ENDBRANCH   5   6
ENDBRANCH   4   5
ENDBRANCH   3   4
ENDBRANCH   2   3
ENDBRANCH   1   2
BRANCH   1  18
ATOM     18  C   UNL     1      10.644 -16.906  31.159  1.00  0.00     0.000 C 
BRANCH  18  19
ATOM     19  C   UNL     1      11.165 -18.348  31.034  1.00  0.00     0.000 C 
BRANCH  19  20
ATOM     20  C   UNL     1      10.067 -19.396  31.277  1.00  0.00     0.000 C 
BRANCH  20  21
ATOM     21  C   UNL     1      10.030 -20.472  30.176  1.00  0.00     0.000 C 
BRANCH  21  22
ATOM     22  C   UNL     1       9.663 -19.898  28.798  1.00  0.00     0.000 C 
BRANCH  22  23
ATOM     23  C   UNL     1      10.007 -20.856  27.647  1.00  0.00     0.000 C 
BRANCH  23  24
ATOM     24  C   UNL     1       8.761 -21.161  26.803  1.00  0.00    -0.000 C 
BRANCH  24  25
ATOM     25  C   UNL     1       7.439 -20.937  27.563  1.00  0.00    -0.000 C 
BRANCH  25  26
ATOM     26  C   UNL     1       6.867 -22.181  28.269  1.00  0.00    -0.000 C 
BRANCH  26  27
ATOM     27  C   UNL     1       6.696 -21.991  29.784  1.00  0.00    -0.000 C 
BRANCH  27  28
ATOM     28  C   UNL     1       5.709 -20.855  30.087  1.00  0.00    -0.000 C 
BRANCH  28  29
ATOM     29  C   UNL     1       6.292 -19.787  31.032  1.00  0.00    -0.000 C 
BRANCH  29  30
ATOM     30  C   UNL     1       6.711 -18.467  30.352  1.00  0.00    -0.000 C 
BRANCH  30  31
ATOM     31  C   UNL     1       5.788 -18.061  29.193  1.00  0.00    -0.003 C 
ATOM     32  C   UNL     1       6.576 -17.408  28.063  1.00  0.00     0.004 C 
ENDBRANCH  30  31
ENDBRANCH  29  30
ENDBRANCH  28  29
ENDBRANCH  27  28
ENDBRANCH  26  27
ENDBRANCH  25  26
ENDBRANCH  24  25
ENDBRANCH  23  24
ENDBRANCH  22  23
ENDBRANCH  21  22
ENDBRANCH  20  21
ENDBRANCH  19  20
ENDBRANCH  18  19
ENDBRANCH   1  18
TORSDOF 28
ENDMDL
