MODEL 1
REMARK VINA RESULT:    -5.826      0.000      0.000
REMARK INTER + INTRA:         -10.124
REMARK INTER:                  -8.891
REMARK INTRA:                  -1.233
REMARK UNBOUND:                -1.233
REMARK SMILES CC(=O)CCC=C(C)CCC=C(C)CCC=C(C)C
REMARK SMILES IDX 10 1 11 2 12 3 13 4 14 5 15 6 16 7 18 8 17 9 19 10 9 11 7 12
REMARK SMILES IDX 6 13 8 14 5 15 4 16 2 17 3 18 1 19
REMARK H PARENT
REMARK Flexibility Score: inf
ROOT
ATOM      1  C   UNL     1      -1.945   1.879  10.020  1.00  0.00     0.032 C 
ENDROOT
BRANCH   1   2
ATOM      2  C   UNL     1      -2.626   0.770   9.252  1.00  0.00    -0.028 C 
ATOM      3  C   UNL     1      -3.579  -0.046   9.755  1.00  0.00    -0.077 C 
ATOM      4  C   UNL     1      -4.030   0.038  11.194  1.00  0.00     0.039 C 
BRANCH   3   5
ATOM      5  C   UNL     1      -4.206  -1.086   8.851  1.00  0.00     0.034 C 
BRANCH   5   6
ATOM      6  C   UNL     1      -3.350  -2.357   8.769  1.00  0.00     0.032 C 
BRANCH   6   7
ATOM      7  C   UNL     1      -4.090  -3.546   9.338  1.00  0.00    -0.028 C 
ATOM      8  C   UNL     1      -2.843  -3.519  11.512  1.00  0.00     0.039 C 
ATOM      9  C   UNL     1      -3.893  -4.061  10.572  1.00  0.00    -0.080 C 
ATOM     10  C   UNL     1      -4.758  -5.213  11.014  1.00  0.00     0.039 C 
ENDBRANCH   6   7
ENDBRANCH   5   6
ENDBRANCH   3   5
ENDBRANCH   1   2
BRANCH   1  11
ATOM     11  C   UNL     1      -1.941   3.186   9.216  1.00  0.00     0.034 C 
BRANCH  11  12
ATOM     12  C   UNL     1      -3.039   4.133   9.666  1.00  0.00    -0.077 C 
ATOM     13  C   UNL     1      -3.421   5.215   8.951  1.00  0.00    -0.028 C 
ATOM     14  C   UNL     1      -3.730   3.869  10.980  1.00  0.00     0.039 C 
BRANCH  13  15
ATOM     15  C   UNL     1      -2.885   5.604   7.592  1.00  0.00     0.035 C 
BRANCH  15  16
ATOM     16  C   UNL     1      -3.857   6.539   6.865  1.00  0.00     0.079 C 
BRANCH  16  17
ATOM     17  C   UNL     1      -3.126   7.609   6.097  1.00  0.00     0.130 C 
ATOM     18  O   UNL     1      -3.553   7.968   5.010  1.00  0.00    -0.300 OA
ATOM     19  C   UNL     1      -1.884   8.249   6.643  1.00  0.00     0.087 C 
ENDBRANCH  16  17
ENDBRANCH  15  16
ENDBRANCH  13  15
ENDBRANCH  11  12
ENDBRANCH   1  11
TORSDOF 9
ENDMDL
MODEL 2
REMARK VINA RESULT:    -5.804      5.475      7.881
REMARK INTER + INTRA:         -10.090
REMARK INTER:                  -7.961
REMARK INTRA:                  -2.129
REMARK UNBOUND:                -1.233
REMARK SMILES CC(=O)CCC=C(C)CCC=C(C)CCC=C(C)C
REMARK SMILES IDX 10 1 11 2 12 3 13 4 14 5 15 6 16 7 18 8 17 9 19 10 9 11 7 12
REMARK SMILES IDX 6 13 8 14 5 15 4 16 2 17 3 18 1 19
REMARK H PARENT
REMARK Flexibility Score: inf
ROOT
ATOM      1  C   UNL     1      -4.736   5.599  13.635  1.00  0.00     0.032 C 
ENDROOT
BRANCH   1   2
ATOM      2  C   UNL     1      -4.940   4.103  13.702  1.00  0.00    -0.028 C 
ATOM      3  C   UNL     1      -4.323   3.279  14.578  1.00  0.00    -0.077 C 
ATOM      4  C   UNL     1      -3.297   3.780  15.566  1.00  0.00     0.039 C 
BRANCH   3   5
ATOM      5  C   UNL     1      -4.661   1.803  14.558  1.00  0.00     0.034 C 
BRANCH   5   6
ATOM      6  C   UNL     1      -5.418   1.410  13.283  1.00  0.00     0.032 C 
BRANCH   6   7
ATOM      7  C   UNL     1      -4.592   0.476  12.428  1.00  0.00    -0.028 C 
ATOM      8  C   UNL     1      -4.279   2.140  10.580  1.00  0.00     0.039 C 
ATOM      9  C   UNL     1      -4.054   0.796  11.230  1.00  0.00    -0.080 C 
ATOM     10  C   UNL     1      -3.202  -0.232  10.531  1.00  0.00     0.039 C 
ENDBRANCH   6   7
ENDBRANCH   5   6
ENDBRANCH   3   5
ENDBRANCH   1   2
BRANCH   1  11
ATOM     11  C   UNL     1      -6.041   6.349  13.934  1.00  0.00     0.034 C 
BRANCH  11  12
ATOM     12  C   UNL     1      -5.895   7.295  15.112  1.00  0.00    -0.077 C 
ATOM     13  C   UNL     1      -6.053   6.905  16.398  1.00  0.00    -0.028 C 
ATOM     14  C   UNL     1      -5.574   8.743  14.842  1.00  0.00     0.039 C 
BRANCH  13  15
ATOM     15  C   UNL     1      -6.319   5.492  16.860  1.00  0.00     0.035 C 
BRANCH  15  16
ATOM     16  C   UNL     1      -7.805   5.140  16.726  1.00  0.00     0.079 C 
BRANCH  16  17
ATOM     17  C   UNL     1      -8.007   3.904  15.889  1.00  0.00     0.130 C 
ATOM     18  O   UNL     1      -7.546   2.838  16.269  1.00  0.00    -0.300 OA
ATOM     19  C   UNL     1      -8.769   3.954  14.598  1.00  0.00     0.087 C 
ENDBRANCH  16  17
ENDBRANCH  15  16
ENDBRANCH  13  15
ENDBRANCH  11  12
ENDBRANCH   1  11
TORSDOF 9
ENDMDL
MODEL 3
REMARK VINA RESULT:    -5.767      4.513      8.475
REMARK INTER + INTRA:         -10.034
REMARK INTER:                  -8.573
REMARK INTRA:                  -1.461
REMARK UNBOUND:                -1.233
REMARK SMILES CC(=O)CCC=C(C)CCC=C(C)CCC=C(C)C
REMARK SMILES IDX 10 1 11 2 12 3 13 4 14 5 15 6 16 7 18 8 17 9 19 10 9 11 7 12
REMARK SMILES IDX 6 13 8 14 5 15 4 16 2 17 3 18 1 19
REMARK H PARENT
REMARK Flexibility Score: inf
ROOT
ATOM      1  C   UNL     1      -5.098   1.256  11.925  1.00  0.00     0.032 C 
ENDROOT
BRANCH   1   2
ATOM      2  C   UNL     1      -5.088   1.387  13.431  1.00  0.00    -0.028 C 
ATOM      3  C   UNL     1      -4.515   2.403  14.114  1.00  0.00    -0.077 C 
ATOM      4  C   UNL     1      -3.757   3.511  13.420  1.00  0.00     0.039 C 
BRANCH   3   5
ATOM      5  C   UNL     1      -4.623   2.425  15.624  1.00  0.00     0.034 C 
BRANCH   5   6
ATOM      6  C   UNL     1      -5.424   3.636  16.118  1.00  0.00     0.032 C 
BRANCH   6   7
ATOM      7  C   UNL     1      -6.879   3.522  15.724  1.00  0.00    -0.028 C 
ATOM      8  C   UNL     1      -6.814   5.502  14.190  1.00  0.00     0.039 C 
ATOM      9  C   UNL     1      -7.507   4.331  14.844  1.00  0.00    -0.080 C 
ATOM     10  C   UNL     1      -8.949   4.045  14.511  1.00  0.00     0.039 C 
ENDBRANCH   6   7
ENDBRANCH   5   6
ENDBRANCH   3   5
ENDBRANCH   1   2
BRANCH   1  11
ATOM     11  C   UNL     1      -4.064   0.225  11.454  1.00  0.00     0.034 C 
BRANCH  11  12
ATOM     12  C   UNL     1      -3.462   0.597  10.112  1.00  0.00    -0.077 C 
ATOM     13  C   UNL     1      -3.536  -0.200   9.021  1.00  0.00    -0.028 C 
ATOM     14  C   UNL     1      -2.731   1.910   9.984  1.00  0.00     0.039 C 
BRANCH  13  15
ATOM     15  C   UNL     1      -4.272  -1.517   8.945  1.00  0.00     0.035 C 
BRANCH  15  16
ATOM     16  C   UNL     1      -3.345  -2.686   9.298  1.00  0.00     0.079 C 
BRANCH  16  17
ATOM     17  C   UNL     1      -4.068  -3.748  10.085  1.00  0.00     0.130 C 
ATOM     18  O   UNL     1      -4.947  -4.403   9.544  1.00  0.00    -0.300 OA
ATOM     19  C   UNL     1      -3.728  -4.022  11.519  1.00  0.00     0.087 C 
ENDBRANCH  16  17
ENDBRANCH  15  16
ENDBRANCH  13  15
ENDBRANCH  11  12
ENDBRANCH   1  11
TORSDOF 9
ENDMDL
MODEL 4
REMARK VINA RESULT:    -5.748      4.499      6.427
REMARK INTER + INTRA:         -10.004
REMARK INTER:                  -8.755
REMARK INTRA:                  -1.249
REMARK UNBOUND:                -1.233
REMARK SMILES CC(=O)CCC=C(C)CCC=C(C)CCC=C(C)C
REMARK SMILES IDX 10 1 11 2 12 3 13 4 14 5 15 6 16 7 18 8 17 9 19 10 9 11 7 12
REMARK SMILES IDX 6 13 8 14 5 15 4 16 2 17 3 18 1 19
REMARK H PARENT
REMARK Flexibility Score: inf
ROOT
ATOM      1  C   UNL     1      -5.203   1.267  12.779  1.00  0.00     0.032 C 
ENDROOT
BRANCH   1   2
ATOM      2  C   UNL     1      -4.315   0.343  11.978  1.00  0.00    -0.028 C 
ATOM      3  C   UNL     1      -3.784   0.637  10.770  1.00  0.00    -0.077 C 
ATOM      4  C   UNL     1      -4.081   1.935  10.057  1.00  0.00     0.039 C 
BRANCH   3   5
ATOM      5  C   UNL     1      -2.873  -0.373  10.104  1.00  0.00     0.034 C 
BRANCH   5   6
ATOM      6  C   UNL     1      -3.541  -1.022   8.886  1.00  0.00     0.032 C 
BRANCH   6   7
ATOM      7  C   UNL     1      -4.360  -2.227   9.294  1.00  0.00    -0.028 C 
ATOM      8  C   UNL     1      -2.513  -3.865   8.858  1.00  0.00     0.039 C 
ATOM      9  C   UNL     1      -3.906  -3.500   9.312  1.00  0.00    -0.080 C 
ATOM     10  C   UNL     1      -4.832  -4.582   9.805  1.00  0.00     0.039 C 
ENDBRANCH   6   7
ENDBRANCH   5   6
ENDBRANCH   3   5
ENDBRANCH   1   2
BRANCH   1  11
ATOM     11  C   UNL     1      -4.448   1.855  13.979  1.00  0.00     0.034 C 
BRANCH  11  12
ATOM     12  C   UNL     1      -4.583   3.365  14.051  1.00  0.00    -0.077 C 
ATOM     13  C   UNL     1      -5.107   4.011  15.118  1.00  0.00    -0.028 C 
ATOM     14  C   UNL     1      -4.127   4.190  12.874  1.00  0.00     0.039 C 
BRANCH  13  15
ATOM     15  C   UNL     1      -5.561   3.358  16.403  1.00  0.00     0.035 C 
BRANCH  15  16
ATOM     16  C   UNL     1      -7.030   2.931  16.313  1.00  0.00     0.079 C 
BRANCH  16  17
ATOM     17  C   UNL     1      -7.928   4.098  15.995  1.00  0.00     0.130 C 
ATOM     18  O   UNL     1      -7.990   5.038  16.773  1.00  0.00    -0.300 OA
ATOM     19  C   UNL     1      -8.744   4.133  14.738  1.00  0.00     0.087 C 
ENDBRANCH  16  17
ENDBRANCH  15  16
ENDBRANCH  13  15
ENDBRANCH  11  12
ENDBRANCH   1  11
TORSDOF 9
ENDMDL
MODEL 5
REMARK VINA RESULT:    -5.670      4.603      6.191
REMARK INTER + INTRA:          -9.886
REMARK INTER:                  -8.820
REMARK INTRA:                  -1.065
REMARK UNBOUND:                -1.233
REMARK SMILES CC(=O)CCC=C(C)CCC=C(C)CCC=C(C)C
REMARK SMILES IDX 10 1 11 2 12 3 13 4 14 5 15 6 16 7 18 8 17 9 19 10 9 11 7 12
REMARK SMILES IDX 6 13 8 14 5 15 4 16 2 17 3 18 1 19
REMARK H PARENT
REMARK Flexibility Score: inf
ROOT
ATOM      1  C   UNL     1      -3.358   1.137  12.051  1.00  0.00     0.032 C 
ENDROOT
BRANCH   1   2
ATOM      2  C   UNL     1      -3.984   0.218  11.028  1.00  0.00    -0.028 C 
ATOM      3  C   UNL     1      -3.526   0.038   9.768  1.00  0.00    -0.077 C 
ATOM      4  C   UNL     1      -2.342   0.805   9.228  1.00  0.00     0.039 C 
BRANCH   3   5
ATOM      5  C   UNL     1      -4.231  -0.952   8.866  1.00  0.00     0.034 C 
BRANCH   5   6
ATOM      6  C   UNL     1      -3.400  -2.225   8.662  1.00  0.00     0.032 C 
BRANCH   6   7
ATOM      7  C   UNL     1      -4.074  -3.421   9.297  1.00  0.00    -0.028 C 
ATOM      8  C   UNL     1      -2.715  -3.308  11.400  1.00  0.00     0.039 C 
ATOM      9  C   UNL     1      -3.797  -3.900  10.530  1.00  0.00    -0.080 C 
ATOM     10  C   UNL     1      -4.605  -5.065  11.042  1.00  0.00     0.039 C 
ENDBRANCH   6   7
ENDBRANCH   5   6
ENDBRANCH   3   5
ENDBRANCH   1   2
BRANCH   1  11
ATOM     11  C   UNL     1      -4.289   1.339  13.254  1.00  0.00     0.034 C 
BRANCH  11  12
ATOM     12  C   UNL     1      -3.529   1.774  14.493  1.00  0.00    -0.077 C 
ATOM     13  C   UNL     1      -3.910   2.817  15.266  1.00  0.00    -0.028 C 
ATOM     14  C   UNL     1      -2.280   1.023  14.879  1.00  0.00     0.039 C 
BRANCH  13  15
ATOM     15  C   UNL     1      -5.158   3.646  15.069  1.00  0.00     0.035 C 
BRANCH  15  16
ATOM     16  C   UNL     1      -6.340   3.052  15.842  1.00  0.00     0.079 C 
BRANCH  16  17
ATOM     17  C   UNL     1      -7.532   3.973  15.824  1.00  0.00     0.130 C 
ATOM     18  O   UNL     1      -7.759   4.681  16.795  1.00  0.00    -0.300 OA
ATOM     19  C   UNL     1      -8.444   4.045  14.637  1.00  0.00     0.087 C 
ENDBRANCH  16  17
ENDBRANCH  15  16
ENDBRANCH  13  15
ENDBRANCH  11  12
ENDBRANCH   1  11
TORSDOF 9
ENDMDL
MODEL 6
REMARK VINA RESULT:    -5.665      4.474      7.252
REMARK INTER + INTRA:          -9.878
REMARK INTER:                  -7.650
REMARK INTRA:                  -2.228
REMARK UNBOUND:                -1.233
REMARK SMILES CC(=O)CCC=C(C)CCC=C(C)CCC=C(C)C
REMARK SMILES IDX 10 1 11 2 12 3 13 4 14 5 15 6 16 7 18 8 17 9 19 10 9 11 7 12
REMARK SMILES IDX 6 13 8 14 5 15 4 16 2 17 3 18 1 19
REMARK H PARENT
REMARK Flexibility Score: inf
ROOT
ATOM      1  C   UNL     1      -3.612  -2.225   8.601  1.00  0.00     0.032 C 
ENDROOT
BRANCH   1   2
ATOM      2  C   UNL     1      -4.009  -1.180   9.619  1.00  0.00    -0.028 C 
ATOM      3  C   UNL     1      -3.446   0.044   9.729  1.00  0.00    -0.077 C 
ATOM      4  C   UNL     1      -2.293   0.478   8.855  1.00  0.00     0.039 C 
BRANCH   3   5
ATOM      5  C   UNL     1      -3.979   1.005  10.770  1.00  0.00     0.034 C 
BRANCH   5   6
ATOM      6  C   UNL     1      -4.367   0.282  12.065  1.00  0.00     0.032 C 
BRANCH   6   7
ATOM      7  C   UNL     1      -5.210   1.171  12.952  1.00  0.00    -0.028 C 
ATOM      8  C   UNL     1      -3.387   1.544  14.630  1.00  0.00     0.039 C 
ATOM      9  C   UNL     1      -4.778   1.763  14.087  1.00  0.00    -0.080 C 
ATOM     10  C   UNL     1      -5.726   2.673  14.825  1.00  0.00     0.039 C 
ENDBRANCH   6   7
ENDBRANCH   5   6
ENDBRANCH   3   5
ENDBRANCH   1   2
BRANCH   1  11
ATOM     11  C   UNL     1      -2.584  -3.203   9.187  1.00  0.00     0.034 C 
BRANCH  11  12
ATOM     12  C   UNL     1      -2.934  -3.612  10.605  1.00  0.00    -0.077 C 
ATOM     13  C   UNL     1      -2.169  -3.296  11.676  1.00  0.00    -0.028 C 
ATOM     14  C   UNL     1      -4.183  -4.424  10.839  1.00  0.00     0.039 C 
BRANCH  13  15
ATOM     15  C   UNL     1      -0.921  -2.445  11.642  1.00  0.00     0.035 C 
BRANCH  15  16
ATOM     16  C   UNL     1      -1.128  -1.134  12.409  1.00  0.00     0.079 C 
BRANCH  16  17
ATOM     17  C   UNL     1      -0.244  -0.036  11.876  1.00  0.00     0.130 C 
ATOM     18  O   UNL     1       0.736  -0.326  11.205  1.00  0.00    -0.300 OA
ATOM     19  C   UNL     1      -0.546   1.407  12.147  1.00  0.00     0.087 C 
ENDBRANCH  16  17
ENDBRANCH  15  16
ENDBRANCH  13  15
ENDBRANCH  11  12
ENDBRANCH   1  11
TORSDOF 9
ENDMDL
MODEL 7
REMARK VINA RESULT:    -5.639      5.127      9.206
REMARK INTER + INTRA:          -9.839
REMARK INTER:                  -8.751
REMARK INTRA:                  -1.088
REMARK UNBOUND:                -1.233
REMARK SMILES CC(=O)CCC=C(C)CCC=C(C)CCC=C(C)C
REMARK SMILES IDX 10 1 11 2 12 3 13 4 14 5 15 6 16 7 18 8 17 9 19 10 9 11 7 12
REMARK SMILES IDX 6 13 8 14 5 15 4 16 2 17 3 18 1 19
REMARK H PARENT
REMARK Flexibility Score: inf
ROOT
ATOM      1  C   UNL     1      -4.496   2.166  13.024  1.00  0.00     0.032 C 
ENDROOT
BRANCH   1   2
ATOM      2  C   UNL     1      -5.508   2.212  14.144  1.00  0.00    -0.028 C 
ATOM      3  C   UNL     1      -5.293   2.767  15.358  1.00  0.00    -0.077 C 
ATOM      4  C   UNL     1      -3.960   3.365  15.742  1.00  0.00     0.039 C 
BRANCH   3   5
ATOM      5  C   UNL     1      -6.419   2.779  16.370  1.00  0.00     0.034 C 
BRANCH   5   6
ATOM      6  C   UNL     1      -7.469   3.847  16.039  1.00  0.00     0.032 C 
BRANCH   6   7
ATOM      7  C   UNL     1      -7.169   5.144  16.756  1.00  0.00    -0.028 C 
ATOM      8  C   UNL     1      -6.223   6.268  14.726  1.00  0.00     0.039 C 
ATOM      9  C   UNL     1      -6.637   6.243  16.178  1.00  0.00    -0.080 C 
ATOM     10  C   UNL     1      -6.458   7.480  17.020  1.00  0.00     0.039 C 
ENDBRANCH   6   7
ENDBRANCH   5   6
ENDBRANCH   3   5
ENDBRANCH   1   2
BRANCH   1  11
ATOM     11  C   UNL     1      -4.734   0.953  12.114  1.00  0.00     0.034 C 
BRANCH  11  12
ATOM     12  C   UNL     1      -4.087   1.129  10.753  1.00  0.00    -0.077 C 
ATOM     13  C   UNL     1      -3.561   0.103  10.045  1.00  0.00    -0.028 C 
ATOM     14  C   UNL     1      -4.009   2.513  10.160  1.00  0.00     0.039 C 
BRANCH  13  15
ATOM     15  C   UNL     1      -3.598  -1.353  10.450  1.00  0.00     0.035 C 
BRANCH  15  16
ATOM     16  C   UNL     1      -4.082  -2.233   9.293  1.00  0.00     0.079 C 
BRANCH  16  17
ATOM     17  C   UNL     1      -3.927  -3.698   9.610  1.00  0.00     0.130 C 
ATOM     18  O   UNL     1      -2.817  -4.143   9.866  1.00  0.00    -0.300 OA
ATOM     19  C   UNL     1      -5.107  -4.622   9.623  1.00  0.00     0.087 C 
ENDBRANCH  16  17
ENDBRANCH  15  16
ENDBRANCH  13  15
ENDBRANCH  11  12
ENDBRANCH   1  11
TORSDOF 9
ENDMDL
MODEL 8
REMARK VINA RESULT:    -5.551      6.862      8.321
REMARK INTER + INTRA:          -9.705
REMARK INTER:                  -7.926
REMARK INTRA:                  -1.778
REMARK UNBOUND:                -1.233
REMARK SMILES CC(=O)CCC=C(C)CCC=C(C)CCC=C(C)C
REMARK SMILES IDX 10 1 11 2 12 3 13 4 14 5 15 6 16 7 18 8 17 9 19 10 9 11 7 12
REMARK SMILES IDX 6 13 8 14 5 15 4 16 2 17 3 18 1 19
REMARK H PARENT
REMARK Flexibility Score: inf
ROOT
ATOM      1  C   UNL     1      -6.560   2.829  16.366  1.00  0.00     0.032 C 
ENDROOT
BRANCH   1   2
ATOM      2  C   UNL     1      -5.096   2.932  16.004  1.00  0.00    -0.028 C 
ATOM      3  C   UNL     1      -4.566   2.558  14.819  1.00  0.00    -0.077 C 
ATOM      4  C   UNL     1      -5.401   1.931  13.728  1.00  0.00     0.039 C 
BRANCH   3   5
ATOM      5  C   UNL     1      -3.084   2.763  14.581  1.00  0.00     0.034 C 
BRANCH   5   6
ATOM      6  C   UNL     1      -2.322   1.432  14.568  1.00  0.00     0.032 C 
BRANCH   6   7
ATOM      7  C   UNL     1      -1.845   1.066  15.956  1.00  0.00    -0.028 C 
ATOM      8  C   UNL     1       0.553   1.615  15.480  1.00  0.00     0.039 C 
ATOM      9  C   UNL     1      -0.568   1.168  16.386  1.00  0.00    -0.080 C 
ATOM     10  C   UNL     1      -0.268   0.822  17.822  1.00  0.00     0.039 C 
ENDBRANCH   6   7
ENDBRANCH   5   6
ENDBRANCH   3   5
ENDBRANCH   1   2
BRANCH   1  11
ATOM     11  C   UNL     1      -7.231   4.209  16.351  1.00  0.00     0.034 C 
BRANCH  11  12
ATOM     12  C   UNL     1      -7.682   4.605  14.957  1.00  0.00    -0.077 C 
ATOM     13  C   UNL     1      -7.024   5.511  14.196  1.00  0.00    -0.028 C 
ATOM     14  C   UNL     1      -8.930   3.977  14.393  1.00  0.00     0.039 C 
BRANCH  13  15
ATOM     15  C   UNL     1      -5.731   6.197  14.570  1.00  0.00     0.035 C 
BRANCH  15  16
ATOM     16  C   UNL     1      -6.001   7.547  15.245  1.00  0.00     0.079 C 
BRANCH  16  17
ATOM     17  C   UNL     1      -5.651   7.512  16.710  1.00  0.00     0.130 C 
ATOM     18  O   UNL     1      -4.481   7.403  17.046  1.00  0.00    -0.300 OA
ATOM     19  C   UNL     1      -6.710   7.614  17.767  1.00  0.00     0.087 C 
ENDBRANCH  16  17
ENDBRANCH  15  16
ENDBRANCH  13  15
ENDBRANCH  11  12
ENDBRANCH   1  11
TORSDOF 9
ENDMDL
MODEL 9
REMARK VINA RESULT:    -5.544      4.584      8.285
REMARK INTER + INTRA:          -9.693
REMARK INTER:                  -8.145
REMARK INTRA:                  -1.548
REMARK UNBOUND:                -1.233
REMARK SMILES CC(=O)CCC=C(C)CCC=C(C)CCC=C(C)C
REMARK SMILES IDX 10 1 11 2 12 3 13 4 14 5 15 6 16 7 18 8 17 9 19 10 9 11 7 12
REMARK SMILES IDX 6 13 8 14 5 15 4 16 2 17 3 18 1 19
REMARK H PARENT
REMARK Flexibility Score: inf
ROOT
ATOM      1  C   UNL     1      -4.303   1.527  10.383  1.00  0.00     0.032 C 
ENDROOT
BRANCH   1   2
ATOM      2  C   UNL     1      -4.614   1.263  11.838  1.00  0.00    -0.028 C 
ATOM      3  C   UNL     1      -3.799   1.575  12.871  1.00  0.00    -0.077 C 
ATOM      4  C   UNL     1      -2.433   2.185  12.659  1.00  0.00     0.039 C 
BRANCH   3   5
ATOM      5  C   UNL     1      -4.264   1.292  14.283  1.00  0.00     0.034 C 
BRANCH   5   6
ATOM      6  C   UNL     1      -4.476   2.585  15.081  1.00  0.00     0.032 C 
BRANCH   6   7
ATOM      7  C   UNL     1      -5.706   3.322  14.603  1.00  0.00    -0.028 C 
ATOM      8  C   UNL     1      -7.066   2.753  16.629  1.00  0.00     0.039 C 
ATOM      9  C   UNL     1      -6.862   3.429  15.295  1.00  0.00    -0.080 C 
ATOM     10  C   UNL     1      -7.976   4.254  14.704  1.00  0.00     0.039 C 
ENDBRANCH   6   7
ENDBRANCH   5   6
ENDBRANCH   3   5
ENDBRANCH   1   2
BRANCH   1  11
ATOM     11  C   UNL     1      -3.970   0.223   9.645  1.00  0.00     0.034 C 
BRANCH  11  12
ATOM     12  C   UNL     1      -2.489  -0.098   9.700  1.00  0.00    -0.077 C 
ATOM     13  C   UNL     1      -1.974  -1.087  10.467  1.00  0.00    -0.028 C 
ATOM     14  C   UNL     1      -1.536   0.730   8.877  1.00  0.00     0.039 C 
BRANCH  13  15
ATOM     15  C   UNL     1      -2.776  -2.052  11.309  1.00  0.00     0.035 C 
BRANCH  15  16
ATOM     16  C   UNL     1      -2.422  -3.504  10.968  1.00  0.00     0.079 C 
BRANCH  16  17
ATOM     17  C   UNL     1      -3.529  -4.177  10.199  1.00  0.00     0.130 C 
ATOM     18  O   UNL     1      -3.516  -4.147   8.977  1.00  0.00    -0.300 OA
ATOM     19  C   UNL     1      -4.645  -4.889  10.901  1.00  0.00     0.087 C 
ENDBRANCH  16  17
ENDBRANCH  15  16
ENDBRANCH  13  15
ENDBRANCH  11  12
ENDBRANCH   1  11
TORSDOF 9
ENDMDL
