MODEL 1
REMARK VINA RESULT:    -2.700      0.000      0.000
REMARK INTER + INTRA:          -6.439
REMARK INTER:                  -4.595
REMARK INTRA:                  -1.844
REMARK UNBOUND:                -1.844
REMARK SMILES CCCCCCCCCCCCCC(=O)[O-]
REMARK SMILES IDX 8 1 9 2 10 3 11 4 12 5 13 6 14 7 15 8 16 9 7 10 6 11 5 12
REMARK SMILES IDX 4 13 3 14 2 15 1 16
REMARK H PARENT
REMARK Flexibility Score: inf
ROOT
ATOM      1  C   UNL     1       9.073 -16.575  20.354  1.00  0.00     0.000 C 
ENDROOT
BRANCH   1   2
ATOM      2  C   UNL     1      10.214 -15.704  20.910  1.00  0.00     0.000 C 
BRANCH   2   3
ATOM      3  C   UNL     1      11.461 -16.528  21.271  1.00  0.00     0.000 C 
BRANCH   3   4
ATOM      4  C   UNL     1      12.055 -17.258  20.054  1.00  0.00     0.000 C 
BRANCH   4   5
ATOM      5  C   UNL     1      12.075 -18.788  20.229  1.00  0.00     0.006 C 
BRANCH   5   6
ATOM      6  C   UNL     1      11.532 -19.279  21.581  1.00  0.00     0.053 C 
BRANCH   6   7
ATOM      7  C   UNL     1      12.583 -19.976  22.389  1.00  0.00     0.041 C 
ATOM      8  O   UNL     1      13.776 -19.575  22.357  1.00  0.00    -0.550 OA
ATOM      9  O   UNL     1      12.251 -21.091  23.150  1.00  0.00    -0.550 OA
ENDBRANCH   6   7
ENDBRANCH   5   6
ENDBRANCH   4   5
ENDBRANCH   3   4
ENDBRANCH   2   3
ENDBRANCH   1   2
BRANCH   1  10
ATOM     10  C   UNL     1       8.441 -15.991  19.078  1.00  0.00     0.000 C 
BRANCH  10  11
ATOM     11  C   UNL     1       8.371 -16.960  17.882  1.00  0.00    -0.000 C 
BRANCH  11  12
ATOM     12  C   UNL     1       9.057 -18.305  18.158  1.00  0.00    -0.000 C 
BRANCH  12  13
ATOM     13  C   UNL     1       8.019 -19.425  18.337  1.00  0.00    -0.000 C 
BRANCH  13  14
ATOM     14  C   UNL     1       8.203 -20.198  19.652  1.00  0.00    -0.000 C 
BRANCH  14  15
ATOM     15  C   UNL     1       7.226 -19.745  20.747  1.00  0.00    -0.003 C 
ATOM     16  C   UNL     1       6.046 -18.983  20.150  1.00  0.00     0.004 C 
ENDBRANCH  14  15
ENDBRANCH  13  14
ENDBRANCH  12  13
ENDBRANCH  11  12
ENDBRANCH  10  11
ENDBRANCH   1  10
TORSDOF 12
ENDMDL
MODEL 2
REMARK VINA RESULT:    -2.692      1.837      3.910
REMARK INTER + INTRA:          -6.424
REMARK INTER:                  -4.718
REMARK INTRA:                  -1.706
REMARK UNBOUND:                -1.844
REMARK SMILES CCCCCCCCCCCCCC(=O)[O-]
REMARK SMILES IDX 8 1 9 2 10 3 11 4 12 5 13 6 14 7 15 8 16 9 7 10 6 11 5 12
REMARK SMILES IDX 4 13 3 14 2 15 1 16
REMARK H PARENT
REMARK Flexibility Score: inf
ROOT
ATOM      1  C   UNL     1       7.763 -18.731  19.286  1.00  0.00     0.000 C 
ENDROOT
BRANCH   1   2
ATOM      2  C   UNL     1       9.088 -19.427  19.643  1.00  0.00     0.000 C 
BRANCH   2   3
ATOM      3  C   UNL     1      10.150 -19.268  18.543  1.00  0.00     0.000 C 
BRANCH   3   4
ATOM      4  C   UNL     1      11.534 -18.906  19.109  1.00  0.00     0.000 C 
BRANCH   4   5
ATOM      5  C   UNL     1      11.521 -18.716  20.638  1.00  0.00     0.006 C 
BRANCH   5   6
ATOM      6  C   UNL     1      12.885 -18.926  21.315  1.00  0.00     0.053 C 
BRANCH   6   7
ATOM      7  C   UNL     1      13.503 -17.633  21.748  1.00  0.00     0.041 C 
ATOM      8  O   UNL     1      12.889 -16.872  22.541  1.00  0.00    -0.550 OA
ATOM      9  O   UNL     1      14.743 -17.252  21.248  1.00  0.00    -0.550 OA
ENDBRANCH   6   7
ENDBRANCH   5   6
ENDBRANCH   4   5
ENDBRANCH   3   4
ENDBRANCH   2   3
ENDBRANCH   1   2
BRANCH   1  10
ATOM     10  C   UNL     1       7.780 -18.089  17.887  1.00  0.00     0.000 C 
BRANCH  10  11
ATOM     11  C   UNL     1       7.843 -16.550  17.875  1.00  0.00    -0.000 C 
BRANCH  11  12
ATOM     12  C   UNL     1       7.442 -15.922  19.218  1.00  0.00    -0.000 C 
BRANCH  12  13
ATOM     13  C   UNL     1       8.555 -15.005  19.750  1.00  0.00    -0.000 C 
BRANCH  13  14
ATOM     14  C   UNL     1       9.944 -15.657  19.680  1.00  0.00    -0.000 C 
BRANCH  14  15
ATOM     15  C   UNL     1      11.041 -14.784  20.308  1.00  0.00    -0.003 C 
ATOM     16  C   UNL     1      12.336 -14.865  19.505  1.00  0.00     0.004 C 
ENDBRANCH  14  15
ENDBRANCH  13  14
ENDBRANCH  12  13
ENDBRANCH  11  12
ENDBRANCH  10  11
ENDBRANCH   1  10
TORSDOF 12
ENDMDL
MODEL 3
REMARK VINA RESULT:    -2.669      1.646      3.542
REMARK INTER + INTRA:          -6.385
REMARK INTER:                  -4.295
REMARK INTRA:                  -2.091
REMARK UNBOUND:                -1.844
REMARK SMILES CCCCCCCCCCCCCC(=O)[O-]
REMARK SMILES IDX 8 1 9 2 10 3 11 4 12 5 13 6 14 7 15 8 16 9 7 10 6 11 5 12
REMARK SMILES IDX 4 13 3 14 2 15 1 16
REMARK H PARENT
REMARK Flexibility Score: inf
ROOT
ATOM      1  C   UNL     1       6.454 -18.552  20.490  1.00  0.00     0.000 C 
ENDROOT
BRANCH   1   2
ATOM      2  C   UNL     1       6.918 -19.866  21.142  1.00  0.00     0.000 C 
BRANCH   2   3
ATOM      3  C   UNL     1       8.099 -19.659  22.105  1.00  0.00     0.000 C 
BRANCH   3   4
ATOM      4  C   UNL     1       8.482 -18.177  22.256  1.00  0.00     0.000 C 
BRANCH   4   5
ATOM      5  C   UNL     1       9.934 -17.891  21.829  1.00  0.00     0.006 C 
BRANCH   5   6
ATOM      6  C   UNL     1      10.704 -19.125  21.333  1.00  0.00     0.053 C 
BRANCH   6   7
ATOM      7  C   UNL     1      11.922 -18.749  20.546  1.00  0.00     0.041 C 
ATOM      8  O   UNL     1      12.828 -18.055  21.076  1.00  0.00    -0.550 OA
ATOM      9  O   UNL     1      12.039 -19.137  19.217  1.00  0.00    -0.550 OA
ENDBRANCH   6   7
ENDBRANCH   5   6
ENDBRANCH   4   5
ENDBRANCH   3   4
ENDBRANCH   2   3
ENDBRANCH   1   2
BRANCH   1  10
ATOM     10  C   UNL     1       6.463 -18.609  18.951  1.00  0.00     0.000 C 
BRANCH  10  11
ATOM     11  C   UNL     1       7.647 -19.377  18.333  1.00  0.00    -0.000 C 
BRANCH  11  12
ATOM     12  C   UNL     1       8.890 -18.499  18.128  1.00  0.00    -0.000 C 
BRANCH  12  13
ATOM     13  C   UNL     1       8.497 -17.026  17.935  1.00  0.00    -0.000 C 
BRANCH  13  14
ATOM     14  C   UNL     1       9.157 -16.097  18.965  1.00  0.00    -0.000 C 
BRANCH  14  15
ATOM     15  C   UNL     1       8.135 -15.250  19.739  1.00  0.00    -0.003 C 
ATOM     16  C   UNL     1       6.952 -14.870  18.852  1.00  0.00     0.004 C 
ENDBRANCH  14  15
ENDBRANCH  13  14
ENDBRANCH  12  13
ENDBRANCH  11  12
ENDBRANCH  10  11
ENDBRANCH   1  10
TORSDOF 12
ENDMDL
MODEL 4
REMARK VINA RESULT:    -2.636      3.360      5.818
REMARK INTER + INTRA:          -6.330
REMARK INTER:                  -4.524
REMARK INTRA:                  -1.807
REMARK UNBOUND:                -1.844
REMARK SMILES CCCCCCCCCCCCCC(=O)[O-]
REMARK SMILES IDX 8 1 9 2 10 3 11 4 12 5 13 6 14 7 15 8 16 9 7 10 6 11 5 12
REMARK SMILES IDX 4 13 3 14 2 15 1 16
REMARK H PARENT
REMARK Flexibility Score: inf
ROOT
ATOM      1  C   UNL     1      11.537 -18.911  20.541  1.00  0.00     0.000 C 
ENDROOT
BRANCH   1   2
ATOM      2  C   UNL     1      11.734 -19.202  19.042  1.00  0.00     0.000 C 
BRANCH   2   3
ATOM      3  C   UNL     1      10.401 -19.289  18.281  1.00  0.00     0.000 C 
BRANCH   3   4
ATOM      4  C   UNL     1       9.193 -19.430  19.223  1.00  0.00     0.000 C 
BRANCH   4   5
ATOM      5  C   UNL     1       7.861 -19.585  18.465  1.00  0.00     0.006 C 
BRANCH   5   6
ATOM      6  C   UNL     1       7.213 -18.256  18.044  1.00  0.00     0.053 C 
BRANCH   6   7
ATOM      7  C   UNL     1       6.036 -17.907  18.902  1.00  0.00     0.041 C 
ATOM      8  O   UNL     1       5.286 -18.816  19.348  1.00  0.00    -0.550 OA
ATOM      9  O   UNL     1       5.746 -16.577  19.179  1.00  0.00    -0.550 OA
ENDBRANCH   6   7
ENDBRANCH   5   6
ENDBRANCH   4   5
ENDBRANCH   3   4
ENDBRANCH   2   3
ENDBRANCH   1   2
BRANCH   1  10
ATOM     10  C   UNL     1      12.711 -18.129  21.159  1.00  0.00     0.000 C 
BRANCH  10  11
ATOM     11  C   UNL     1      12.308 -17.021  22.150  1.00  0.00    -0.000 C 
BRANCH  11  12
ATOM     12  C   UNL     1      12.657 -15.612  21.649  1.00  0.00    -0.000 C 
BRANCH  12  13
ATOM     13  C   UNL     1      12.269 -15.442  20.171  1.00  0.00    -0.000 C 
BRANCH  13  14
ATOM     14  C   UNL     1      10.892 -14.786  19.992  1.00  0.00    -0.000 C 
BRANCH  14  15
ATOM     15  C   UNL     1       9.801 -15.795  19.601  1.00  0.00    -0.003 C 
ATOM     16  C   UNL     1       8.911 -16.132  20.793  1.00  0.00     0.004 C 
ENDBRANCH  14  15
ENDBRANCH  13  14
ENDBRANCH  12  13
ENDBRANCH  11  12
ENDBRANCH  10  11
ENDBRANCH   1  10
TORSDOF 12
ENDMDL
MODEL 5
REMARK VINA RESULT:    -2.626      1.529      2.981
REMARK INTER + INTRA:          -6.312
REMARK INTER:                  -4.122
REMARK INTRA:                  -2.190
REMARK UNBOUND:                -1.844
REMARK SMILES CCCCCCCCCCCCCC(=O)[O-]
REMARK SMILES IDX 8 1 9 2 10 3 11 4 12 5 13 6 14 7 15 8 16 9 7 10 6 11 5 12
REMARK SMILES IDX 4 13 3 14 2 15 1 16
REMARK H PARENT
REMARK Flexibility Score: inf
ROOT
ATOM      1  C   UNL     1       7.158 -17.895  18.407  1.00  0.00     0.000 C 
ENDROOT
BRANCH   1   2
ATOM      2  C   UNL     1       7.776 -16.506  18.167  1.00  0.00     0.000 C 
BRANCH   2   3
ATOM      3  C   UNL     1       8.474 -15.949  19.418  1.00  0.00     0.000 C 
BRANCH   3   4
ATOM      4  C   UNL     1       9.988 -16.221  19.417  1.00  0.00     0.000 C 
BRANCH   4   5
ATOM      5  C   UNL     1      10.396 -17.319  20.417  1.00  0.00     0.006 C 
BRANCH   5   6
ATOM      6  C   UNL     1      11.538 -18.227  19.931  1.00  0.00     0.053 C 
BRANCH   6   7
ATOM      7  C   UNL     1      12.335 -18.787  21.068  1.00  0.00     0.041 C 
ATOM      8  O   UNL     1      11.812 -19.616  21.859  1.00  0.00    -0.550 OA
ATOM      9  O   UNL     1      13.642 -18.366  21.276  1.00  0.00    -0.550 OA
ENDBRANCH   6   7
ENDBRANCH   5   6
ENDBRANCH   4   5
ENDBRANCH   3   4
ENDBRANCH   2   3
ENDBRANCH   1   2
BRANCH   1  10
ATOM     10  C   UNL     1       8.057 -19.044  17.916  1.00  0.00     0.000 C 
BRANCH  10  11
ATOM     11  C   UNL     1       8.384 -20.116  18.973  1.00  0.00    -0.000 C 
BRANCH  11  12
ATOM     12  C   UNL     1       7.533 -19.983  20.245  1.00  0.00    -0.000 C 
BRANCH  12  13
ATOM     13  C   UNL     1       8.361 -20.318  21.496  1.00  0.00    -0.000 C 
BRANCH  13  14
ATOM     14  C   UNL     1       8.259 -19.234  22.580  1.00  0.00    -0.000 C 
BRANCH  14  15
ATOM     15  C   UNL     1       7.248 -18.134  22.224  1.00  0.00    -0.003 C 
ATOM     16  C   UNL     1       7.594 -16.822  22.923  1.00  0.00     0.004 C 
ENDBRANCH  14  15
ENDBRANCH  13  14
ENDBRANCH  12  13
ENDBRANCH  11  12
ENDBRANCH  10  11
ENDBRANCH   1  10
TORSDOF 12
ENDMDL
MODEL 6
REMARK VINA RESULT:    -2.620      3.702      6.290
REMARK INTER + INTRA:          -6.303
REMARK INTER:                  -4.858
REMARK INTRA:                  -1.445
REMARK UNBOUND:                -1.844
REMARK SMILES CCCCCCCCCCCCCC(=O)[O-]
REMARK SMILES IDX 8 1 9 2 10 3 11 4 12 5 13 6 14 7 15 8 16 9 7 10 6 11 5 12
REMARK SMILES IDX 4 13 3 14 2 15 1 16
REMARK H PARENT
REMARK Flexibility Score: inf
ROOT
ATOM      1  C   UNL     1      10.179 -18.957  19.492  1.00  0.00     0.000 C 
ENDROOT
BRANCH   1   2
ATOM      2  C   UNL     1       9.425 -18.855  18.155  1.00  0.00     0.000 C 
BRANCH   2   3
ATOM      3  C   UNL     1       7.961 -19.310  18.269  1.00  0.00     0.000 C 
BRANCH   3   4
ATOM      4  C   UNL     1       7.511 -19.483  19.730  1.00  0.00     0.000 C 
BRANCH   4   5
ATOM      5  C   UNL     1       6.512 -18.400  20.178  1.00  0.00     0.006 C 
BRANCH   5   6
ATOM      6  C   UNL     1       5.061 -18.890  20.308  1.00  0.00     0.053 C 
BRANCH   6   7
ATOM      7  C   UNL     1       4.252 -18.585  19.085  1.00  0.00     0.041 C 
ATOM      8  O   UNL     1       4.586 -17.638  18.325  1.00  0.00    -0.550 OA
ATOM      9  O   UNL     1       3.110 -19.325  18.803  1.00  0.00    -0.550 OA
ENDBRANCH   6   7
ENDBRANCH   5   6
ENDBRANCH   4   5
ENDBRANCH   3   4
ENDBRANCH   2   3
ENDBRANCH   1   2
BRANCH   1  10
ATOM     10  C   UNL     1      11.709 -18.991  19.318  1.00  0.00     0.000 C 
BRANCH  10  11
ATOM     11  C   UNL     1      12.518 -18.638  20.580  1.00  0.00    -0.000 C 
BRANCH  11  12
ATOM     12  C   UNL     1      12.158 -17.263  21.159  1.00  0.00    -0.000 C 
BRANCH  12  13
ATOM     13  C   UNL     1      12.611 -16.134  20.220  1.00  0.00    -0.000 C 
BRANCH  13  14
ATOM     14  C   UNL     1      11.449 -15.239  19.765  1.00  0.00    -0.000 C 
BRANCH  14  15
ATOM     15  C   UNL     1      10.176 -15.451  20.600  1.00  0.00    -0.003 C 
ATOM     16  C   UNL     1       8.933 -15.456  19.716  1.00  0.00     0.004 C 
ENDBRANCH  14  15
ENDBRANCH  13  14
ENDBRANCH  12  13
ENDBRANCH  11  12
ENDBRANCH  10  11
ENDBRANCH   1  10
TORSDOF 12
ENDMDL
MODEL 7
REMARK VINA RESULT:    -2.612      2.789      4.886
REMARK INTER + INTRA:          -6.288
REMARK INTER:                  -4.510
REMARK INTRA:                  -1.778
REMARK UNBOUND:                -1.844
REMARK SMILES CCCCCCCCCCCCCC(=O)[O-]
REMARK SMILES IDX 8 1 9 2 10 3 11 4 12 5 13 6 14 7 15 8 16 9 7 10 6 11 5 12
REMARK SMILES IDX 4 13 3 14 2 15 1 16
REMARK H PARENT
REMARK Flexibility Score: inf
ROOT
ATOM      1  C   UNL     1      13.432 -18.458  21.496  1.00  0.00     0.000 C 
ENDROOT
BRANCH   1   2
ATOM      2  C   UNL     1      12.236 -17.494  21.399  1.00  0.00     0.000 C 
BRANCH   2   3
ATOM      3  C   UNL     1      11.506 -17.598  20.051  1.00  0.00     0.000 C 
BRANCH   3   4
ATOM      4  C   UNL     1      11.757 -18.943  19.348  1.00  0.00     0.000 C 
BRANCH   4   5
ATOM      5  C   UNL     1      10.605 -19.349  18.409  1.00  0.00     0.006 C 
BRANCH   5   6
ATOM      6  C   UNL     1       9.298 -18.574  18.637  1.00  0.00     0.053 C 
BRANCH   6   7
ATOM      7  C   UNL     1       8.111 -19.484  18.722  1.00  0.00     0.041 C 
ATOM      8  O   UNL     1       8.272 -20.733  18.752  1.00  0.00    -0.550 OA
ATOM      9  O   UNL     1       6.827 -18.954  18.731  1.00  0.00    -0.550 OA
ENDBRANCH   6   7
ENDBRANCH   5   6
ENDBRANCH   4   5
ENDBRANCH   3   4
ENDBRANCH   2   3
ENDBRANCH   1   2
BRANCH   1  10
ATOM     10  C   UNL     1      13.365 -19.375  22.731  1.00  0.00     0.000 C 
BRANCH  10  11
ATOM     11  C   UNL     1      12.171 -20.348  22.758  1.00  0.00    -0.000 C 
BRANCH  11  12
ATOM     12  C   UNL     1      11.276 -20.166  23.993  1.00  0.00    -0.000 C 
BRANCH  12  13
ATOM     13  C   UNL     1       9.926 -19.543  23.607  1.00  0.00    -0.000 C 
BRANCH  13  14
ATOM     14  C   UNL     1       9.477 -19.933  22.190  1.00  0.00    -0.000 C 
BRANCH  14  15
ATOM     15  C   UNL     1       8.404 -21.032  22.191  1.00  0.00    -0.003 C 
ATOM     16  C   UNL     1       7.002 -20.431  22.124  1.00  0.00     0.004 C 
ENDBRANCH  14  15
ENDBRANCH  13  14
ENDBRANCH  12  13
ENDBRANCH  11  12
ENDBRANCH  10  11
ENDBRANCH   1  10
TORSDOF 12
ENDMDL
MODEL 8
REMARK VINA RESULT:    -2.566      2.650      5.116
REMARK INTER + INTRA:          -6.211
REMARK INTER:                  -4.108
REMARK INTRA:                  -2.103
REMARK UNBOUND:                -1.844
REMARK SMILES CCCCCCCCCCCCCC(=O)[O-]
REMARK SMILES IDX 8 1 9 2 10 3 11 4 12 5 13 6 14 7 15 8 16 9 7 10 6 11 5 12
REMARK SMILES IDX 4 13 3 14 2 15 1 16
REMARK H PARENT
REMARK Flexibility Score: inf
ROOT
ATOM      1  C   UNL     1      13.742 -17.851  21.434  1.00  0.00     0.000 C 
ENDROOT
BRANCH   1   2
ATOM      2  C   UNL     1      12.695 -18.592  22.284  1.00  0.00     0.000 C 
BRANCH   2   3
ATOM      3  C   UNL     1      11.559 -19.184  21.434  1.00  0.00     0.000 C 
BRANCH   3   4
ATOM      4  C   UNL     1      11.793 -18.994  19.925  1.00  0.00     0.000 C 
BRANCH   4   5
ATOM      5  C   UNL     1      10.509 -18.608  19.167  1.00  0.00     0.006 C 
BRANCH   5   6
ATOM      6  C   UNL     1       9.219 -18.749  19.992  1.00  0.00     0.053 C 
BRANCH   6   7
ATOM      7  C   UNL     1       8.364 -19.880  19.511  1.00  0.00     0.041 C 
ATOM      8  O   UNL     1       7.945 -19.896  18.324  1.00  0.00    -0.550 OA
ATOM      9  O   UNL     1       8.001 -20.898  20.384  1.00  0.00    -0.550 OA
ENDBRANCH   6   7
ENDBRANCH   5   6
ENDBRANCH   4   5
ENDBRANCH   3   4
ENDBRANCH   2   3
ENDBRANCH   1   2
BRANCH   1  10
ATOM     10  C   UNL     1      14.032 -16.428  21.945  1.00  0.00     0.000 C 
BRANCH  10  11
ATOM     11  C   UNL     1      13.979 -15.325  20.871  1.00  0.00    -0.000 C 
BRANCH  11  12
ATOM     12  C   UNL     1      12.876 -15.554  19.829  1.00  0.00    -0.000 C 
BRANCH  12  13
ATOM     13  C   UNL     1      11.769 -14.495  19.958  1.00  0.00    -0.000 C 
BRANCH  13  14
ATOM     14  C   UNL     1      10.395 -15.110  20.263  1.00  0.00    -0.000 C 
BRANCH  14  15
ATOM     15  C   UNL     1      10.317 -15.713  21.674  1.00  0.00    -0.003 C 
ATOM     16  C   UNL     1      10.765 -14.705  22.728  1.00  0.00     0.004 C 
ENDBRANCH  14  15
ENDBRANCH  13  14
ENDBRANCH  12  13
ENDBRANCH  11  12
ENDBRANCH  10  11
ENDBRANCH   1  10
TORSDOF 12
ENDMDL
