MODEL 1
REMARK VINA RESULT:    -4.687      0.000      0.000
REMARK INTER + INTRA:          -6.032
REMARK INTER:                  -7.154
REMARK INTRA:                   1.122
REMARK UNBOUND:                 1.122
REMARK SMILES CC1=CCC[C@@H](C)C(=O)C[C@H](C(C)C)C(=O)C1
REMARK SMILES IDX 8 1 9 2 6 3 7 4 5 5 4 6 3 7 2 8 1 9 10 11 11 12 15 13 16 14
REMARK SMILES IDX 17 15 12 17 13 18 14 19
REMARK H PARENT
REMARK Flexibility Score: 70.00
ROOT
ATOM      1  C   UNL     1     -17.008  13.913 -31.841  1.00  0.00     0.136 C 
ATOM      2  O   UNL     1     -17.569  14.625 -32.663  1.00  0.00    -0.299 OA
ENDROOT
BRANCH   1   3
ATOM      3  C   UNL     1     -17.774  13.375 -30.642  1.00  0.00     0.053 C 
ATOM      4  C   UNL     1     -17.659  14.272 -29.398  1.00  0.00     0.016 C 
BRANCH   3   5
ATOM      5  C   UNL     1     -17.448  11.894 -30.325  1.00  0.00     0.015 C 
BRANCH   5   6
ATOM      6  C   UNL     1     -17.393  11.465 -28.840  1.00  0.00     0.028 C 
BRANCH   6   7
ATOM      7  C   UNL     1     -16.283  12.042 -27.993  1.00  0.00    -0.028 C 
ATOM      8  C   UNL     1     -14.954  11.918 -28.217  1.00  0.00    -0.070 CG0
ATOM      9  C   UNL     1     -14.025  12.379 -27.119  1.00  0.00     0.039 C 
ATOM     10  G   UNL     1     -14.371  11.284 -29.468  1.00  0.00     0.000 G0
ENDBRANCH   6   7
ENDBRANCH   5   6
ENDBRANCH   3   5
ENDBRANCH   1   3
BRANCH   1  11
ATOM     11  C   UNL     1     -15.584  13.467 -32.090  1.00  0.00     0.087 C 
BRANCH  11  12
ATOM     12  C   UNL     1     -14.644  13.575 -30.857  1.00  0.00     0.066 C 
BRANCH  12  13
ATOM     13  C   UNL     1     -13.888  12.297 -30.487  1.00  0.00     0.140 C 
ATOM     14  O   UNL     1     -12.813  12.096 -31.036  1.00  0.00    -0.299 OA
BRANCH  13  15
ATOM     15  C   UNL     1     -14.362  11.268 -29.481  1.00  0.00     0.106 CG0
ATOM     16  G   UNL     1     -14.953  11.932 -28.249  1.00  0.00     0.000 G0
ENDBRANCH  13  15
ENDBRANCH  12  13
BRANCH  12  17
ATOM     17  C   UNL     1     -13.638  14.765 -30.978  1.00  0.00    -0.006 C 
ATOM     18  C   UNL     1     -12.757  14.926 -29.729  1.00  0.00     0.008 C 
ATOM     19  C   UNL     1     -14.317  16.099 -31.329  1.00  0.00     0.008 C 
ENDBRANCH  12  17
ENDBRANCH  11  12
ENDBRANCH   1  11
TORSDOF 1
ENDMDL
MODEL 2
REMARK VINA RESULT:    -4.654      1.690      3.821
REMARK INTER + INTRA:          -5.980
REMARK INTER:                  -5.827
REMARK INTRA:                  -0.153
REMARK UNBOUND:                 1.122
REMARK SMILES CC1=CCC[C@@H](C)C(=O)C[C@H](C(C)C)C(=O)C1
REMARK SMILES IDX 8 1 9 2 6 3 7 4 5 5 4 6 3 7 2 8 1 9 10 11 11 12 15 13 16 14
REMARK SMILES IDX 17 15 12 17 13 18 14 19
REMARK H PARENT
REMARK Flexibility Score: 70.00
ROOT
ATOM      1  C   UNL     1     -15.685  14.499 -31.008  1.00  0.00     0.136 C 
ATOM      2  O   UNL     1     -16.307  14.549 -32.062  1.00  0.00    -0.299 OA
ENDROOT
BRANCH   1   3
ATOM      3  C   UNL     1     -14.198  14.817 -30.980  1.00  0.00     0.053 C 
ATOM      4  C   UNL     1     -13.869  16.221 -31.515  1.00  0.00     0.016 C 
BRANCH   3   5
ATOM      5  C   UNL     1     -13.329  13.722 -31.647  1.00  0.00     0.015 C 
BRANCH   5   6
ATOM      6  C   UNL     1     -12.918  12.501 -30.792  1.00  0.00     0.028 C 
BRANCH   6   7
ATOM      7  C   UNL     1     -12.559  12.757 -29.347  1.00  0.00    -0.028 C 
ATOM      8  C   UNL     1     -13.258  12.351 -28.261  1.00  0.00    -0.070 CG0
ATOM      9  C   UNL     1     -12.841  12.915 -26.923  1.00  0.00     0.039 C 
ATOM     10  G   UNL     1     -14.463  11.429 -28.337  1.00  0.00     0.000 G0
ENDBRANCH   6   7
ENDBRANCH   5   6
ENDBRANCH   3   5
ENDBRANCH   1   3
BRANCH   1  11
ATOM     11  C   UNL     1     -16.429  14.242 -29.716  1.00  0.00     0.087 C 
BRANCH  11  12
ATOM     12  C   UNL     1     -16.629  12.740 -29.370  1.00  0.00     0.066 C 
BRANCH  12  13
ATOM     13  C   UNL     1     -15.789  12.211 -28.205  1.00  0.00     0.140 C 
ATOM     14  O   UNL     1     -16.201  12.415 -27.071  1.00  0.00    -0.299 OA
BRANCH  13  15
ATOM     15  C   UNL     1     -14.493  11.441 -28.350  1.00  0.00     0.106 CG0
ATOM     16  G   UNL     1     -13.289  12.363 -28.260  1.00  0.00     0.000 G0
ENDBRANCH  13  15
ENDBRANCH  12  13
BRANCH  12  17
ATOM     17  C   UNL     1     -18.132  12.378 -29.140  1.00  0.00    -0.006 C 
ATOM     18  C   UNL     1     -18.351  10.875 -28.904  1.00  0.00     0.008 C 
ATOM     19  C   UNL     1     -19.055  12.883 -30.262  1.00  0.00     0.008 C 
ENDBRANCH  12  17
ENDBRANCH  11  12
ENDBRANCH   1  11
TORSDOF 1
ENDMDL
MODEL 3
REMARK VINA RESULT:    -4.627      1.623      2.759
REMARK INTER + INTRA:          -5.940
REMARK INTER:                  -5.932
REMARK INTRA:                  -0.007
REMARK UNBOUND:                 1.122
REMARK SMILES CC1=CCC[C@@H](C)C(=O)C[C@H](C(C)C)C(=O)C1
REMARK SMILES IDX 8 1 9 2 6 3 7 4 5 5 4 6 3 7 2 8 1 9 10 11 11 12 15 13 16 14
REMARK SMILES IDX 17 15 12 17 13 18 14 19
REMARK H PARENT
REMARK Flexibility Score: 70.00
ROOT
ATOM      1  C   UNL     1     -14.452  13.915 -32.215  1.00  0.00     0.136 C 
ATOM      2  O   UNL     1     -14.950  13.418 -33.218  1.00  0.00    -0.299 OA
ENDROOT
BRANCH   1   3
ATOM      3  C   UNL     1     -15.027  15.194 -31.628  1.00  0.00     0.053 C 
ATOM      4  C   UNL     1     -13.952  16.235 -31.274  1.00  0.00     0.016 C 
BRANCH   3   5
ATOM      5  C   UNL     1     -16.000  14.939 -30.449  1.00  0.00     0.015 C 
BRANCH   5   6
ATOM      6  C   UNL     1     -17.090  13.857 -30.629  1.00  0.00     0.028 C 
BRANCH   6   7
ATOM      7  C   UNL     1     -17.353  12.938 -29.459  1.00  0.00    -0.028 C 
ATOM      8  C   UNL     1     -16.689  11.795 -29.170  1.00  0.00    -0.070 CG0
ATOM      9  C   UNL     1     -17.268  10.916 -28.086  1.00  0.00     0.039 C 
ATOM     10  G   UNL     1     -15.452  11.332 -29.921  1.00  0.00     0.000 G0
ENDBRANCH   6   7
ENDBRANCH   5   6
ENDBRANCH   3   5
ENDBRANCH   1   3
BRANCH   1  11
ATOM     11  C   UNL     1     -13.343  13.181 -31.494  1.00  0.00     0.087 C 
BRANCH  11  12
ATOM     12  C   UNL     1     -13.469  13.176 -29.944  1.00  0.00     0.066 C 
BRANCH  12  13
ATOM     13  C   UNL     1     -14.178  11.962 -29.341  1.00  0.00     0.140 C 
ATOM     14  O   UNL     1     -13.701  11.473 -28.326  1.00  0.00    -0.299 OA
BRANCH  13  15
ATOM     15  C   UNL     1     -15.437  11.327 -29.898  1.00  0.00     0.106 CG0
ATOM     16  G   UNL     1     -16.674  11.821 -29.167  1.00  0.00     0.000 G0
ENDBRANCH  13  15
ENDBRANCH  12  13
BRANCH  12  17
ATOM     17  C   UNL     1     -12.092  13.386 -29.235  1.00  0.00    -0.006 C 
ATOM     18  C   UNL     1     -12.067  14.641 -28.348  1.00  0.00     0.008 C 
ATOM     19  C   UNL     1     -10.903  13.396 -30.211  1.00  0.00     0.008 C 
ENDBRANCH  12  17
ENDBRANCH  11  12
ENDBRANCH   1  11
TORSDOF 1
ENDMDL
MODEL 4
REMARK VINA RESULT:    -4.408      1.917      3.612
REMARK INTER + INTRA:          -5.605
REMARK INTER:                  -5.744
REMARK INTRA:                   0.139
REMARK UNBOUND:                 1.122
REMARK SMILES CC1=CCC[C@@H](C)C(=O)C[C@H](C(C)C)C(=O)C1
REMARK SMILES IDX 8 1 9 2 6 3 7 4 5 5 4 6 3 7 2 8 1 9 10 11 11 12 15 13 16 14
REMARK SMILES IDX 17 15 12 17 13 18 14 19
REMARK H PARENT
REMARK Flexibility Score: 70.00
ROOT
ATOM      1  C   UNL     1     -14.157  15.851 -30.526  1.00  0.00     0.136 C 
ATOM      2  O   UNL     1     -14.310  17.024 -30.842  1.00  0.00    -0.299 OA
ENDROOT
BRANCH   1   3
ATOM      3  C   UNL     1     -12.759  15.265 -30.406  1.00  0.00     0.053 C 
ATOM      4  C   UNL     1     -12.373  14.372 -31.597  1.00  0.00     0.016 C 
BRANCH   3   5
ATOM      5  C   UNL     1     -12.506  14.566 -29.047  1.00  0.00     0.015 C 
BRANCH   5   6
ATOM      6  C   UNL     1     -12.285  13.036 -29.049  1.00  0.00     0.028 C 
BRANCH   6   7
ATOM      7  C   UNL     1     -12.901  12.246 -27.918  1.00  0.00    -0.028 C 
ATOM      8  C   UNL     1     -14.053  11.538 -27.967  1.00  0.00    -0.070 CG0
ATOM      9  C   UNL     1     -14.598  11.017 -26.658  1.00  0.00     0.039 C 
ATOM     10  G   UNL     1     -14.842  11.308 -29.245  1.00  0.00     0.000 G0
ENDBRANCH   6   7
ENDBRANCH   5   6
ENDBRANCH   3   5
ENDBRANCH   1   3
BRANCH   1  11
ATOM     11  C   UNL     1     -15.361  15.023 -30.133  1.00  0.00     0.087 C 
BRANCH  11  12
ATOM     12  C   UNL     1     -15.335  13.556 -30.646  1.00  0.00     0.066 C 
BRANCH  12  13
ATOM     13  C   UNL     1     -15.720  12.489 -29.619  1.00  0.00     0.140 C 
ATOM     14  O   UNL     1     -16.802  12.605 -29.059  1.00  0.00    -0.299 OA
BRANCH  13  15
ATOM     15  C   UNL     1     -14.870  11.289 -29.253  1.00  0.00     0.106 CG0
ATOM     16  G   UNL     1     -14.079  11.540 -27.981  1.00  0.00     0.000 G0
ENDBRANCH  13  15
ENDBRANCH  12  13
BRANCH  12  17
ATOM     17  C   UNL     1     -16.182  13.364 -31.945  1.00  0.00    -0.006 C 
ATOM     18  C   UNL     1     -15.343  13.499 -33.226  1.00  0.00     0.008 C 
ATOM     19  C   UNL     1     -17.410  14.289 -32.010  1.00  0.00     0.008 C 
ENDBRANCH  12  17
ENDBRANCH  11  12
ENDBRANCH   1  11
TORSDOF 1
ENDMDL
MODEL 5
REMARK VINA RESULT:    -4.235      2.203      4.373
REMARK INTER + INTRA:          -5.341
REMARK INTER:                  -5.405
REMARK INTRA:                   0.064
REMARK UNBOUND:                 1.122
REMARK SMILES CC1=CCC[C@@H](C)C(=O)C[C@H](C(C)C)C(=O)C1
REMARK SMILES IDX 8 1 9 2 6 3 7 4 5 5 4 6 3 7 2 8 1 9 10 11 11 12 15 13 16 14
REMARK SMILES IDX 17 15 12 17 13 18 14 19
REMARK H PARENT
REMARK Flexibility Score: 70.00
ROOT
ATOM      1  C   UNL     1     -13.815  13.252 -30.930  1.00  0.00     0.136 C 
ATOM      2  O   UNL     1     -14.180  12.782 -32.000  1.00  0.00    -0.299 OA
ENDROOT
BRANCH   1   3
ATOM      3  C   UNL     1     -12.372  13.692 -30.739  1.00  0.00     0.053 C 
ATOM      4  C   UNL     1     -11.861  14.601 -31.869  1.00  0.00     0.016 C 
BRANCH   3   5
ATOM      5  C   UNL     1     -11.407  12.512 -30.460  1.00  0.00     0.015 C 
BRANCH   5   6
ATOM      6  C   UNL     1     -11.906  11.367 -29.549  1.00  0.00     0.028 C 
BRANCH   6   7
ATOM      7  C   UNL     1     -11.441  11.374 -28.112  1.00  0.00    -0.028 C 
ATOM      8  C   UNL     1     -11.914  12.162 -27.118  1.00  0.00    -0.070 CG0
ATOM      9  C   UNL     1     -11.148  12.163 -25.816  1.00  0.00     0.039 C 
ATOM     10  G   UNL     1     -13.114  13.079 -27.275  1.00  0.00     0.000 G0
ENDBRANCH   6   7
ENDBRANCH   5   6
ENDBRANCH   3   5
ENDBRANCH   1   3
BRANCH   1  11
ATOM     11  C   UNL     1     -14.835  13.508 -29.843  1.00  0.00     0.087 C 
BRANCH  11  12
ATOM     12  C   UNL     1     -15.096  12.299 -28.901  1.00  0.00     0.066 C 
BRANCH  12  13
ATOM     13  C   UNL     1     -14.399  12.357 -27.540  1.00  0.00     0.140 C 
ATOM     14  O   UNL     1     -14.907  11.737 -26.616  1.00  0.00    -0.299 OA
BRANCH  13  15
ATOM     15  C   UNL     1     -13.117  13.112 -27.254  1.00  0.00     0.106 CG0
ATOM     16  G   UNL     1     -11.942  12.163 -27.087  1.00  0.00     0.000 G0
ENDBRANCH  13  15
ENDBRANCH  12  13
BRANCH  12  17
ATOM     17  C   UNL     1     -16.621  12.022 -28.698  1.00  0.00    -0.006 C 
ATOM     18  C   UNL     1     -17.145  10.895 -29.602  1.00  0.00     0.008 C 
ATOM     19  C   UNL     1     -17.492  13.281 -28.853  1.00  0.00     0.008 C 
ENDBRANCH  12  17
ENDBRANCH  11  12
ENDBRANCH   1  11
TORSDOF 1
ENDMDL
MODEL 6
REMARK VINA RESULT:    -4.013      1.829      4.201
REMARK INTER + INTRA:          -5.003
REMARK INTER:                  -5.596
REMARK INTRA:                   0.593
REMARK UNBOUND:                 1.122
REMARK SMILES CC1=CCC[C@@H](C)C(=O)C[C@H](C(C)C)C(=O)C1
REMARK SMILES IDX 8 1 9 2 6 3 7 4 5 5 4 6 3 7 2 8 1 9 10 11 11 12 15 13 16 14
REMARK SMILES IDX 17 15 12 17 13 18 14 19
REMARK H PARENT
REMARK Flexibility Score: 70.00
ROOT
ATOM      1  C   UNL     1     -12.985  13.360 -30.899  1.00  0.00     0.136 C 
ATOM      2  O   UNL     1     -12.995  12.985 -32.064  1.00  0.00    -0.299 OA
ENDROOT
BRANCH   1   3
ATOM      3  C   UNL     1     -13.009  14.846 -30.572  1.00  0.00     0.053 C 
ATOM      4  C   UNL     1     -12.197  15.202 -29.316  1.00  0.00     0.016 C 
BRANCH   3   5
ATOM      5  C   UNL     1     -14.441  15.436 -30.527  1.00  0.00     0.015 C 
BRANCH   5   6
ATOM      6  C   UNL     1     -15.535  14.750 -31.377  1.00  0.00     0.028 C 
BRANCH   6   7
ATOM      7  C   UNL     1     -16.851  14.449 -30.699  1.00  0.00    -0.028 C 
ATOM      8  C   UNL     1     -17.189  13.296 -30.075  1.00  0.00    -0.070 CG0
ATOM      9  C   UNL     1     -18.634  13.130 -29.669  1.00  0.00     0.039 C 
ATOM     10  G   UNL     1     -16.212  12.158 -29.833  1.00  0.00     0.000 G0
ENDBRANCH   6   7
ENDBRANCH   5   6
ENDBRANCH   3   5
ENDBRANCH   1   3
BRANCH   1  11
ATOM     11  C   UNL     1     -13.077  12.339 -29.787  1.00  0.00     0.087 C 
BRANCH  11  12
ATOM     12  C   UNL     1     -13.911  12.792 -28.556  1.00  0.00     0.066 C 
BRANCH  12  13
ATOM     13  C   UNL     1     -15.387  12.390 -28.571  1.00  0.00     0.140 C 
ATOM     14  O   UNL     1     -15.950  12.260 -27.493  1.00  0.00    -0.299 OA
BRANCH  13  15
ATOM     15  C   UNL     1     -16.210  12.157 -29.822  1.00  0.00     0.106 CG0
ATOM     16  G   UNL     1     -17.180  13.300 -30.066  1.00  0.00     0.000 G0
ENDBRANCH  13  15
ENDBRANCH  12  13
BRANCH  12  17
ATOM     17  C   UNL     1     -13.261  12.354 -27.204  1.00  0.00    -0.006 C 
ATOM     18  C   UNL     1     -12.395  13.458 -26.576  1.00  0.00     0.008 C 
ATOM     19  C   UNL     1     -12.462  11.044 -27.312  1.00  0.00     0.008 C 
ENDBRANCH  12  17
ENDBRANCH  11  12
ENDBRANCH   1  11
TORSDOF 1
ENDMDL
MODEL 7
REMARK VINA RESULT:    -3.982      1.868      3.937
REMARK INTER + INTRA:          -4.955
REMARK INTER:                  -5.226
REMARK INTRA:                   0.271
REMARK UNBOUND:                 1.122
REMARK SMILES CC1=CCC[C@@H](C)C(=O)C[C@H](C(C)C)C(=O)C1
REMARK SMILES IDX 8 1 9 2 6 3 7 4 5 5 4 6 3 7 2 8 1 9 10 11 11 12 15 13 16 14
REMARK SMILES IDX 17 15 12 17 13 18 14 19
REMARK H PARENT
REMARK Flexibility Score: 70.00
ROOT
ATOM      1  C   UNL     1     -16.248  14.819 -30.350  1.00  0.00     0.136 C 
ATOM      2  O   UNL     1     -15.871  15.959 -30.115  1.00  0.00    -0.299 OA
ENDROOT
BRANCH   1   3
ATOM      3  C   UNL     1     -16.462  14.363 -31.785  1.00  0.00     0.053 C 
ATOM      4  C   UNL     1     -17.753  13.550 -31.977  1.00  0.00     0.016 C 
BRANCH   3   5
ATOM      5  C   UNL     1     -15.227  13.644 -32.386  1.00  0.00     0.015 C 
BRANCH   5   6
ATOM      6  C   UNL     1     -13.862  14.366 -32.314  1.00  0.00     0.028 C 
BRANCH   6   7
ATOM      7  C   UNL     1     -12.667  13.546 -31.889  1.00  0.00    -0.028 C 
ATOM      8  C   UNL     1     -12.327  13.217 -30.621  1.00  0.00    -0.070 CG0
ATOM      9  C   UNL     1     -10.970  12.587 -30.412  1.00  0.00     0.039 C 
ATOM     10  G   UNL     1     -13.203  13.512 -29.416  1.00  0.00     0.000 G0
ENDBRANCH   6   7
ENDBRANCH   5   6
ENDBRANCH   3   5
ENDBRANCH   1   3
BRANCH   1  11
ATOM     11  C   UNL     1     -16.380  13.829 -29.214  1.00  0.00     0.087 C 
BRANCH  11  12
ATOM     12  C   UNL     1     -15.690  12.459 -29.463  1.00  0.00     0.066 C 
BRANCH  12  13
ATOM     13  C   UNL     1     -14.196  12.400 -29.136  1.00  0.00     0.140 C 
ATOM     14  O   UNL     1     -13.765  11.369 -28.639  1.00  0.00    -0.299 OA
BRANCH  13  15
ATOM     15  C   UNL     1     -13.206  13.518 -29.396  1.00  0.00     0.106 CG0
ATOM     16  G   UNL     1     -12.329  13.210 -30.598  1.00  0.00     0.000 G0
ENDBRANCH  13  15
ENDBRANCH  12  13
BRANCH  12  17
ATOM     17  C   UNL     1     -16.430  11.281 -28.749  1.00  0.00    -0.006 C 
ATOM     18  C   UNL     1     -17.748  10.903 -29.442  1.00  0.00     0.008 C 
ATOM     19  C   UNL     1     -16.666  11.533 -27.251  1.00  0.00     0.008 C 
ENDBRANCH  12  17
ENDBRANCH  11  12
ENDBRANCH   1  11
TORSDOF 1
ENDMDL
MODEL 8
REMARK VINA RESULT:    -3.592      1.869      3.819
REMARK INTER + INTRA:          -4.360
REMARK INTER:                  -5.850
REMARK INTRA:                   1.490
REMARK UNBOUND:                 1.122
REMARK SMILES CC1=CCC[C@@H](C)C(=O)C[C@H](C(C)C)C(=O)C1
REMARK SMILES IDX 8 1 9 2 6 3 7 4 5 5 4 6 3 7 2 8 1 9 10 11 11 12 15 13 16 14
REMARK SMILES IDX 17 15 12 17 13 18 14 19
REMARK H PARENT
REMARK Flexibility Score: 70.00
ROOT
ATOM      1  C   UNL     1     -15.956  11.784 -27.574  1.00  0.00     0.136 C 
ATOM      2  O   UNL     1     -15.950  12.553 -26.621  1.00  0.00    -0.299 OA
ENDROOT
BRANCH   1   3
ATOM      3  C   UNL     1     -17.196  11.653 -28.445  1.00  0.00     0.053 C 
ATOM      4  C   UNL     1     -16.925  10.941 -29.780  1.00  0.00     0.016 C 
BRANCH   3   5
ATOM      5  C   UNL     1     -17.945  12.995 -28.642  1.00  0.00     0.015 C 
BRANCH   5   6
ATOM      6  C   UNL     1     -17.203  14.141 -29.368  1.00  0.00     0.028 C 
BRANCH   6   7
ATOM      7  C   UNL     1     -16.808  13.906 -30.807  1.00  0.00    -0.028 C 
ATOM      8  C   UNL     1     -15.546  13.835 -31.292  1.00  0.00    -0.070 CG0
ATOM      9  C   UNL     1     -15.385  13.825 -32.794  1.00  0.00     0.039 C 
ATOM     10  G   UNL     1     -14.309  13.837 -30.411  1.00  0.00     0.000 G0
ENDBRANCH   6   7
ENDBRANCH   5   6
ENDBRANCH   3   5
ENDBRANCH   1   3
BRANCH   1  11
ATOM     11  C   UNL     1     -14.683  11.059 -27.953  1.00  0.00     0.087 C 
BRANCH  11  12
ATOM     12  C   UNL     1     -13.587  11.961 -28.588  1.00  0.00     0.066 C 
BRANCH  12  13
ATOM     13  C   UNL     1     -13.868  12.440 -30.014  1.00  0.00     0.140 C 
ATOM     14  O   UNL     1     -13.738  11.629 -30.920  1.00  0.00    -0.299 OA
BRANCH  13  15
ATOM     15  C   UNL     1     -14.310  13.841 -30.387  1.00  0.00     0.106 CG0
ATOM     16  G   UNL     1     -15.536  13.812 -31.284  1.00  0.00     0.000 G0
ENDBRANCH  13  15
ENDBRANCH  12  13
BRANCH  12  17
ATOM     17  C   UNL     1     -13.226  13.184 -27.684  1.00  0.00    -0.006 C 
ATOM     18  C   UNL     1     -12.286  14.180 -28.382  1.00  0.00     0.008 C 
ATOM     19  C   UNL     1     -12.654  12.777 -26.316  1.00  0.00     0.008 C 
ENDBRANCH  12  17
ENDBRANCH  11  12
ENDBRANCH   1  11
TORSDOF 1
ENDMDL
MODEL 9
REMARK VINA RESULT:    -2.967     11.354     13.533
REMARK INTER + INTRA:          -3.406
REMARK INTER:                  -3.568
REMARK INTRA:                   0.162
REMARK UNBOUND:                 1.122
REMARK SMILES CC1=CCC[C@@H](C)C(=O)C[C@H](C(C)C)C(=O)C1
REMARK SMILES IDX 8 1 9 2 6 3 7 4 5 5 4 6 3 7 2 8 1 9 10 11 11 12 15 13 16 14
REMARK SMILES IDX 17 15 12 17 13 18 14 19
REMARK H PARENT
REMARK Flexibility Score: 70.00
ROOT
ATOM      1  C   UNL     1     -28.222  18.763 -32.767  1.00  0.00     0.136 C 
ATOM      2  O   UNL     1     -28.158  17.762 -33.468  1.00  0.00    -0.299 OA
ENDROOT
BRANCH   1   3
ATOM      3  C   UNL     1     -29.289  19.815 -33.029  1.00  0.00     0.053 C 
ATOM      4  C   UNL     1     -30.635  19.215 -33.469  1.00  0.00     0.016 C 
BRANCH   3   5
ATOM      5  C   UNL     1     -28.814  20.940 -33.982  1.00  0.00     0.015 C 
BRANCH   5   6
ATOM      6  C   UNL     1     -27.346  21.414 -33.870  1.00  0.00     0.028 C 
BRANCH   6   7
ATOM      7  C   UNL     1     -26.305  20.628 -34.633  1.00  0.00    -0.028 C 
ATOM      8  C   UNL     1     -25.137  20.152 -34.141  1.00  0.00    -0.070 CG0
ATOM      9  C   UNL     1     -24.147  19.596 -35.137  1.00  0.00     0.039 C 
ATOM     10  G   UNL     1     -24.759  20.216 -32.672  1.00  0.00     0.000 G0
ENDBRANCH   6   7
ENDBRANCH   5   6
ENDBRANCH   3   5
ENDBRANCH   1   3
BRANCH   1  11
ATOM     11  C   UNL     1     -27.315  18.888 -31.563  1.00  0.00     0.087 C 
BRANCH  11  12
ATOM     12  C   UNL     1     -26.007  18.052 -31.646  1.00  0.00     0.066 C 
BRANCH  12  13
ATOM     13  C   UNL     1     -24.750  18.828 -32.045  1.00  0.00     0.140 C 
ATOM     14  O   UNL     1     -23.668  18.286 -31.863  1.00  0.00    -0.299 OA
BRANCH  13  15
ATOM     15  C   UNL     1     -24.743  20.210 -32.665  1.00  0.00     0.106 CG0
ATOM     16  G   UNL     1     -25.135  20.160 -34.132  1.00  0.00     0.000 G0
ENDBRANCH  13  15
ENDBRANCH  12  13
BRANCH  12  17
ATOM     17  C   UNL     1     -25.733  17.246 -30.335  1.00  0.00    -0.006 C 
ATOM     18  C   UNL     1     -26.250  15.800 -30.409  1.00  0.00     0.008 C 
ATOM     19  C   UNL     1     -26.268  17.942 -29.072  1.00  0.00     0.008 C 
ENDBRANCH  12  17
ENDBRANCH  11  12
ENDBRANCH   1  11
TORSDOF 1
ENDMDL
