MODEL 1
REMARK VINA RESULT:    -5.328      0.000      0.000
REMARK INTER + INTRA:          -5.889
REMARK INTER:                  -5.795
REMARK INTRA:                  -0.094
REMARK UNBOUND:                -0.094
REMARK SMILES C=C(C)[C@H]1CC[C@H](C)[C@@H](O)C1
REMARK SMILES IDX 8 1 7 2 6 3 5 4 4 5 11 6 9 7 10 8 2 10 1 11 3 12
REMARK H PARENT 10 9
REMARK Flexibility Score: inf
ROOT
ATOM      1  C   UNL     1      11.296  17.756  25.226  1.00  0.00     0.010 C 
ATOM      2  C   UNL     1      12.538  17.200  25.934  1.00  0.00     0.015 C 
ATOM      3  C   UNL     1      12.621  17.760  27.370  1.00  0.00     0.006 C 
ATOM      4  C   UNL     1      13.844  17.209  28.112  1.00  0.00     0.008 C 
ATOM      5  C   UNL     1      13.821  15.669  28.136  1.00  0.00     0.017 C 
ATOM      6  C   UNL     1      13.749  15.104  26.704  1.00  0.00     0.040 C 
ATOM      7  C   UNL     1      12.522  15.653  25.952  1.00  0.00     0.117 C 
ENDROOT
BRANCH   7   8
ATOM      8  O   UNL     1      12.532  15.169  24.632  1.00  0.00    -0.393 OA
ATOM      9  H   UNL     1      11.600  15.235  24.295  1.00  0.00     0.210 HD
ENDBRANCH   7   8
BRANCH   5  10
ATOM     10  C   UNL     1      15.016  15.108  28.896  1.00  0.00    -0.077 C 
ATOM     11  C   UNL     1      16.273  15.297  28.459  1.00  0.00     0.008 C 
ATOM     12  C   UNL     1      14.803  14.321  30.164  1.00  0.00     0.039 C 
ENDBRANCH   5  10
TORSDOF 2
ENDMDL
MODEL 2
REMARK VINA RESULT:    -5.230      1.792      2.495
REMARK INTER + INTRA:          -5.783
REMARK INTER:                  -5.689
REMARK INTRA:                  -0.094
REMARK UNBOUND:                -0.094
REMARK SMILES C=C(C)[C@H]1CC[C@H](C)[C@@H](O)C1
REMARK SMILES IDX 8 1 7 2 6 3 5 4 4 5 11 6 9 7 10 8 2 10 1 11 3 12
REMARK H PARENT 10 9
REMARK Flexibility Score: inf
ROOT
ATOM      1  C   UNL     1      12.841  18.125  22.817  1.00  0.00     0.010 C 
ATOM      2  C   UNL     1      13.084  17.264  24.064  1.00  0.00     0.015 C 
ATOM      3  C   UNL     1      14.530  17.459  24.566  1.00  0.00     0.006 C 
ATOM      4  C   UNL     1      14.800  16.625  25.823  1.00  0.00     0.008 C 
ATOM      5  C   UNL     1      13.792  16.972  26.936  1.00  0.00     0.017 C 
ATOM      6  C   UNL     1      12.346  16.769  26.443  1.00  0.00     0.040 C 
ATOM      7  C   UNL     1      12.068  17.605  25.180  1.00  0.00     0.117 C 
ENDROOT
BRANCH   7   8
ATOM      8  O   UNL     1      10.765  17.338  24.726  1.00  0.00    -0.393 OA
ATOM      9  H   UNL     1      10.793  16.453  24.277  1.00  0.00     0.210 HD
ENDBRANCH   7   8
BRANCH   5  10
ATOM     10  C   UNL     1      14.067  16.170  28.202  1.00  0.00    -0.077 C 
ATOM     11  C   UNL     1      13.246  16.239  29.264  1.00  0.00     0.008 C 
ATOM     12  C   UNL     1      15.279  15.278  28.283  1.00  0.00     0.039 C 
ENDBRANCH   5  10
TORSDOF 2
ENDMDL
MODEL 3
REMARK VINA RESULT:    -5.185      2.034      4.649
REMARK INTER + INTRA:          -5.734
REMARK INTER:                  -5.640
REMARK INTRA:                  -0.094
REMARK UNBOUND:                -0.094
REMARK SMILES C=C(C)[C@H]1CC[C@H](C)[C@@H](O)C1
REMARK SMILES IDX 8 1 7 2 6 3 5 4 4 5 11 6 9 7 10 8 2 10 1 11 3 12
REMARK H PARENT 10 9
REMARK Flexibility Score: inf
ROOT
ATOM      1  C   UNL     1      15.012  14.788  29.826  1.00  0.00     0.010 C 
ATOM      2  C   UNL     1      14.678  15.747  28.676  1.00  0.00     0.015 C 
ATOM      3  C   UNL     1      15.230  15.190  27.348  1.00  0.00     0.006 C 
ATOM      4  C   UNL     1      14.898  16.118  26.175  1.00  0.00     0.008 C 
ATOM      5  C   UNL     1      13.378  16.347  26.072  1.00  0.00     0.017 C 
ATOM      6  C   UNL     1      12.823  16.914  27.393  1.00  0.00     0.040 C 
ATOM      7  C   UNL     1      13.153  15.986  28.577  1.00  0.00     0.117 C 
ENDROOT
BRANCH   7   8
ATOM      8  O   UNL     1      12.691  16.571  29.768  1.00  0.00    -0.393 OA
ATOM      9  H   UNL     1      13.171  17.434  29.869  1.00  0.00     0.210 HD
ENDBRANCH   7   8
BRANCH   5  10
ATOM     10  C   UNL     1      13.031  17.246  24.891  1.00  0.00    -0.077 C 
ATOM     11  C   UNL     1      11.769  17.348  24.439  1.00  0.00     0.008 C 
ATOM     12  C   UNL     1      14.111  18.040  24.204  1.00  0.00     0.039 C 
ENDBRANCH   5  10
TORSDOF 2
ENDMDL
MODEL 4
REMARK VINA RESULT:    -5.020      2.152      3.302
REMARK INTER + INTRA:          -5.554
REMARK INTER:                  -5.459
REMARK INTRA:                  -0.094
REMARK UNBOUND:                -0.094
REMARK SMILES C=C(C)[C@H]1CC[C@H](C)[C@@H](O)C1
REMARK SMILES IDX 8 1 7 2 6 3 5 4 4 5 11 6 9 7 10 8 2 10 1 11 3 12
REMARK H PARENT 10 9
REMARK Flexibility Score: inf
ROOT
ATOM      1  C   UNL     1      14.340  17.300  26.409  1.00  0.00     0.010 C 
ATOM      2  C   UNL     1      14.227  16.153  27.423  1.00  0.00     0.015 C 
ATOM      3  C   UNL     1      15.577  15.414  27.534  1.00  0.00     0.006 C 
ATOM      4  C   UNL     1      15.503  14.271  28.552  1.00  0.00     0.008 C 
ATOM      5  C   UNL     1      15.063  14.796  29.932  1.00  0.00     0.017 C 
ATOM      6  C   UNL     1      13.710  15.527  29.829  1.00  0.00     0.040 C 
ATOM      7  C   UNL     1      13.777  16.677  28.807  1.00  0.00     0.117 C 
ENDROOT
BRANCH   7   8
ATOM      8  O   UNL     1      12.508  17.272  28.693  1.00  0.00    -0.393 OA
ATOM      9  H   UNL     1      12.323  17.720  29.559  1.00  0.00     0.210 HD
ENDBRANCH   7   8
BRANCH   5  10
ATOM     10  C   UNL     1      15.013  13.675  30.963  1.00  0.00    -0.077 C 
ATOM     11  C   UNL     1      14.619  13.906  32.227  1.00  0.00     0.008 C 
ATOM     12  C   UNL     1      15.411  12.275  30.575  1.00  0.00     0.039 C 
ENDBRANCH   5  10
TORSDOF 2
ENDMDL
MODEL 5
REMARK VINA RESULT:    -4.897      2.171      4.740
REMARK INTER + INTRA:          -5.421
REMARK INTER:                  -5.325
REMARK INTRA:                  -0.096
REMARK UNBOUND:                -0.094
REMARK SMILES C=C(C)[C@H]1CC[C@H](C)[C@@H](O)C1
REMARK SMILES IDX 8 1 7 2 6 3 5 4 4 5 11 6 9 7 10 8 2 10 1 11 3 12
REMARK H PARENT 10 9
REMARK Flexibility Score: inf
ROOT
ATOM      1  C   UNL     1      13.323  15.334  29.347  1.00  0.00     0.010 C 
ATOM      2  C   UNL     1      13.586  15.800  27.909  1.00  0.00     0.015 C 
ATOM      3  C   UNL     1      12.595  15.117  26.944  1.00  0.00     0.006 C 
ATOM      4  C   UNL     1      12.821  15.574  25.499  1.00  0.00     0.008 C 
ATOM      5  C   UNL     1      12.709  17.107  25.387  1.00  0.00     0.017 C 
ATOM      6  C   UNL     1      13.705  17.795  26.342  1.00  0.00     0.040 C 
ATOM      7  C   UNL     1      13.484  17.339  27.796  1.00  0.00     0.117 C 
ENDROOT
BRANCH   7   8
ATOM      8  O   UNL     1      14.453  17.936  28.621  1.00  0.00    -0.393 OA
ATOM      9  H   UNL     1      15.317  17.881  28.135  1.00  0.00     0.210 HD
ENDBRANCH   7   8
BRANCH   5  10
ATOM     10  C   UNL     1      12.902  17.574  23.950  1.00  0.00    -0.077 C 
ATOM     11  C   UNL     1      14.059  18.125  23.544  1.00  0.00     0.008 C 
ATOM     12  C   UNL     1      11.784  17.425  22.951  1.00  0.00     0.039 C 
ENDBRANCH   5  10
TORSDOF 2
ENDMDL
MODEL 6
REMARK VINA RESULT:    -4.867      1.859      2.417
REMARK INTER + INTRA:          -5.387
REMARK INTER:                  -5.292
REMARK INTRA:                  -0.095
REMARK UNBOUND:                -0.094
REMARK SMILES C=C(C)[C@H]1CC[C@H](C)[C@@H](O)C1
REMARK SMILES IDX 8 1 7 2 6 3 5 4 4 5 11 6 9 7 10 8 2 10 1 11 3 12
REMARK H PARENT 10 9
REMARK Flexibility Score: inf
ROOT
ATOM      1  C   UNL     1      12.490  17.777  23.099  1.00  0.00     0.010 C 
ATOM      2  C   UNL     1      12.878  17.548  24.566  1.00  0.00     0.015 C 
ATOM      3  C   UNL     1      11.945  16.494  25.200  1.00  0.00     0.006 C 
ATOM      4  C   UNL     1      12.318  16.230  26.663  1.00  0.00     0.008 C 
ATOM      5  C   UNL     1      13.789  15.787  26.781  1.00  0.00     0.017 C 
ATOM      6  C   UNL     1      14.725  16.841  26.159  1.00  0.00     0.040 C 
ATOM      7  C   UNL     1      14.357  17.112  24.688  1.00  0.00     0.117 C 
ENDROOT
BRANCH   7   8
ATOM      8  O   UNL     1      15.188  18.125  24.181  1.00  0.00    -0.393 OA
ATOM      9  H   UNL     1      15.241  18.829  24.878  1.00  0.00     0.210 HD
ENDBRANCH   7   8
BRANCH   5  10
ATOM     10  C   UNL     1      14.165  15.493  28.228  1.00  0.00    -0.077 C 
ATOM     11  C   UNL     1      13.253  15.554  29.213  1.00  0.00     0.008 C 
ATOM     12  C   UNL     1      15.584  15.125  28.579  1.00  0.00     0.039 C 
ENDBRANCH   5  10
TORSDOF 2
ENDMDL
MODEL 7
REMARK VINA RESULT:    -4.700      2.104      4.567
REMARK INTER + INTRA:          -5.206
REMARK INTER:                  -5.111
REMARK INTRA:                  -0.095
REMARK UNBOUND:                -0.094
REMARK SMILES C=C(C)[C@H]1CC[C@H](C)[C@@H](O)C1
REMARK SMILES IDX 8 1 7 2 6 3 5 4 4 5 11 6 9 7 10 8 2 10 1 11 3 12
REMARK H PARENT 10 9
REMARK Flexibility Score: inf
ROOT
ATOM      1  C   UNL     1      14.624  14.754  30.103  1.00  0.00     0.010 C 
ATOM      2  C   UNL     1      14.331  14.974  28.613  1.00  0.00     0.015 C 
ATOM      3  C   UNL     1      12.855  15.380  28.421  1.00  0.00     0.006 C 
ATOM      4  C   UNL     1      12.533  15.624  26.942  1.00  0.00     0.008 C 
ATOM      5  C   UNL     1      13.468  16.696  26.350  1.00  0.00     0.017 C 
ATOM      6  C   UNL     1      14.943  16.291  26.530  1.00  0.00     0.040 C 
ATOM      7  C   UNL     1      15.274  16.044  28.014  1.00  0.00     0.117 C 
ENDROOT
BRANCH   7   8
ATOM      8  O   UNL     1      16.606  15.611  28.126  1.00  0.00    -0.393 OA
ATOM      9  H   UNL     1      17.029  16.163  28.835  1.00  0.00     0.210 HD
ENDBRANCH   7   8
BRANCH   5  10
ATOM     10  C   UNL     1      13.140  16.971  24.887  1.00  0.00    -0.077 C 
ATOM     11  C   UNL     1      12.128  16.339  24.268  1.00  0.00     0.008 C 
ATOM     12  C   UNL     1      13.958  17.965  24.104  1.00  0.00     0.039 C 
ENDBRANCH   5  10
TORSDOF 2
ENDMDL
MODEL 8
REMARK VINA RESULT:    -4.392      1.954      4.645
REMARK INTER + INTRA:          -4.871
REMARK INTER:                  -4.776
REMARK INTRA:                  -0.095
REMARK UNBOUND:                -0.094
REMARK SMILES C=C(C)[C@H]1CC[C@H](C)[C@@H](O)C1
REMARK SMILES IDX 8 1 7 2 6 3 5 4 4 5 11 6 9 7 10 8 2 10 1 11 3 12
REMARK H PARENT 10 9
REMARK Flexibility Score: inf
ROOT
ATOM      1  C   UNL     1      13.520  16.200  29.074  1.00  0.00     0.010 C 
ATOM      2  C   UNL     1      13.056  16.330  27.618  1.00  0.00     0.015 C 
ATOM      3  C   UNL     1      12.593  17.776  27.339  1.00  0.00     0.006 C 
ATOM      4  C   UNL     1      12.138  17.944  25.886  1.00  0.00     0.008 C 
ATOM      5  C   UNL     1      13.261  17.541  24.911  1.00  0.00     0.017 C 
ATOM      6  C   UNL     1      13.719  16.094  25.178  1.00  0.00     0.040 C 
ATOM      7  C   UNL     1      14.178  15.917  26.638  1.00  0.00     0.117 C 
ENDROOT
BRANCH   7   8
ATOM      8  O   UNL     1      14.522  14.572  26.856  1.00  0.00    -0.393 OA
ATOM      9  H   UNL     1      13.781  14.023  26.487  1.00  0.00     0.210 HD
ENDBRANCH   7   8
BRANCH   5  10
ATOM     10  C   UNL     1      12.832  17.730  23.461  1.00  0.00    -0.077 C 
ATOM     11  C   UNL     1      11.555  17.551  23.081  1.00  0.00     0.008 C 
ATOM     12  C   UNL     1      13.846  18.124  22.419  1.00  0.00     0.039 C 
ENDBRANCH   5  10
TORSDOF 2
ENDMDL
MODEL 9
REMARK VINA RESULT:    -4.080      1.694      2.654
REMARK INTER + INTRA:          -4.531
REMARK INTER:                  -4.436
REMARK INTRA:                  -0.095
REMARK UNBOUND:                -0.094
REMARK SMILES C=C(C)[C@H]1CC[C@H](C)[C@@H](O)C1
REMARK SMILES IDX 8 1 7 2 6 3 5 4 4 5 11 6 9 7 10 8 2 10 1 11 3 12
REMARK H PARENT 10 9
REMARK Flexibility Score: inf
ROOT
ATOM      1  C   UNL     1      13.256  17.686  26.809  1.00  0.00     0.010 C 
ATOM      2  C   UNL     1      13.953  16.885  27.916  1.00  0.00     0.015 C 
ATOM      3  C   UNL     1      12.957  16.579  29.054  1.00  0.00     0.006 C 
ATOM      4  C   UNL     1      13.620  15.764  30.170  1.00  0.00     0.008 C 
ATOM      5  C   UNL     1      14.216  14.458  29.612  1.00  0.00     0.017 C 
ATOM      6  C   UNL     1      15.220  14.757  28.482  1.00  0.00     0.040 C 
ATOM      7  C   UNL     1      14.561  15.577  27.357  1.00  0.00     0.117 C 
ENDROOT
BRANCH   7   8
ATOM      8  O   UNL     1      15.525  15.886  26.383  1.00  0.00    -0.393 OA
ATOM      9  H   UNL     1      15.038  16.275  25.610  1.00  0.00     0.210 HD
ENDBRANCH   7   8
BRANCH   5  10
ATOM     10  C   UNL     1      14.853  13.623  30.716  1.00  0.00    -0.077 C 
ATOM     11  C   UNL     1      14.812  14.015  32.001  1.00  0.00     0.008 C 
ATOM     12  C   UNL     1      15.548  12.329  30.378  1.00  0.00     0.039 C 
ENDBRANCH   5  10
TORSDOF 2
ENDMDL
