MODEL 1
REMARK VINA RESULT:    -3.340      0.000      0.000
REMARK INTER + INTRA:          -4.416
REMARK INTER:                  -4.121
REMARK INTRA:                  -0.296
REMARK UNBOUND:                -0.296
REMARK SMILES C=CCc1ccc(OC)c(OC)c1
REMARK SMILES IDX 7 1 10 2 13 3 4 4 5 5 6 6 8 7 9 8 11 9 12 10 3 11 2 12 1 13
REMARK H PARENT
REMARK Flexibility Score: inf
ROOT
ATOM      1  C   UNL     1     132.293 141.813 140.545  1.00  0.00     0.160 A 
ATOM      2  C   UNL     1     132.874 143.079 140.720  1.00  0.00     0.160 A 
ATOM      3  C   UNL     1     134.122 143.190 141.364  1.00  0.00     0.054 A 
ATOM      4  C   UNL     1     134.791 142.046 141.826  1.00  0.00    -0.040 A 
ATOM      5  C   UNL     1     134.199 140.788 141.656  1.00  0.00     0.008 A 
ATOM      6  C   UNL     1     132.963 140.669 141.018  1.00  0.00     0.051 A 
ENDROOT
BRANCH   1   7
ATOM      7  O   UNL     1     131.050 141.733 139.897  1.00  0.00    -0.493 OA
ATOM      8  C   UNL     1     130.879 141.489 138.505  1.00  0.00     0.278 C 
ENDBRANCH   1   7
BRANCH   2   9
ATOM      9  O   UNL     1     132.181 144.202 140.242  1.00  0.00    -0.493 OA
ATOM     10  C   UNL     1     132.446 144.848 139.002  1.00  0.00     0.278 C 
ENDBRANCH   2   9
BRANCH   4  11
ATOM     11  C   UNL     1     136.110 142.177 142.540  1.00  0.00     0.062 C 
BRANCH  11  12
ATOM     12  C   UNL     1     135.971 141.806 143.989  1.00  0.00    -0.030 C 
ATOM     13  C   UNL     1     136.462 142.580 144.963  1.00  0.00     0.004 C 
ENDBRANCH  11  12
ENDBRANCH   4  11
TORSDOF 4
ENDMDL
MODEL 2
REMARK VINA RESULT:    -3.299      9.635     10.979
REMARK INTER + INTRA:          -4.366
REMARK INTER:                  -4.078
REMARK INTRA:                  -0.288
REMARK UNBOUND:                -0.296
REMARK SMILES C=CCc1ccc(OC)c(OC)c1
REMARK SMILES IDX 7 1 10 2 13 3 4 4 5 5 6 6 8 7 9 8 11 9 12 10 3 11 2 12 1 13
REMARK H PARENT
REMARK Flexibility Score: inf
ROOT
ATOM      1  C   UNL     1     139.956 132.335 140.538  1.00  0.00     0.160 A 
ATOM      2  C   UNL     1     138.666 132.788 140.857  1.00  0.00     0.160 A 
ATOM      3  C   UNL     1     138.504 134.022 141.520  1.00  0.00     0.054 A 
ATOM      4  C   UNL     1     139.621 134.802 141.857  1.00  0.00    -0.040 A 
ATOM      5  C   UNL     1     140.904 134.338 141.543  1.00  0.00     0.008 A 
ATOM      6  C   UNL     1     141.074 133.118 140.886  1.00  0.00     0.051 A 
ENDROOT
BRANCH   1   7
ATOM      7  O   UNL     1     140.086 131.104 139.876  1.00  0.00    -0.493 OA
ATOM      8  C   UNL     1     140.263 130.959 138.471  1.00  0.00     0.278 C 
ENDBRANCH   1   7
BRANCH   2   9
ATOM      9  O   UNL     1     137.571 131.985 140.502  1.00  0.00    -0.493 OA
ATOM     10  C   UNL     1     136.790 132.158 139.324  1.00  0.00     0.278 C 
ENDBRANCH   2   9
BRANCH   4  11
ATOM     11  C   UNL     1     139.440 136.104 142.591  1.00  0.00     0.062 C 
BRANCH  11  12
ATOM     12  C   UNL     1     139.683 135.925 144.063  1.00  0.00    -0.030 C 
ATOM     13  C   UNL     1     138.983 136.602 144.979  1.00  0.00     0.004 C 
ENDBRANCH  11  12
ENDBRANCH   4  11
TORSDOF 4
ENDMDL
MODEL 3
REMARK VINA RESULT:    -3.290     13.553     15.511
REMARK INTER + INTRA:          -4.355
REMARK INTER:                  -4.084
REMARK INTRA:                  -0.271
REMARK UNBOUND:                -0.296
REMARK SMILES C=CCc1ccc(OC)c(OC)c1
REMARK SMILES IDX 7 1 10 2 13 3 4 4 5 5 6 6 8 7 9 8 11 9 12 10 3 11 2 12 1 13
REMARK H PARENT
REMARK Flexibility Score: inf
ROOT
ATOM      1  C   UNL     1     149.347 139.989 140.472  1.00  0.00     0.160 A 
ATOM      2  C   UNL     1     148.962 138.705 140.889  1.00  0.00     0.160 A 
ATOM      3  C   UNL     1     147.737 138.530 141.565  1.00  0.00     0.054 A 
ATOM      4  C   UNL     1     146.899 139.626 141.818  1.00  0.00    -0.040 A 
ATOM      5  C   UNL     1     147.295 140.905 141.407  1.00  0.00     0.008 A 
ATOM      6  C   UNL     1     148.507 141.088 140.736  1.00  0.00     0.051 A 
ENDROOT
BRANCH   1   7
ATOM      7  O   UNL     1     150.570 140.133 139.799  1.00  0.00    -0.493 OA
ATOM      8  C   UNL     1     150.704 140.278 138.389  1.00  0.00     0.278 C 
ENDBRANCH   1   7
BRANCH   2   9
ATOM      9  O   UNL     1     149.821 137.630 140.616  1.00  0.00    -0.493 OA
ATOM     10  C   UNL     1     149.756 136.820 139.447  1.00  0.00     0.278 C 
ENDBRANCH   2   9
BRANCH   4  11
ATOM     11  C   UNL     1     145.607 139.434 142.567  1.00  0.00     0.062 C 
BRANCH  11  12
ATOM     12  C   UNL     1     145.786 139.742 144.027  1.00  0.00    -0.030 C 
ATOM     13  C   UNL     1     145.123 139.069 144.973  1.00  0.00     0.004 C 
ENDBRANCH  11  12
ENDBRANCH   4  11
TORSDOF 4
ENDMDL
MODEL 4
REMARK VINA RESULT:    -3.204      3.919      6.561
REMARK INTER + INTRA:          -4.249
REMARK INTER:                  -3.967
REMARK INTRA:                  -0.282
REMARK UNBOUND:                -0.296
REMARK SMILES C=CCc1ccc(OC)c(OC)c1
REMARK SMILES IDX 7 1 10 2 13 3 4 4 5 5 6 6 8 7 9 8 11 9 12 10 3 11 2 12 1 13
REMARK H PARENT
REMARK Flexibility Score: inf
ROOT
ATOM      1  C   UNL     1     138.549 142.492 144.199  1.00  0.00     0.160 A 
ATOM      2  C   UNL     1     138.397 142.299 142.817  1.00  0.00     0.160 A 
ATOM      3  C   UNL     1     137.111 142.085 142.280  1.00  0.00     0.054 A 
ATOM      4  C   UNL     1     135.983 142.070 143.115  1.00  0.00    -0.040 A 
ATOM      5  C   UNL     1     136.145 142.254 144.494  1.00  0.00     0.008 A 
ATOM      6  C   UNL     1     137.415 142.467 145.034  1.00  0.00     0.051 A 
ENDROOT
BRANCH   1   7
ATOM      7  O   UNL     1     139.841 142.705 144.705  1.00  0.00    -0.493 OA
ATOM      8  C   UNL     1     140.356 143.973 145.095  1.00  0.00     0.278 C 
ENDBRANCH   1   7
BRANCH   2   9
ATOM      9  O   UNL     1     139.545 142.324 142.010  1.00  0.00    -0.493 OA
ATOM     10  C   UNL     1     139.841 143.340 141.058  1.00  0.00     0.278 C 
ENDBRANCH   2   9
BRANCH   4  11
ATOM     11  C   UNL     1     134.617 141.811 142.536  1.00  0.00     0.062 C 
BRANCH  11  12
ATOM     12  C   UNL     1     134.681 140.755 141.471  1.00  0.00    -0.030 C 
ATOM     13  C   UNL     1     133.593 140.080 141.084  1.00  0.00     0.004 C 
ENDBRANCH  11  12
ENDBRANCH   4  11
TORSDOF 4
ENDMDL
MODEL 5
REMARK VINA RESULT:    -3.173      9.132     10.024
REMARK INTER + INTRA:          -4.211
REMARK INTER:                  -3.913
REMARK INTRA:                  -0.298
REMARK UNBOUND:                -0.296
REMARK SMILES C=CCc1ccc(OC)c(OC)c1
REMARK SMILES IDX 7 1 10 2 13 3 4 4 5 5 6 6 8 7 9 8 11 9 12 10 3 11 2 12 1 13
REMARK H PARENT
REMARK Flexibility Score: inf
ROOT
ATOM      1  C   UNL     1     142.142 145.396 143.117  1.00  0.00     0.160 A 
ATOM      2  C   UNL     1     142.112 144.189 142.400  1.00  0.00     0.160 A 
ATOM      3  C   UNL     1     142.423 142.981 143.056  1.00  0.00     0.054 A 
ATOM      4  C   UNL     1     142.757 142.974 144.419  1.00  0.00    -0.040 A 
ATOM      5  C   UNL     1     142.794 144.184 145.124  1.00  0.00     0.008 A 
ATOM      6  C   UNL     1     142.485 145.385 144.483  1.00  0.00     0.051 A 
ENDROOT
BRANCH   1   7
ATOM      7  O   UNL     1     141.825 146.583 142.439  1.00  0.00    -0.493 OA
ATOM      8  C   UNL     1     142.785 147.504 141.932  1.00  0.00     0.278 C 
ENDBRANCH   1   7
BRANCH   2   9
ATOM      9  O   UNL     1     141.770 144.231 141.039  1.00  0.00    -0.493 OA
ATOM     10  C   UNL     1     142.705 144.146 139.969  1.00  0.00     0.278 C 
ENDBRANCH   2   9
BRANCH   4  11
ATOM     11  C   UNL     1     143.117 141.682 145.103  1.00  0.00     0.062 C 
BRANCH  11  12
ATOM     12  C   UNL     1     143.983 140.833 144.217  1.00  0.00    -0.030 C 
ATOM     13  C   UNL     1     145.007 140.126 144.704  1.00  0.00     0.004 C 
ENDBRANCH  11  12
ENDBRANCH   4  11
TORSDOF 4
ENDMDL
MODEL 6
REMARK VINA RESULT:    -3.168      6.918      8.586
REMARK INTER + INTRA:          -4.205
REMARK INTER:                  -3.920
REMARK INTRA:                  -0.284
REMARK UNBOUND:                -0.296
REMARK SMILES C=CCc1ccc(OC)c(OC)c1
REMARK SMILES IDX 7 1 10 2 13 3 4 4 5 5 6 6 8 7 9 8 11 9 12 10 3 11 2 12 1 13
REMARK H PARENT
REMARK Flexibility Score: inf
ROOT
ATOM      1  C   UNL     1     139.119 138.644 144.021  1.00  0.00     0.160 A 
ATOM      2  C   UNL     1     139.251 138.456 142.636  1.00  0.00     0.160 A 
ATOM      3  C   UNL     1     139.438 137.156 142.124  1.00  0.00     0.054 A 
ATOM      4  C   UNL     1     139.487 136.050 142.986  1.00  0.00    -0.040 A 
ATOM      5  C   UNL     1     139.364 136.248 144.367  1.00  0.00     0.008 A 
ATOM      6  C   UNL     1     139.178 137.532 144.882  1.00  0.00     0.051 A 
ENDROOT
BRANCH   1   7
ATOM      7  O   UNL     1     138.932 139.950 144.502  1.00  0.00    -0.493 OA
ATOM      8  C   UNL     1     137.739 140.417 145.122  1.00  0.00     0.278 C 
ENDBRANCH   1   7
BRANCH   2   9
ATOM      9  O   UNL     1     139.193 139.583 141.801  1.00  0.00    -0.493 OA
ATOM     10  C   UNL     1     138.034 140.002 141.089  1.00  0.00     0.278 C 
ENDBRANCH   2   9
BRANCH   4  11
ATOM     11  C   UNL     1     139.717 134.669 142.432  1.00  0.00     0.062 C 
BRANCH  11  12
ATOM     12  C   UNL     1     140.812 134.682 141.403  1.00  0.00    -0.030 C 
ATOM     13  C   UNL     1     141.637 133.643 141.242  1.00  0.00     0.004 C 
ENDBRANCH  11  12
ENDBRANCH   4  11
TORSDOF 4
ENDMDL
MODEL 7
REMARK VINA RESULT:    -3.166      9.645     11.688
REMARK INTER + INTRA:          -4.202
REMARK INTER:                  -3.925
REMARK INTRA:                  -0.278
REMARK UNBOUND:                -0.296
REMARK SMILES C=CCc1ccc(OC)c(OC)c1
REMARK SMILES IDX 7 1 10 2 13 3 4 4 5 5 6 6 8 7 9 8 11 9 12 10 3 11 2 12 1 13
REMARK H PARENT
REMARK Flexibility Score: inf
ROOT
ATOM      1  C   UNL     1     143.102 139.183 144.199  1.00  0.00     0.160 A 
ATOM      2  C   UNL     1     143.244 139.280 142.806  1.00  0.00     0.160 A 
ATOM      3  C   UNL     1     144.527 139.450 142.246  1.00  0.00     0.054 A 
ATOM      4  C   UNL     1     145.661 139.516 143.069  1.00  0.00    -0.040 A 
ATOM      5  C   UNL     1     145.509 139.428 144.459  1.00  0.00     0.008 A 
ATOM      6  C   UNL     1     144.242 139.259 145.021  1.00  0.00     0.051 A 
ENDROOT
BRANCH   1   7
ATOM      7  O   UNL     1     141.812 139.012 144.728  1.00  0.00    -0.493 OA
ATOM      8  C   UNL     1     141.263 137.760 145.125  1.00  0.00     0.278 C 
ENDBRANCH   1   7
BRANCH   2   9
ATOM      9  O   UNL     1     142.090 139.206 142.011  1.00  0.00    -0.493 OA
ATOM     10  C   UNL     1     141.617 138.020 141.381  1.00  0.00     0.278 C 
ENDBRANCH   2   9
BRANCH   4  11
ATOM     11  C   UNL     1     147.024 139.728 142.465  1.00  0.00     0.062 C 
BRANCH  11  12
ATOM     12  C   UNL     1     147.006 140.879 141.500  1.00  0.00    -0.030 C 
ATOM     13  C   UNL     1     148.127 141.514 141.143  1.00  0.00     0.004 C 
ENDBRANCH  11  12
ENDBRANCH   4  11
TORSDOF 4
ENDMDL
MODEL 8
REMARK VINA RESULT:    -3.135      8.903     10.096
REMARK INTER + INTRA:          -4.164
REMARK INTER:                  -3.885
REMARK INTRA:                  -0.280
REMARK UNBOUND:                -0.296
REMARK SMILES C=CCc1ccc(OC)c(OC)c1
REMARK SMILES IDX 7 1 10 2 13 3 4 4 5 5 6 6 8 7 9 8 11 9 12 10 3 11 2 12 1 13
REMARK H PARENT
REMARK Flexibility Score: inf
ROOT
ATOM      1  C   UNL     1     142.350 143.243 143.873  1.00  0.00     0.160 A 
ATOM      2  C   UNL     1     142.265 143.386 142.479  1.00  0.00     0.160 A 
ATOM      3  C   UNL     1     142.131 144.672 141.917  1.00  0.00     0.054 A 
ATOM      4  C   UNL     1     142.089 145.808 142.739  1.00  0.00    -0.040 A 
ATOM      5  C   UNL     1     142.165 145.656 144.129  1.00  0.00     0.008 A 
ATOM      6  C   UNL     1     142.298 144.386 144.694  1.00  0.00     0.051 A 
ENDROOT
BRANCH   1   7
ATOM      7  O   UNL     1     142.485 141.950 144.404  1.00  0.00    -0.493 OA
ATOM      8  C   UNL     1     143.622 141.489 145.125  1.00  0.00     0.278 C 
ENDBRANCH   1   7
BRANCH   2   9
ATOM      9  O   UNL     1     142.315 142.229 141.686  1.00  0.00    -0.493 OA
ATOM     10  C   UNL     1     143.480 141.758 141.016  1.00  0.00     0.278 C 
ENDBRANCH   2   9
BRANCH   4  11
ATOM     11  C   UNL     1     141.916 147.175 142.131  1.00  0.00     0.062 C 
BRANCH  11  12
ATOM     12  C   UNL     1     140.617 147.265 141.382  1.00  0.00    -0.030 C 
ATOM     13  C   UNL     1     139.888 148.386 141.373  1.00  0.00     0.004 C 
ENDBRANCH  11  12
ENDBRANCH   4  11
TORSDOF 4
ENDMDL
