MODEL 1
REMARK VINA RESULT:    -2.576      0.000      0.000
REMARK INTER + INTRA:          -2.576
REMARK INTER:                  -2.576
REMARK INTRA:                   0.000
REMARK UNBOUND:                 0.000
REMARK SMILES CC(=O)[O-]
REMARK SMILES IDX 1 1 2 2 3 3 4 4
REMARK H PARENT
REMARK Flexibility Score: inf
ROOT
ATOM      1  C   UNL     1     -21.798  31.573   8.416  1.00  0.00     0.063 C 
ATOM      2  C   UNL     1     -23.265  31.413   8.207  1.00  0.00     0.038 C 
ATOM      3  O   UNL     1     -24.046  32.371   8.448  1.00  0.00    -0.550 OA
ATOM      4  O   UNL     1     -23.770  30.226   7.695  1.00  0.00    -0.550 OA
ENDROOT
TORSDOF 0
ENDMDL
MODEL 2
REMARK VINA RESULT:    -2.457      1.793      2.096
REMARK INTER + INTRA:          -2.457
REMARK INTER:                  -2.457
REMARK INTRA:                   0.000
REMARK UNBOUND:                 0.000
REMARK SMILES CC(=O)[O-]
REMARK SMILES IDX 1 1 2 2 3 3 4 4
REMARK H PARENT
REMARK Flexibility Score: inf
ROOT
ATOM      1  C   UNL     1     -20.130  31.635   8.025  1.00  0.00     0.063 C 
ATOM      2  C   UNL     1     -21.613  31.587   8.177  1.00  0.00     0.038 C 
ATOM      3  O   UNL     1     -22.355  31.681   7.165  1.00  0.00    -0.550 OA
ATOM      4  O   UNL     1     -22.177  31.384   9.429  1.00  0.00    -0.550 OA
ENDROOT
TORSDOF 0
ENDMDL
MODEL 3
REMARK VINA RESULT:    -2.433      1.398      1.765
REMARK INTER + INTRA:          -2.433
REMARK INTER:                  -2.433
REMARK INTRA:                   0.000
REMARK UNBOUND:                 0.000
REMARK SMILES CC(=O)[O-]
REMARK SMILES IDX 1 1 2 2 3 3 4 4
REMARK H PARENT
REMARK Flexibility Score: inf
ROOT
ATOM      1  C   UNL     1     -23.769  30.174   7.658  1.00  0.00     0.063 C 
ATOM      2  C   UNL     1     -23.333  31.426   8.341  1.00  0.00     0.038 C 
ATOM      3  O   UNL     1     -24.124  32.401   8.438  1.00  0.00    -0.550 OA
ATOM      4  O   UNL     1     -22.073  31.500   8.920  1.00  0.00    -0.550 OA
ENDROOT
TORSDOF 0
ENDMDL
MODEL 4
REMARK VINA RESULT:    -1.983     19.279     19.685
REMARK INTER + INTRA:          -1.983
REMARK INTER:                  -1.983
REMARK INTRA:                   0.000
REMARK UNBOUND:                 0.000
REMARK SMILES CC(=O)[O-]
REMARK SMILES IDX 1 1 2 2 3 3 4 4
REMARK H PARENT
REMARK Flexibility Score: inf
ROOT
ATOM      1  C   UNL     1      -8.474  43.123   7.624  1.00  0.00     0.063 C 
ATOM      2  C   UNL     1      -7.104  42.596   7.362  1.00  0.00     0.038 C 
ATOM      3  O   UNL     1      -6.204  42.716   8.234  1.00  0.00    -0.550 OA
ATOM      4  O   UNL     1      -6.831  41.925   6.178  1.00  0.00    -0.550 OA
ENDROOT
TORSDOF 0
ENDMDL
MODEL 5
REMARK VINA RESULT:    -1.965      6.338      6.901
REMARK INTER + INTRA:          -1.965
REMARK INTER:                  -1.965
REMARK INTRA:                   0.000
REMARK UNBOUND:                 0.000
REMARK SMILES CC(=O)[O-]
REMARK SMILES IDX 1 1 2 2 3 3 4 4
REMARK H PARENT
REMARK Flexibility Score: inf
ROOT
ATOM      1  C   UNL     1     -22.838  26.238  10.349  1.00  0.00     0.063 C 
ATOM      2  C   UNL     1     -22.027  25.053   9.947  1.00  0.00     0.038 C 
ATOM      3  O   UNL     1     -21.857  24.101  10.754  1.00  0.00    -0.550 OA
ATOM      4  O   UNL     1     -21.502  24.971   8.664  1.00  0.00    -0.550 OA
ENDROOT
TORSDOF 0
ENDMDL
MODEL 6
REMARK VINA RESULT:    -1.880     20.168     20.381
REMARK INTER + INTRA:          -1.880
REMARK INTER:                  -1.880
REMARK INTRA:                   0.000
REMARK UNBOUND:                 0.000
REMARK SMILES CC(=O)[O-]
REMARK SMILES IDX 1 1 2 2 3 3 4 4
REMARK H PARENT
REMARK Flexibility Score: inf
ROOT
ATOM      1  C   UNL     1      -6.185  41.943   5.277  1.00  0.00     0.063 C 
ATOM      2  C   UNL     1      -5.703  41.464   6.604  1.00  0.00     0.038 C 
ATOM      3  O   UNL     1      -4.772  40.618   6.670  1.00  0.00    -0.550 OA
ATOM      4  O   UNL     1      -6.241  41.989   7.771  1.00  0.00    -0.550 OA
ENDROOT
TORSDOF 0
ENDMDL
MODEL 7
REMARK VINA RESULT:    -1.868      5.303      6.001
REMARK INTER + INTRA:          -1.868
REMARK INTER:                  -1.868
REMARK INTRA:                   0.000
REMARK UNBOUND:                 0.000
REMARK SMILES CC(=O)[O-]
REMARK SMILES IDX 1 1 2 2 3 3 4 4
REMARK H PARENT
REMARK Flexibility Score: inf
ROOT
ATOM      1  C   UNL     1     -23.528  26.634   7.390  1.00  0.00     0.063 C 
ATOM      2  C   UNL     1     -23.219  25.745   8.547  1.00  0.00     0.038 C 
ATOM      3  O   UNL     1     -23.097  24.503   8.375  1.00  0.00    -0.550 OA
ATOM      4  O   UNL     1     -23.012  26.289   9.807  1.00  0.00    -0.550 OA
ENDROOT
TORSDOF 0
ENDMDL
MODEL 8
REMARK VINA RESULT:    -1.846      6.338      6.690
REMARK INTER + INTRA:          -1.846
REMARK INTER:                  -1.846
REMARK INTRA:                   0.000
REMARK UNBOUND:                 0.000
REMARK SMILES CC(=O)[O-]
REMARK SMILES IDX 1 1 2 2 3 3 4 4
REMARK H PARENT
REMARK Flexibility Score: inf
ROOT
ATOM      1  C   UNL     1     -21.849  24.877   8.731  1.00  0.00     0.063 C 
ATOM      2  C   UNL     1     -22.091  25.285  10.145  1.00  0.00     0.038 C 
ATOM      3  O   UNL     1     -22.645  26.388  10.398  1.00  0.00    -0.550 OA
ATOM      4  O   UNL     1     -21.755  24.429  11.184  1.00  0.00    -0.550 OA
ENDROOT
TORSDOF 0
ENDMDL
