MODEL 1
REMARK VINA RESULT:    -3.660      0.000      0.000
REMARK INTER + INTRA:          -5.130
REMARK INTER:                  -4.944
REMARK INTRA:                  -0.186
REMARK UNBOUND:                -0.186
REMARK SMILES CCCCCCCC(=O)[O-]
REMARK SMILES IDX 5 1 6 2 7 3 8 4 9 5 10 6 4 7 3 8 2 9 1 10
REMARK H PARENT
REMARK Flexibility Score: inf
ROOT
ATOM      1  C   UNL     1      -6.374  26.801   2.168  1.00  0.00     0.000 C 
ENDROOT
BRANCH   1   2
ATOM      2  C   UNL     1      -6.187  25.833   0.993  1.00  0.00     0.006 C 
BRANCH   2   3
ATOM      3  C   UNL     1      -6.732  24.443   1.333  1.00  0.00     0.053 C 
BRANCH   3   4
ATOM      4  C   UNL     1      -8.164  24.324   0.915  1.00  0.00     0.041 C 
ATOM      5  O   UNL     1      -8.495  23.508   0.016  1.00  0.00    -0.550 OA
ATOM      6  O   UNL     1      -9.140  25.078   1.554  1.00  0.00    -0.550 OA
ENDBRANCH   3   4
ENDBRANCH   2   3
ENDBRANCH   1   2
BRANCH   1   7
ATOM      7  C   UNL     1      -5.926  26.156   3.489  1.00  0.00     0.000 C 
BRANCH   7   8
ATOM      8  C   UNL     1      -7.060  26.076   4.524  1.00  0.00    -0.000 C 
BRANCH   8   9
ATOM      9  C   UNL     1      -6.577  26.368   5.952  1.00  0.00    -0.003 C 
ATOM     10  C   UNL     1      -7.510  25.743   6.986  1.00  0.00     0.004 C 
ENDBRANCH   8   9
ENDBRANCH   7   8
ENDBRANCH   1   7
TORSDOF 6
ENDMDL
MODEL 2
REMARK VINA RESULT:    -3.585      1.917      2.371
REMARK INTER + INTRA:          -5.027
REMARK INTER:                  -4.751
REMARK INTRA:                  -0.276
REMARK UNBOUND:                -0.186
REMARK SMILES CCCCCCCC(=O)[O-]
REMARK SMILES IDX 5 1 6 2 7 3 8 4 9 5 10 6 4 7 3 8 2 9 1 10
REMARK H PARENT
REMARK Flexibility Score: inf
ROOT
ATOM      1  C   UNL     1      -6.617  26.916   2.101  1.00  0.00     0.000 C 
ENDROOT
BRANCH   1   2
ATOM      2  C   UNL     1      -6.632  25.763   1.090  1.00  0.00     0.006 C 
BRANCH   2   3
ATOM      3  C   UNL     1      -5.241  25.143   0.942  1.00  0.00     0.053 C 
BRANCH   3   4
ATOM      4  C   UNL     1      -5.268  23.696   1.323  1.00  0.00     0.041 C 
ATOM      5  O   UNL     1      -6.096  23.282   2.176  1.00  0.00    -0.550 OA
ATOM      6  O   UNL     1      -4.413  22.796   0.699  1.00  0.00    -0.550 OA
ENDBRANCH   3   4
ENDBRANCH   2   3
ENDBRANCH   1   2
BRANCH   1   7
ATOM      7  C   UNL     1      -7.579  26.639   3.266  1.00  0.00     0.000 C 
BRANCH   7   8
ATOM      8  C   UNL     1      -6.856  26.138   4.526  1.00  0.00    -0.000 C 
BRANCH   8   9
ATOM      9  C   UNL     1      -7.828  25.647   5.609  1.00  0.00    -0.003 C 
ATOM     10  C   UNL     1      -7.330  26.021   7.003  1.00  0.00     0.004 C 
ENDBRANCH   8   9
ENDBRANCH   7   8
ENDBRANCH   1   7
TORSDOF 6
ENDMDL
MODEL 3
REMARK VINA RESULT:    -3.513      3.467      5.436
REMARK INTER + INTRA:          -4.931
REMARK INTER:                  -4.670
REMARK INTRA:                  -0.261
REMARK UNBOUND:                -0.186
REMARK SMILES CCCCCCCC(=O)[O-]
REMARK SMILES IDX 5 1 6 2 7 3 8 4 9 5 10 6 4 7 3 8 2 9 1 10
REMARK H PARENT
REMARK Flexibility Score: inf
ROOT
ATOM      1  C   UNL     1      -3.998  24.472   0.914  1.00  0.00     0.000 C 
ENDROOT
BRANCH   1   2
ATOM      2  C   UNL     1      -5.216  23.685   1.413  1.00  0.00     0.006 C 
BRANCH   2   3
ATOM      3  C   UNL     1      -6.122  24.564   2.279  1.00  0.00     0.053 C 
BRANCH   3   4
ATOM      4  C   UNL     1      -7.507  24.604   1.717  1.00  0.00     0.041 C 
ATOM      5  O   UNL     1      -7.851  23.788   0.822  1.00  0.00    -0.550 OA
ATOM      6  O   UNL     1      -8.435  25.510   2.215  1.00  0.00    -0.550 OA
ENDBRANCH   3   4
ENDBRANCH   2   3
ENDBRANCH   1   2
BRANCH   1   7
ATOM      7  C   UNL     1      -3.131  23.611  -0.018  1.00  0.00     0.000 C 
BRANCH   7   8
ATOM      8  C   UNL     1      -3.579  22.141  -0.054  1.00  0.00    -0.000 C 
BRANCH   8   9
ATOM      9  C   UNL     1      -2.396  21.164  -0.105  1.00  0.00    -0.003 C 
ATOM     10  C   UNL     1      -1.191  21.797  -0.798  1.00  0.00     0.004 C 
ENDBRANCH   8   9
ENDBRANCH   7   8
ENDBRANCH   1   7
TORSDOF 6
ENDMDL
MODEL 4
REMARK VINA RESULT:    -3.498      3.259      3.760
REMARK INTER + INTRA:          -4.910
REMARK INTER:                  -4.505
REMARK INTRA:                  -0.406
REMARK UNBOUND:                -0.186
REMARK SMILES CCCCCCCC(=O)[O-]
REMARK SMILES IDX 5 1 6 2 7 3 8 4 9 5 10 6 4 7 3 8 2 9 1 10
REMARK H PARENT
REMARK Flexibility Score: inf
ROOT
ATOM      1  C   UNL     1      -6.527  24.030   2.341  1.00  0.00     0.000 C 
ENDROOT
BRANCH   1   2
ATOM      2  C   UNL     1      -5.201  23.998   1.573  1.00  0.00     0.006 C 
BRANCH   2   3
ATOM      3  C   UNL     1      -4.651  25.412   1.365  1.00  0.00     0.053 C 
BRANCH   3   4
ATOM      4  C   UNL     1      -3.301  25.548   1.996  1.00  0.00     0.041 C 
ATOM      5  O   UNL     1      -2.274  25.658   1.276  1.00  0.00    -0.550 OA
ATOM      6  O   UNL     1      -3.182  25.604   3.379  1.00  0.00    -0.550 OA
ENDBRANCH   3   4
ENDBRANCH   2   3
ENDBRANCH   1   2
BRANCH   1   7
ATOM      7  C   UNL     1      -7.371  25.248   1.933  1.00  0.00     0.000 C 
BRANCH   7   8
ATOM      8  C   UNL     1      -8.082  25.903   3.127  1.00  0.00    -0.000 C 
BRANCH   8   9
ATOM      9  C   UNL     1      -7.133  26.174   4.303  1.00  0.00    -0.003 C 
ATOM     10  C   UNL     1      -7.704  25.622   5.607  1.00  0.00     0.004 C 
ENDBRANCH   8   9
ENDBRANCH   7   8
ENDBRANCH   1   7
TORSDOF 6
ENDMDL
MODEL 5
REMARK VINA RESULT:    -3.459      2.753      4.200
REMARK INTER + INTRA:          -4.859
REMARK INTER:                  -4.581
REMARK INTRA:                  -0.277
REMARK UNBOUND:                -0.186
REMARK SMILES CCCCCCCC(=O)[O-]
REMARK SMILES IDX 5 1 6 2 7 3 8 4 9 5 10 6 4 7 3 8 2 9 1 10
REMARK H PARENT
REMARK Flexibility Score: inf
ROOT
ATOM      1  C   UNL     1      -4.212  24.959   1.369  1.00  0.00     0.000 C 
ENDROOT
BRANCH   1   2
ATOM      2  C   UNL     1      -5.200  23.796   1.518  1.00  0.00     0.006 C 
BRANCH   2   3
ATOM      3  C   UNL     1      -6.430  24.219   2.325  1.00  0.00     0.053 C 
BRANCH   3   4
ATOM      4  C   UNL     1      -7.528  24.669   1.414  1.00  0.00     0.041 C 
ATOM      5  O   UNL     1      -7.889  25.875   1.406  1.00  0.00    -0.550 OA
ATOM      6  O   UNL     1      -8.117  23.768   0.536  1.00  0.00    -0.550 OA
ENDBRANCH   3   4
ENDBRANCH   2   3
ENDBRANCH   1   2
BRANCH   1   7
ATOM      7  C   UNL     1      -3.790  25.502   2.743  1.00  0.00     0.000 C 
BRANCH   7   8
ATOM      8  C   UNL     1      -2.809  26.680   2.639  1.00  0.00    -0.000 C 
BRANCH   8   9
ATOM      9  C   UNL     1      -1.890  26.577   1.413  1.00  0.00    -0.003 C 
ATOM     10  C   UNL     1      -1.312  27.941   1.044  1.00  0.00     0.004 C 
ENDBRANCH   8   9
ENDBRANCH   7   8
ENDBRANCH   1   7
TORSDOF 6
ENDMDL
MODEL 6
REMARK VINA RESULT:    -3.396      4.179      5.110
REMARK INTER + INTRA:          -4.773
REMARK INTER:                  -4.444
REMARK INTRA:                  -0.329
REMARK UNBOUND:                -0.186
REMARK SMILES CCCCCCCC(=O)[O-]
REMARK SMILES IDX 5 1 6 2 7 3 8 4 9 5 10 6 4 7 3 8 2 9 1 10
REMARK H PARENT
REMARK Flexibility Score: inf
ROOT
ATOM      1  C   UNL     1      -4.729  25.220   2.313  1.00  0.00     0.000 C 
ENDROOT
BRANCH   1   2
ATOM      2  C   UNL     1      -3.408  25.748   2.886  1.00  0.00     0.006 C 
BRANCH   2   3
ATOM      3  C   UNL     1      -3.587  27.146   3.483  1.00  0.00     0.053 C 
BRANCH   3   4
ATOM      4  C   UNL     1      -2.378  27.988   3.218  1.00  0.00     0.041 C 
ATOM      5  O   UNL     1      -2.103  28.955   3.975  1.00  0.00    -0.550 OA
ATOM      6  O   UNL     1      -1.529  27.674   2.165  1.00  0.00    -0.550 OA
ENDBRANCH   3   4
ENDBRANCH   2   3
ENDBRANCH   1   2
BRANCH   1   7
ATOM      7  C   UNL     1      -5.882  26.192   2.605  1.00  0.00     0.000 C 
BRANCH   7   8
ATOM      8  C   UNL     1      -7.263  25.559   2.373  1.00  0.00    -0.000 C 
BRANCH   8   9
ATOM      9  C   UNL     1      -8.256  25.877   3.501  1.00  0.00    -0.003 C 
ATOM     10  C   UNL     1      -7.579  25.795   4.867  1.00  0.00     0.004 C 
ENDBRANCH   8   9
ENDBRANCH   7   8
ENDBRANCH   1   7
TORSDOF 6
ENDMDL
MODEL 7
REMARK VINA RESULT:    -3.375      2.568      3.704
REMARK INTER + INTRA:          -4.745
REMARK INTER:                  -4.347
REMARK INTRA:                  -0.397
REMARK UNBOUND:                -0.186
REMARK SMILES CCCCCCCC(=O)[O-]
REMARK SMILES IDX 5 1 6 2 7 3 8 4 9 5 10 6 4 7 3 8 2 9 1 10
REMARK H PARENT
REMARK Flexibility Score: inf
ROOT
ATOM      1  C   UNL     1      -5.969  24.598   0.431  1.00  0.00     0.000 C 
ENDROOT
BRANCH   1   2
ATOM      2  C   UNL     1      -7.348  24.738   1.087  1.00  0.00     0.006 C 
BRANCH   2   3
ATOM      3  C   UNL     1      -7.239  24.693   2.613  1.00  0.00     0.053 C 
BRANCH   3   4
ATOM      4  C   UNL     1      -7.806  25.938   3.217  1.00  0.00     0.041 C 
ATOM      5  O   UNL     1      -8.485  25.876   4.276  1.00  0.00    -0.550 OA
ATOM      6  O   UNL     1      -7.543  27.174   2.640  1.00  0.00    -0.550 OA
ENDBRANCH   3   4
ENDBRANCH   2   3
ENDBRANCH   1   2
BRANCH   1   7
ATOM      7  C   UNL     1      -4.929  24.085   1.440  1.00  0.00     0.000 C 
BRANCH   7   8
ATOM      8  C   UNL     1      -3.723  25.027   1.578  1.00  0.00    -0.000 C 
BRANCH   8   9
ATOM      9  C   UNL     1      -3.605  25.634   2.984  1.00  0.00    -0.003 C 
ATOM     10  C   UNL     1      -3.311  27.130   2.913  1.00  0.00     0.004 C 
ENDBRANCH   8   9
ENDBRANCH   7   8
ENDBRANCH   1   7
TORSDOF 6
ENDMDL
MODEL 8
REMARK VINA RESULT:    -3.373      2.659      3.108
REMARK INTER + INTRA:          -4.741
REMARK INTER:                  -4.389
REMARK INTRA:                  -0.352
REMARK UNBOUND:                -0.186
REMARK SMILES CCCCCCCC(=O)[O-]
REMARK SMILES IDX 5 1 6 2 7 3 8 4 9 5 10 6 4 7 3 8 2 9 1 10
REMARK H PARENT
REMARK Flexibility Score: inf
ROOT
ATOM      1  C   UNL     1      -7.206  25.961   2.054  1.00  0.00     0.000 C 
ENDROOT
BRANCH   1   2
ATOM      2  C   UNL     1      -5.706  25.671   2.191  1.00  0.00     0.006 C 
BRANCH   2   3
ATOM      3  C   UNL     1      -4.899  26.970   2.266  1.00  0.00     0.053 C 
BRANCH   3   4
ATOM      4  C   UNL     1      -5.010  27.732   0.984  1.00  0.00     0.041 C 
ATOM      5  O   UNL     1      -4.389  27.343  -0.040  1.00  0.00    -0.550 OA
ATOM      6  O   UNL     1      -5.840  28.843   0.904  1.00  0.00    -0.550 OA
ENDBRANCH   3   4
ENDBRANCH   2   3
ENDBRANCH   1   2
BRANCH   1   7
ATOM      7  C   UNL     1      -7.772  26.554   3.353  1.00  0.00     0.000 C 
BRANCH   7   8
ATOM      8  C   UNL     1      -7.569  25.631   4.564  1.00  0.00    -0.000 C 
BRANCH   8   9
ATOM      9  C   UNL     1      -6.772  26.303   5.692  1.00  0.00    -0.003 C 
ATOM     10  C   UNL     1      -7.383  25.991   7.057  1.00  0.00     0.004 C 
ENDBRANCH   8   9
ENDBRANCH   7   8
ENDBRANCH   1   7
TORSDOF 6
ENDMDL
MODEL 9
REMARK VINA RESULT:    -3.366      2.666      3.664
REMARK INTER + INTRA:          -4.732
REMARK INTER:                  -4.078
REMARK INTRA:                  -0.654
REMARK UNBOUND:                -0.186
REMARK SMILES CCCCCCCC(=O)[O-]
REMARK SMILES IDX 5 1 6 2 7 3 8 4 9 5 10 6 4 7 3 8 2 9 1 10
REMARK H PARENT
REMARK Flexibility Score: inf
ROOT
ATOM      1  C   UNL     1      -4.923  24.125   1.128  1.00  0.00     0.000 C 
ENDROOT
BRANCH   1   2
ATOM      2  C   UNL     1      -6.019  24.072   2.198  1.00  0.00     0.006 C 
BRANCH   2   3
ATOM      3  C   UNL     1      -7.195  24.979   1.827  1.00  0.00     0.053 C 
BRANCH   3   4
ATOM      4  C   UNL     1      -7.343  26.082   2.827  1.00  0.00     0.041 C 
ATOM      5  O   UNL     1      -7.277  25.833   4.059  1.00  0.00    -0.550 OA
ATOM      6  O   UNL     1      -7.503  27.394   2.398  1.00  0.00    -0.550 OA
ENDBRANCH   3   4
ENDBRANCH   2   3
ENDBRANCH   1   2
BRANCH   1   7
ATOM      7  C   UNL     1      -3.930  25.263   1.413  1.00  0.00     0.000 C 
BRANCH   7   8
ATOM      8  C   UNL     1      -3.645  25.438   2.913  1.00  0.00    -0.000 C 
BRANCH   8   9
ATOM      9  C   UNL     1      -3.737  26.904   3.364  1.00  0.00    -0.003 C 
ATOM     10  C   UNL     1      -3.932  27.834   2.169  1.00  0.00     0.004 C 
ENDBRANCH   8   9
ENDBRANCH   7   8
ENDBRANCH   1   7
TORSDOF 6
ENDMDL
