MODEL 1
REMARK VINA RESULT:    -5.813      0.000      0.000
REMARK INTER + INTRA:          -7.181
REMARK INTER:                  -7.003
REMARK INTRA:                  -0.178
REMARK UNBOUND:                -0.178
REMARK SMILES O=c1c(O)c(-c2ccc(O)c(O)c2)oc2cc(O)cc(O)c12
REMARK SMILES IDX 5 1 3 2 2 3 1 4 22 5 20 6 19 7 17 8 16 9 15 10 14 11 6 12
REMARK SMILES IDX 7 13 8 14 9 15 13 16 11 17 10 18 12 20 4 22 21 24 18 26
REMARK H PARENT 10 19 12 21 4 23 21 25 18 27
REMARK Flexibility Score: inf
ROOT
ATOM      1  C   UNL     1      24.424  45.358  85.966  1.00  0.00     0.180 A 
ATOM      2  C   UNL     1      23.270  44.572  86.117  1.00  0.00     0.208 A 
ATOM      3  C   UNL     1      23.284  43.245  85.657  1.00  0.00     0.238 A 
ATOM      4  O   UNL     1      22.266  42.529  85.844  1.00  0.00    -0.285 OA
ATOM      5  C   UNL     1      24.447  42.727  85.037  1.00  0.00     0.111 A 
ATOM      6  C   UNL     1      24.559  41.410  84.498  1.00  0.00     0.134 A 
ATOM      7  C   UNL     1      25.798  40.961  84.025  1.00  0.00     0.093 A 
ATOM      8  C   UNL     1      26.911  41.801  84.011  1.00  0.00     0.123 A 
ATOM      9  C   UNL     1      26.797  43.110  84.481  1.00  0.00     0.094 A 
ATOM     10  C   UNL     1      25.583  43.575  84.993  1.00  0.00     0.146 A 
ATOM     11  O   UNL     1      25.520  44.824  85.439  1.00  0.00    -0.452 OA
ENDROOT
BRANCH   1  12
ATOM     12  C   UNL     1      24.478  46.772  86.402  1.00  0.00     0.025 A 
ATOM     13  C   UNL     1      23.669  47.723  85.767  1.00  0.00     0.016 A 
ATOM     14  C   UNL     1      23.691  49.058  86.176  1.00  0.00     0.051 A 
ATOM     15  C   UNL     1      24.507  49.465  87.237  1.00  0.00     0.157 A 
ATOM     16  C   UNL     1      25.283  47.174  87.483  1.00  0.00     0.062 A 
ATOM     17  C   UNL     1      25.309  48.510  87.903  1.00  0.00     0.158 A 
BRANCH  15  18
ATOM     18  O   UNL     1      24.488  50.816  87.592  1.00  0.00    -0.504 OA
ATOM     19  H   UNL     1      25.151  51.498  87.254  1.00  0.00     0.293 HD
ENDBRANCH  15  18
BRANCH  17  20
ATOM     20  O   UNL     1      26.133  48.838  88.982  1.00  0.00    -0.504 OA
ATOM     21  H   UNL     1      26.542  49.750  89.123  1.00  0.00     0.293 HD
ENDBRANCH  17  20
ENDBRANCH   1  12
BRANCH   2  22
ATOM     22  O   UNL     1      22.140  45.096  86.752  1.00  0.00    -0.502 OA
ATOM     23  H   UNL     1      21.215  44.701  86.631  1.00  0.00     0.293 HD
ENDBRANCH   2  22
BRANCH   6  24
ATOM     24  O   UNL     1      23.486  40.521  84.379  1.00  0.00    -0.507 OA
ATOM     25  H   UNL     1      23.129  40.164  83.506  1.00  0.00     0.293 HD
ENDBRANCH   6  24
BRANCH   8  26
ATOM     26  O   UNL     1      28.125  41.326  83.519  1.00  0.00    -0.508 OA
ATOM     27  H   UNL     1      28.364  40.343  83.557  1.00  0.00     0.293 HD
ENDBRANCH   8  26
TORSDOF 6
ENDMDL
MODEL 2
REMARK VINA RESULT:    -5.797      1.962      3.392
REMARK INTER + INTRA:          -7.161
REMARK INTER:                  -6.838
REMARK INTRA:                  -0.322
REMARK UNBOUND:                -0.178
REMARK SMILES O=c1c(O)c(-c2ccc(O)c(O)c2)oc2cc(O)cc(O)c12
REMARK SMILES IDX 5 1 3 2 2 3 1 4 22 5 20 6 19 7 17 8 16 9 15 10 14 11 6 12
REMARK SMILES IDX 7 13 8 14 9 15 13 16 11 17 10 18 12 20 4 22 21 24 18 26
REMARK H PARENT 10 19 12 21 4 23 21 25 18 27
REMARK Flexibility Score: inf
ROOT
ATOM      1  C   UNL     1      24.154  45.698  86.273  1.00  0.00     0.180 A 
ATOM      2  C   UNL     1      25.494  45.948  85.934  1.00  0.00     0.208 A 
ATOM      3  C   UNL     1      26.241  44.935  85.312  1.00  0.00     0.238 A 
ATOM      4  O   UNL     1      27.424  45.184  84.962  1.00  0.00    -0.285 OA
ATOM      5  C   UNL     1      25.643  43.678  85.051  1.00  0.00     0.111 A 
ATOM      6  C   UNL     1      26.317  42.566  84.463  1.00  0.00     0.134 A 
ATOM      7  C   UNL     1      25.591  41.415  84.132  1.00  0.00     0.093 A 
ATOM      8  C   UNL     1      24.233  41.310  84.428  1.00  0.00     0.123 A 
ATOM      9  C   UNL     1      23.577  42.369  85.057  1.00  0.00     0.094 A 
ATOM     10  C   UNL     1      24.266  43.544  85.367  1.00  0.00     0.146 A 
ATOM     11  O   UNL     1      23.602  44.531  85.957  1.00  0.00    -0.452 OA
ENDROOT
BRANCH   1  12
ATOM     12  C   UNL     1      23.310  46.707  86.953  1.00  0.00     0.025 A 
ATOM     13  C   UNL     1      23.328  46.794  88.351  1.00  0.00     0.016 A 
ATOM     14  C   UNL     1      22.554  47.751  89.010  1.00  0.00     0.051 A 
ATOM     15  C   UNL     1      21.762  48.649  88.288  1.00  0.00     0.157 A 
ATOM     16  C   UNL     1      22.531  47.622  86.222  1.00  0.00     0.062 A 
ATOM     17  C   UNL     1      21.754  48.587  86.875  1.00  0.00     0.158 A 
BRANCH  15  18
ATOM     18  O   UNL     1      21.006  49.577  89.007  1.00  0.00    -0.504 OA
ATOM     19  H   UNL     1      21.052  49.686  90.010  1.00  0.00     0.293 HD
ENDBRANCH  15  18
BRANCH  17  20
ATOM     20  O   UNL     1      21.004  49.462  86.085  1.00  0.00    -0.504 OA
ATOM     21  H   UNL     1      21.334  49.867  85.221  1.00  0.00     0.293 HD
ENDBRANCH  17  20
ENDBRANCH   1  12
BRANCH   2  22
ATOM     22  O   UNL     1      26.058  47.204  86.180  1.00  0.00    -0.502 OA
ATOM     23  H   UNL     1      26.243  47.543  87.117  1.00  0.00     0.293 HD
ENDBRANCH   2  22
BRANCH   6  24
ATOM     24  O   UNL     1      27.692  42.532  84.211  1.00  0.00    -0.507 OA
ATOM     25  H   UNL     1      28.114  42.153  83.377  1.00  0.00     0.293 HD
ENDBRANCH   6  24
BRANCH   8  26
ATOM     26  O   UNL     1      23.546  40.143  84.099  1.00  0.00    -0.508 OA
ATOM     27  H   UNL     1      22.535  40.119  84.055  1.00  0.00     0.293 HD
ENDBRANCH   8  26
TORSDOF 6
ENDMDL
MODEL 3
REMARK VINA RESULT:    -5.592      2.370      6.721
REMARK INTER + INTRA:          -6.915
REMARK INTER:                  -6.794
REMARK INTRA:                  -0.121
REMARK UNBOUND:                -0.178
REMARK SMILES O=c1c(O)c(-c2ccc(O)c(O)c2)oc2cc(O)cc(O)c12
REMARK SMILES IDX 5 1 3 2 2 3 1 4 22 5 20 6 19 7 17 8 16 9 15 10 14 11 6 12
REMARK SMILES IDX 7 13 8 14 9 15 13 16 11 17 10 18 12 20 4 22 21 24 18 26
REMARK H PARENT 10 19 12 21 4 23 21 25 18 27
REMARK Flexibility Score: inf
ROOT
ATOM      1  C   UNL     1      23.640  44.136  86.654  1.00  0.00     0.180 A 
ATOM      2  C   UNL     1      23.116  43.697  87.882  1.00  0.00     0.208 A 
ATOM      3  C   UNL     1      22.295  44.563  88.621  1.00  0.00     0.238 A 
ATOM      4  O   UNL     1      21.785  44.145  89.693  1.00  0.00    -0.285 OA
ATOM      5  C   UNL     1      22.022  45.864  88.132  1.00  0.00     0.111 A 
ATOM      6  C   UNL     1      21.237  46.839  88.817  1.00  0.00     0.134 A 
ATOM      7  C   UNL     1      20.924  48.046  88.179  1.00  0.00     0.093 A 
ATOM      8  C   UNL     1      21.421  48.340  86.910  1.00  0.00     0.123 A 
ATOM      9  C   UNL     1      22.239  47.417  86.256  1.00  0.00     0.094 A 
ATOM     10  C   UNL     1      22.539  46.190  86.852  1.00  0.00     0.146 A 
ATOM     11  O   UNL     1      23.313  45.337  86.191  1.00  0.00    -0.452 OA
ENDROOT
BRANCH   1  12
ATOM     12  C   UNL     1      24.533  43.290  85.830  1.00  0.00     0.025 A 
ATOM     13  C   UNL     1      24.048  42.087  85.298  1.00  0.00     0.016 A 
ATOM     14  C   UNL     1      24.868  41.284  84.503  1.00  0.00     0.051 A 
ATOM     15  C   UNL     1      26.179  41.673  84.209  1.00  0.00     0.157 A 
ATOM     16  C   UNL     1      25.843  43.694  85.519  1.00  0.00     0.062 A 
ATOM     17  C   UNL     1      26.672  42.896  84.719  1.00  0.00     0.158 A 
BRANCH  15  18
ATOM     18  O   UNL     1      26.949  40.821  83.414  1.00  0.00    -0.504 OA
ATOM     19  H   UNL     1      27.839  40.436  83.697  1.00  0.00     0.293 HD
ENDBRANCH  15  18
BRANCH  17  20
ATOM     20  O   UNL     1      27.962  43.360  84.453  1.00  0.00    -0.504 OA
ATOM     21  H   UNL     1      28.683  42.804  84.015  1.00  0.00     0.293 HD
ENDBRANCH  17  20
ENDBRANCH   1  12
BRANCH   2  22
ATOM     22  O   UNL     1      23.381  42.402  88.336  1.00  0.00    -0.502 OA
ATOM     23  H   UNL     1      24.321  42.034  88.415  1.00  0.00     0.293 HD
ENDBRANCH   2  22
BRANCH   6  24
ATOM     24  O   UNL     1      20.767  46.684  90.124  1.00  0.00    -0.507 OA
ATOM     25  H   UNL     1      21.348  46.694  90.949  1.00  0.00     0.293 HD
ENDBRANCH   6  24
BRANCH   8  26
ATOM     26  O   UNL     1      21.103  49.557  86.311  1.00  0.00    -0.508 OA
ATOM     27  H   UNL     1      21.268  50.438  86.782  1.00  0.00     0.293 HD
ENDBRANCH   8  26
TORSDOF 6
ENDMDL
MODEL 4
REMARK VINA RESULT:    -5.284      1.787      2.429
REMARK INTER + INTRA:          -6.543
REMARK INTER:                  -6.314
REMARK INTRA:                  -0.229
REMARK UNBOUND:                -0.178
REMARK SMILES O=c1c(O)c(-c2ccc(O)c(O)c2)oc2cc(O)cc(O)c12
REMARK SMILES IDX 5 1 3 2 2 3 1 4 22 5 20 6 19 7 17 8 16 9 15 10 14 11 6 12
REMARK SMILES IDX 7 13 8 14 9 15 13 16 11 17 10 18 12 20 4 22 21 24 18 26
REMARK H PARENT 10 19 12 21 4 23 21 25 18 27
REMARK Flexibility Score: inf
ROOT
ATOM      1  C   UNL     1      23.558  46.183  86.981  1.00  0.00     0.180 A 
ATOM      2  C   UNL     1      22.759  45.060  87.257  1.00  0.00     0.208 A 
ATOM      3  C   UNL     1      23.172  43.800  86.796  1.00  0.00     0.238 A 
ATOM      4  O   UNL     1      22.481  42.791  87.093  1.00  0.00    -0.285 OA
ATOM      5  C   UNL     1      24.370  43.680  86.051  1.00  0.00     0.111 A 
ATOM      6  C   UNL     1      24.863  42.459  85.499  1.00  0.00     0.134 A 
ATOM      7  C   UNL     1      26.124  42.436  84.892  1.00  0.00     0.093 A 
ATOM      8  C   UNL     1      26.881  43.599  84.756  1.00  0.00     0.123 A 
ATOM      9  C   UNL     1      26.381  44.810  85.239  1.00  0.00     0.094 A 
ATOM     10  C   UNL     1      25.142  44.858  85.882  1.00  0.00     0.146 A 
ATOM     11  O   UNL     1      24.709  46.028  86.335  1.00  0.00    -0.452 OA
ENDROOT
BRANCH   1  12
ATOM     12  C   UNL     1      23.177  47.547  87.412  1.00  0.00     0.025 A 
ATOM     13  C   UNL     1      23.963  48.218  88.358  1.00  0.00     0.016 A 
ATOM     14  C   UNL     1      23.632  49.512  88.763  1.00  0.00     0.051 A 
ATOM     15  C   UNL     1      22.521  50.167  88.221  1.00  0.00     0.157 A 
ATOM     16  C   UNL     1      22.073  48.211  86.849  1.00  0.00     0.062 A 
ATOM     17  C   UNL     1      21.734  49.511  87.247  1.00  0.00     0.158 A 
BRANCH  15  18
ATOM     18  O   UNL     1      22.240  51.458  88.675  1.00  0.00    -0.504 OA
ATOM     19  H   UNL     1      21.736  52.148  88.137  1.00  0.00     0.293 HD
ENDBRANCH  15  18
BRANCH  17  20
ATOM     20  O   UNL     1      20.624  50.108  86.647  1.00  0.00    -0.504 OA
ATOM     21  H   UNL     1      19.669  49.938  86.930  1.00  0.00     0.293 HD
ENDBRANCH  17  20
ENDBRANCH   1  12
BRANCH   2  22
ATOM     22  O   UNL     1      21.592  45.197  88.014  1.00  0.00    -0.502 OA
ATOM     23  H   UNL     1      21.040  44.402  88.311  1.00  0.00     0.293 HD
ENDBRANCH   2  22
BRANCH   6  24
ATOM     24  O   UNL     1      24.147  41.259  85.498  1.00  0.00    -0.507 OA
ATOM     25  H   UNL     1      23.188  41.160  85.797  1.00  0.00     0.293 HD
ENDBRANCH   6  24
BRANCH   8  26
ATOM     26  O   UNL     1      28.125  43.542  84.132  1.00  0.00    -0.508 OA
ATOM     27  H   UNL     1      28.437  42.710  83.647  1.00  0.00     0.293 HD
ENDBRANCH   8  26
TORSDOF 6
ENDMDL
MODEL 5
REMARK VINA RESULT:    -5.237      2.073      7.061
REMARK INTER + INTRA:          -6.486
REMARK INTER:                  -6.216
REMARK INTRA:                  -0.270
REMARK UNBOUND:                -0.178
REMARK SMILES O=c1c(O)c(-c2ccc(O)c(O)c2)oc2cc(O)cc(O)c12
REMARK SMILES IDX 5 1 3 2 2 3 1 4 22 5 20 6 19 7 17 8 16 9 15 10 14 11 6 12
REMARK SMILES IDX 7 13 8 14 9 15 13 16 11 17 10 18 12 20 4 22 21 24 18 26
REMARK H PARENT 10 19 12 21 4 23 21 25 18 27
REMARK Flexibility Score: inf
ROOT
ATOM      1  C   UNL     1      24.473  44.668  86.633  1.00  0.00     0.180 A 
ATOM      2  C   UNL     1      24.737  44.713  88.012  1.00  0.00     0.208 A 
ATOM      3  C   UNL     1      24.226  45.779  88.770  1.00  0.00     0.238 A 
ATOM      4  O   UNL     1      24.420  45.785  90.013  1.00  0.00    -0.285 OA
ATOM      5  C   UNL     1      23.471  46.796  88.136  1.00  0.00     0.111 A 
ATOM      6  C   UNL     1      22.940  47.943  88.798  1.00  0.00     0.134 A 
ATOM      7  C   UNL     1      22.099  48.817  88.098  1.00  0.00     0.093 A 
ATOM      8  C   UNL     1      21.823  48.622  86.745  1.00  0.00     0.123 A 
ATOM      9  C   UNL     1      22.386  47.536  86.073  1.00  0.00     0.094 A 
ATOM     10  C   UNL     1      23.200  46.627  86.754  1.00  0.00     0.146 A 
ATOM     11  O   UNL     1      23.707  45.602  86.079  1.00  0.00    -0.452 OA
ENDROOT
BRANCH   1  12
ATOM     12  C   UNL     1      24.998  43.591  85.764  1.00  0.00     0.025 A 
ATOM     13  C   UNL     1      26.352  43.592  85.402  1.00  0.00     0.016 A 
ATOM     14  C   UNL     1      26.870  42.574  84.600  1.00  0.00     0.051 A 
ATOM     15  C   UNL     1      26.053  41.529  84.156  1.00  0.00     0.157 A 
ATOM     16  C   UNL     1      24.179  42.530  85.337  1.00  0.00     0.062 A 
ATOM     17  C   UNL     1      24.691  41.503  84.534  1.00  0.00     0.158 A 
BRANCH  15  18
ATOM     18  O   UNL     1      26.632  40.546  83.349  1.00  0.00    -0.504 OA
ATOM     19  H   UNL     1      26.164  39.694  83.075  1.00  0.00     0.293 HD
ENDBRANCH  15  18
BRANCH  17  20
ATOM     20  O   UNL     1      23.819  40.483  84.147  1.00  0.00    -0.504 OA
ATOM     21  H   UNL     1      23.820  40.057  83.231  1.00  0.00     0.293 HD
ENDBRANCH  17  20
ENDBRANCH   1  12
BRANCH   2  22
ATOM     22  O   UNL     1      25.466  43.688  88.622  1.00  0.00    -0.502 OA
ATOM     23  H   UNL     1      25.401  42.722  88.322  1.00  0.00     0.293 HD
ENDBRANCH   2  22
BRANCH   6  24
ATOM     24  O   UNL     1      23.228  48.282  90.124  1.00  0.00    -0.507 OA
ATOM     25  H   UNL     1      23.323  49.225  90.469  1.00  0.00     0.293 HD
ENDBRANCH   6  24
BRANCH   8  26
ATOM     26  O   UNL     1      20.995  49.520  86.076  1.00  0.00    -0.508 OA
ATOM     27  H   UNL     1      21.358  50.158  85.379  1.00  0.00     0.293 HD
ENDBRANCH   8  26
TORSDOF 6
ENDMDL
MODEL 6
REMARK VINA RESULT:    -4.957      1.677      6.909
REMARK INTER + INTRA:          -6.149
REMARK INTER:                  -6.024
REMARK INTRA:                  -0.125
REMARK UNBOUND:                -0.178
REMARK SMILES O=c1c(O)c(-c2ccc(O)c(O)c2)oc2cc(O)cc(O)c12
REMARK SMILES IDX 5 1 3 2 2 3 1 4 22 5 20 6 19 7 17 8 16 9 15 10 14 11 6 12
REMARK SMILES IDX 7 13 8 14 9 15 13 16 11 17 10 18 12 20 4 22 21 24 18 26
REMARK H PARENT 10 19 12 21 4 23 21 25 18 27
REMARK Flexibility Score: inf
ROOT
ATOM      1  C   UNL     1      23.855  44.931  86.498  1.00  0.00     0.180 A 
ATOM      2  C   UNL     1      22.798  44.949  87.424  1.00  0.00     0.208 A 
ATOM      3  C   UNL     1      22.491  46.149  88.085  1.00  0.00     0.238 A 
ATOM      4  O   UNL     1      21.510  46.172  88.873  1.00  0.00    -0.285 OA
ATOM      5  C   UNL     1      23.256  47.312  87.825  1.00  0.00     0.111 A 
ATOM      6  C   UNL     1      23.061  48.571  88.468  1.00  0.00     0.134 A 
ATOM      7  C   UNL     1      23.790  49.687  88.038  1.00  0.00     0.093 A 
ATOM      8  C   UNL     1      24.753  49.576  87.036  1.00  0.00     0.123 A 
ATOM      9  C   UNL     1      24.994  48.336  86.442  1.00  0.00     0.094 A 
ATOM     10  C   UNL     1      24.257  47.213  86.825  1.00  0.00     0.146 A 
ATOM     11  O   UNL     1      24.511  46.054  86.228  1.00  0.00    -0.452 OA
ENDROOT
BRANCH   1  12
ATOM     12  C   UNL     1      24.253  43.700  85.780  1.00  0.00     0.025 A 
ATOM     13  C   UNL     1      25.522  43.147  86.006  1.00  0.00     0.016 A 
ATOM     14  C   UNL     1      25.909  41.976  85.353  1.00  0.00     0.051 A 
ATOM     15  C   UNL     1      25.035  41.325  84.476  1.00  0.00     0.157 A 
ATOM     16  C   UNL     1      23.364  43.036  84.916  1.00  0.00     0.062 A 
ATOM     17  C   UNL     1      23.743  41.858  84.259  1.00  0.00     0.158 A 
BRANCH  15  18
ATOM     18  O   UNL     1      25.487  40.161  83.849  1.00  0.00    -0.504 OA
ATOM     19  H   UNL     1      25.595  40.064  82.850  1.00  0.00     0.293 HD
ENDBRANCH  15  18
BRANCH  17  20
ATOM     20  O   UNL     1      22.810  41.254  83.414  1.00  0.00    -0.504 OA
ATOM     21  H   UNL     1      23.052  40.625  82.662  1.00  0.00     0.293 HD
ENDBRANCH  17  20
ENDBRANCH   1  12
BRANCH   2  22
ATOM     22  O   UNL     1      22.042  43.795  87.650  1.00  0.00    -0.502 OA
ATOM     23  H   UNL     1      22.377  42.870  87.411  1.00  0.00     0.293 HD
ENDBRANCH   2  22
BRANCH   6  24
ATOM     24  O   UNL     1      22.189  48.771  89.543  1.00  0.00    -0.507 OA
ATOM     25  H   UNL     1      22.360  49.402  90.312  1.00  0.00     0.293 HD
ENDBRANCH   6  24
BRANCH   8  26
ATOM     26  O   UNL     1      25.472  50.703  86.644  1.00  0.00    -0.508 OA
ATOM     27  H   UNL     1      25.253  51.623  87.007  1.00  0.00     0.293 HD
ENDBRANCH   8  26
TORSDOF 6
ENDMDL
MODEL 7
REMARK VINA RESULT:    -4.932      1.569      7.115
REMARK INTER + INTRA:          -6.120
REMARK INTER:                  -6.066
REMARK INTRA:                  -0.053
REMARK UNBOUND:                -0.178
REMARK SMILES O=c1c(O)c(-c2ccc(O)c(O)c2)oc2cc(O)cc(O)c12
REMARK SMILES IDX 5 1 3 2 2 3 1 4 22 5 20 6 19 7 17 8 16 9 15 10 14 11 6 12
REMARK SMILES IDX 7 13 8 14 9 15 13 16 11 17 10 18 12 20 4 22 21 24 18 26
REMARK H PARENT 10 19 12 21 4 23 21 25 18 27
REMARK Flexibility Score: inf
ROOT
ATOM      1  C   UNL     1      25.054  45.055  86.343  1.00  0.00     0.180 A 
ATOM      2  C   UNL     1      25.890  45.538  87.363  1.00  0.00     0.208 A 
ATOM      3  C   UNL     1      25.612  46.787  87.940  1.00  0.00     0.238 A 
ATOM      4  O   UNL     1      26.332  47.189  88.891  1.00  0.00    -0.285 OA
ATOM      5  C   UNL     1      24.510  47.547  87.477  1.00  0.00     0.111 A 
ATOM      6  C   UNL     1      24.159  48.843  87.959  1.00  0.00     0.134 A 
ATOM      7  C   UNL     1      22.974  49.445  87.521  1.00  0.00     0.093 A 
ATOM      8  C   UNL     1      22.161  48.830  86.570  1.00  0.00     0.123 A 
ATOM      9  C   UNL     1      22.527  47.588  86.047  1.00  0.00     0.094 A 
ATOM     10  C   UNL     1      23.685  46.946  86.491  1.00  0.00     0.146 A 
ATOM     11  O   UNL     1      23.991  45.762  85.975  1.00  0.00    -0.452 OA
ENDROOT
BRANCH   1  12
ATOM     12  C   UNL     1      25.297  43.759  85.670  1.00  0.00     0.025 A 
ATOM     13  C   UNL     1      24.248  42.839  85.542  1.00  0.00     0.016 A 
ATOM     14  C   UNL     1      24.452  41.620  84.895  1.00  0.00     0.051 A 
ATOM     15  C   UNL     1      25.699  41.301  84.348  1.00  0.00     0.157 A 
ATOM     16  C   UNL     1      26.547  43.452  85.103  1.00  0.00     0.062 A 
ATOM     17  C   UNL     1      26.760  42.232  84.448  1.00  0.00     0.158 A 
BRANCH  15  18
ATOM     18  O   UNL     1      25.839  40.062  83.720  1.00  0.00    -0.504 OA
ATOM     19  H   UNL     1      26.128  39.945  82.759  1.00  0.00     0.293 HD
ENDBRANCH  15  18
BRANCH  17  20
ATOM     20  O   UNL     1      28.026  41.993  83.910  1.00  0.00    -0.504 OA
ATOM     21  H   UNL     1      28.881  42.014  84.447  1.00  0.00     0.293 HD
ENDBRANCH  17  20
ENDBRANCH   1  12
BRANCH   2  22
ATOM     22  O   UNL     1      26.960  44.762  87.821  1.00  0.00    -0.502 OA
ATOM     23  H   UNL     1      27.880  45.150  87.991  1.00  0.00     0.293 HD
ENDBRANCH   2  22
BRANCH   6  24
ATOM     24  O   UNL     1      24.948  49.587  88.842  1.00  0.00    -0.507 OA
ATOM     25  H   UNL     1      24.811  50.564  89.053  1.00  0.00     0.293 HD
ENDBRANCH   6  24
BRANCH   8  26
ATOM     26  O   UNL     1      20.997  49.465  86.144  1.00  0.00    -0.508 OA
ATOM     27  H   UNL     1      20.629  49.329  85.211  1.00  0.00     0.293 HD
ENDBRANCH   8  26
TORSDOF 6
ENDMDL
MODEL 8
REMARK VINA RESULT:    -4.780      2.185      7.536
REMARK INTER + INTRA:          -5.936
REMARK INTER:                  -5.602
REMARK INTRA:                  -0.334
REMARK UNBOUND:                -0.178
REMARK SMILES O=c1c(O)c(-c2ccc(O)c(O)c2)oc2cc(O)cc(O)c12
REMARK SMILES IDX 5 1 3 2 2 3 1 4 22 5 20 6 19 7 17 8 16 9 15 10 14 11 6 12
REMARK SMILES IDX 7 13 8 14 9 15 13 16 11 17 10 18 12 20 4 22 21 24 18 26
REMARK H PARENT 10 19 12 21 4 23 21 25 18 27
REMARK Flexibility Score: inf
ROOT
ATOM      1  C   UNL     1      23.424  45.943  87.318  1.00  0.00     0.180 A 
ATOM      2  C   UNL     1      24.227  46.308  88.411  1.00  0.00     0.208 A 
ATOM      3  C   UNL     1      24.081  47.589  88.968  1.00  0.00     0.238 A 
ATOM      4  O   UNL     1      24.766  47.890  89.980  1.00  0.00    -0.285 OA
ATOM      5  C   UNL     1      23.144  48.494  88.414  1.00  0.00     0.111 A 
ATOM      6  C   UNL     1      22.942  49.831  88.871  1.00  0.00     0.134 A 
ATOM      7  C   UNL     1      21.897  50.594  88.333  1.00  0.00     0.093 A 
ATOM      8  C   UNL     1      21.092  50.094  87.311  1.00  0.00     0.123 A 
ATOM      9  C   UNL     1      21.320  48.809  86.816  1.00  0.00     0.094 A 
ATOM     10  C   UNL     1      22.331  48.011  87.357  1.00  0.00     0.146 A 
ATOM     11  O   UNL     1      22.508  46.791  86.862  1.00  0.00    -0.452 OA
ENDROOT
BRANCH   1  12
ATOM     12  C   UNL     1      23.537  44.620  86.662  1.00  0.00     0.025 A 
ATOM     13  C   UNL     1      22.683  43.580  87.053  1.00  0.00     0.016 A 
ATOM     14  C   UNL     1      22.761  42.331  86.434  1.00  0.00     0.051 A 
ATOM     15  C   UNL     1      23.679  42.101  85.403  1.00  0.00     0.157 A 
ATOM     16  C   UNL     1      24.445  44.399  85.613  1.00  0.00     0.062 A 
ATOM     17  C   UNL     1      24.528  43.150  84.983  1.00  0.00     0.158 A 
BRANCH  15  18
ATOM     18  O   UNL     1      23.711  40.828  84.831  1.00  0.00    -0.504 OA
ATOM     19  H   UNL     1      23.561  39.973  85.347  1.00  0.00     0.293 HD
ENDBRANCH  15  18
BRANCH  17  20
ATOM     20  O   UNL     1      25.456  43.002  83.949  1.00  0.00    -0.504 OA
ATOM     21  H   UNL     1      25.780  43.762  83.368  1.00  0.00     0.293 HD
ENDBRANCH  17  20
ENDBRANCH   1  12
BRANCH   2  22
ATOM     22  O   UNL     1      25.130  45.390  88.956  1.00  0.00    -0.502 OA
ATOM     23  H   UNL     1      25.855  45.663  89.610  1.00  0.00     0.293 HD
ENDBRANCH   2  22
BRANCH   6  24
ATOM     24  O   UNL     1      23.749  50.461  89.823  1.00  0.00    -0.507 OA
ATOM     25  H   UNL     1      23.620  50.392  90.822  1.00  0.00     0.293 HD
ENDBRANCH   6  24
BRANCH   8  26
ATOM     26  O   UNL     1      20.072  50.886  86.789  1.00  0.00    -0.508 OA
ATOM     27  H   UNL     1      19.864  51.801  87.170  1.00  0.00     0.293 HD
ENDBRANCH   8  26
TORSDOF 6
ENDMDL
MODEL 9
REMARK VINA RESULT:    -4.648      2.748      3.933
REMARK INTER + INTRA:          -5.777
REMARK INTER:                  -5.653
REMARK INTRA:                  -0.125
REMARK UNBOUND:                -0.178
REMARK SMILES O=c1c(O)c(-c2ccc(O)c(O)c2)oc2cc(O)cc(O)c12
REMARK SMILES IDX 5 1 3 2 2 3 1 4 22 5 20 6 19 7 17 8 16 9 15 10 14 11 6 12
REMARK SMILES IDX 7 13 8 14 9 15 13 16 11 17 10 18 12 20 4 22 21 24 18 26
REMARK H PARENT 10 19 12 21 4 23 21 25 18 27
REMARK Flexibility Score: inf
ROOT
ATOM      1  C   UNL     1      23.280  45.474  87.375  1.00  0.00     0.180 A 
ATOM      2  C   UNL     1      24.635  45.763  87.605  1.00  0.00     0.208 A 
ATOM      3  C   UNL     1      25.613  44.878  87.124  1.00  0.00     0.238 A 
ATOM      4  O   UNL     1      26.826  45.170  87.286  1.00  0.00    -0.285 OA
ATOM      5  C   UNL     1      25.222  43.706  86.433  1.00  0.00     0.111 A 
ATOM      6  C   UNL     1      26.126  42.718  85.938  1.00  0.00     0.134 A 
ATOM      7  C   UNL     1      25.636  41.665  85.155  1.00  0.00     0.093 A 
ATOM      8  C   UNL     1      24.271  41.526  84.906  1.00  0.00     0.123 A 
ATOM      9  C   UNL     1      23.373  42.454  85.436  1.00  0.00     0.094 A 
ATOM     10  C   UNL     1      23.835  43.536  86.190  1.00  0.00     0.146 A 
ATOM     11  O   UNL     1      22.948  44.400  86.667  1.00  0.00    -0.452 OA
ENDROOT
BRANCH   1  12
ATOM     12  C   UNL     1      22.192  46.346  87.872  1.00  0.00     0.025 A 
ATOM     13  C   UNL     1      22.082  47.658  87.391  1.00  0.00     0.016 A 
ATOM     14  C   UNL     1      21.052  48.490  87.832  1.00  0.00     0.051 A 
ATOM     15  C   UNL     1      20.103  48.025  88.749  1.00  0.00     0.157 A 
ATOM     16  C   UNL     1      21.227  45.869  88.777  1.00  0.00     0.062 A 
ATOM     17  C   UNL     1      20.188  46.696  89.223  1.00  0.00     0.158 A 
BRANCH  15  18
ATOM     18  O   UNL     1      19.102  48.910  89.156  1.00  0.00    -0.504 OA
ATOM     19  H   UNL     1      19.156  49.912  89.047  1.00  0.00     0.293 HD
ENDBRANCH  15  18
BRANCH  17  20
ATOM     20  O   UNL     1      19.266  46.155  90.123  1.00  0.00    -0.504 OA
ATOM     21  H   UNL     1      19.241  46.378  91.108  1.00  0.00     0.293 HD
ENDBRANCH  17  20
ENDBRANCH   1  12
BRANCH   2  22
ATOM     22  O   UNL     1      25.000  46.938  88.271  1.00  0.00    -0.502 OA
ATOM     23  H   UNL     1      25.018  47.008  89.281  1.00  0.00     0.293 HD
ENDBRANCH   2  22
BRANCH   6  24
ATOM     24  O   UNL     1      27.498  42.711  86.207  1.00  0.00    -0.507 OA
ATOM     25  H   UNL     1      28.194  43.190  85.656  1.00  0.00     0.293 HD
ENDBRANCH   6  24
BRANCH   8  26
ATOM     26  O   UNL     1      23.817  40.457  84.136  1.00  0.00    -0.508 OA
ATOM     27  H   UNL     1      24.453  39.758  83.773  1.00  0.00     0.293 HD
ENDBRANCH   8  26
TORSDOF 6
ENDMDL
