MODEL 1
REMARK VINA RESULT:    -3.869      0.000      0.000
REMARK INTER + INTRA:          -6.082
REMARK INTER:                  -5.453
REMARK INTRA:                  -0.629
REMARK UNBOUND:                -0.629
REMARK SMILES CCCCCCCCC(=O)[O-]
REMARK SMILES IDX 6 1 7 2 8 3 9 4 10 5 11 6 5 7 4 8 3 9 2 10 1 11
REMARK H PARENT
REMARK Flexibility Score: inf
ROOT
ATOM      1  C   UNL     1     -15.889   9.769  31.905  1.00  0.00     0.000 C 
ENDROOT
BRANCH   1   2
ATOM      2  C   UNL     1     -15.125   8.665  32.652  1.00  0.00     0.006 C 
BRANCH   2   3
ATOM      3  C   UNL     1     -13.976   8.120  31.799  1.00  0.00     0.053 C 
BRANCH   3   4
ATOM      4  C   UNL     1     -14.489   7.137  30.795  1.00  0.00     0.041 C 
ATOM      5  O   UNL     1     -14.473   7.418  29.568  1.00  0.00    -0.550 OA
ATOM      6  O   UNL     1     -15.033   5.930  31.217  1.00  0.00    -0.550 OA
ENDBRANCH   3   4
ENDBRANCH   2   3
ENDBRANCH   1   2
BRANCH   1   7
ATOM      7  C   UNL     1     -14.952  10.819  31.286  1.00  0.00     0.000 C 
BRANCH   7   8
ATOM      8  C   UNL     1     -15.243  11.063  29.795  1.00  0.00    -0.000 C 
BRANCH   8   9
ATOM      9  C   UNL     1     -16.522  10.358  29.319  1.00  0.00    -0.000 C 
BRANCH   9  10
ATOM     10  C   UNL     1     -17.430  11.280  28.490  1.00  0.00    -0.003 C 
ATOM     11  C   UNL     1     -16.686  12.541  28.061  1.00  0.00     0.004 C 
ENDBRANCH   9  10
ENDBRANCH   8   9
ENDBRANCH   7   8
ENDBRANCH   1   7
TORSDOF 7
ENDMDL
MODEL 2
REMARK VINA RESULT:    -3.855      1.565      2.353
REMARK INTER + INTRA:          -6.061
REMARK INTER:                  -5.381
REMARK INTRA:                  -0.680
REMARK UNBOUND:                -0.629
REMARK SMILES CCCCCCCCC(=O)[O-]
REMARK SMILES IDX 6 1 7 2 8 3 9 4 10 5 11 6 5 7 4 8 3 9 2 10 1 11
REMARK H PARENT
REMARK Flexibility Score: inf
ROOT
ATOM      1  C   UNL     1     -17.347   8.924  31.193  1.00  0.00     0.000 C 
ENDROOT
BRANCH   1   2
ATOM      2  C   UNL     1     -17.569   7.404  31.185  1.00  0.00     0.006 C 
BRANCH   2   3
ATOM      3  C   UNL     1     -16.630   6.718  30.188  1.00  0.00     0.053 C 
BRANCH   3   4
ATOM      4  C   UNL     1     -15.528   6.009  30.909  1.00  0.00     0.041 C 
ATOM      5  O   UNL     1     -14.551   6.656  31.368  1.00  0.00    -0.550 OA
ATOM      6  O   UNL     1     -15.555   4.625  31.032  1.00  0.00    -0.550 OA
ENDBRANCH   3   4
ENDBRANCH   2   3
ENDBRANCH   1   2
BRANCH   1   7
ATOM      7  C   UNL     1     -16.609   9.407  32.453  1.00  0.00     0.000 C 
BRANCH   7   8
ATOM      8  C   UNL     1     -15.277  10.104  32.127  1.00  0.00    -0.000 C 
BRANCH   8   9
ATOM      9  C   UNL     1     -14.936  10.055  30.630  1.00  0.00    -0.000 C 
BRANCH   9  10
ATOM     10  C   UNL     1     -14.828  11.453  30.004  1.00  0.00    -0.003 C 
ATOM     11  C   UNL     1     -15.883  11.652  28.920  1.00  0.00     0.004 C 
ENDBRANCH   9  10
ENDBRANCH   8   9
ENDBRANCH   7   8
ENDBRANCH   1   7
TORSDOF 7
ENDMDL
MODEL 3
REMARK VINA RESULT:    -3.840      2.601      3.503
REMARK INTER + INTRA:          -6.041
REMARK INTER:                  -5.325
REMARK INTRA:                  -0.716
REMARK UNBOUND:                -0.629
REMARK SMILES CCCCCCCCC(=O)[O-]
REMARK SMILES IDX 6 1 7 2 8 3 9 4 10 5 11 6 5 7 4 8 3 9 2 10 1 11
REMARK H PARENT
REMARK Flexibility Score: inf
ROOT
ATOM      1  C   UNL     1     -13.934   8.121  30.512  1.00  0.00     0.000 C 
ENDROOT
BRANCH   1   2
ATOM      2  C   UNL     1     -14.663   6.915  29.901  1.00  0.00     0.006 C 
BRANCH   2   3
ATOM      3  C   UNL     1     -15.049   5.902  30.984  1.00  0.00     0.053 C 
BRANCH   3   4
ATOM      4  C   UNL     1     -15.394   4.583  30.368  1.00  0.00     0.041 C 
ATOM      5  O   UNL     1     -16.381   3.926  30.791  1.00  0.00    -0.550 OA
ATOM      6  O   UNL     1     -14.597   4.055  29.361  1.00  0.00    -0.550 OA
ENDBRANCH   3   4
ENDBRANCH   2   3
ENDBRANCH   1   2
BRANCH   1   7
ATOM      7  C   UNL     1     -13.899   8.074  32.048  1.00  0.00     0.000 C 
BRANCH   7   8
ATOM      8  C   UNL     1     -14.187   9.443  32.688  1.00  0.00    -0.000 C 
BRANCH   8   9
ATOM      9  C   UNL     1     -15.502  10.062  32.190  1.00  0.00    -0.000 C 
BRANCH   9  10
ATOM     10  C   UNL     1     -16.730   9.217  32.561  1.00  0.00    -0.003 C 
ATOM     11  C   UNL     1     -17.549   8.865  31.323  1.00  0.00     0.004 C 
ENDBRANCH   9  10
ENDBRANCH   8   9
ENDBRANCH   7   8
ENDBRANCH   1   7
TORSDOF 7
ENDMDL
MODEL 4
REMARK VINA RESULT:    -3.828      2.442      4.766
REMARK INTER + INTRA:          -6.023
REMARK INTER:                  -5.326
REMARK INTRA:                  -0.697
REMARK UNBOUND:                -0.629
REMARK SMILES CCCCCCCCC(=O)[O-]
REMARK SMILES IDX 6 1 7 2 8 3 9 4 10 5 11 6 5 7 4 8 3 9 2 10 1 11
REMARK H PARENT
REMARK Flexibility Score: inf
ROOT
ATOM      1  C   UNL     1     -16.742   9.518  29.260  1.00  0.00     0.000 C 
ENDROOT
BRANCH   1   2
ATOM      2  C   UNL     1     -16.392  11.010  29.176  1.00  0.00     0.006 C 
BRANCH   2   3
ATOM      3  C   UNL     1     -14.996  11.278  29.749  1.00  0.00     0.053 C 
BRANCH   3   4
ATOM      4  C   UNL     1     -14.062  11.720  28.667  1.00  0.00     0.041 C 
ATOM      5  O   UNL     1     -13.184  10.931  28.227  1.00  0.00    -0.550 OA
ATOM      6  O   UNL     1     -14.127  13.018  28.177  1.00  0.00    -0.550 OA
ENDBRANCH   3   4
ENDBRANCH   2   3
ENDBRANCH   1   2
BRANCH   1   7
ATOM      7  C   UNL     1     -17.725   9.205  30.400  1.00  0.00     0.000 C 
BRANCH   7   8
ATOM      8  C   UNL     1     -17.063   8.435  31.556  1.00  0.00    -0.000 C 
BRANCH   8   9
ATOM      9  C   UNL     1     -16.488   9.367  32.633  1.00  0.00    -0.000 C 
BRANCH   9  10
ATOM     10  C   UNL     1     -15.048   8.999  33.023  1.00  0.00    -0.003 C 
ATOM     11  C   UNL     1     -14.328   8.302  31.873  1.00  0.00     0.004 C 
ENDBRANCH   9  10
ENDBRANCH   8   9
ENDBRANCH   7   8
ENDBRANCH   1   7
TORSDOF 7
ENDMDL
MODEL 5
REMARK VINA RESULT:    -3.823     16.182     17.332
REMARK INTER + INTRA:          -6.017
REMARK INTER:                  -5.719
REMARK INTRA:                  -0.298
REMARK UNBOUND:                -0.629
REMARK SMILES CCCCCCCCC(=O)[O-]
REMARK SMILES IDX 6 1 7 2 8 3 9 4 10 5 11 6 5 7 4 8 3 9 2 10 1 11
REMARK H PARENT
REMARK Flexibility Score: inf
ROOT
ATOM      1  C   UNL     1     -20.723  -5.888  23.638  1.00  0.00     0.000 C 
ENDROOT
BRANCH   1   2
ATOM      2  C   UNL     1     -21.806  -6.395  24.602  1.00  0.00     0.006 C 
BRANCH   2   3
ATOM      3  C   UNL     1     -22.455  -5.231  25.357  1.00  0.00     0.053 C 
BRANCH   3   4
ATOM      4  C   UNL     1     -23.453  -5.741  26.348  1.00  0.00     0.041 C 
ATOM      5  O   UNL     1     -23.136  -6.656  27.152  1.00  0.00    -0.550 OA
ATOM      6  O   UNL     1     -24.749  -5.242  26.351  1.00  0.00    -0.550 OA
ENDBRANCH   3   4
ENDBRANCH   2   3
ENDBRANCH   1   2
BRANCH   1   7
ATOM      7  C   UNL     1     -20.591  -4.357  23.651  1.00  0.00     0.000 C 
BRANCH   7   8
ATOM      8  C   UNL     1     -19.180  -3.882  23.262  1.00  0.00    -0.000 C 
BRANCH   8   9
ATOM      9  C   UNL     1     -18.383  -4.956  22.506  1.00  0.00    -0.000 C 
BRANCH   9  10
ATOM     10  C   UNL     1     -16.876  -4.660  22.475  1.00  0.00    -0.003 C 
ATOM     11  C   UNL     1     -16.066  -5.946  22.345  1.00  0.00     0.004 C 
ENDBRANCH   9  10
ENDBRANCH   8   9
ENDBRANCH   7   8
ENDBRANCH   1   7
TORSDOF 7
ENDMDL
MODEL 6
REMARK VINA RESULT:    -3.813     16.412     17.601
REMARK INTER + INTRA:          -6.002
REMARK INTER:                  -5.675
REMARK INTRA:                  -0.327
REMARK UNBOUND:                -0.629
REMARK SMILES CCCCCCCCC(=O)[O-]
REMARK SMILES IDX 6 1 7 2 8 3 9 4 10 5 11 6 5 7 4 8 3 9 2 10 1 11
REMARK H PARENT
REMARK Flexibility Score: inf
ROOT
ATOM      1  C   UNL     1     -20.353  -4.582  23.750  1.00  0.00     0.000 C 
ENDROOT
BRANCH   1   2
ATOM      2  C   UNL     1     -19.090  -4.569  22.878  1.00  0.00     0.006 C 
BRANCH   2   3
ATOM      3  C   UNL     1     -18.860  -5.937  22.226  1.00  0.00     0.053 C 
BRANCH   3   4
ATOM      4  C   UNL     1     -17.480  -6.020  21.656  1.00  0.00     0.041 C 
ATOM      5  O   UNL     1     -17.300  -6.474  20.496  1.00  0.00    -0.550 OA
ATOM      6  O   UNL     1     -16.385  -5.644  22.424  1.00  0.00    -0.550 OA
ENDBRANCH   3   4
ENDBRANCH   2   3
ENDBRANCH   1   2
BRANCH   1   7
ATOM      7  C   UNL     1     -21.043  -5.956  23.771  1.00  0.00     0.000 C 
BRANCH   7   8
ATOM      8  C   UNL     1     -22.372  -5.939  24.546  1.00  0.00    -0.000 C 
BRANCH   8   9
ATOM      9  C   UNL     1     -22.315  -6.772  25.835  1.00  0.00    -0.000 C 
BRANCH   9  10
ATOM     10  C   UNL     1     -23.126  -6.144  26.979  1.00  0.00    -0.003 C 
ATOM     11  C   UNL     1     -22.678  -4.710  27.247  1.00  0.00     0.004 C 
ENDBRANCH   9  10
ENDBRANCH   8   9
ENDBRANCH   7   8
ENDBRANCH   1   7
TORSDOF 7
ENDMDL
MODEL 7
REMARK VINA RESULT:    -3.784     16.537     17.368
REMARK INTER + INTRA:          -5.962
REMARK INTER:                  -5.558
REMARK INTRA:                  -0.405
REMARK UNBOUND:                -0.629
REMARK SMILES CCCCCCCCC(=O)[O-]
REMARK SMILES IDX 6 1 7 2 8 3 9 4 10 5 11 6 5 7 4 8 3 9 2 10 1 11
REMARK H PARENT
REMARK Flexibility Score: inf
ROOT
ATOM      1  C   UNL     1     -18.414  -4.597  22.058  1.00  0.00     0.000 C 
ENDROOT
BRANCH   1   2
ATOM      2  C   UNL     1     -16.920  -4.516  22.407  1.00  0.00     0.006 C 
BRANCH   2   3
ATOM      3  C   UNL     1     -16.278  -5.906  22.393  1.00  0.00     0.053 C 
BRANCH   3   4
ATOM      4  C   UNL     1     -15.300  -6.020  21.266  1.00  0.00     0.041 C 
ATOM      5  O   UNL     1     -14.374  -6.871  21.315  1.00  0.00    -0.550 OA
ATOM      6  O   UNL     1     -15.380  -5.152  20.185  1.00  0.00    -0.550 OA
ENDBRANCH   3   4
ENDBRANCH   2   3
ENDBRANCH   1   2
BRANCH   1   7
ATOM      7  C   UNL     1     -19.025  -5.967  22.395  1.00  0.00     0.000 C 
BRANCH   7   8
ATOM      8  C   UNL     1     -20.341  -5.848  23.183  1.00  0.00    -0.000 C 
BRANCH   8   9
ATOM      9  C   UNL     1     -20.474  -4.502  23.911  1.00  0.00    -0.000 C 
BRANCH   9  10
ATOM     10  C   UNL     1     -21.746  -4.419  24.769  1.00  0.00    -0.003 C 
ATOM     11  C   UNL     1     -22.277  -5.810  25.100  1.00  0.00     0.004 C 
ENDBRANCH   9  10
ENDBRANCH   8   9
ENDBRANCH   7   8
ENDBRANCH   1   7
TORSDOF 7
ENDMDL
MODEL 8
REMARK VINA RESULT:    -3.746      2.743      4.611
REMARK INTER + INTRA:          -5.909
REMARK INTER:                  -5.360
REMARK INTRA:                  -0.549
REMARK UNBOUND:                -0.629
REMARK SMILES CCCCCCCCC(=O)[O-]
REMARK SMILES IDX 6 1 7 2 8 3 9 4 10 5 11 6 5 7 4 8 3 9 2 10 1 11
REMARK H PARENT
REMARK Flexibility Score: inf
ROOT
ATOM      1  C   UNL     1     -15.060  10.465  31.953  1.00  0.00     0.000 C 
ENDROOT
BRANCH   1   2
ATOM      2  C   UNL     1     -15.424  10.412  30.462  1.00  0.00     0.006 C 
BRANCH   2   3
ATOM      3  C   UNL     1     -14.693  11.508  29.680  1.00  0.00     0.053 C 
BRANCH   3   4
ATOM      4  C   UNL     1     -15.545  12.005  28.555  1.00  0.00     0.041 C 
ATOM      5  O   UNL     1     -15.024  12.634  27.597  1.00  0.00    -0.550 OA
ATOM      6  O   UNL     1     -16.921  11.819  28.588  1.00  0.00    -0.550 OA
ENDBRANCH   3   4
ENDBRANCH   2   3
ENDBRANCH   1   2
BRANCH   1   7
ATOM      7  C   UNL     1     -14.744   9.077  32.534  1.00  0.00     0.000 C 
BRANCH   7   8
ATOM      8  C   UNL     1     -13.944   8.196  31.559  1.00  0.00    -0.000 C 
BRANCH   8   9
ATOM      9  C   UNL     1     -14.702   6.921  31.159  1.00  0.00    -0.000 C 
BRANCH   9  10
ATOM     10  C   UNL     1     -14.604   6.624  29.655  1.00  0.00    -0.003 C 
ATOM     11  C   UNL     1     -13.633   7.580  28.969  1.00  0.00     0.004 C 
ENDBRANCH   9  10
ENDBRANCH   8   9
ENDBRANCH   7   8
ENDBRANCH   1   7
TORSDOF 7
ENDMDL
MODEL 9
REMARK VINA RESULT:    -3.746      2.369      4.530
REMARK INTER + INTRA:          -5.908
REMARK INTER:                  -5.054
REMARK INTRA:                  -0.854
REMARK UNBOUND:                -0.629
REMARK SMILES CCCCCCCCC(=O)[O-]
REMARK SMILES IDX 6 1 7 2 8 3 9 4 10 5 11 6 5 7 4 8 3 9 2 10 1 11
REMARK H PARENT
REMARK Flexibility Score: inf
ROOT
ATOM      1  C   UNL     1     -13.599   7.550  29.245  1.00  0.00     0.000 C 
ENDROOT
BRANCH   1   2
ATOM      2  C   UNL     1     -13.910   8.496  28.076  1.00  0.00     0.006 C 
BRANCH   2   3
ATOM      3  C   UNL     1     -13.570   9.945  28.438  1.00  0.00     0.053 C 
BRANCH   3   4
ATOM      4  C   UNL     1     -14.742  10.612  29.084  1.00  0.00     0.041 C 
ATOM      5  O   UNL     1     -15.911  10.208  28.849  1.00  0.00    -0.550 OA
ATOM      6  O   UNL     1     -14.549  11.714  29.908  1.00  0.00    -0.550 OA
ENDBRANCH   3   4
ENDBRANCH   2   3
ENDBRANCH   1   2
BRANCH   1   7
ATOM      7  C   UNL     1     -14.868   6.965  29.886  1.00  0.00     0.000 C 
BRANCH   7   8
ATOM      8  C   UNL     1     -14.940   7.228  31.400  1.00  0.00    -0.000 C 
BRANCH   8   9
ATOM      9  C   UNL     1     -13.935   8.294  31.863  1.00  0.00    -0.000 C 
BRANCH   9  10
ATOM     10  C   UNL     1     -14.606   9.447  32.624  1.00  0.00    -0.003 C 
ATOM     11  C   UNL     1     -16.126   9.359  32.525  1.00  0.00     0.004 C 
ENDBRANCH   9  10
ENDBRANCH   8   9
ENDBRANCH   7   8
ENDBRANCH   1   7
TORSDOF 7
ENDMDL
