MODEL 1
REMARK VINA RESULT:    -3.184      0.000      0.000
REMARK INTER + INTRA:          -4.053
REMARK INTER:                  -3.928
REMARK INTRA:                  -0.125
REMARK UNBOUND:                -0.125
REMARK SMILES CCCCCC(=O)[O-]
REMARK SMILES IDX 4 1 5 2 6 3 7 4 8 5 3 6 2 7 1 8
REMARK H PARENT
REMARK Flexibility Score: inf
ROOT
ATOM      1  C   UNL     1     -44.119 -48.446  36.391  1.00  0.00     0.006 C 
ENDROOT
BRANCH   1   2
ATOM      2  C   UNL     1     -45.007 -48.841  37.580  1.00  0.00     0.053 C 
BRANCH   2   3
ATOM      3  C   UNL     1     -46.442 -48.986  37.179  1.00  0.00     0.041 C 
ATOM      4  O   UNL     1     -47.163 -47.966  37.019  1.00  0.00    -0.550 OA
ATOM      5  O   UNL     1     -46.993 -50.250  37.009  1.00  0.00    -0.550 OA
ENDBRANCH   2   3
ENDBRANCH   1   2
BRANCH   1   6
ATOM      6  C   UNL     1     -43.882 -49.623  35.429  1.00  0.00     0.000 C 
BRANCH   6   7
ATOM      7  C   UNL     1     -43.114 -49.205  34.165  1.00  0.00    -0.003 C 
ATOM      8  C   UNL     1     -42.362 -47.884  34.339  1.00  0.00     0.004 C 
ENDBRANCH   6   7
ENDBRANCH   1   6
TORSDOF 4
ENDMDL
MODEL 2
REMARK VINA RESULT:    -3.173      0.135      1.153
REMARK INTER + INTRA:          -4.040
REMARK INTER:                  -3.919
REMARK INTRA:                  -0.121
REMARK UNBOUND:                -0.125
REMARK SMILES CCCCCC(=O)[O-]
REMARK SMILES IDX 4 1 5 2 6 3 7 4 8 5 3 6 2 7 1 8
REMARK H PARENT
REMARK Flexibility Score: inf
ROOT
ATOM      1  C   UNL     1     -44.161 -48.576  36.332  1.00  0.00     0.006 C 
ENDROOT
BRANCH   1   2
ATOM      2  C   UNL     1     -44.996 -49.082  37.516  1.00  0.00     0.053 C 
BRANCH   2   3
ATOM      3  C   UNL     1     -46.452 -49.167  37.176  1.00  0.00     0.041 C 
ATOM      4  O   UNL     1     -46.999 -50.289  37.008  1.00  0.00    -0.550 OA
ATOM      5  O   UNL     1     -47.198 -48.006  37.015  1.00  0.00    -0.550 OA
ENDBRANCH   2   3
ENDBRANCH   1   2
BRANCH   1   6
ATOM      6  C   UNL     1     -43.848 -49.694  35.323  1.00  0.00     0.000 C 
BRANCH   6   7
ATOM      7  C   UNL     1     -43.089 -49.179  34.089  1.00  0.00    -0.003 C 
ATOM      8  C   UNL     1     -42.356 -47.863  34.352  1.00  0.00     0.004 C 
ENDBRANCH   6   7
ENDBRANCH   1   6
TORSDOF 4
ENDMDL
MODEL 3
REMARK VINA RESULT:    -3.092      1.313      1.789
REMARK INTER + INTRA:          -3.941
REMARK INTER:                  -3.834
REMARK INTRA:                  -0.107
REMARK UNBOUND:                -0.125
REMARK SMILES CCCCCC(=O)[O-]
REMARK SMILES IDX 4 1 5 2 6 3 7 4 8 5 3 6 2 7 1 8
REMARK H PARENT
REMARK Flexibility Score: inf
ROOT
ATOM      1  C   UNL     1     -43.903 -49.533  35.470  1.00  0.00     0.006 C 
ENDROOT
BRANCH   1   2
ATOM      2  C   UNL     1     -43.856 -48.376  36.478  1.00  0.00     0.053 C 
BRANCH   2   3
ATOM      3  C   UNL     1     -44.949 -48.479  37.496  1.00  0.00     0.041 C 
ATOM      4  O   UNL     1     -46.115 -48.092  37.216  1.00  0.00    -0.550 OA
ATOM      5  O   UNL     1     -44.676 -48.974  38.765  1.00  0.00    -0.550 OA
ENDBRANCH   2   3
ENDBRANCH   1   2
BRANCH   1   6
ATOM      6  C   UNL     1     -43.072 -49.239  34.210  1.00  0.00     0.000 C 
BRANCH   6   7
ATOM      7  C   UNL     1     -42.367 -47.875  34.275  1.00  0.00    -0.003 C 
ATOM      8  C   UNL     1     -40.845 -47.998  34.359  1.00  0.00     0.004 C 
ENDBRANCH   6   7
ENDBRANCH   1   6
TORSDOF 4
ENDMDL
MODEL 4
REMARK VINA RESULT:    -2.836      3.210      4.350
REMARK INTER + INTRA:          -3.625
REMARK INTER:                  -3.575
REMARK INTRA:                  -0.050
REMARK UNBOUND:                -0.125
REMARK SMILES CCCCCC(=O)[O-]
REMARK SMILES IDX 4 1 5 2 6 3 7 4 8 5 3 6 2 7 1 8
REMARK H PARENT
REMARK Flexibility Score: inf
ROOT
ATOM      1  C   UNL     1     -40.830 -47.921  34.991  1.00  0.00     0.006 C 
ENDROOT
BRANCH   1   2
ATOM      2  C   UNL     1     -42.251 -47.853  34.415  1.00  0.00     0.053 C 
BRANCH   2   3
ATOM      3  C   UNL     1     -43.224 -48.640  35.237  1.00  0.00     0.041 C 
ATOM      4  O   UNL     1     -43.718 -49.707  34.786  1.00  0.00    -0.550 OA
ATOM      5  O   UNL     1     -43.609 -48.181  36.490  1.00  0.00    -0.550 OA
ENDBRANCH   2   3
ENDBRANCH   1   2
BRANCH   1   6
ATOM      6  C   UNL     1     -39.811 -48.441  33.962  1.00  0.00     0.000 C 
BRANCH   6   7
ATOM      7  C   UNL     1     -38.363 -48.348  34.468  1.00  0.00    -0.003 C 
ATOM      8  C   UNL     1     -37.357 -48.105  33.342  1.00  0.00     0.004 C 
ENDBRANCH   6   7
ENDBRANCH   1   6
TORSDOF 4
ENDMDL
MODEL 5
REMARK VINA RESULT:    -2.833      6.598      7.817
REMARK INTER + INTRA:          -3.621
REMARK INTER:                  -3.555
REMARK INTRA:                  -0.066
REMARK UNBOUND:                -0.125
REMARK SMILES CCCCCC(=O)[O-]
REMARK SMILES IDX 4 1 5 2 6 3 7 4 8 5 3 6 2 7 1 8
REMARK H PARENT
REMARK Flexibility Score: inf
ROOT
ATOM      1  C   UNL     1     -47.100 -54.596  38.652  1.00  0.00     0.006 C 
ENDROOT
BRANCH   1   2
ATOM      2  C   UNL     1     -47.631 -54.361  40.073  1.00  0.00     0.053 C 
BRANCH   2   3
ATOM      3  C   UNL     1     -48.126 -52.960  40.258  1.00  0.00     0.041 C 
ATOM      4  O   UNL     1     -49.254 -52.749  40.777  1.00  0.00    -0.550 OA
ATOM      5  O   UNL     1     -47.354 -51.887  39.832  1.00  0.00    -0.550 OA
ENDBRANCH   2   3
ENDBRANCH   1   2
BRANCH   1   6
ATOM      6  C   UNL     1     -46.718 -56.067  38.411  1.00  0.00     0.000 C 
BRANCH   6   7
ATOM      7  C   UNL     1     -47.930 -57.009  38.482  1.00  0.00    -0.003 C 
ATOM      8  C   UNL     1     -47.611 -58.422  37.993  1.00  0.00     0.004 C 
ENDBRANCH   6   7
ENDBRANCH   1   6
TORSDOF 4
ENDMDL
MODEL 6
REMARK VINA RESULT:    -2.792      2.840      4.412
REMARK INTER + INTRA:          -3.570
REMARK INTER:                  -3.436
REMARK INTRA:                  -0.134
REMARK UNBOUND:                -0.125
REMARK SMILES CCCCCC(=O)[O-]
REMARK SMILES IDX 4 1 5 2 6 3 7 4 8 5 3 6 2 7 1 8
REMARK H PARENT
REMARK Flexibility Score: inf
ROOT
ATOM      1  C   UNL     1     -43.822 -48.556  36.608  1.00  0.00     0.006 C 
ENDROOT
BRANCH   1   2
ATOM      2  C   UNL     1     -43.839 -49.492  35.391  1.00  0.00     0.053 C 
BRANCH   2   3
ATOM      3  C   UNL     1     -43.098 -48.907  34.228  1.00  0.00     0.041 C 
ATOM      4  O   UNL     1     -43.042 -49.530  33.135  1.00  0.00    -0.550 OA
ATOM      5  O   UNL     1     -42.445 -47.689  34.360  1.00  0.00    -0.550 OA
ENDBRANCH   2   3
ENDBRANCH   1   2
BRANCH   1   6
ATOM      6  C   UNL     1     -45.220 -48.387  37.229  1.00  0.00     0.000 C 
BRANCH   6   7
ATOM      7  C   UNL     1     -46.178 -49.523  36.840  1.00  0.00    -0.003 C 
ATOM      8  C   UNL     1     -46.487 -50.463  38.006  1.00  0.00     0.004 C 
ENDBRANCH   6   7
ENDBRANCH   1   6
TORSDOF 4
ENDMDL
MODEL 7
REMARK VINA RESULT:    -2.738      4.438      5.734
REMARK INTER + INTRA:          -3.504
REMARK INTER:                  -3.389
REMARK INTRA:                  -0.115
REMARK UNBOUND:                -0.125
REMARK SMILES CCCCCC(=O)[O-]
REMARK SMILES IDX 4 1 5 2 6 3 7 4 8 5 3 6 2 7 1 8
REMARK H PARENT
REMARK Flexibility Score: inf
ROOT
ATOM      1  C   UNL     1     -47.876 -53.095  38.488  1.00  0.00     0.006 C 
ENDROOT
BRANCH   1   2
ATOM      2  C   UNL     1     -47.280 -52.754  39.861  1.00  0.00     0.053 C 
BRANCH   2   3
ATOM      3  C   UNL     1     -48.271 -52.960  40.965  1.00  0.00     0.041 C 
ATOM      4  O   UNL     1     -47.891 -53.387  42.087  1.00  0.00    -0.550 OA
ATOM      5  O   UNL     1     -49.619 -52.707  40.746  1.00  0.00    -0.550 OA
ENDBRANCH   2   3
ENDBRANCH   1   2
BRANCH   1   6
ATOM      6  C   UNL     1     -47.123 -52.401  37.340  1.00  0.00     0.000 C 
BRANCH   6   7
ATOM      7  C   UNL     1     -46.429 -51.106  37.790  1.00  0.00    -0.003 C 
ATOM      8  C   UNL     1     -46.896 -49.879  37.005  1.00  0.00     0.004 C 
ENDBRANCH   6   7
ENDBRANCH   1   6
TORSDOF 4
ENDMDL
MODEL 8
REMARK VINA RESULT:    -2.722      2.712      4.610
REMARK INTER + INTRA:          -3.484
REMARK INTER:                  -3.363
REMARK INTRA:                  -0.121
REMARK UNBOUND:                -0.125
REMARK SMILES CCCCCC(=O)[O-]
REMARK SMILES IDX 4 1 5 2 6 3 7 4 8 5 3 6 2 7 1 8
REMARK H PARENT
REMARK Flexibility Score: inf
ROOT
ATOM      1  C   UNL     1     -46.434 -50.511  37.279  1.00  0.00     0.006 C 
ENDROOT
BRANCH   1   2
ATOM      2  C   UNL     1     -46.432 -48.980  37.165  1.00  0.00     0.053 C 
BRANCH   2   3
ATOM      3  C   UNL     1     -45.042 -48.424  37.165  1.00  0.00     0.041 C 
ATOM      4  O   UNL     1     -44.303 -48.562  36.155  1.00  0.00    -0.550 OA
ATOM      5  O   UNL     1     -44.551 -47.777  38.293  1.00  0.00    -0.550 OA
ENDBRANCH   2   3
ENDBRANCH   1   2
BRANCH   1   6
ATOM      6  C   UNL     1     -46.520 -50.984  38.740  1.00  0.00     0.000 C 
BRANCH   6   7
ATOM      7  C   UNL     1     -47.206 -52.353  38.876  1.00  0.00    -0.003 C 
ATOM      8  C   UNL     1     -47.626 -52.942  37.529  1.00  0.00     0.004 C 
ENDBRANCH   6   7
ENDBRANCH   1   6
TORSDOF 4
ENDMDL
MODEL 9
REMARK VINA RESULT:    -2.718      2.660      3.460
REMARK INTER + INTRA:          -3.479
REMARK INTER:                  -3.253
REMARK INTRA:                  -0.226
REMARK UNBOUND:                -0.125
REMARK SMILES CCCCCC(=O)[O-]
REMARK SMILES IDX 4 1 5 2 6 3 7 4 8 5 3 6 2 7 1 8
REMARK H PARENT
REMARK Flexibility Score: inf
ROOT
ATOM      1  C   UNL     1     -46.995 -49.440  36.911  1.00  0.00     0.006 C 
ENDROOT
BRANCH   1   2
ATOM      2  C   UNL     1     -46.226 -50.721  37.265  1.00  0.00     0.053 C 
BRANCH   2   3
ATOM      3  C   UNL     1     -46.697 -51.313  38.558  1.00  0.00     0.041 C 
ATOM      4  O   UNL     1     -47.381 -52.371  38.558  1.00  0.00    -0.550 OA
ATOM      5  O   UNL     1     -46.406 -50.682  39.760  1.00  0.00    -0.550 OA
ENDBRANCH   2   3
ENDBRANCH   1   2
BRANCH   1   6
ATOM      6  C   UNL     1     -46.175 -48.171  37.203  1.00  0.00     0.000 C 
BRANCH   6   7
ATOM      7  C   UNL     1     -44.664 -48.447  37.261  1.00  0.00    -0.003 C 
ATOM      8  C   UNL     1     -44.028 -47.991  38.574  1.00  0.00     0.004 C 
ENDBRANCH   6   7
ENDBRANCH   1   6
TORSDOF 4
ENDMDL
