MODEL 1
REMARK VINA RESULT:    -2.836      0.000      0.000
REMARK INTER + INTRA:          -5.911
REMARK INTER:                  -5.157
REMARK INTRA:                  -0.754
REMARK UNBOUND:                -0.754
REMARK SMILES CCCCCCCCCCCCCC[C@H](C)C(=O)[O-]
REMARK SMILES IDX 9 1 10 2 11 3 12 4 13 5 14 6 15 7 16 8 17 9 18 10 19 11 8 12
REMARK SMILES IDX 7 13 6 14 5 15 4 16 3 17 2 18 1 19
REMARK H PARENT
REMARK Flexibility Score: inf
ROOT
ATOM      1  C   UNL     1      40.110  13.991 -35.415  1.00  0.00     0.000 C 
ENDROOT
BRANCH   1   2
ATOM      2  C   UNL     1      40.875  12.845 -36.105  1.00  0.00     0.000 C 
BRANCH   2   3
ATOM      3  C   UNL     1      42.405  12.905 -35.952  1.00  0.00     0.000 C 
BRANCH   3   4
ATOM      4  C   UNL     1      43.014  11.786 -35.085  1.00  0.00     0.000 C 
BRANCH   4   5
ATOM      5  C   UNL     1      44.392  12.143 -34.489  1.00  0.00     0.001 C 
BRANCH   5   6
ATOM      6  C   UNL     1      44.335  12.348 -32.965  1.00  0.00     0.009 C 
BRANCH   6   7
ATOM      7  C   UNL     1      45.683  12.833 -32.392  1.00  0.00     0.032 C 
ATOM      8  C   UNL     1      46.837  12.434 -33.318  1.00  0.00     0.014 C 
BRANCH   7   9
ATOM      9  C   UNL     1      45.924  12.278 -31.014  1.00  0.00     0.044 C 
ATOM     10  O   UNL     1      45.407  12.833 -30.009  1.00  0.00    -0.550 OA
ATOM     11  O   UNL     1      46.721  11.151 -30.840  1.00  0.00    -0.550 OA
ENDBRANCH   7   9
ENDBRANCH   6   7
ENDBRANCH   5   6
ENDBRANCH   4   5
ENDBRANCH   3   4
ENDBRANCH   2   3
ENDBRANCH   1   2
BRANCH   1  12
ATOM     12  C   UNL     1      38.896  14.504 -36.222  1.00  0.00     0.000 C 
BRANCH  12  13
ATOM     13  C   UNL     1      37.574  13.864 -35.764  1.00  0.00    -0.000 C 
BRANCH  13  14
ATOM     14  C   UNL     1      37.319  14.065 -34.255  1.00  0.00    -0.000 C 
BRANCH  14  15
ATOM     15  C   UNL     1      37.174  12.747 -33.476  1.00  0.00    -0.000 C 
BRANCH  15  16
ATOM     16  C   UNL     1      36.889  12.968 -31.981  1.00  0.00    -0.000 C 
BRANCH  16  17
ATOM     17  C   UNL     1      36.950  14.450 -31.579  1.00  0.00    -0.000 C 
BRANCH  17  18
ATOM     18  C   UNL     1      37.337  14.647 -30.106  1.00  0.00    -0.003 C 
ATOM     19  C   UNL     1      36.878  13.466 -29.255  1.00  0.00     0.004 C 
ENDBRANCH  17  18
ENDBRANCH  16  17
ENDBRANCH  15  16
ENDBRANCH  14  15
ENDBRANCH  13  14
ENDBRANCH  12  13
ENDBRANCH   1  12
TORSDOF 14
ENDMDL
MODEL 2
REMARK VINA RESULT:    -2.534      3.094      7.602
REMARK INTER + INTRA:          -5.362
REMARK INTER:                  -4.682
REMARK INTRA:                  -0.679
REMARK UNBOUND:                -0.754
REMARK SMILES CCCCCCCCCCCCCC[C@H](C)C(=O)[O-]
REMARK SMILES IDX 9 1 10 2 11 3 12 4 13 5 14 6 15 7 16 8 17 9 18 10 19 11 8 12
REMARK SMILES IDX 7 13 6 14 5 15 4 16 3 17 2 18 1 19
REMARK H PARENT
REMARK Flexibility Score: inf
ROOT
ATOM      1  C   UNL     1      41.335  13.393 -35.611  1.00  0.00     0.000 C 
ENDROOT
BRANCH   1   2
ATOM      2  C   UNL     1      39.901  13.057 -36.064  1.00  0.00     0.000 C 
BRANCH   2   3
ATOM      3  C   UNL     1      38.967  14.271 -36.210  1.00  0.00     0.000 C 
BRANCH   3   4
ATOM      4  C   UNL     1      37.991  14.483 -35.037  1.00  0.00     0.000 C 
BRANCH   4   5
ATOM      5  C   UNL     1      37.824  13.241 -34.136  1.00  0.00     0.001 C 
BRANCH   5   6
ATOM      6  C   UNL     1      36.893  13.506 -32.940  1.00  0.00     0.009 C 
BRANCH   6   7
ATOM      7  C   UNL     1      37.459  12.936 -31.623  1.00  0.00     0.032 C 
ATOM      8  C   UNL     1      36.875  11.547 -31.342  1.00  0.00     0.014 C 
BRANCH   7   9
ATOM      9  C   UNL     1      37.174  13.850 -30.462  1.00  0.00     0.044 C 
ATOM     10  O   UNL     1      36.929  15.068 -30.663  1.00  0.00    -0.550 OA
ATOM     11  O   UNL     1      37.182  13.357 -29.161  1.00  0.00    -0.550 OA
ENDBRANCH   7   9
ENDBRANCH   6   7
ENDBRANCH   5   6
ENDBRANCH   4   5
ENDBRANCH   3   4
ENDBRANCH   2   3
ENDBRANCH   1   2
BRANCH   1  12
ATOM     12  C   UNL     1      42.085  12.199 -34.979  1.00  0.00     0.000 C 
BRANCH  12  13
ATOM     13  C   UNL     1      43.335  11.800 -35.782  1.00  0.00    -0.000 C 
BRANCH  13  14
ATOM     14  C   UNL     1      44.641  12.089 -35.012  1.00  0.00    -0.000 C 
BRANCH  14  15
ATOM     15  C   UNL     1      44.443  12.219 -33.493  1.00  0.00    -0.000 C 
BRANCH  15  16
ATOM     16  C   UNL     1      45.683  12.778 -32.775  1.00  0.00    -0.000 C 
BRANCH  16  17
ATOM     17  C   UNL     1      45.666  12.503 -31.263  1.00  0.00    -0.000 C 
BRANCH  17  18
ATOM     18  C   UNL     1      46.587  11.341 -30.865  1.00  0.00    -0.003 C 
ATOM     19  C   UNL     1      46.574  11.121 -29.355  1.00  0.00     0.004 C 
ENDBRANCH  17  18
ENDBRANCH  16  17
ENDBRANCH  15  16
ENDBRANCH  14  15
ENDBRANCH  13  14
ENDBRANCH  12  13
ENDBRANCH   1  12
TORSDOF 14
ENDMDL
MODEL 3
REMARK VINA RESULT:    -1.590      3.515      7.889
REMARK INTER + INTRA:          -3.645
REMARK INTER:                  -2.522
REMARK INTRA:                  -1.122
REMARK UNBOUND:                -0.754
REMARK SMILES CCCCCCCCCCCCCC[C@H](C)C(=O)[O-]
REMARK SMILES IDX 9 1 10 2 11 3 12 4 13 5 14 6 15 7 16 8 17 9 18 10 19 11 8 12
REMARK SMILES IDX 7 13 6 14 5 15 4 16 3 17 2 18 1 19
REMARK H PARENT
REMARK Flexibility Score: inf
ROOT
ATOM      1  C   UNL     1      43.607  12.457 -35.558  1.00  0.00     0.000 C 
ENDROOT
BRANCH   1   2
ATOM      2  C   UNL     1      42.336  11.632 -35.837  1.00  0.00     0.000 C 
BRANCH   2   3
ATOM      3  C   UNL     1      41.069  12.466 -36.099  1.00  0.00     0.000 C 
BRANCH   3   4
ATOM      4  C   UNL     1      41.225  13.979 -35.857  1.00  0.00     0.000 C 
BRANCH   4   5
ATOM      5  C   UNL     1      39.933  14.667 -35.366  1.00  0.00     0.001 C 
BRANCH   5   6
ATOM      6  C   UNL     1      38.705  13.746 -35.472  1.00  0.00     0.009 C 
BRANCH   6   7
ATOM      7  C   UNL     1      37.434  14.401 -34.892  1.00  0.00     0.032 C 
ATOM      8  C   UNL     1      37.602  15.922 -34.810  1.00  0.00     0.014 C 
BRANCH   7   9
ATOM      9  C   UNL     1      37.109  13.852 -33.528  1.00  0.00     0.044 C 
ATOM     10  O   UNL     1      37.047  14.624 -32.536  1.00  0.00    -0.550 OA
ATOM     11  O   UNL     1      36.879  12.492 -33.355  1.00  0.00    -0.550 OA
ENDBRANCH   7   9
ENDBRANCH   6   7
ENDBRANCH   5   6
ENDBRANCH   4   5
ENDBRANCH   3   4
ENDBRANCH   2   3
ENDBRANCH   1   2
BRANCH   1  12
ATOM     12  C   UNL     1      44.384  11.998 -34.304  1.00  0.00     0.000 C 
BRANCH  12  13
ATOM     13  C   UNL     1      43.701  12.438 -32.998  1.00  0.00    -0.000 C 
BRANCH  13  14
ATOM     14  C   UNL     1      44.699  12.547 -31.824  1.00  0.00    -0.000 C 
BRANCH  14  15
ATOM     15  C   UNL     1      46.112  12.974 -32.256  1.00  0.00    -0.000 C 
BRANCH  15  16
ATOM     16  C   UNL     1      47.187  11.940 -31.883  1.00  0.00    -0.000 C 
BRANCH  16  17
ATOM     17  C   UNL     1      46.670  10.876 -30.901  1.00  0.00    -0.000 C 
BRANCH  17  18
ATOM     18  C   UNL     1      47.041  11.189 -29.444  1.00  0.00    -0.003 C 
ATOM     19  C   UNL     1      45.826  11.063 -28.529  1.00  0.00     0.004 C 
ENDBRANCH  17  18
ENDBRANCH  16  17
ENDBRANCH  15  16
ENDBRANCH  14  15
ENDBRANCH  13  14
ENDBRANCH  12  13
ENDBRANCH   1  12
TORSDOF 14
ENDMDL
MODEL 4
REMARK VINA RESULT:    -1.045      3.648      7.924
REMARK INTER + INTRA:          -2.655
REMARK INTER:                  -1.809
REMARK INTRA:                  -0.846
REMARK UNBOUND:                -0.754
REMARK SMILES CCCCCCCCCCCCCC[C@H](C)C(=O)[O-]
REMARK SMILES IDX 9 1 10 2 11 3 12 4 13 5 14 6 15 7 16 8 17 9 18 10 19 11 8 12
REMARK SMILES IDX 7 13 6 14 5 15 4 16 3 17 2 18 1 19
REMARK H PARENT
REMARK Flexibility Score: inf
ROOT
ATOM      1  C   UNL     1      44.084  12.514 -35.725  1.00  0.00     0.000 C 
ENDROOT
BRANCH   1   2
ATOM      2  C   UNL     1      42.949  12.256 -36.736  1.00  0.00     0.000 C 
BRANCH   2   3
ATOM      3  C   UNL     1      41.933  13.404 -36.874  1.00  0.00     0.000 C 
BRANCH   3   4
ATOM      4  C   UNL     1      40.940  13.536 -35.704  1.00  0.00     0.000 C 
BRANCH   4   5
ATOM      5  C   UNL     1      40.307  14.939 -35.582  1.00  0.00     0.001 C 
BRANCH   5   6
ATOM      6  C   UNL     1      38.781  14.911 -35.778  1.00  0.00     0.009 C 
BRANCH   6   7
ATOM      7  C   UNL     1      38.164  13.563 -35.352  1.00  0.00     0.032 C 
ATOM      8  C   UNL     1      37.268  13.005 -36.464  1.00  0.00     0.014 C 
BRANCH   7   9
ATOM      9  C   UNL     1      37.368  13.702 -34.082  1.00  0.00     0.044 C 
ATOM     10  O   UNL     1      36.894  12.681 -33.519  1.00  0.00    -0.550 OA
ATOM     11  O   UNL     1      37.148  14.957 -33.524  1.00  0.00    -0.550 OA
ENDBRANCH   7   9
ENDBRANCH   6   7
ENDBRANCH   5   6
ENDBRANCH   4   5
ENDBRANCH   3   4
ENDBRANCH   2   3
ENDBRANCH   1   2
BRANCH   1  12
ATOM     12  C   UNL     1      43.912  11.759 -34.389  1.00  0.00     0.000 C 
BRANCH  12  13
ATOM     13  C   UNL     1      44.344  12.604 -33.178  1.00  0.00    -0.000 C 
BRANCH  13  14
ATOM     14  C   UNL     1      45.878  12.650 -33.014  1.00  0.00    -0.000 C 
BRANCH  14  15
ATOM     15  C   UNL     1      46.337  12.768 -31.551  1.00  0.00    -0.000 C 
BRANCH  15  16
ATOM     16  C   UNL     1      46.800  11.426 -30.962  1.00  0.00    -0.000 C 
BRANCH  16  17
ATOM     17  C   UNL     1      45.886  10.930 -29.829  1.00  0.00    -0.000 C 
BRANCH  17  18
ATOM     18  C   UNL     1      46.585  10.936 -28.462  1.00  0.00    -0.003 C 
ATOM     19  C   UNL     1      45.568  10.881 -27.325  1.00  0.00     0.004 C 
ENDBRANCH  17  18
ENDBRANCH  16  17
ENDBRANCH  15  16
ENDBRANCH  14  15
ENDBRANCH  13  14
ENDBRANCH  12  13
ENDBRANCH   1  12
TORSDOF 14
ENDMDL
MODEL 5
REMARK VINA RESULT:    -0.999      1.107      2.127
REMARK INTER + INTRA:          -2.570
REMARK INTER:                  -2.838
REMARK INTRA:                   0.268
REMARK UNBOUND:                -0.754
REMARK SMILES CCCCCCCCCCCCCC[C@H](C)C(=O)[O-]
REMARK SMILES IDX 9 1 10 2 11 3 12 4 13 5 14 6 15 7 16 8 17 9 18 10 19 11 8 12
REMARK SMILES IDX 7 13 6 14 5 15 4 16 3 17 2 18 1 19
REMARK H PARENT
REMARK Flexibility Score: inf
ROOT
ATOM      1  C   UNL     1      41.476  12.643 -36.062  1.00  0.00     0.000 C 
ENDROOT
BRANCH   1   2
ATOM      2  C   UNL     1      42.745  12.081 -35.394  1.00  0.00     0.000 C 
BRANCH   2   3
ATOM      3  C   UNL     1      43.991  12.046 -36.298  1.00  0.00     0.000 C 
BRANCH   3   4
ATOM      4  C   UNL     1      45.336  11.996 -35.548  1.00  0.00     0.000 C 
BRANCH   4   5
ATOM      5  C   UNL     1      45.198  12.135 -34.016  1.00  0.00     0.001 C 
BRANCH   5   6
ATOM      6  C   UNL     1      46.469  12.708 -33.365  1.00  0.00     0.009 C 
BRANCH   6   7
ATOM      7  C   UNL     1      46.548  12.383 -31.859  1.00  0.00     0.032 C 
ATOM      8  C   UNL     1      46.979  10.928 -31.643  1.00  0.00     0.014 C 
BRANCH   7   9
ATOM      9  C   UNL     1      45.229  12.627 -31.176  1.00  0.00     0.044 C 
ATOM     10  O   UNL     1      44.160  12.598 -31.839  1.00  0.00    -0.550 OA
ATOM     11  O   UNL     1      45.183  12.889 -29.810  1.00  0.00    -0.550 OA
ENDBRANCH   7   9
ENDBRANCH   6   7
ENDBRANCH   5   6
ENDBRANCH   4   5
ENDBRANCH   3   4
ENDBRANCH   2   3
ENDBRANCH   1   2
BRANCH   1  12
ATOM     12  C   UNL     1      41.276  14.159 -35.844  1.00  0.00     0.000 C 
BRANCH  12  13
ATOM     13  C   UNL     1      39.813  14.519 -35.534  1.00  0.00    -0.000 C 
BRANCH  13  14
ATOM     14  C   UNL     1      38.815  13.625 -36.300  1.00  0.00    -0.000 C 
BRANCH  14  15
ATOM     15  C   UNL     1      37.366  13.754 -35.802  1.00  0.00    -0.000 C 
BRANCH  15  16
ATOM     16  C   UNL     1      37.274  14.324 -34.377  1.00  0.00    -0.000 C 
BRANCH  16  17
ATOM     17  C   UNL     1      36.988  13.240 -33.324  1.00  0.00    -0.000 C 
BRANCH  17  18
ATOM     18  C   UNL     1      37.006  13.791 -31.891  1.00  0.00    -0.003 C 
ATOM     19  C   UNL     1      37.294  12.685 -30.881  1.00  0.00     0.004 C 
ENDBRANCH  17  18
ENDBRANCH  16  17
ENDBRANCH  15  16
ENDBRANCH  14  15
ENDBRANCH  13  14
ENDBRANCH  12  13
ENDBRANCH   1  12
TORSDOF 14
ENDMDL
MODEL 6
REMARK VINA RESULT:    -0.330      4.131      7.936
REMARK INTER + INTRA:          -1.354
REMARK INTER:                  -0.670
REMARK INTRA:                  -0.684
REMARK UNBOUND:                -0.754
REMARK SMILES CCCCCCCCCCCCCC[C@H](C)C(=O)[O-]
REMARK SMILES IDX 9 1 10 2 11 3 12 4 13 5 14 6 15 7 16 8 17 9 18 10 19 11 8 12
REMARK SMILES IDX 7 13 6 14 5 15 4 16 3 17 2 18 1 19
REMARK H PARENT
REMARK Flexibility Score: inf
ROOT
ATOM      1  C   UNL     1      44.825  11.931 -32.323  1.00  0.00     0.000 C 
ENDROOT
BRANCH   1   2
ATOM      2  C   UNL     1      44.106  12.655 -33.478  1.00  0.00     0.000 C 
BRANCH   2   3
ATOM      3  C   UNL     1      44.541  12.215 -34.887  1.00  0.00     0.000 C 
BRANCH   3   4
ATOM      4  C   UNL     1      43.458  11.480 -35.701  1.00  0.00     0.000 C 
BRANCH   4   5
ATOM      5  C   UNL     1      42.518  12.425 -36.479  1.00  0.00     0.001 C 
BRANCH   5   6
ATOM      6  C   UNL     1      41.210  12.705 -35.719  1.00  0.00     0.009 C 
BRANCH   6   7
ATOM      7  C   UNL     1      40.526  14.003 -36.195  1.00  0.00     0.032 C 
ATOM      8  C   UNL     1      41.107  15.218 -35.462  1.00  0.00     0.014 C 
BRANCH   7   9
ATOM      9  C   UNL     1      39.037  13.949 -35.984  1.00  0.00     0.044 C 
ATOM     10  O   UNL     1      38.274  13.660 -36.942  1.00  0.00    -0.550 OA
ATOM     11  O   UNL     1      38.495  14.218 -34.731  1.00  0.00    -0.550 OA
ENDBRANCH   7   9
ENDBRANCH   6   7
ENDBRANCH   5   6
ENDBRANCH   4   5
ENDBRANCH   3   4
ENDBRANCH   2   3
ENDBRANCH   1   2
BRANCH   1  12
ATOM     12  C   UNL     1      46.221  12.506 -32.000  1.00  0.00     0.000 C 
BRANCH  12  13
ATOM     13  C   UNL     1      46.906  11.768 -30.837  1.00  0.00    -0.000 C 
BRANCH  13  14
ATOM     14  C   UNL     1      45.911  10.914 -30.020  1.00  0.00    -0.000 C 
BRANCH  14  15
ATOM     15  C   UNL     1      46.225  10.877 -28.515  1.00  0.00    -0.000 C 
BRANCH  15  16
ATOM     16  C   UNL     1      45.260  11.740 -27.685  1.00  0.00    -0.000 C 
BRANCH  16  17
ATOM     17  C   UNL     1      45.079  11.213 -26.252  1.00  0.00    -0.000 C 
BRANCH  17  18
ATOM     18  C   UNL     1      44.020  11.997 -25.464  1.00  0.00    -0.003 C 
ATOM     19  C   UNL     1      44.632  12.664 -24.235  1.00  0.00     0.004 C 
ENDBRANCH  17  18
ENDBRANCH  16  17
ENDBRANCH  15  16
ENDBRANCH  14  15
ENDBRANCH  13  14
ENDBRANCH  12  13
ENDBRANCH   1  12
TORSDOF 14
ENDMDL
