MODEL 1
REMARK VINA RESULT:    -3.988      0.000      0.000
REMARK INTER + INTRA:          -6.391
REMARK INTER:                  -5.503
REMARK INTRA:                  -0.888
REMARK UNBOUND:                -0.888
REMARK SMILES OC[C@@H](O)[C@H](O)[C@@H](O)CO
REMARK SMILES IDX 5 1 3 2 2 3 1 4 4 6 7 8 9 9 10 10 8 12 6 14
REMARK H PARENT 1 5 4 7 10 11 8 13 6 15
REMARK Flexibility Score: inf
ROOT
ATOM      1  C   UNL     1       8.745  18.032  15.023  1.00  0.00     0.176 C 
ENDROOT
BRANCH   1   2
ATOM      2  C   UNL     1      10.231  17.616  14.807  1.00  0.00     0.171 C 
BRANCH   2   3
ATOM      3  C   UNL     1      10.414  16.537  13.730  1.00  0.00     0.190 C 
BRANCH   3   4
ATOM      4  O   UNL     1      10.064  17.036  12.469  1.00  0.00    -0.394 OA
ATOM      5  H   UNL     1      10.135  16.272  11.840  1.00  0.00     0.210 HD
ENDBRANCH   3   4
ENDBRANCH   2   3
BRANCH   2   6
ATOM      6  O   UNL     1      10.985  18.742  14.433  1.00  0.00    -0.388 OA
ATOM      7  H   UNL     1      10.678  19.501  14.994  1.00  0.00     0.211 HD
ENDBRANCH   2   6
ENDBRANCH   1   2
BRANCH   1   8
ATOM      8  C   UNL     1       8.490  18.734  16.397  1.00  0.00     0.171 C 
BRANCH   8   9
ATOM      9  C   UNL     1       8.371  20.265  16.258  1.00  0.00     0.190 C 
BRANCH   9  10
ATOM     10  O   UNL     1       9.613  20.840  15.946  1.00  0.00    -0.394 OA
ATOM     11  H   UNL     1      10.310  20.195  16.237  1.00  0.00     0.210 HD
ENDBRANCH   9  10
ENDBRANCH   8   9
BRANCH   8  12
ATOM     12  O   UNL     1       9.530  18.437  17.297  1.00  0.00    -0.388 OA
ATOM     13  H   UNL     1       9.108  18.079  18.122  1.00  0.00     0.211 HD
ENDBRANCH   8  12
ENDBRANCH   1   8
BRANCH   1  14
ATOM     14  O   UNL     1       8.335  18.863  13.963  1.00  0.00    -0.388 OA
ATOM     15  H   UNL     1       7.545  19.377  14.274  1.00  0.00     0.211 HD
ENDBRANCH   1  14
TORSDOF 9
ENDMDL
MODEL 2
REMARK VINA RESULT:    -3.887      7.452      8.493
REMARK INTER + INTRA:          -6.251
REMARK INTER:                  -5.617
REMARK INTRA:                  -0.634
REMARK UNBOUND:                -0.888
REMARK SMILES OC[C@@H](O)[C@H](O)[C@@H](O)CO
REMARK SMILES IDX 5 1 3 2 2 3 1 4 4 6 7 8 9 9 10 10 8 12 6 14
REMARK H PARENT 1 5 4 7 10 11 8 13 6 15
REMARK Flexibility Score: inf
ROOT
ATOM      1  C   UNL     1      13.486  12.540  18.737  1.00  0.00     0.176 C 
ENDROOT
BRANCH   1   2
ATOM      2  C   UNL     1      14.916  13.130  18.552  1.00  0.00     0.171 C 
BRANCH   2   3
ATOM      3  C   UNL     1      15.964  12.500  19.481  1.00  0.00     0.190 C 
BRANCH   3   4
ATOM      4  O   UNL     1      15.347  11.667  20.424  1.00  0.00    -0.394 OA
ATOM      5  H   UNL     1      15.770  10.775  20.322  1.00  0.00     0.210 HD
ENDBRANCH   3   4
ENDBRANCH   2   3
BRANCH   2   6
ATOM      6  O   UNL     1      15.336  12.939  17.224  1.00  0.00    -0.388 OA
ATOM      7  H   UNL     1      15.630  13.821  16.878  1.00  0.00     0.211 HD
ENDBRANCH   2   6
ENDBRANCH   1   2
BRANCH   1   8
ATOM      8  C   UNL     1      12.365  13.412  18.082  1.00  0.00     0.171 C 
BRANCH   8   9
ATOM      9  C   UNL     1      11.036  13.335  18.862  1.00  0.00     0.190 C 
BRANCH   9  10
ATOM     10  O   UNL     1      10.876  12.077  19.461  1.00  0.00    -0.394 OA
ATOM     11  H   UNL     1       9.914  11.989  19.696  1.00  0.00     0.210 HD
ENDBRANCH   9  10
ENDBRANCH   8   9
BRANCH   8  12
ATOM     12  O   UNL     1      12.139  13.000  16.755  1.00  0.00    -0.388 OA
ATOM     13  H   UNL     1      12.899  12.414  16.500  1.00  0.00     0.211 HD
ENDBRANCH   8  12
ENDBRANCH   1   8
BRANCH   1  14
ATOM     14  O   UNL     1      13.453  11.229  18.224  1.00  0.00    -0.388 OA
ATOM     15  H   UNL     1      14.385  10.974  17.994  1.00  0.00     0.211 HD
ENDBRANCH   1  14
TORSDOF 9
ENDMDL
MODEL 3
REMARK VINA RESULT:    -3.858      1.140      3.763
REMARK INTER + INTRA:          -6.212
REMARK INTER:                  -5.318
REMARK INTRA:                  -0.895
REMARK UNBOUND:                -0.888
REMARK SMILES OC[C@@H](O)[C@H](O)[C@@H](O)CO
REMARK SMILES IDX 5 1 3 2 2 3 1 4 4 6 7 8 9 9 10 10 8 12 6 14
REMARK H PARENT 1 5 4 7 10 11 8 13 6 15
REMARK Flexibility Score: inf
ROOT
ATOM      1  C   UNL     1       9.941  18.335  15.332  1.00  0.00     0.176 C 
ENDROOT
BRANCH   1   2
ATOM      2  C   UNL     1       8.554  19.010  15.113  1.00  0.00     0.171 C 
BRANCH   2   3
ATOM      3  C   UNL     1       8.585  20.537  15.265  1.00  0.00     0.190 C 
BRANCH   3   4
ATOM      4  O   UNL     1       9.712  20.936  15.996  1.00  0.00    -0.394 OA
ATOM      5  H   UNL     1       9.494  20.770  16.950  1.00  0.00     0.210 HD
ENDBRANCH   3   4
ENDBRANCH   2   3
BRANCH   2   6
ATOM      6  O   UNL     1       8.081  18.706  13.824  1.00  0.00    -0.388 OA
ATOM      7  H   UNL     1       7.585  17.850  13.887  1.00  0.00     0.211 HD
ENDBRANCH   2   6
ENDBRANCH   1   2
BRANCH   1   8
ATOM      8  C   UNL     1       9.924  16.788  15.100  1.00  0.00     0.171 C 
BRANCH   8   9
ATOM      9  C   UNL     1      10.674  16.381  13.816  1.00  0.00     0.190 C 
BRANCH   9  10
ATOM     10  O   UNL     1      10.115  17.001  12.688  1.00  0.00    -0.394 OA
ATOM     11  H   UNL     1       9.972  16.290  12.009  1.00  0.00     0.210 HD
ENDBRANCH   9  10
ENDBRANCH   8   9
BRANCH   8  12
ATOM     12  O   UNL     1       8.598  16.322  15.021  1.00  0.00    -0.388 OA
ATOM     13  H   UNL     1       8.104  16.951  14.432  1.00  0.00     0.211 HD
ENDBRANCH   8  12
ENDBRANCH   1   8
BRANCH   1  14
ATOM     14  O   UNL     1      10.894  18.947  14.495  1.00  0.00    -0.388 OA
ATOM     15  H   UNL     1      11.362  19.640  15.031  1.00  0.00     0.211 HD
ENDBRANCH   1  14
TORSDOF 9
ENDMDL
MODEL 4
REMARK VINA RESULT:    -3.747      9.641     11.109
REMARK INTER + INTRA:          -6.058
REMARK INTER:                  -5.453
REMARK INTRA:                  -0.605
REMARK UNBOUND:                -0.888
REMARK SMILES OC[C@@H](O)[C@H](O)[C@@H](O)CO
REMARK SMILES IDX 5 1 3 2 2 3 1 4 4 6 7 8 9 9 10 10 8 12 6 14
REMARK H PARENT 1 5 4 7 10 11 8 13 6 15
REMARK Flexibility Score: inf
ROOT
ATOM      1  C   UNL     1       1.738  13.263   9.790  1.00  0.00     0.176 C 
ENDROOT
BRANCH   1   2
ATOM      2  C   UNL     1       1.572  14.783  10.090  1.00  0.00     0.171 C 
BRANCH   2   3
ATOM      3  C   UNL     1       0.217  15.351   9.645  1.00  0.00     0.190 C 
BRANCH   3   4
ATOM      4  O   UNL     1      -0.559  14.354   9.037  1.00  0.00    -0.394 OA
ATOM      5  H   UNL     1      -0.544  14.549   8.065  1.00  0.00     0.210 HD
ENDBRANCH   3   4
ENDBRANCH   2   3
BRANCH   2   6
ATOM      6  O   UNL     1       1.709  15.007  11.472  1.00  0.00    -0.388 OA
ATOM      7  H   UNL     1       2.642  14.775  11.716  1.00  0.00     0.211 HD
ENDBRANCH   2   6
ENDBRANCH   1   2
BRANCH   1   8
ATOM      8  C   UNL     1       3.222  12.837   9.537  1.00  0.00     0.171 C 
BRANCH   8   9
ATOM      9  C   UNL     1       3.329  11.416   8.949  1.00  0.00     0.190 C 
BRANCH   9  10
ATOM     10  O   UNL     1       2.636  10.488   9.743  1.00  0.00    -0.394 OA
ATOM     11  H   UNL     1       3.285  10.134  10.405  1.00  0.00     0.210 HD
ENDBRANCH   9  10
ENDBRANCH   8   9
BRANCH   8  12
ATOM     12  O   UNL     1       3.955  12.892  10.737  1.00  0.00    -0.388 OA
ATOM     13  H   UNL     1       4.380  13.788  10.778  1.00  0.00     0.211 HD
ENDBRANCH   8  12
ENDBRANCH   1   8
BRANCH   1  14
ATOM     14  O   UNL     1       1.185  12.516  10.848  1.00  0.00    -0.388 OA
ATOM     15  H   UNL     1       0.532  11.880  10.455  1.00  0.00     0.211 HD
ENDBRANCH   1  14
TORSDOF 9
ENDMDL
MODEL 5
REMARK VINA RESULT:    -3.737      7.249      8.341
REMARK INTER + INTRA:          -6.044
REMARK INTER:                  -5.131
REMARK INTRA:                  -0.913
REMARK UNBOUND:                -0.888
REMARK SMILES OC[C@@H](O)[C@H](O)[C@@H](O)CO
REMARK SMILES IDX 5 1 3 2 2 3 1 4 4 6 7 8 9 9 10 10 8 12 6 14
REMARK H PARENT 1 5 4 7 10 11 8 13 6 15
REMARK Flexibility Score: inf
ROOT
ATOM      1  C   UNL     1      12.893  13.230  19.716  1.00  0.00     0.176 C 
ENDROOT
BRANCH   1   2
ATOM      2  C   UNL     1      11.543  12.849  19.040  1.00  0.00     0.171 C 
BRANCH   2   3
ATOM      3  C   UNL     1      11.212  13.702  17.807  1.00  0.00     0.190 C 
BRANCH   3   4
ATOM      4  O   UNL     1      11.901  13.228  16.682  1.00  0.00    -0.394 OA
ATOM      5  H   UNL     1      11.347  13.475  15.896  1.00  0.00     0.210 HD
ENDBRANCH   3   4
ENDBRANCH   2   3
BRANCH   2   6
ATOM      6  O   UNL     1      11.580  11.500  18.643  1.00  0.00    -0.388 OA
ATOM      7  H   UNL     1      11.962  11.473  17.728  1.00  0.00     0.211 HD
ENDBRANCH   2   6
ENDBRANCH   1   2
BRANCH   1   8
ATOM      8  C   UNL     1      13.994  12.129  19.574  1.00  0.00     0.171 C 
BRANCH   8   9
ATOM      9  C   UNL     1      15.280  12.484  20.348  1.00  0.00     0.190 C 
BRANCH   9  10
ATOM     10  O   UNL     1      15.027  13.463  21.322  1.00  0.00    -0.394 OA
ATOM     11  H   UNL     1      14.323  13.099  21.920  1.00  0.00     0.210 HD
ENDBRANCH   9  10
ENDBRANCH   8   9
BRANCH   8  12
ATOM     12  O   UNL     1      14.316  11.934  18.218  1.00  0.00    -0.388 OA
ATOM     13  H   UNL     1      14.011  11.021  17.975  1.00  0.00     0.211 HD
ENDBRANCH   8  12
ENDBRANCH   1   8
BRANCH   1  14
ATOM     14  O   UNL     1      13.350  14.453  19.188  1.00  0.00    -0.388 OA
ATOM     15  H   UNL     1      13.804  14.945  19.922  1.00  0.00     0.211 HD
ENDBRANCH   1  14
TORSDOF 9
ENDMDL
MODEL 6
REMARK VINA RESULT:    -3.736      2.024      4.229
REMARK INTER + INTRA:          -6.043
REMARK INTER:                  -5.056
REMARK INTRA:                  -0.988
REMARK UNBOUND:                -0.888
REMARK SMILES OC[C@@H](O)[C@H](O)[C@@H](O)CO
REMARK SMILES IDX 5 1 3 2 2 3 1 4 4 6 7 8 9 9 10 10 8 12 6 14
REMARK H PARENT 1 5 4 7 10 11 8 13 6 15
REMARK Flexibility Score: inf
ROOT
ATOM      1  C   UNL     1       8.454  20.266  15.700  1.00  0.00     0.176 C 
ENDROOT
BRANCH   1   2
ATOM      2  C   UNL     1       7.774  21.535  15.105  1.00  0.00     0.171 C 
BRANCH   2   3
ATOM      3  C   UNL     1       8.616  22.809  15.256  1.00  0.00     0.190 C 
BRANCH   3   4
ATOM      4  O   UNL     1       9.744  22.563  16.050  1.00  0.00    -0.394 OA
ATOM      5  H   UNL     1       9.401  22.212  16.913  1.00  0.00     0.210 HD
ENDBRANCH   3   4
ENDBRANCH   2   3
BRANCH   2   6
ATOM      6  O   UNL     1       7.520  21.335  13.736  1.00  0.00    -0.388 OA
ATOM      7  H   UNL     1       6.584  21.018  13.654  1.00  0.00     0.211 HD
ENDBRANCH   2   6
ENDBRANCH   1   2
BRANCH   1   8
ATOM      8  C   UNL     1       7.495  19.034  15.797  1.00  0.00     0.171 C 
BRANCH   8   9
ATOM      9  C   UNL     1       7.846  17.938  14.770  1.00  0.00     0.190 C 
BRANCH   9  10
ATOM     10  O   UNL     1       7.656  18.399  13.457  1.00  0.00    -0.394 OA
ATOM     11  H   UNL     1       8.557  18.489  13.050  1.00  0.00     0.210 HD
ENDBRANCH   9  10
ENDBRANCH   8   9
BRANCH   8  12
ATOM     12  O   UNL     1       6.162  19.437  15.596  1.00  0.00    -0.388 OA
ATOM     13  H   UNL     1       5.802  19.703  16.483  1.00  0.00     0.211 HD
ENDBRANCH   8  12
ENDBRANCH   1   8
BRANCH   1  14
ATOM     14  O   UNL     1       9.591  19.945  14.934  1.00  0.00    -0.388 OA
ATOM     15  H   UNL     1      10.385  20.296  15.416  1.00  0.00     0.211 HD
ENDBRANCH   1  14
TORSDOF 9
ENDMDL
MODEL 7
REMARK VINA RESULT:    -3.723      8.902     10.078
REMARK INTER + INTRA:          -6.026
REMARK INTER:                  -5.040
REMARK INTRA:                  -0.986
REMARK UNBOUND:                -0.888
REMARK SMILES OC[C@@H](O)[C@H](O)[C@@H](O)CO
REMARK SMILES IDX 5 1 3 2 2 3 1 4 4 6 7 8 9 9 10 10 8 12 6 14
REMARK H PARENT 1 5 4 7 10 11 8 13 6 15
REMARK Flexibility Score: inf
ROOT
ATOM      1  C   UNL     1       3.432  13.052  10.852  1.00  0.00     0.176 C 
ENDROOT
BRANCH   1   2
ATOM      2  C   UNL     1       2.496  12.243   9.905  1.00  0.00     0.171 C 
BRANCH   2   3
ATOM      3  C   UNL     1       2.054  10.893  10.486  1.00  0.00     0.190 C 
BRANCH   3   4
ATOM      4  O   UNL     1       1.037  11.074  11.433  1.00  0.00    -0.394 OA
ATOM      5  H   UNL     1       0.711  12.003  11.312  1.00  0.00     0.210 HD
ENDBRANCH   3   4
ENDBRANCH   2   3
BRANCH   2   6
ATOM      6  O   UNL     1       1.344  12.999   9.624  1.00  0.00    -0.388 OA
ATOM      7  H   UNL     1       1.026  12.727   8.724  1.00  0.00     0.211 HD
ENDBRANCH   2   6
ENDBRANCH   1   2
BRANCH   1   8
ATOM      8  C   UNL     1       4.010  14.349  10.197  1.00  0.00     0.171 C 
BRANCH   8   9
ATOM      9  C   UNL     1       3.421  15.631  10.821  1.00  0.00     0.190 C 
BRANCH   9  10
ATOM     10  O   UNL     1       2.049  15.741  10.545  1.00  0.00    -0.394 OA
ATOM     11  H   UNL     1       1.819  14.997   9.928  1.00  0.00     0.210 HD
ENDBRANCH   9  10
ENDBRANCH   8   9
BRANCH   8  12
ATOM     12  O   UNL     1       3.750  14.354   8.814  1.00  0.00    -0.388 OA
ATOM     13  H   UNL     1       3.253  15.190   8.615  1.00  0.00     0.211 HD
ENDBRANCH   8  12
ENDBRANCH   1   8
BRANCH   1  14
ATOM     14  O   UNL     1       2.737  13.366  12.036  1.00  0.00    -0.388 OA
ATOM     15  H   UNL     1       3.384  13.790  12.659  1.00  0.00     0.211 HD
ENDBRANCH   1  14
TORSDOF 9
ENDMDL
MODEL 8
REMARK VINA RESULT:    -3.723      2.061      2.891
REMARK INTER + INTRA:          -6.025
REMARK INTER:                  -5.067
REMARK INTRA:                  -0.958
REMARK UNBOUND:                -0.888
REMARK SMILES OC[C@@H](O)[C@H](O)[C@@H](O)CO
REMARK SMILES IDX 5 1 3 2 2 3 1 4 4 6 7 8 9 9 10 10 8 12 6 14
REMARK H PARENT 1 5 4 7 10 11 8 13 6 15
REMARK Flexibility Score: inf
ROOT
ATOM      1  C   UNL     1       8.452  16.945  13.859  1.00  0.00     0.176 C 
ENDROOT
BRANCH   1   2
ATOM      2  C   UNL     1       8.867  16.258  12.524  1.00  0.00     0.171 C 
BRANCH   2   3
ATOM      3  C   UNL     1       7.806  16.373  11.420  1.00  0.00     0.190 C 
BRANCH   3   4
ATOM      4  O   UNL     1       7.854  17.638  10.821  1.00  0.00    -0.394 OA
ATOM      5  H   UNL     1       6.933  18.002  10.871  1.00  0.00     0.210 HD
ENDBRANCH   3   4
ENDBRANCH   2   3
BRANCH   2   6
ATOM      6  O   UNL     1      10.058  16.834  12.049  1.00  0.00    -0.388 OA
ATOM      7  H   UNL     1      10.355  16.296  11.269  1.00  0.00     0.211 HD
ENDBRANCH   2   6
ENDBRANCH   1   2
BRANCH   1   8
ATOM      8  C   UNL     1       9.526  16.810  14.988  1.00  0.00     0.171 C 
BRANCH   8   9
ATOM      9  C   UNL     1      10.253  18.141  15.264  1.00  0.00     0.190 C 
BRANCH   9  10
ATOM     10  O   UNL     1      11.081  18.495  14.187  1.00  0.00    -0.394 OA
ATOM     11  H   UNL     1      10.905  17.841  13.462  1.00  0.00     0.210 HD
ENDBRANCH   9  10
ENDBRANCH   8   9
BRANCH   8  12
ATOM     12  O   UNL     1      10.478  15.833  14.641  1.00  0.00    -0.388 OA
ATOM     13  H   UNL     1      10.510  15.180  15.388  1.00  0.00     0.211 HD
ENDBRANCH   8  12
ENDBRANCH   1   8
BRANCH   1  14
ATOM     14  O   UNL     1       8.162  18.301  13.615  1.00  0.00    -0.388 OA
ATOM     15  H   UNL     1       8.896  18.840  14.012  1.00  0.00     0.211 HD
ENDBRANCH   1  14
TORSDOF 9
ENDMDL
MODEL 9
REMARK VINA RESULT:    -3.650      7.806      8.821
REMARK INTER + INTRA:          -5.925
REMARK INTER:                  -4.979
REMARK INTRA:                  -0.946
REMARK UNBOUND:                -0.888
REMARK SMILES OC[C@@H](O)[C@H](O)[C@@H](O)CO
REMARK SMILES IDX 5 1 3 2 2 3 1 4 4 6 7 8 9 9 10 10 8 12 6 14
REMARK H PARENT 1 5 4 7 10 11 8 13 6 15
REMARK Flexibility Score: inf
ROOT
ATOM      1  C   UNL     1       3.389  14.530  11.720  1.00  0.00     0.176 C 
ENDROOT
BRANCH   1   2
ATOM      2  C   UNL     1       2.299  14.682  10.617  1.00  0.00     0.171 C 
BRANCH   2   3
ATOM      3  C   UNL     1       1.957  13.365   9.907  1.00  0.00     0.190 C 
BRANCH   3   4
ATOM      4  O   UNL     1       1.091  12.593  10.692  1.00  0.00    -0.394 OA
ATOM      5  H   UNL     1       1.540  11.716  10.815  1.00  0.00     0.210 HD
ENDBRANCH   3   4
ENDBRANCH   2   3
BRANCH   2   6
ATOM      6  O   UNL     1       1.119  15.192  11.189  1.00  0.00    -0.388 OA
ATOM      7  H   UNL     1       1.335  16.087  11.560  1.00  0.00     0.211 HD
ENDBRANCH   2   6
ENDBRANCH   1   2
BRANCH   1   8
ATOM      8  C   UNL     1       3.782  15.883  12.398  1.00  0.00     0.171 C 
BRANCH   8   9
ATOM      9  C   UNL     1       3.249  15.991  13.841  1.00  0.00     0.190 C 
BRANCH   9  10
ATOM     10  O   UNL     1       1.848  15.898  13.869  1.00  0.00    -0.394 OA
ATOM     11  H   UNL     1       1.569  16.042  14.811  1.00  0.00     0.210 HD
ENDBRANCH   9  10
ENDBRANCH   8   9
BRANCH   8  12
ATOM     12  O   UNL     1       3.287  16.966  11.647  1.00  0.00    -0.388 OA
ATOM     13  H   UNL     1       2.925  17.627  12.294  1.00  0.00     0.211 HD
ENDBRANCH   8  12
ENDBRANCH   1   8
BRANCH   1  14
ATOM     14  O   UNL     1       2.947  13.606  12.687  1.00  0.00    -0.388 OA
ATOM     15  H   UNL     1       3.742  13.312  13.204  1.00  0.00     0.211 HD
ENDBRANCH   1  14
TORSDOF 9
ENDMDL
