MODEL 1
REMARK VINA RESULT:    -0.469      0.000      0.000
REMARK INTER + INTRA:          -0.881
REMARK INTER:                  -0.564
REMARK INTRA:                  -0.316
REMARK UNBOUND:                -0.316
REMARK SMILES O=c1c(O)c(-c2ccc(O)c(O)c2)oc2cc(O)cc(O)c12
REMARK SMILES IDX 5 1 3 2 2 3 1 4 22 5 20 6 19 7 17 8 16 9 15 10 14 11 6 12
REMARK SMILES IDX 7 13 8 14 9 15 13 16 11 17 10 18 12 20 4 22 21 24 18 26
REMARK H PARENT 10 19 12 21 4 23 21 25 18 27
REMARK Flexibility Score: inf
ROOT
ATOM      1  C   UNL     1       8.884 -16.000 -21.333  1.00  0.00     0.180 A 
ATOM      2  C   UNL     1       8.418 -16.662 -20.183  1.00  0.00     0.208 A 
ATOM      3  C   UNL     1       7.843 -17.936 -20.318  1.00  0.00     0.238 A 
ATOM      4  O   UNL     1       7.378 -18.500 -19.293  1.00  0.00    -0.285 OA
ATOM      5  C   UNL     1       7.757 -18.539 -21.595  1.00  0.00     0.111 A 
ATOM      6  C   UNL     1       7.230 -19.842 -21.842  1.00  0.00     0.134 A 
ATOM      7  C   UNL     1       7.073 -20.285 -23.162  1.00  0.00     0.093 A 
ATOM      8  C   UNL     1       7.483 -19.500 -24.239  1.00  0.00     0.123 A 
ATOM      9  C   UNL     1       8.054 -18.248 -24.005  1.00  0.00     0.094 A 
ATOM     10  C   UNL     1       8.190 -17.764 -22.703  1.00  0.00     0.146 A 
ATOM     11  O   UNL     1       8.729 -16.564 -22.524  1.00  0.00    -0.452 OA
ENDROOT
BRANCH   1  12
ATOM     12  C   UNL     1       9.524 -14.666 -21.268  1.00  0.00     0.025 A 
ATOM     13  C   UNL     1      10.876 -14.520 -20.920  1.00  0.00     0.016 A 
ATOM     14  C   UNL     1      11.463 -13.254 -20.890  1.00  0.00     0.051 A 
ATOM     15  C   UNL     1      10.722 -12.113 -21.217  1.00  0.00     0.157 A 
ATOM     16  C   UNL     1       8.783 -13.526 -21.618  1.00  0.00     0.062 A 
ATOM     17  C   UNL     1       9.364 -12.252 -21.590  1.00  0.00     0.158 A 
BRANCH  15  18
ATOM     18  O   UNL     1      11.368 -10.876 -21.162  1.00  0.00    -0.504 OA
ATOM     19  H   UNL     1      12.132 -10.665 -20.536  1.00  0.00     0.293 HD
ENDBRANCH  15  18
BRANCH  17  20
ATOM     20  O   UNL     1       8.563 -11.163 -21.939  1.00  0.00    -0.504 OA
ATOM     21  H   UNL     1       8.466 -10.330 -21.375  1.00  0.00     0.293 HD
ENDBRANCH  17  20
ENDBRANCH   1  12
BRANCH   2  22
ATOM     22  O   UNL     1       8.493 -16.040 -18.934  1.00  0.00    -0.502 OA
ATOM     23  H   UNL     1       8.095 -15.127 -18.756  1.00  0.00     0.293 HD
ENDBRANCH   2  22
BRANCH   6  24
ATOM     24  O   UNL     1       6.875 -20.745 -20.836  1.00  0.00    -0.507 OA
ATOM     25  H   UNL     1       7.480 -21.030 -20.080  1.00  0.00     0.293 HD
ENDBRANCH   6  24
BRANCH   8  26
ATOM     26  O   UNL     1       7.326 -19.979 -25.537  1.00  0.00    -0.508 OA
ATOM     27  H   UNL     1       6.697 -20.746 -25.747  1.00  0.00     0.293 HD
ENDBRANCH   8  26
TORSDOF 6
ENDMDL
MODEL 2
REMARK VINA RESULT:     0.151      2.376      3.666
REMARK INTER + INTRA:          -0.134
REMARK INTER:                  -0.638
REMARK INTRA:                   0.504
REMARK UNBOUND:                -0.316
REMARK SMILES O=c1c(O)c(-c2ccc(O)c(O)c2)oc2cc(O)cc(O)c12
REMARK SMILES IDX 5 1 3 2 2 3 1 4 22 5 20 6 19 7 17 8 16 9 15 10 14 11 6 12
REMARK SMILES IDX 7 13 8 14 9 15 13 16 11 17 10 18 12 20 4 22 21 24 18 26
REMARK H PARENT 10 19 12 21 4 23 21 25 18 27
REMARK Flexibility Score: inf
ROOT
ATOM      1  C   UNL     1       7.513 -16.547 -21.761  1.00  0.00     0.180 A 
ATOM      2  C   UNL     1       8.000 -17.215 -22.899  1.00  0.00     0.208 A 
ATOM      3  C   UNL     1       8.128 -18.613 -22.864  1.00  0.00     0.238 A 
ATOM      4  O   UNL     1       8.616 -19.199 -23.865  1.00  0.00    -0.285 OA
ATOM      5  C   UNL     1       7.754 -19.327 -21.701  1.00  0.00     0.111 A 
ATOM      6  C   UNL     1       7.805 -20.747 -21.570  1.00  0.00     0.134 A 
ATOM      7  C   UNL     1       7.534 -21.337 -20.329  1.00  0.00     0.093 A 
ATOM      8  C   UNL     1       7.151 -20.564 -19.233  1.00  0.00     0.123 A 
ATOM      9  C   UNL     1       7.041 -19.179 -19.366  1.00  0.00     0.094 A 
ATOM     10  C   UNL     1       7.340 -18.559 -20.581  1.00  0.00     0.146 A 
ATOM     11  O   UNL     1       7.232 -17.238 -20.663  1.00  0.00    -0.452 OA
ENDROOT
BRANCH   1  12
ATOM     12  C   UNL     1       7.327 -15.079 -21.730  1.00  0.00     0.025 A 
ATOM     13  C   UNL     1       7.128 -14.392 -20.522  1.00  0.00     0.016 A 
ATOM     14  C   UNL     1       6.979 -13.005 -20.516  1.00  0.00     0.051 A 
ATOM     15  C   UNL     1       7.037 -12.273 -21.707  1.00  0.00     0.157 A 
ATOM     16  C   UNL     1       7.407 -14.346 -22.925  1.00  0.00     0.062 A 
ATOM     17  C   UNL     1       7.258 -12.953 -22.928  1.00  0.00     0.158 A 
BRANCH  15  18
ATOM     18  O   UNL     1       6.875 -10.888 -21.632  1.00  0.00    -0.504 OA
ATOM     19  H   UNL     1       6.644 -10.303 -22.422  1.00  0.00     0.293 HD
ENDBRANCH  15  18
BRANCH  17  20
ATOM     20  O   UNL     1       7.338 -12.293 -24.155  1.00  0.00    -0.504 OA
ATOM     21  H   UNL     1       7.396 -11.288 -24.253  1.00  0.00     0.293 HD
ENDBRANCH  17  20
ENDBRANCH   1  12
BRANCH   2  22
ATOM     22  O   UNL     1       8.385 -16.489 -24.030  1.00  0.00    -0.502 OA
ATOM     23  H   UNL     1       9.334 -16.491 -24.380  1.00  0.00     0.293 HD
ENDBRANCH   2  22
BRANCH   6  24
ATOM     24  O   UNL     1       8.086 -21.619 -22.626  1.00  0.00    -0.507 OA
ATOM     25  H   UNL     1       7.591 -22.480 -22.808  1.00  0.00     0.293 HD
ENDBRANCH   6  24
BRANCH   8  26
ATOM     26  O   UNL     1       6.875 -21.186 -18.017  1.00  0.00    -0.508 OA
ATOM     27  H   UNL     1       6.326 -22.037 -17.970  1.00  0.00     0.293 HD
ENDBRANCH   8  26
TORSDOF 6
ENDMDL
MODEL 3
REMARK VINA RESULT:     0.645      3.143      7.437
REMARK INTER + INTRA:           0.460
REMARK INTER:                   0.783
REMARK INTRA:                  -0.322
REMARK UNBOUND:                -0.316
REMARK SMILES O=c1c(O)c(-c2ccc(O)c(O)c2)oc2cc(O)cc(O)c12
REMARK SMILES IDX 5 1 3 2 2 3 1 4 22 5 20 6 19 7 17 8 16 9 15 10 14 11 6 12
REMARK SMILES IDX 7 13 8 14 9 15 13 16 11 17 10 18 12 20 4 22 21 24 18 26
REMARK H PARENT 10 19 12 21 4 23 21 25 18 27
REMARK Flexibility Score: inf
ROOT
ATOM      1  C   UNL     1       7.933 -19.535 -20.034  1.00  0.00     0.180 A 
ATOM      2  C   UNL     1       8.060 -19.705 -21.424  1.00  0.00     0.208 A 
ATOM      3  C   UNL     1       7.991 -18.577 -22.257  1.00  0.00     0.238 A 
ATOM      4  O   UNL     1       8.051 -18.742 -23.503  1.00  0.00    -0.285 OA
ATOM      5  C   UNL     1       7.813 -17.292 -21.690  1.00  0.00     0.111 A 
ATOM      6  C   UNL     1       7.770 -16.076 -22.436  1.00  0.00     0.134 A 
ATOM      7  C   UNL     1       7.458 -14.877 -21.784  1.00  0.00     0.093 A 
ATOM      8  C   UNL     1       7.254 -14.838 -20.405  1.00  0.00     0.123 A 
ATOM      9  C   UNL     1       7.353 -16.012 -19.658  1.00  0.00     0.094 A 
ATOM     10  C   UNL     1       7.626 -17.230 -20.285  1.00  0.00     0.146 A 
ATOM     11  O   UNL     1       7.701 -18.326 -19.538  1.00  0.00    -0.452 OA
ENDROOT
BRANCH   1  12
ATOM     12  C   UNL     1       8.020 -20.673 -19.090  1.00  0.00     0.025 A 
ATOM     13  C   UNL     1       6.875 -21.381 -18.692  1.00  0.00     0.016 A 
ATOM     14  C   UNL     1       6.985 -22.466 -17.820  1.00  0.00     0.051 A 
ATOM     15  C   UNL     1       8.234 -22.873 -17.339  1.00  0.00     0.157 A 
ATOM     16  C   UNL     1       9.277 -21.093 -18.627  1.00  0.00     0.062 A 
ATOM     17  C   UNL     1       9.396 -22.179 -17.751  1.00  0.00     0.158 A 
BRANCH  15  18
ATOM     18  O   UNL     1       8.275 -23.962 -16.466  1.00  0.00    -0.504 OA
ATOM     19  H   UNL     1       7.568 -24.156 -15.772  1.00  0.00     0.293 HD
ENDBRANCH  15  18
BRANCH  17  20
ATOM     20  O   UNL     1      10.677 -22.532 -17.323  1.00  0.00    -0.504 OA
ATOM     21  H   UNL     1      11.113 -22.171 -16.486  1.00  0.00     0.293 HD
ENDBRANCH  17  20
ENDBRANCH   1  12
BRANCH   2  22
ATOM     22  O   UNL     1       8.213 -20.985 -21.965  1.00  0.00    -0.502 OA
ATOM     23  H   UNL     1       9.095 -21.319 -22.332  1.00  0.00     0.293 HD
ENDBRANCH   2  22
BRANCH   6  24
ATOM     24  O   UNL     1       8.049 -15.988 -23.803  1.00  0.00    -0.507 OA
ATOM     25  H   UNL     1       7.401 -16.226 -24.539  1.00  0.00     0.293 HD
ENDBRANCH   6  24
BRANCH   8  26
ATOM     26  O   UNL     1       6.961 -13.624 -19.788  1.00  0.00    -0.508 OA
ATOM     27  H   UNL     1       7.529 -12.799 -19.944  1.00  0.00     0.293 HD
ENDBRANCH   8  26
TORSDOF 6
ENDMDL
MODEL 4
REMARK VINA RESULT:     0.872      2.605      7.000
REMARK INTER + INTRA:           0.734
REMARK INTER:                   0.498
REMARK INTRA:                   0.236
REMARK UNBOUND:                -0.316
REMARK SMILES O=c1c(O)c(-c2ccc(O)c(O)c2)oc2cc(O)cc(O)c12
REMARK SMILES IDX 5 1 3 2 2 3 1 4 22 5 20 6 19 7 17 8 16 9 15 10 14 11 6 12
REMARK SMILES IDX 7 13 8 14 9 15 13 16 11 17 10 18 12 20 4 22 21 24 18 26
REMARK H PARENT 10 19 12 21 4 23 21 25 18 27
REMARK Flexibility Score: inf
ROOT
ATOM      1  C   UNL     1       7.543 -16.694 -21.533  1.00  0.00     0.180 A 
ATOM      2  C   UNL     1       7.584 -16.634 -22.937  1.00  0.00     0.208 A 
ATOM      3  C   UNL     1       7.523 -15.380 -23.567  1.00  0.00     0.238 A 
ATOM      4  O   UNL     1       7.505 -15.337 -24.824  1.00  0.00    -0.285 OA
ATOM      5  C   UNL     1       7.440 -14.203 -22.786  1.00  0.00     0.111 A 
ATOM      6  C   UNL     1       7.414 -12.878 -23.318  1.00  0.00     0.134 A 
ATOM      7  C   UNL     1       7.199 -11.794 -22.458  1.00  0.00     0.093 A 
ATOM      8  C   UNL     1       7.074 -11.978 -21.082  1.00  0.00     0.123 A 
ATOM      9  C   UNL     1       7.158 -13.264 -20.545  1.00  0.00     0.094 A 
ATOM     10  C   UNL     1       7.335 -14.369 -21.381  1.00  0.00     0.146 A 
ATOM     11  O   UNL     1       7.399 -15.577 -20.831  1.00  0.00    -0.452 OA
ENDROOT
BRANCH   1  12
ATOM     12  C   UNL     1       7.627 -17.976 -20.797  1.00  0.00     0.025 A 
ATOM     13  C   UNL     1       6.875 -18.202 -19.634  1.00  0.00     0.016 A 
ATOM     14  C   UNL     1       6.953 -19.428 -18.971  1.00  0.00     0.051 A 
ATOM     15  C   UNL     1       7.768 -20.455 -19.459  1.00  0.00     0.157 A 
ATOM     16  C   UNL     1       8.430 -19.012 -21.301  1.00  0.00     0.062 A 
ATOM     17  C   UNL     1       8.514 -20.245 -20.643  1.00  0.00     0.158 A 
BRANCH  15  18
ATOM     18  O   UNL     1       7.804 -21.655 -18.746  1.00  0.00    -0.504 OA
ATOM     19  H   UNL     1       7.278 -21.827 -17.902  1.00  0.00     0.293 HD
ENDBRANCH  15  18
BRANCH  17  20
ATOM     20  O   UNL     1       9.341 -21.224 -21.196  1.00  0.00    -0.504 OA
ATOM     21  H   UNL     1      10.155 -21.603 -20.733  1.00  0.00     0.293 HD
ENDBRANCH  17  20
ENDBRANCH   1  12
BRANCH   2  22
ATOM     22  O   UNL     1       7.644 -17.810 -23.690  1.00  0.00    -0.502 OA
ATOM     23  H   UNL     1       7.842 -17.812 -24.682  1.00  0.00     0.293 HD
ENDBRANCH   2  22
BRANCH   6  24
ATOM     24  O   UNL     1       7.621 -12.574 -24.666  1.00  0.00    -0.507 OA
ATOM     25  H   UNL     1       8.077 -11.739 -25.003  1.00  0.00     0.293 HD
ENDBRANCH   6  24
BRANCH   8  26
ATOM     26  O   UNL     1       6.875 -10.875 -20.255  1.00  0.00    -0.508 OA
ATOM     27  H   UNL     1       6.801 -10.973 -19.249  1.00  0.00     0.293 HD
ENDBRANCH   8  26
TORSDOF 6
ENDMDL
MODEL 5
REMARK VINA RESULT:     1.015      1.685      2.407
REMARK INTER + INTRA:           0.906
REMARK INTER:                   1.060
REMARK INTRA:                  -0.154
REMARK UNBOUND:                -0.316
REMARK SMILES O=c1c(O)c(-c2ccc(O)c(O)c2)oc2cc(O)cc(O)c12
REMARK SMILES IDX 5 1 3 2 2 3 1 4 22 5 20 6 19 7 17 8 16 9 15 10 14 11 6 12
REMARK SMILES IDX 7 13 8 14 9 15 13 16 11 17 10 18 12 20 4 22 21 24 18 26
REMARK H PARENT 10 19 12 21 4 23 21 25 18 27
REMARK Flexibility Score: inf
ROOT
ATOM      1  C   UNL     1       7.785 -16.056 -21.240  1.00  0.00     0.180 A 
ATOM      2  C   UNL     1       7.383 -16.222 -19.903  1.00  0.00     0.208 A 
ATOM      3  C   UNL     1       7.288 -17.521 -19.378  1.00  0.00     0.238 A 
ATOM      4  O   UNL     1       6.875 -17.666 -18.198  1.00  0.00    -0.285 OA
ATOM      5  C   UNL     1       7.612 -18.635 -20.189  1.00  0.00     0.111 A 
ATOM      6  C   UNL     1       7.589 -19.992 -19.747  1.00  0.00     0.134 A 
ATOM      7  C   UNL     1       7.802 -21.023 -20.672  1.00  0.00     0.093 A 
ATOM      8  C   UNL     1       8.099 -20.744 -22.005  1.00  0.00     0.123 A 
ATOM      9  C   UNL     1       8.182 -19.418 -22.434  1.00  0.00     0.094 A 
ATOM     10  C   UNL     1       7.939 -18.370 -21.543  1.00  0.00     0.146 A 
ATOM     11  O   UNL     1       8.018 -17.123 -21.994  1.00  0.00    -0.452 OA
ENDROOT
BRANCH   1  12
ATOM     12  C   UNL     1       7.932 -14.719 -21.858  1.00  0.00     0.025 A 
ATOM     13  C   UNL     1       7.098 -14.301 -22.906  1.00  0.00     0.016 A 
ATOM     14  C   UNL     1       7.239 -13.026 -23.456  1.00  0.00     0.051 A 
ATOM     15  C   UNL     1       8.203 -12.139 -22.965  1.00  0.00     0.157 A 
ATOM     16  C   UNL     1       8.886 -13.823 -21.349  1.00  0.00     0.062 A 
ATOM     17  C   UNL     1       9.036 -12.542 -21.894  1.00  0.00     0.158 A 
BRANCH  15  18
ATOM     18  O   UNL     1       8.297 -10.880 -23.562  1.00  0.00    -0.504 OA
ATOM     19  H   UNL     1       9.168 -10.393 -23.721  1.00  0.00     0.293 HD
ENDBRANCH  15  18
BRANCH  17  20
ATOM     20  O   UNL     1      10.013 -11.710 -21.344  1.00  0.00    -0.504 OA
ATOM     21  H   UNL     1       9.812 -10.848 -20.856  1.00  0.00     0.293 HD
ENDBRANCH  17  20
ENDBRANCH   1  12
BRANCH   2  22
ATOM     22  O   UNL     1       7.047 -15.110 -19.126  1.00  0.00    -0.502 OA
ATOM     23  H   UNL     1       7.732 -14.430 -18.825  1.00  0.00     0.293 HD
ENDBRANCH   2  22
BRANCH   6  24
ATOM     24  O   UNL     1       7.393 -20.378 -18.418  1.00  0.00    -0.507 OA
ATOM     25  H   UNL     1       7.135 -19.752 -17.670  1.00  0.00     0.293 HD
ENDBRANCH   6  24
BRANCH   8  26
ATOM     26  O   UNL     1       8.320 -21.794 -22.894  1.00  0.00    -0.508 OA
ATOM     27  H   UNL     1       7.971 -21.764 -23.845  1.00  0.00     0.293 HD
ENDBRANCH   8  26
TORSDOF 6
ENDMDL
MODEL 6
REMARK VINA RESULT:     1.274      1.628      6.775
REMARK INTER + INTRA:           1.219
REMARK INTER:                   1.513
REMARK INTRA:                  -0.294
REMARK UNBOUND:                -0.316
REMARK SMILES O=c1c(O)c(-c2ccc(O)c(O)c2)oc2cc(O)cc(O)c12
REMARK SMILES IDX 5 1 3 2 2 3 1 4 22 5 20 6 19 7 17 8 16 9 15 10 14 11 6 12
REMARK SMILES IDX 7 13 8 14 9 15 13 16 11 17 10 18 12 20 4 22 21 24 18 26
REMARK H PARENT 10 19 12 21 4 23 21 25 18 27
REMARK Flexibility Score: inf
ROOT
ATOM      1  C   UNL     1       8.839 -15.691 -21.208  1.00  0.00     0.180 A 
ATOM      2  C   UNL     1      10.104 -15.229 -20.803  1.00  0.00     0.208 A 
ATOM      3  C   UNL     1      10.482 -13.915 -21.120  1.00  0.00     0.238 A 
ATOM      4  O   UNL     1      11.637 -13.526 -20.803  1.00  0.00    -0.285 OA
ATOM      5  C   UNL     1       9.587 -13.073 -21.822  1.00  0.00     0.111 A 
ATOM      6  C   UNL     1       9.851 -11.712 -22.160  1.00  0.00     0.134 A 
ATOM      7  C   UNL     1       8.946 -11.014 -22.970  1.00  0.00     0.093 A 
ATOM      8  C   UNL     1       7.759 -11.605 -23.399  1.00  0.00     0.123 A 
ATOM      9  C   UNL     1       7.463 -12.916 -23.025  1.00  0.00     0.094 A 
ATOM     10  C   UNL     1       8.363 -13.650 -22.248  1.00  0.00     0.146 A 
ATOM     11  O   UNL     1       8.048 -14.899 -21.922  1.00  0.00    -0.452 OA
ENDROOT
BRANCH   1  12
ATOM     12  C   UNL     1       8.359 -17.055 -20.890  1.00  0.00     0.025 A 
ATOM     13  C   UNL     1       7.883 -17.383 -19.611  1.00  0.00     0.016 A 
ATOM     14  C   UNL     1       7.413 -18.669 -19.342  1.00  0.00     0.051 A 
ATOM     15  C   UNL     1       7.395 -19.648 -20.341  1.00  0.00     0.157 A 
ATOM     16  C   UNL     1       8.322 -18.028 -21.901  1.00  0.00     0.062 A 
ATOM     17  C   UNL     1       7.853 -19.322 -21.640  1.00  0.00     0.158 A 
BRANCH  15  18
ATOM     18  O   UNL     1       6.918 -20.916 -20.005  1.00  0.00    -0.504 OA
ATOM     19  H   UNL     1       7.049 -21.349 -19.103  1.00  0.00     0.293 HD
ENDBRANCH  15  18
BRANCH  17  20
ATOM     20  O   UNL     1       7.857 -20.241 -22.691  1.00  0.00    -0.504 OA
ATOM     21  H   UNL     1       8.573 -20.941 -22.827  1.00  0.00     0.293 HD
ENDBRANCH  17  20
ENDBRANCH   1  12
BRANCH   2  22
ATOM     22  O   UNL     1      10.982 -16.084 -20.130  1.00  0.00    -0.502 OA
ATOM     23  H   UNL     1      11.928 -15.815 -19.892  1.00  0.00     0.293 HD
ENDBRANCH   2  22
BRANCH   6  24
ATOM     24  O   UNL     1      10.963 -10.996 -21.707  1.00  0.00    -0.507 OA
ATOM     25  H   UNL     1      11.607 -11.321 -21.001  1.00  0.00     0.293 HD
ENDBRANCH   6  24
BRANCH   8  26
ATOM     26  O   UNL     1       6.875 -10.875 -24.191  1.00  0.00    -0.508 OA
ATOM     27  H   UNL     1       5.875 -11.035 -24.154  1.00  0.00     0.293 HD
ENDBRANCH   8  26
TORSDOF 6
ENDMDL
MODEL 7
REMARK VINA RESULT:     2.038      2.666      6.477
REMARK INTER + INTRA:           2.139
REMARK INTER:                   1.809
REMARK INTRA:                   0.330
REMARK UNBOUND:                -0.316
REMARK SMILES O=c1c(O)c(-c2ccc(O)c(O)c2)oc2cc(O)cc(O)c12
REMARK SMILES IDX 5 1 3 2 2 3 1 4 22 5 20 6 19 7 17 8 16 9 15 10 14 11 6 12
REMARK SMILES IDX 7 13 8 14 9 15 13 16 11 17 10 18 12 20 4 22 21 24 18 26
REMARK H PARENT 10 19 12 21 4 23 21 25 18 27
REMARK Flexibility Score: inf
ROOT
ATOM      1  C   UNL     1       7.318 -16.512 -20.604  1.00  0.00     0.180 A 
ATOM      2  C   UNL     1       7.273 -15.451 -19.682  1.00  0.00     0.208 A 
ATOM      3  C   UNL     1       7.222 -14.133 -20.163  1.00  0.00     0.238 A 
ATOM      4  O   UNL     1       7.237 -13.187 -19.333  1.00  0.00    -0.285 OA
ATOM      5  C   UNL     1       7.199 -13.892 -21.557  1.00  0.00     0.111 A 
ATOM      6  C   UNL     1       7.107 -12.598 -22.154  1.00  0.00     0.134 A 
ATOM      7  C   UNL     1       7.225 -12.470 -23.544  1.00  0.00     0.093 A 
ATOM      8  C   UNL     1       7.365 -13.590 -24.362  1.00  0.00     0.123 A 
ATOM      9  C   UNL     1       7.396 -14.864 -23.793  1.00  0.00     0.094 A 
ATOM     10  C   UNL     1       7.319 -15.021 -22.407  1.00  0.00     0.146 A 
ATOM     11  O   UNL     1       7.362 -16.250 -21.905  1.00  0.00    -0.452 OA
ENDROOT
BRANCH   1  12
ATOM     12  C   UNL     1       7.349 -17.928 -20.174  1.00  0.00     0.025 A 
ATOM     13  C   UNL     1       6.875 -18.320 -18.913  1.00  0.00     0.016 A 
ATOM     14  C   UNL     1       6.891 -19.664 -18.539  1.00  0.00     0.051 A 
ATOM     15  C   UNL     1       7.366 -20.645 -19.417  1.00  0.00     0.157 A 
ATOM     16  C   UNL     1       7.806 -18.912 -21.066  1.00  0.00     0.062 A 
ATOM     17  C   UNL     1       7.827 -20.263 -20.700  1.00  0.00     0.158 A 
BRANCH  15  18
ATOM     18  O   UNL     1       7.360 -21.971 -18.981  1.00  0.00    -0.504 OA
ATOM     19  H   UNL     1       6.807 -22.703 -19.403  1.00  0.00     0.293 HD
ENDBRANCH  15  18
BRANCH  17  20
ATOM     20  O   UNL     1       8.306 -21.184 -21.633  1.00  0.00    -0.504 OA
ATOM     21  H   UNL     1       8.056 -21.178 -22.612  1.00  0.00     0.293 HD
ENDBRANCH  17  20
ENDBRANCH   1  12
BRANCH   2  22
ATOM     22  O   UNL     1       7.319 -15.710 -18.309  1.00  0.00    -0.502 OA
ATOM     23  H   UNL     1       6.715 -15.241 -17.647  1.00  0.00     0.293 HD
ENDBRANCH   2  22
BRANCH   6  24
ATOM     24  O   UNL     1       6.875 -11.421 -21.437  1.00  0.00    -0.507 OA
ATOM     25  H   UNL     1       6.379 -10.618 -21.795  1.00  0.00     0.293 HD
ENDBRANCH   6  24
BRANCH   8  26
ATOM     26  O   UNL     1       7.464 -13.425 -25.742  1.00  0.00    -0.508 OA
ATOM     27  H   UNL     1       8.344 -13.185 -26.185  1.00  0.00     0.293 HD
ENDBRANCH   8  26
TORSDOF 6
ENDMDL
