MODEL 1
REMARK VINA RESULT:    -5.706      0.000      0.000
REMARK INTER + INTRA:          -8.171
REMARK INTER:                  -7.708
REMARK INTRA:                  -0.463
REMARK UNBOUND:                -0.463
REMARK SMILES COc1ccc(-c2cc(=O)c3c(OC)c(OC)c(OC)c(OC)c3o2)cc1
REMARK SMILES IDX 7 1 8 2 9 3 10 4 11 5 24 6 25 7 21 8 18 9 15 10 12 11 6 12
REMARK SMILES IDX 3 13 4 14 27 15 5 16 26 17 2 18 1 19 22 20 23 21 13 22 14 23
REMARK SMILES IDX 19 24 20 25 16 26 17 27
REMARK H PARENT
REMARK Flexibility Score: inf
ROOT
ATOM      1  C   UNL     1       9.096  13.064 -19.143  1.00  0.00     0.138 A 
ATOM      2  C   UNL     1       9.828  11.895 -19.370  1.00  0.00     0.100 A 
ATOM      3  C   UNL     1       9.841  10.900 -18.398  1.00  0.00     0.197 A 
ATOM      4  O   UNL     1      10.506   9.853 -18.623  1.00  0.00    -0.289 OA
ATOM      5  C   UNL     1       9.116  11.079 -17.194  1.00  0.00     0.115 A 
ATOM      6  C   UNL     1       8.384  12.280 -17.043  1.00  0.00     0.188 A 
ATOM      7  O   UNL     1       8.411  13.195 -18.012  1.00  0.00    -0.452 OA
ATOM      8  C   UNL     1       7.642  12.525 -15.867  1.00  0.00     0.209 A 
ATOM      9  C   UNL     1       7.661  11.572 -14.817  1.00  0.00     0.211 A 
ATOM     10  C   UNL     1       8.357  10.347 -14.982  1.00  0.00     0.208 A 
ATOM     11  C   UNL     1       9.103  10.107 -16.165  1.00  0.00     0.179 A 
ENDROOT
BRANCH   1  12
ATOM     12  C   UNL     1       9.063  14.162 -20.140  1.00  0.00     0.018 A 
ATOM     13  C   UNL     1       8.946  16.229 -22.062  1.00  0.00     0.118 A 
ATOM     14  C   UNL     1       9.262  16.521 -20.722  1.00  0.00     0.047 A 
ATOM     15  C   UNL     1       8.687  14.905 -22.427  1.00  0.00     0.047 A 
ATOM     16  C   UNL     1       9.316  15.497 -19.770  1.00  0.00     0.016 A 
ATOM     17  C   UNL     1       8.742  13.881 -21.478  1.00  0.00     0.016 A 
BRANCH  13  18
ATOM     18  O   UNL     1       8.878  17.221 -23.052  1.00  0.00    -0.497 OA
ATOM     19  C   UNL     1       9.501  17.126 -24.328  1.00  0.00     0.278 C 
ENDBRANCH  13  18
ENDBRANCH   1  12
BRANCH   8  20
ATOM     20  O   UNL     1       6.875  13.693 -15.694  1.00  0.00    -0.490 OA
ATOM     21  C   UNL     1       7.352  15.033 -15.628  1.00  0.00     0.278 C 
ENDBRANCH   8  20
BRANCH  11  22
ATOM     22  O   UNL     1       9.845   8.923 -16.372  1.00  0.00    -0.492 OA
ATOM     23  C   UNL     1      11.018   8.495 -15.687  1.00  0.00     0.278 C 
ENDBRANCH  11  22
BRANCH   9  24
ATOM     24  O   UNL     1       7.012  11.797 -13.586  1.00  0.00    -0.490 OA
ATOM     25  C   UNL     1       7.599  12.167 -12.342  1.00  0.00     0.279 C 
ENDBRANCH   9  24
BRANCH  10  26
ATOM     26  O   UNL     1       8.339   9.339 -13.998  1.00  0.00    -0.490 OA
ATOM     27  C   UNL     1       7.348   8.335 -13.799  1.00  0.00     0.278 C 
ENDBRANCH  10  26
TORSDOF 6
ENDMDL
MODEL 2
REMARK VINA RESULT:    -5.457      2.276      8.041
REMARK INTER + INTRA:          -7.834
REMARK INTER:                  -7.394
REMARK INTRA:                  -0.439
REMARK UNBOUND:                -0.463
REMARK SMILES COc1ccc(-c2cc(=O)c3c(OC)c(OC)c(OC)c(OC)c3o2)cc1
REMARK SMILES IDX 7 1 8 2 9 3 10 4 11 5 24 6 25 7 21 8 18 9 15 10 12 11 6 12
REMARK SMILES IDX 3 13 4 14 27 15 5 16 26 17 2 18 1 19 22 20 23 21 13 22 14 23
REMARK SMILES IDX 19 24 20 25 16 26 17 27
REMARK H PARENT
REMARK Flexibility Score: inf
ROOT
ATOM      1  C   UNL     1       7.716  10.145 -15.507  1.00  0.00     0.138 A 
ATOM      2  C   UNL     1       7.473   9.478 -16.710  1.00  0.00     0.100 A 
ATOM      3  C   UNL     1       7.654  10.154 -17.913  1.00  0.00     0.197 A 
ATOM      4  O   UNL     1       7.430   9.533 -18.986  1.00  0.00    -0.289 OA
ATOM      5  C   UNL     1       8.082  11.504 -17.906  1.00  0.00     0.115 A 
ATOM      6  C   UNL     1       8.326  12.108 -16.650  1.00  0.00     0.188 A 
ATOM      7  O   UNL     1       8.135  11.406 -15.533  1.00  0.00    -0.452 OA
ATOM      8  C   UNL     1       8.750  13.452 -16.571  1.00  0.00     0.209 A 
ATOM      9  C   UNL     1       8.900  14.210 -17.760  1.00  0.00     0.211 A 
ATOM     10  C   UNL     1       8.699  13.596 -19.023  1.00  0.00     0.208 A 
ATOM     11  C   UNL     1       8.270  12.246 -19.097  1.00  0.00     0.179 A 
ENDROOT
BRANCH   1  12
ATOM     12  C   UNL     1       7.523   9.476 -14.197  1.00  0.00     0.018 A 
ATOM     13  C   UNL     1       7.102   8.234 -11.695  1.00  0.00     0.118 A 
ATOM     14  C   UNL     1       7.540   7.479 -12.799  1.00  0.00     0.047 A 
ATOM     15  C   UNL     1       6.875   9.604 -11.854  1.00  0.00     0.047 A 
ATOM     16  C   UNL     1       7.744   8.095 -14.038  1.00  0.00     0.016 A 
ATOM     17  C   UNL     1       7.081  10.221 -13.091  1.00  0.00     0.016 A 
BRANCH  13  18
ATOM     18  O   UNL     1       6.882   7.663 -10.432  1.00  0.00    -0.497 OA
ATOM     19  C   UNL     1       7.501   8.107  -9.230  1.00  0.00     0.278 C 
ENDBRANCH  13  18
ENDBRANCH   1  12
BRANCH   8  20
ATOM     20  O   UNL     1       9.035  14.077 -15.341  1.00  0.00    -0.490 OA
ATOM     21  C   UNL     1      10.317  14.426 -14.831  1.00  0.00     0.278 C 
ENDBRANCH   8  20
BRANCH  11  22
ATOM     22  O   UNL     1       8.019  11.591 -20.323  1.00  0.00    -0.492 OA
ATOM     23  C   UNL     1       6.875  11.715 -21.163  1.00  0.00     0.278 C 
ENDBRANCH  11  22
BRANCH   9  24
ATOM     24  O   UNL     1       9.237  15.578 -17.743  1.00  0.00    -0.490 OA
ATOM     25  C   UNL     1       8.357  16.697 -17.789  1.00  0.00     0.279 C 
ENDBRANCH   9  24
BRANCH  10  26
ATOM     26  O   UNL     1       8.912  14.288 -20.232  1.00  0.00    -0.490 OA
ATOM     27  C   UNL     1       8.002  15.143 -20.917  1.00  0.00     0.278 C 
ENDBRANCH  10  26
TORSDOF 6
ENDMDL
MODEL 3
REMARK VINA RESULT:    -5.430      1.660      3.117
REMARK INTER + INTRA:          -7.797
REMARK INTER:                  -7.770
REMARK INTRA:                  -0.027
REMARK UNBOUND:                -0.463
REMARK SMILES COc1ccc(-c2cc(=O)c3c(OC)c(OC)c(OC)c(OC)c3o2)cc1
REMARK SMILES IDX 7 1 8 2 9 3 10 4 11 5 24 6 25 7 21 8 18 9 15 10 12 11 6 12
REMARK SMILES IDX 3 13 4 14 27 15 5 16 26 17 2 18 1 19 22 20 23 21 13 22 14 23
REMARK SMILES IDX 19 24 20 25 16 26 17 27
REMARK H PARENT
REMARK Flexibility Score: inf
ROOT
ATOM      1  C   UNL     1       8.720  13.951 -18.487  1.00  0.00     0.138 A 
ATOM      2  C   UNL     1       9.113  14.453 -17.244  1.00  0.00     0.100 A 
ATOM      3  C   UNL     1       9.009  13.643 -16.118  1.00  0.00     0.197 A 
ATOM      4  O   UNL     1       9.370  14.116 -15.007  1.00  0.00    -0.289 OA
ATOM      5  C   UNL     1       8.509  12.323 -16.241  1.00  0.00     0.115 A 
ATOM      6  C   UNL     1       8.148  11.878 -17.535  1.00  0.00     0.188 A 
ATOM      7  O   UNL     1       8.273  12.703 -18.574  1.00  0.00    -0.452 OA
ATOM      8  C   UNL     1       7.639  10.575 -17.729  1.00  0.00     0.209 A 
ATOM      9  C   UNL     1       7.458   9.721 -16.611  1.00  0.00     0.211 A 
ATOM     10  C   UNL     1       7.860  10.148 -15.319  1.00  0.00     0.208 A 
ATOM     11  C   UNL     1       8.368  11.459 -15.129  1.00  0.00     0.179 A 
ENDROOT
BRANCH   1  12
ATOM     12  C   UNL     1       8.796  14.779 -19.716  1.00  0.00     0.018 A 
ATOM     13  C   UNL     1       8.890  16.323 -22.080  1.00  0.00     0.118 A 
ATOM     14  C   UNL     1       9.059  16.934 -20.823  1.00  0.00     0.047 A 
ATOM     15  C   UNL     1       8.671  14.943 -22.142  1.00  0.00     0.047 A 
ATOM     16  C   UNL     1       9.009  16.169 -19.653  1.00  0.00     0.016 A 
ATOM     17  C   UNL     1       8.622  14.177 -20.974  1.00  0.00     0.016 A 
BRANCH  13  18
ATOM     18  O   UNL     1       8.932  17.047 -23.281  1.00  0.00    -0.497 OA
ATOM     19  C   UNL     1       9.855  16.802 -24.335  1.00  0.00     0.278 C 
ENDBRANCH  13  18
ENDBRANCH   1  12
BRANCH   8  20
ATOM     20  O   UNL     1       7.301  10.086 -19.005  1.00  0.00    -0.490 OA
ATOM     21  C   UNL     1       6.893  10.845 -20.137  1.00  0.00     0.278 C 
ENDBRANCH   8  20
BRANCH  11  22
ATOM     22  O   UNL     1       8.751  11.952 -13.862  1.00  0.00    -0.492 OA
ATOM     23  C   UNL     1       7.970  12.006 -12.672  1.00  0.00     0.278 C 
ENDBRANCH  11  22
BRANCH   9  24
ATOM     24  O   UNL     1       6.875   8.444 -16.728  1.00  0.00    -0.490 OA
ATOM     25  C   UNL     1       7.515   7.218 -17.070  1.00  0.00     0.279 C 
ENDBRANCH   9  24
BRANCH  10  26
ATOM     26  O   UNL     1       7.771   9.305 -14.193  1.00  0.00    -0.490 OA
ATOM     27  C   UNL     1       8.647   8.242 -13.831  1.00  0.00     0.278 C 
ENDBRANCH  10  26
TORSDOF 6
ENDMDL
MODEL 4
REMARK VINA RESULT:    -4.972      2.478      7.919
REMARK INTER + INTRA:          -7.179
REMARK INTER:                  -6.772
REMARK INTRA:                  -0.407
REMARK UNBOUND:                -0.463
REMARK SMILES COc1ccc(-c2cc(=O)c3c(OC)c(OC)c(OC)c(OC)c3o2)cc1
REMARK SMILES IDX 7 1 8 2 9 3 10 4 11 5 24 6 25 7 21 8 18 9 15 10 12 11 6 12
REMARK SMILES IDX 3 13 4 14 27 15 5 16 26 17 2 18 1 19 22 20 23 21 13 22 14 23
REMARK SMILES IDX 19 24 20 25 16 26 17 27
REMARK H PARENT
REMARK Flexibility Score: inf
ROOT
ATOM      1  C   UNL     1       8.712  10.501 -16.596  1.00  0.00     0.138 A 
ATOM      2  C   UNL     1       9.702  11.187 -15.886  1.00  0.00     0.100 A 
ATOM      3  C   UNL     1      10.116  12.438 -16.332  1.00  0.00     0.197 A 
ATOM      4  O   UNL     1      11.009  13.039 -15.677  1.00  0.00    -0.289 OA
ATOM      5  C   UNL     1       9.534  13.003 -17.493  1.00  0.00     0.115 A 
ATOM      6  C   UNL     1       8.525  12.258 -18.148  1.00  0.00     0.188 A 
ATOM      7  O   UNL     1       8.171  11.065 -17.671  1.00  0.00    -0.452 OA
ATOM      8  C   UNL     1       7.905  12.759 -19.314  1.00  0.00     0.209 A 
ATOM      9  C   UNL     1       8.324  14.005 -19.848  1.00  0.00     0.211 A 
ATOM     10  C   UNL     1       9.304  14.775 -19.170  1.00  0.00     0.208 A 
ATOM     11  C   UNL     1       9.926  14.265 -18.001  1.00  0.00     0.179 A 
ENDROOT
BRANCH   1  12
ATOM     12  C   UNL     1       8.246   9.158 -16.173  1.00  0.00     0.018 A 
ATOM     13  C   UNL     1       7.352   6.621 -15.309  1.00  0.00     0.118 A 
ATOM     14  C   UNL     1       6.875   7.171 -16.513  1.00  0.00     0.047 A 
ATOM     15  C   UNL     1       8.270   7.348 -14.545  1.00  0.00     0.047 A 
ATOM     16  C   UNL     1       7.316   8.429 -16.938  1.00  0.00     0.016 A 
ATOM     17  C   UNL     1       8.713   8.604 -14.970  1.00  0.00     0.016 A 
BRANCH  13  18
ATOM     18  O   UNL     1       6.940   5.364 -14.840  1.00  0.00    -0.497 OA
ATOM     19  C   UNL     1       7.160   4.138 -15.529  1.00  0.00     0.278 C 
ENDBRANCH  13  18
ENDBRANCH   1  12
BRANCH   8  20
ATOM     20  O   UNL     1       6.875  12.063 -19.974  1.00  0.00    -0.490 OA
ATOM     21  C   UNL     1       7.006  11.190 -21.090  1.00  0.00     0.278 C 
ENDBRANCH   8  20
BRANCH  11  22
ATOM     22  O   UNL     1      10.932  14.969 -17.303  1.00  0.00    -0.492 OA
ATOM     23  C   UNL     1      12.153  15.489 -17.819  1.00  0.00     0.278 C 
ENDBRANCH  11  22
BRANCH   9  24
ATOM     24  O   UNL     1       7.806  14.518 -21.054  1.00  0.00    -0.490 OA
ATOM     25  C   UNL     1       8.520  14.866 -22.236  1.00  0.00     0.279 C 
ENDBRANCH   9  24
BRANCH  10  26
ATOM     26  O   UNL     1       9.694  16.052 -19.620  1.00  0.00    -0.490 OA
ATOM     27  C   UNL     1       9.116  17.309 -19.281  1.00  0.00     0.278 C 
ENDBRANCH  10  26
TORSDOF 6
ENDMDL
MODEL 5
REMARK VINA RESULT:    -4.960      2.326      8.386
REMARK INTER + INTRA:          -7.163
REMARK INTER:                  -7.477
REMARK INTRA:                   0.313
REMARK UNBOUND:                -0.463
REMARK SMILES COc1ccc(-c2cc(=O)c3c(OC)c(OC)c(OC)c(OC)c3o2)cc1
REMARK SMILES IDX 7 1 8 2 9 3 10 4 11 5 24 6 25 7 21 8 18 9 15 10 12 11 6 12
REMARK SMILES IDX 3 13 4 14 27 15 5 16 26 17 2 18 1 19 22 20 23 21 13 22 14 23
REMARK SMILES IDX 19 24 20 25 16 26 17 27
REMARK H PARENT
REMARK Flexibility Score: inf
ROOT
ATOM      1  C   UNL     1       8.243  11.198 -14.828  1.00  0.00     0.138 A 
ATOM      2  C   UNL     1       8.876  12.398 -14.495  1.00  0.00     0.100 A 
ATOM      3  C   UNL     1       9.182  13.309 -15.501  1.00  0.00     0.197 A 
ATOM      4  O   UNL     1       9.752  14.385 -15.179  1.00  0.00    -0.289 OA
ATOM      5  C   UNL     1       8.851  13.013 -16.847  1.00  0.00     0.115 A 
ATOM      6  C   UNL     1       8.194  11.787 -17.105  1.00  0.00     0.188 A 
ATOM      7  O   UNL     1       7.927  10.957 -16.097  1.00  0.00    -0.452 OA
ATOM      8  C   UNL     1       7.839  11.427 -18.424  1.00  0.00     0.209 A 
ATOM      9  C   UNL     1       8.175  12.289 -19.498  1.00  0.00     0.211 A 
ATOM     10  C   UNL     1       8.793  13.540 -19.239  1.00  0.00     0.208 A 
ATOM     11  C   UNL     1       9.150  13.895 -17.913  1.00  0.00     0.179 A 
ENDROOT
BRANCH   1  12
ATOM     12  C   UNL     1       7.908  10.185 -13.796  1.00  0.00     0.018 A 
ATOM     13  C   UNL     1       7.223   8.293 -11.815  1.00  0.00     0.118 A 
ATOM     14  C   UNL     1       7.627   7.868 -13.094  1.00  0.00     0.047 A 
ATOM     15  C   UNL     1       7.161   9.663 -11.540  1.00  0.00     0.047 A 
ATOM     16  C   UNL     1       7.963   8.807 -14.076  1.00  0.00     0.016 A 
ATOM     17  C   UNL     1       7.499  10.601 -12.519  1.00  0.00     0.016 A 
BRANCH  13  18
ATOM     18  O   UNL     1       6.875   7.391 -10.798  1.00  0.00    -0.497 OA
ATOM     19  C   UNL     1       7.192   7.571  -9.422  1.00  0.00     0.278 C 
ENDBRANCH  13  18
ENDBRANCH   1  12
BRANCH   8  20
ATOM     20  O   UNL     1       7.156  10.231 -18.716  1.00  0.00    -0.490 OA
ATOM     21  C   UNL     1       7.520   8.914 -18.317  1.00  0.00     0.278 C 
ENDBRANCH   8  20
BRANCH  11  22
ATOM     22  O   UNL     1       9.799  15.109 -17.597  1.00  0.00    -0.492 OA
ATOM     23  C   UNL     1      11.189  15.408 -17.690  1.00  0.00     0.278 C 
ENDBRANCH  11  22
BRANCH   9  24
ATOM     24  O   UNL     1       7.924  11.948 -20.842  1.00  0.00    -0.490 OA
ATOM     25  C   UNL     1       6.875  11.134 -21.358  1.00  0.00     0.279 C 
ENDBRANCH   9  24
BRANCH  10  26
ATOM     26  O   UNL     1       9.073  14.462 -20.267  1.00  0.00    -0.490 OA
ATOM     27  C   UNL     1       8.149  15.279 -20.979  1.00  0.00     0.278 C 
ENDBRANCH  10  26
TORSDOF 6
ENDMDL
MODEL 6
REMARK VINA RESULT:    -4.745      2.542      4.139
REMARK INTER + INTRA:          -6.872
REMARK INTER:                  -6.582
REMARK INTRA:                  -0.290
REMARK UNBOUND:                -0.463
REMARK SMILES COc1ccc(-c2cc(=O)c3c(OC)c(OC)c(OC)c(OC)c3o2)cc1
REMARK SMILES IDX 7 1 8 2 9 3 10 4 11 5 24 6 25 7 21 8 18 9 15 10 12 11 6 12
REMARK SMILES IDX 3 13 4 14 27 15 5 16 26 17 2 18 1 19 22 20 23 21 13 22 14 23
REMARK SMILES IDX 19 24 20 25 16 26 17 27
REMARK H PARENT
REMARK Flexibility Score: inf
ROOT
ATOM      1  C   UNL     1       8.342  13.938 -16.628  1.00  0.00     0.138 A 
ATOM      2  C   UNL     1       8.529  13.822 -15.248  1.00  0.00     0.100 A 
ATOM      3  C   UNL     1       8.374  12.580 -14.641  1.00  0.00     0.197 A 
ATOM      4  O   UNL     1       8.548  12.498 -13.396  1.00  0.00    -0.289 OA
ATOM      5  C   UNL     1       8.032  11.450 -15.424  1.00  0.00     0.115 A 
ATOM      6  C   UNL     1       7.877  11.640 -16.817  1.00  0.00     0.188 A 
ATOM      7  O   UNL     1       8.040  12.856 -17.338  1.00  0.00    -0.452 OA
ATOM      8  C   UNL     1       7.532  10.558 -17.655  1.00  0.00     0.209 A 
ATOM      9  C   UNL     1       7.306   9.278 -17.088  1.00  0.00     0.211 A 
ATOM     10  C   UNL     1       7.504   9.073 -15.697  1.00  0.00     0.208 A 
ATOM     11  C   UNL     1       7.848  10.165 -14.859  1.00  0.00     0.179 A 
ENDROOT
BRANCH   1  12
ATOM     12  C   UNL     1       8.479  15.242 -17.322  1.00  0.00     0.018 A 
ATOM     13  C   UNL     1       8.719  17.754 -18.592  1.00  0.00     0.118 A 
ATOM     14  C   UNL     1       9.729  16.785 -18.736  1.00  0.00     0.047 A 
ATOM     15  C   UNL     1       7.599  17.459 -17.809  1.00  0.00     0.047 A 
ATOM     16  C   UNL     1       9.610  15.543 -18.104  1.00  0.00     0.016 A 
ATOM     17  C   UNL     1       7.478  16.218 -17.179  1.00  0.00     0.016 A 
BRANCH  13  18
ATOM     18  O   UNL     1       8.792  19.014 -19.204  1.00  0.00    -0.497 OA
ATOM     19  C   UNL     1       9.080  20.227 -18.517  1.00  0.00     0.278 C 
ENDBRANCH  13  18
ENDBRANCH   1  12
BRANCH   8  20
ATOM     20  O   UNL     1       7.401  10.701 -19.050  1.00  0.00    -0.490 OA
ATOM     21  C   UNL     1       8.315  11.336 -19.937  1.00  0.00     0.278 C 
ENDBRANCH   8  20
BRANCH  11  22
ATOM     22  O   UNL     1       8.023  10.030 -13.465  1.00  0.00    -0.492 OA
ATOM     23  C   UNL     1       7.023   9.801 -12.476  1.00  0.00     0.278 C 
ENDBRANCH  11  22
BRANCH   9  24
ATOM     24  O   UNL     1       6.877   8.178 -17.858  1.00  0.00    -0.490 OA
ATOM     25  C   UNL     1       7.651   7.375 -18.743  1.00  0.00     0.279 C 
ENDBRANCH   9  24
BRANCH  10  26
ATOM     26  O   UNL     1       7.368   7.802 -15.103  1.00  0.00    -0.490 OA
ATOM     27  C   UNL     1       8.405   6.891 -14.751  1.00  0.00     0.278 C 
ENDBRANCH  10  26
TORSDOF 6
ENDMDL
MODEL 7
REMARK VINA RESULT:    -4.533      2.115      8.255
REMARK INTER + INTRA:          -6.586
REMARK INTER:                  -7.147
REMARK INTRA:                   0.561
REMARK UNBOUND:                -0.463
REMARK SMILES COc1ccc(-c2cc(=O)c3c(OC)c(OC)c(OC)c(OC)c3o2)cc1
REMARK SMILES IDX 7 1 8 2 9 3 10 4 11 5 24 6 25 7 21 8 18 9 15 10 12 11 6 12
REMARK SMILES IDX 3 13 4 14 27 15 5 16 26 17 2 18 1 19 22 20 23 21 13 22 14 23
REMARK SMILES IDX 19 24 20 25 16 26 17 27
REMARK H PARENT
REMARK Flexibility Score: inf
ROOT
ATOM      1  C   UNL     1       8.085  12.799 -16.353  1.00  0.00     0.138 A 
ATOM      2  C   UNL     1       7.514  13.747 -15.499  1.00  0.00     0.100 A 
ATOM      3  C   UNL     1       7.433  15.073 -15.910  1.00  0.00     0.197 A 
ATOM      4  O   UNL     1       6.914  15.911 -15.125  1.00  0.00    -0.289 OA
ATOM      5  C   UNL     1       7.926  15.449 -17.183  1.00  0.00     0.115 A 
ATOM      6  C   UNL     1       8.474  14.432 -18.000  1.00  0.00     0.188 A 
ATOM      7  O   UNL     1       8.521  13.179 -17.549  1.00  0.00    -0.452 OA
ATOM      8  C   UNL     1       8.987  14.738 -19.280  1.00  0.00     0.209 A 
ATOM      9  C   UNL     1       8.983  16.082 -19.732  1.00  0.00     0.211 A 
ATOM     10  C   UNL     1       8.395  17.098 -18.935  1.00  0.00     0.208 A 
ATOM     11  C   UNL     1       7.883  16.786 -17.649  1.00  0.00     0.179 A 
ENDROOT
BRANCH   1  12
ATOM     12  C   UNL     1       8.210  11.375 -15.957  1.00  0.00     0.018 A 
ATOM     13  C   UNL     1       8.392   8.666 -15.177  1.00  0.00     0.118 A 
ATOM     14  C   UNL     1       8.820   9.068 -16.456  1.00  0.00     0.047 A 
ATOM     15  C   UNL     1       7.872   9.624 -14.301  1.00  0.00     0.047 A 
ATOM     16  C   UNL     1       8.726  10.410 -16.842  1.00  0.00     0.016 A 
ATOM     17  C   UNL     1       7.779  10.964 -14.685  1.00  0.00     0.016 A 
BRANCH  13  18
ATOM     18  O   UNL     1       8.464   7.334 -14.744  1.00  0.00    -0.497 OA
ATOM     19  C   UNL     1       7.333   6.499 -14.519  1.00  0.00     0.278 C 
ENDBRANCH  13  18
ENDBRANCH   1  12
BRANCH   8  20
ATOM     20  O   UNL     1       9.509  13.748 -20.134  1.00  0.00    -0.490 OA
ATOM     21  C   UNL     1       8.775  12.792 -20.891  1.00  0.00     0.278 C 
ENDBRANCH   8  20
BRANCH  11  22
ATOM     22  O   UNL     1       7.319  17.759 -16.796  1.00  0.00    -0.492 OA
ATOM     23  C   UNL     1       6.881  19.071 -17.135  1.00  0.00     0.278 C 
ENDBRANCH  11  22
BRANCH   9  24
ATOM     24  O   UNL     1       9.557  16.464 -20.961  1.00  0.00    -0.490 OA
ATOM     25  C   UNL     1       8.991  16.354 -22.263  1.00  0.00     0.279 C 
ENDBRANCH   9  24
BRANCH  10  26
ATOM     26  O   UNL     1       8.298  18.432 -19.377  1.00  0.00    -0.490 OA
ATOM     27  C   UNL     1       9.114  19.536 -18.998  1.00  0.00     0.278 C 
ENDBRANCH  10  26
TORSDOF 6
ENDMDL
MODEL 8
REMARK VINA RESULT:    -4.367      2.199      2.809
REMARK INTER + INTRA:          -6.363
REMARK INTER:                  -6.571
REMARK INTRA:                   0.208
REMARK UNBOUND:                -0.463
REMARK SMILES COc1ccc(-c2cc(=O)c3c(OC)c(OC)c(OC)c(OC)c3o2)cc1
REMARK SMILES IDX 7 1 8 2 9 3 10 4 11 5 24 6 25 7 21 8 18 9 15 10 12 11 6 12
REMARK SMILES IDX 3 13 4 14 27 15 5 16 26 17 2 18 1 19 22 20 23 21 13 22 14 23
REMARK SMILES IDX 19 24 20 25 16 26 17 27
REMARK H PARENT
REMARK Flexibility Score: inf
ROOT
ATOM      1  C   UNL     1       8.831  14.405 -18.012  1.00  0.00     0.138 A 
ATOM      2  C   UNL     1       9.470  13.546 -18.911  1.00  0.00     0.100 A 
ATOM      3  C   UNL     1       9.491  12.180 -18.651  1.00  0.00     0.197 A 
ATOM      4  O   UNL     1      10.072  11.424 -19.474  1.00  0.00    -0.289 OA
ATOM      5  C   UNL     1       8.867  11.673 -17.484  1.00  0.00     0.115 A 
ATOM      6  C   UNL     1       8.224  12.601 -16.631  1.00  0.00     0.188 A 
ATOM      7  O   UNL     1       8.238  13.898 -16.936  1.00  0.00    -0.452 OA
ATOM      8  C   UNL     1       7.586  12.165 -15.449  1.00  0.00     0.209 A 
ATOM      9  C   UNL     1       7.621  10.790 -15.101  1.00  0.00     0.211 A 
ATOM     10  C   UNL     1       8.226   9.851 -15.976  1.00  0.00     0.208 A 
ATOM     11  C   UNL     1       8.868  10.295 -17.161  1.00  0.00     0.179 A 
ENDROOT
BRANCH   1  12
ATOM     12  C   UNL     1       8.794  15.871 -18.234  1.00  0.00     0.018 A 
ATOM     13  C   UNL     1       8.700  18.670 -18.599  1.00  0.00     0.118 A 
ATOM     14  C   UNL     1       9.819  17.934 -19.031  1.00  0.00     0.047 A 
ATOM     15  C   UNL     1       7.640  17.999 -17.983  1.00  0.00     0.047 A 
ATOM     16  C   UNL     1       9.866  16.548 -18.847  1.00  0.00     0.016 A 
ATOM     17  C   UNL     1       7.684  16.614 -17.800  1.00  0.00     0.016 A 
BRANCH  13  18
ATOM     18  O   UNL     1       8.607  20.061 -18.760  1.00  0.00    -0.497 OA
ATOM     19  C   UNL     1       8.784  21.005 -17.710  1.00  0.00     0.278 C 
ENDBRANCH  13  18
ENDBRANCH   1  12
BRANCH   8  20
ATOM     20  O   UNL     1       6.907  13.053 -14.592  1.00  0.00    -0.490 OA
ATOM     21  C   UNL     1       6.875  14.473 -14.677  1.00  0.00     0.278 C 
ENDBRANCH   8  20
BRANCH  11  22
ATOM     22  O   UNL     1       9.518   9.413 -18.052  1.00  0.00    -0.492 OA
ATOM     23  C   UNL     1      10.857   8.933 -17.986  1.00  0.00     0.278 C 
ENDBRANCH  11  22
BRANCH   9  24
ATOM     24  O   UNL     1       7.077  10.306 -13.894  1.00  0.00    -0.490 OA
ATOM     25  C   UNL     1       7.615  10.428 -12.581  1.00  0.00     0.279 C 
ENDBRANCH   9  24
BRANCH  10  26
ATOM     26  O   UNL     1       8.215   8.468 -15.710  1.00  0.00    -0.490 OA
ATOM     27  C   UNL     1       9.067   7.745 -14.826  1.00  0.00     0.278 C 
ENDBRANCH  10  26
TORSDOF 6
ENDMDL
MODEL 9
REMARK VINA RESULT:    -4.034      1.904      7.596
REMARK INTER + INTRA:          -5.912
REMARK INTER:                  -6.460
REMARK INTRA:                   0.547
REMARK UNBOUND:                -0.463
REMARK SMILES COc1ccc(-c2cc(=O)c3c(OC)c(OC)c(OC)c(OC)c3o2)cc1
REMARK SMILES IDX 7 1 8 2 9 3 10 4 11 5 24 6 25 7 21 8 18 9 15 10 12 11 6 12
REMARK SMILES IDX 3 13 4 14 27 15 5 16 26 17 2 18 1 19 22 20 23 21 13 22 14 23
REMARK SMILES IDX 19 24 20 25 16 26 17 27
REMARK H PARENT
REMARK Flexibility Score: inf
ROOT
ATOM      1  C   UNL     1       8.701  11.790 -17.375  1.00  0.00     0.138 A 
ATOM      2  C   UNL     1       9.039  11.407 -18.676  1.00  0.00     0.100 A 
ATOM      3  C   UNL     1       9.182  12.382 -19.658  1.00  0.00     0.197 A 
ATOM      4  O   UNL     1       9.488  12.014 -20.824  1.00  0.00    -0.289 OA
ATOM      5  C   UNL     1       8.987  13.746 -19.332  1.00  0.00     0.115 A 
ATOM      6  C   UNL     1       8.666  14.060 -17.990  1.00  0.00     0.188 A 
ATOM      7  O   UNL     1       8.544  13.079 -17.096  1.00  0.00    -0.452 OA
ATOM      8  C   UNL     1       8.454  15.400 -17.598  1.00  0.00     0.209 A 
ATOM      9  C   UNL     1       8.532  16.433 -18.566  1.00  0.00     0.211 A 
ATOM     10  C   UNL     1       8.898  16.128 -19.902  1.00  0.00     0.208 A 
ATOM     11  C   UNL     1       9.106  14.780 -20.292  1.00  0.00     0.179 A 
ENDROOT
BRANCH   1  12
ATOM     12  C   UNL     1       8.521  10.789 -16.295  1.00  0.00     0.018 A 
ATOM     13  C   UNL     1       8.230   8.858 -14.255  1.00  0.00     0.118 A 
ATOM     14  C   UNL     1       7.934  10.210 -14.001  1.00  0.00     0.047 A 
ATOM     15  C   UNL     1       8.673   8.485 -15.527  1.00  0.00     0.047 A 
ATOM     16  C   UNL     1       8.082  11.166 -15.011  1.00  0.00     0.016 A 
ATOM     17  C   UNL     1       8.819   9.439 -16.538  1.00  0.00     0.016 A 
BRANCH  13  18
ATOM     18  O   UNL     1       8.099   7.862 -13.275  1.00  0.00    -0.497 OA
ATOM     19  C   UNL     1       6.878   7.204 -12.956  1.00  0.00     0.278 C 
ENDBRANCH  13  18
ENDBRANCH   1  12
BRANCH   8  20
ATOM     20  O   UNL     1       8.165  15.753 -16.266  1.00  0.00    -0.490 OA
ATOM     21  C   UNL     1       6.897  15.713 -15.621  1.00  0.00     0.278 C 
ENDBRANCH   8  20
BRANCH  11  22
ATOM     22  O   UNL     1       9.437  14.411 -21.615  1.00  0.00    -0.492 OA
ATOM     23  C   UNL     1       8.667  14.611 -22.796  1.00  0.00     0.278 C 
ENDBRANCH  11  22
BRANCH   9  24
ATOM     24  O   UNL     1       8.247  17.778 -18.255  1.00  0.00    -0.490 OA
ATOM     25  C   UNL     1       6.975  18.416 -18.214  1.00  0.00     0.279 C 
ENDBRANCH   9  24
BRANCH  10  26
ATOM     26  O   UNL     1       9.064  17.130 -20.879  1.00  0.00    -0.490 OA
ATOM     27  C   UNL     1       8.377  17.258 -22.120  1.00  0.00     0.278 C 
ENDBRANCH  10  26
TORSDOF 6
ENDMDL
