MODEL 1
REMARK VINA RESULT:    -2.779      0.000      0.000
REMARK INTER + INTRA:          -4.601
REMARK INTER:                  -4.403
REMARK INTRA:                  -0.198
REMARK UNBOUND:                -0.198
REMARK SMILES CCCCCCCCCCCC(=O)[O-]
REMARK SMILES IDX 7 1 8 2 9 3 10 4 11 5 12 6 13 7 14 8 6 9 5 10 4 11 3 12 2 13
REMARK SMILES IDX 1 14
REMARK H PARENT
REMARK Flexibility Score: inf
ROOT
ATOM      1  C   UNL     1      -0.668  -8.003  -5.207  1.00  0.00     0.000 C 
ENDROOT
BRANCH   1   2
ATOM      2  C   UNL     1      -2.101  -7.696  -5.661  1.00  0.00     0.000 C 
BRANCH   2   3
ATOM      3  C   UNL     1      -3.117  -8.540  -4.878  1.00  0.00     0.000 C 
BRANCH   3   4
ATOM      4  C   UNL     1      -3.906  -9.503  -5.780  1.00  0.00     0.006 C 
BRANCH   4   5
ATOM      5  C   UNL     1      -4.292 -10.802  -5.062  1.00  0.00     0.053 C 
BRANCH   5   6
ATOM      6  C   UNL     1      -5.541 -11.374  -5.653  1.00  0.00     0.041 C 
ATOM      7  O   UNL     1      -5.475 -12.177  -6.620  1.00  0.00    -0.550 OA
ATOM      8  O   UNL     1      -6.778 -11.058  -5.104  1.00  0.00    -0.550 OA
ENDBRANCH   5   6
ENDBRANCH   4   5
ENDBRANCH   3   4
ENDBRANCH   2   3
ENDBRANCH   1   2
BRANCH   1   9
ATOM      9  C   UNL     1       0.167  -6.719  -5.111  1.00  0.00     0.000 C 
BRANCH   9  10
ATOM     10  C   UNL     1       1.665  -7.039  -5.060  1.00  0.00    -0.000 C 
BRANCH  10  11
ATOM     11  C   UNL     1       2.495  -5.763  -4.875  1.00  0.00    -0.000 C 
BRANCH  11  12
ATOM     12  C   UNL     1       3.994  -6.056  -5.032  1.00  0.00    -0.000 C 
BRANCH  12  13
ATOM     13  C   UNL     1       4.765  -4.875  -5.642  1.00  0.00    -0.003 C 
ATOM     14  C   UNL     1       6.167  -5.263  -6.111  1.00  0.00     0.004 C 
ENDBRANCH  12  13
ENDBRANCH  11  12
ENDBRANCH  10  11
ENDBRANCH   9  10
ENDBRANCH   1   9
TORSDOF 10
ENDMDL
MODEL 2
REMARK VINA RESULT:    -2.705      1.376      2.424
REMARK INTER + INTRA:          -4.483
REMARK INTER:                  -4.026
REMARK INTRA:                  -0.457
REMARK UNBOUND:                -0.198
REMARK SMILES CCCCCCCCCCCC(=O)[O-]
REMARK SMILES IDX 7 1 8 2 9 3 10 4 11 5 12 6 13 7 14 8 6 9 5 10 4 11 3 12 2 13
REMARK SMILES IDX 1 14
REMARK H PARENT
REMARK Flexibility Score: inf
ROOT
ATOM      1  C   UNL     1      -3.253  -8.240  -5.190  1.00  0.00     0.000 C 
ENDROOT
BRANCH   1   2
ATOM      2  C   UNL     1      -3.333  -8.935  -6.555  1.00  0.00     0.000 C 
BRANCH   2   3
ATOM      3  C   UNL     1      -4.076 -10.274  -6.447  1.00  0.00     0.000 C 
BRANCH   3   4
ATOM      4  C   UNL     1      -4.349 -10.682  -4.990  1.00  0.00     0.006 C 
BRANCH   4   5
ATOM      5  C   UNL     1      -5.151 -11.985  -4.882  1.00  0.00     0.053 C 
BRANCH   5   6
ATOM      6  C   UNL     1      -6.412 -11.890  -5.680  1.00  0.00     0.041 C 
ATOM      7  O   UNL     1      -7.362 -11.166  -5.280  1.00  0.00    -0.550 OA
ATOM      8  O   UNL     1      -6.522 -12.561  -6.892  1.00  0.00    -0.550 OA
ENDBRANCH   5   6
ENDBRANCH   4   5
ENDBRANCH   3   4
ENDBRANCH   2   3
ENDBRANCH   1   2
BRANCH   1   9
ATOM      9  C   UNL     1      -2.064  -7.272  -5.133  1.00  0.00     0.000 C 
BRANCH   9  10
ATOM     10  C   UNL     1      -0.748  -8.028  -4.916  1.00  0.00    -0.000 C 
BRANCH  10  11
ATOM     11  C   UNL     1       0.453  -7.078  -4.991  1.00  0.00    -0.000 C 
BRANCH  11  12
ATOM     12  C   UNL     1       1.774  -7.859  -4.964  1.00  0.00    -0.000 C 
BRANCH  12  13
ATOM     13  C   UNL     1       3.002  -6.939  -4.897  1.00  0.00    -0.003 C 
ATOM     14  C   UNL     1       2.636  -5.457  -4.974  1.00  0.00     0.004 C 
ENDBRANCH  12  13
ENDBRANCH  11  12
ENDBRANCH  10  11
ENDBRANCH   9  10
ENDBRANCH   1   9
TORSDOF 10
ENDMDL
MODEL 3
REMARK VINA RESULT:    -0.364     17.984     19.806
REMARK INTER + INTRA:          -0.775
REMARK INTER:                  -1.257
REMARK INTRA:                   0.482
REMARK UNBOUND:                -0.198
REMARK SMILES CCCCCCCCCCCC(=O)[O-]
REMARK SMILES IDX 7 1 8 2 9 3 10 4 11 5 12 6 13 7 14 8 6 9 5 10 4 11 3 12 2 13
REMARK SMILES IDX 1 14
REMARK H PARENT
REMARK Flexibility Score: inf
ROOT
ATOM      1  C   UNL     1       7.240  -7.592 -21.357  1.00  0.00     0.000 C 
ENDROOT
BRANCH   1   2
ATOM      2  C   UNL     1       8.762  -7.696 -21.523  1.00  0.00     0.000 C 
BRANCH   2   3
ATOM      3  C   UNL     1       9.124  -8.599 -22.712  1.00  0.00     0.000 C 
BRANCH   3   4
ATOM      4  C   UNL     1       8.545 -10.016 -22.575  1.00  0.00     0.006 C 
BRANCH   4   5
ATOM      5  C   UNL     1       9.096 -10.764 -21.354  1.00  0.00     0.053 C 
BRANCH   5   6
ATOM      6  C   UNL     1       8.305 -10.422 -20.132  1.00  0.00     0.041 C 
ATOM      7  O   UNL     1       7.051 -10.542 -20.135  1.00  0.00    -0.550 OA
ATOM      8  O   UNL     1       8.954 -10.017 -18.972  1.00  0.00    -0.550 OA
ENDBRANCH   5   6
ENDBRANCH   4   5
ENDBRANCH   3   4
ENDBRANCH   2   3
ENDBRANCH   1   2
BRANCH   1   9
ATOM      9  C   UNL     1       6.600  -6.896 -22.565  1.00  0.00     0.000 C 
BRANCH   9  10
ATOM     10  C   UNL     1       7.392  -5.646 -22.964  1.00  0.00    -0.000 C 
BRANCH  10  11
ATOM     11  C   UNL     1       7.538  -5.548 -24.487  1.00  0.00    -0.000 C 
BRANCH  11  12
ATOM     12  C   UNL     1       6.266  -4.971 -25.125  1.00  0.00    -0.000 C 
BRANCH  12  13
ATOM     13  C   UNL     1       5.076  -5.941 -25.049  1.00  0.00    -0.003 C 
ATOM     14  C   UNL     1       3.727  -5.222 -25.039  1.00  0.00     0.004 C 
ENDBRANCH  12  13
ENDBRANCH  11  12
ENDBRANCH  10  11
ENDBRANCH   9  10
ENDBRANCH   1   9
TORSDOF 10
ENDMDL
MODEL 4
REMARK VINA RESULT:    -0.070     21.942     23.994
REMARK INTER + INTRA:          -0.308
REMARK INTER:                  -0.480
REMARK INTRA:                   0.172
REMARK UNBOUND:                -0.198
REMARK SMILES CCCCCCCCCCCC(=O)[O-]
REMARK SMILES IDX 7 1 8 2 9 3 10 4 11 5 12 6 13 7 14 8 6 9 5 10 4 11 3 12 2 13
REMARK SMILES IDX 1 14
REMARK H PARENT
REMARK Flexibility Score: inf
ROOT
ATOM      1  C   UNL     1      -3.217 -19.608 -24.868  1.00  0.00     0.000 C 
ENDROOT
BRANCH   1   2
ATOM      2  C   UNL     1      -2.262 -20.804 -24.977  1.00  0.00     0.000 C 
BRANCH   2   3
ATOM      3  C   UNL     1      -2.798 -22.008 -24.188  1.00  0.00     0.000 C 
BRANCH   3   4
ATOM      4  C   UNL     1      -3.491 -23.044 -25.088  1.00  0.00     0.006 C 
BRANCH   4   5
ATOM      5  C   UNL     1      -5.010 -23.085 -24.880  1.00  0.00     0.053 C 
BRANCH   5   6
ATOM      6  C   UNL     1      -5.395 -24.293 -24.085  1.00  0.00     0.041 C 
ATOM      7  O   UNL     1      -6.299 -25.064 -24.502  1.00  0.00    -0.550 OA
ATOM      8  O   UNL     1      -4.721 -24.594 -22.907  1.00  0.00    -0.550 OA
ENDBRANCH   5   6
ENDBRANCH   4   5
ENDBRANCH   3   4
ENDBRANCH   2   3
ENDBRANCH   1   2
BRANCH   1   9
ATOM      9  C   UNL     1      -4.667 -20.035 -25.125  1.00  0.00     0.000 C 
BRANCH   9  10
ATOM     10  C   UNL     1      -5.652 -18.990 -24.589  1.00  0.00    -0.000 C 
BRANCH  10  11
ATOM     11  C   UNL     1      -7.101 -19.473 -24.732  1.00  0.00    -0.000 C 
BRANCH  11  12
ATOM     12  C   UNL     1      -8.045 -18.298 -25.026  1.00  0.00    -0.000 C 
BRANCH  12  13
ATOM     13  C   UNL     1      -8.119 -17.297 -23.864  1.00  0.00    -0.003 C 
ATOM     14  C   UNL     1      -8.120 -17.977 -22.496  1.00  0.00     0.004 C 
ENDBRANCH  12  13
ENDBRANCH  11  12
ENDBRANCH  10  11
ENDBRANCH   9  10
ENDBRANCH   1   9
TORSDOF 10
ENDMDL
