MODEL 1
REMARK VINA RESULT:    -3.484      0.000      0.000
REMARK INTER + INTRA:          -3.824
REMARK INTER:                  -3.789
REMARK INTRA:                  -0.035
REMARK UNBOUND:                -0.035
REMARK SMILES COc1ccccc1O
REMARK SMILES IDX 3 1 4 2 5 3 6 4 7 5 8 6 2 7 1 8 9 9
REMARK H PARENT 9 10
REMARK Flexibility Score: inf
ROOT
ATOM      1  C   UNL     1     110.369 104.528  93.580  1.00  0.00     0.160 A 
ATOM      2  C   UNL     1     111.652 104.026  93.276  1.00  0.00     0.050 A 
ATOM      3  C   UNL     1     112.059 103.890  91.946  1.00  0.00     0.004 A 
ATOM      4  C   UNL     1     111.197 104.250  90.909  1.00  0.00     0.004 A 
ATOM      5  C   UNL     1     109.925 104.747  91.198  1.00  0.00     0.050 A 
ATOM      6  C   UNL     1     109.506 104.888  92.526  1.00  0.00     0.157 A 
ENDROOT
BRANCH   1   7
ATOM      7  O   UNL     1     109.925 104.679  94.904  1.00  0.00    -0.493 OA
ATOM      8  C   UNL     1     110.633 105.386  95.915  1.00  0.00     0.278 C 
ENDBRANCH   1   7
BRANCH   6   9
ATOM      9  O   UNL     1     108.229 105.388  92.780  1.00  0.00    -0.504 OA
ATOM     10  H   UNL     1     108.043 106.035  93.537  1.00  0.00     0.293 HD
ENDBRANCH   6   9
TORSDOF 2
ENDMDL
MODEL 2
REMARK VINA RESULT:    -3.328     10.581     12.183
REMARK INTER + INTRA:          -3.654
REMARK INTER:                  -3.614
REMARK INTRA:                  -0.041
REMARK UNBOUND:                -0.035
REMARK SMILES COc1ccccc1O
REMARK SMILES IDX 3 1 4 2 5 3 6 4 7 5 8 6 2 7 1 8 9 9
REMARK H PARENT 9 10
REMARK Flexibility Score: inf
ROOT
ATOM      1  C   UNL     1     108.977 106.703 104.315  1.00  0.00     0.160 A 
ATOM      2  C   UNL     1     109.423 105.430 103.902  1.00  0.00     0.050 A 
ATOM      3  C   UNL     1     108.857 104.274 104.445  1.00  0.00     0.004 A 
ATOM      4  C   UNL     1     107.844 104.372 105.401  1.00  0.00     0.004 A 
ATOM      5  C   UNL     1     107.395 105.627 105.817  1.00  0.00     0.050 A 
ATOM      6  C   UNL     1     107.955 106.792 105.281  1.00  0.00     0.157 A 
ENDROOT
BRANCH   1   7
ATOM      7  O   UNL     1     109.522 107.887 103.792  1.00  0.00    -0.493 OA
ATOM      8  C   UNL     1     109.429 108.283 102.428  1.00  0.00     0.278 C 
ENDBRANCH   1   7
BRANCH   6   9
ATOM      9  O   UNL     1     107.483 108.029 105.718  1.00  0.00    -0.504 OA
ATOM     10  H   UNL     1     106.863 108.600 105.156  1.00  0.00     0.293 HD
ENDBRANCH   6   9
TORSDOF 2
ENDMDL
MODEL 3
REMARK VINA RESULT:    -3.316      1.497      3.575
REMARK INTER + INTRA:          -3.641
REMARK INTER:                  -3.606
REMARK INTRA:                  -0.035
REMARK UNBOUND:                -0.035
REMARK SMILES COc1ccccc1O
REMARK SMILES IDX 3 1 4 2 5 3 6 4 7 5 8 6 2 7 1 8 9 9
REMARK H PARENT 9 10
REMARK Flexibility Score: inf
ROOT
ATOM      1  C   UNL     1     110.258 105.068  94.035  1.00  0.00     0.160 A 
ATOM      2  C   UNL     1     110.861 103.875  94.486  1.00  0.00     0.050 A 
ATOM      3  C   UNL     1     111.646 103.875  95.642  1.00  0.00     0.004 A 
ATOM      4  C   UNL     1     111.839 105.057  96.358  1.00  0.00     0.004 A 
ATOM      5  C   UNL     1     111.247 106.244  95.921  1.00  0.00     0.050 A 
ATOM      6  C   UNL     1     110.458 106.256  94.764  1.00  0.00     0.157 A 
ENDROOT
BRANCH   1   7
ATOM      7  O   UNL     1     109.462 105.107  92.878  1.00  0.00    -0.493 OA
ATOM      8  C   UNL     1     109.878 104.645  91.597  1.00  0.00     0.278 C 
ENDBRANCH   1   7
BRANCH   6   9
ATOM      9  O   UNL     1     109.882 107.458  94.355  1.00  0.00    -0.504 OA
ATOM     10  H   UNL     1     109.169 107.498  93.636  1.00  0.00     0.293 HD
ENDBRANCH   6   9
TORSDOF 2
ENDMDL
MODEL 4
REMARK VINA RESULT:    -3.299      2.380      3.456
REMARK INTER + INTRA:          -3.624
REMARK INTER:                  -3.592
REMARK INTRA:                  -0.031
REMARK UNBOUND:                -0.035
REMARK SMILES COc1ccccc1O
REMARK SMILES IDX 3 1 4 2 5 3 6 4 7 5 8 6 2 7 1 8 9 9
REMARK H PARENT 9 10
REMARK Flexibility Score: inf
ROOT
ATOM      1  C   UNL     1     110.677 106.218  96.227  1.00  0.00     0.160 A 
ATOM      2  C   UNL     1     111.304 105.196  96.970  1.00  0.00     0.050 A 
ATOM      3  C   UNL     1     111.748 104.033  96.335  1.00  0.00     0.004 A 
ATOM      4  C   UNL     1     111.573 103.875  94.960  1.00  0.00     0.004 A 
ATOM      5  C   UNL     1     110.953 104.881  94.214  1.00  0.00     0.050 A 
ATOM      6  C   UNL     1     110.504 106.050  94.839  1.00  0.00     0.157 A 
ENDROOT
BRANCH   1   7
ATOM      7  O   UNL     1     110.218 107.401  96.830  1.00  0.00    -0.493 OA
ATOM      8  C   UNL     1     109.501 107.453  98.059  1.00  0.00     0.278 C 
ENDBRANCH   1   7
BRANCH   6   9
ATOM      9  O   UNL     1     109.890 107.034  94.066  1.00  0.00    -0.504 OA
ATOM     10  H   UNL     1     110.187 107.241  93.120  1.00  0.00     0.293 HD
ENDBRANCH   6   9
TORSDOF 2
ENDMDL
MODEL 5
REMARK VINA RESULT:    -3.277     10.779     11.807
REMARK INTER + INTRA:          -3.599
REMARK INTER:                  -3.553
REMARK INTRA:                  -0.046
REMARK UNBOUND:                -0.035
REMARK SMILES COc1ccccc1O
REMARK SMILES IDX 3 1 4 2 5 3 6 4 7 5 8 6 2 7 1 8 9 9
REMARK H PARENT 9 10
REMARK Flexibility Score: inf
ROOT
ATOM      1  C   UNL     1     109.029 107.539 104.039  1.00  0.00     0.160 A 
ATOM      2  C   UNL     1     109.846 106.781 103.173  1.00  0.00     0.050 A 
ATOM      3  C   UNL     1     109.854 105.386 103.254  1.00  0.00     0.004 A 
ATOM      4  C   UNL     1     109.054 104.733 104.193  1.00  0.00     0.004 A 
ATOM      5  C   UNL     1     108.242 105.474 105.054  1.00  0.00     0.050 A 
ATOM      6  C   UNL     1     108.225 106.871 104.983  1.00  0.00     0.157 A 
ENDROOT
BRANCH   1   7
ATOM      7  O   UNL     1     108.993 108.942 103.987  1.00  0.00    -0.493 OA
ATOM      8  C   UNL     1     108.234 109.695 103.047  1.00  0.00     0.278 C 
ENDBRANCH   1   7
BRANCH   6   9
ATOM      9  O   UNL     1     107.402 107.580 105.858  1.00  0.00    -0.504 OA
ATOM     10  H   UNL     1     107.445 108.589 105.942  1.00  0.00     0.293 HD
ENDBRANCH   6   9
TORSDOF 2
ENDMDL
MODEL 6
REMARK VINA RESULT:    -3.193     20.930     22.157
REMARK INTER + INTRA:          -3.508
REMARK INTER:                  -3.481
REMARK INTRA:                  -0.027
REMARK UNBOUND:                -0.035
REMARK SMILES COc1ccccc1O
REMARK SMILES IDX 3 1 4 2 5 3 6 4 7 5 8 6 2 7 1 8 9 9
REMARK H PARENT 9 10
REMARK Flexibility Score: inf
ROOT
ATOM      1  C   UNL     1     119.786 121.872 102.624  1.00  0.00     0.160 A 
ATOM      2  C   UNL     1     119.808 121.362 101.309  1.00  0.00     0.050 A 
ATOM      3  C   UNL     1     119.759 122.230 100.215  1.00  0.00     0.004 A 
ATOM      4  C   UNL     1     119.689 123.609 100.417  1.00  0.00     0.004 A 
ATOM      5  C   UNL     1     119.667 124.125 101.715  1.00  0.00     0.050 A 
ATOM      6  C   UNL     1     119.715 123.266 102.818  1.00  0.00     0.157 A 
ENDROOT
BRANCH   1   7
ATOM      7  O   UNL     1     119.834 121.031 103.748  1.00  0.00    -0.493 OA
ATOM      8  C   UNL     1     119.301 119.712 103.791  1.00  0.00     0.278 C 
ENDBRANCH   1   7
BRANCH   6   9
ATOM      9  O   UNL     1     119.692 123.813 104.100  1.00  0.00    -0.504 OA
ATOM     10  H   UNL     1     118.826 124.026 104.581  1.00  0.00     0.293 HD
ENDBRANCH   6   9
TORSDOF 2
ENDMDL
MODEL 7
REMARK VINA RESULT:    -3.084     19.279     20.056
REMARK INTER + INTRA:          -3.389
REMARK INTER:                  -3.347
REMARK INTRA:                  -0.042
REMARK UNBOUND:                -0.035
REMARK SMILES COc1ccccc1O
REMARK SMILES IDX 3 1 4 2 5 3 6 4 7 5 8 6 2 7 1 8 9 9
REMARK H PARENT 9 10
REMARK Flexibility Score: inf
ROOT
ATOM      1  C   UNL     1     118.040 123.139  93.652  1.00  0.00     0.160 A 
ATOM      2  C   UNL     1     117.910 124.124  94.654  1.00  0.00     0.050 A 
ATOM      3  C   UNL     1     117.743 123.753  95.991  1.00  0.00     0.004 A 
ATOM      4  C   UNL     1     117.703 122.403  96.343  1.00  0.00     0.004 A 
ATOM      5  C   UNL     1     117.830 121.420  95.360  1.00  0.00     0.050 A 
ATOM      6  C   UNL     1     117.998 121.780  94.018  1.00  0.00     0.157 A 
ENDROOT
BRANCH   1   7
ATOM      7  O   UNL     1     118.210 123.474  92.299  1.00  0.00    -0.493 OA
ATOM      8  C   UNL     1     119.360 124.123  91.767  1.00  0.00     0.278 C 
ENDBRANCH   1   7
BRANCH   6   9
ATOM      9  O   UNL     1     118.123 120.773  93.061  1.00  0.00    -0.504 OA
ATOM     10  H   UNL     1     117.718 120.854  92.136  1.00  0.00     0.293 HD
ENDBRANCH   6   9
TORSDOF 2
ENDMDL
