MODEL 1
REMARK VINA RESULT:    -2.946      0.000      0.000
REMARK INTER + INTRA:          -4.758
REMARK INTER:                  -4.496
REMARK INTRA:                  -0.262
REMARK UNBOUND:                -0.262
REMARK SMILES CC1=CCC[C@H](C)C(=O)C[C@@H](C(C)C)C(=O)C1
REMARK SMILES IDX 8 1 9 2 6 3 7 4 5 5 4 6 3 7 2 8 1 9 10 11 11 12 15 13 16 14
REMARK SMILES IDX 17 15 12 17 13 18 14 19
REMARK H PARENT
REMARK Flexibility Score: 70.00
ROOT
ATOM      1  C   UNL     1       1.025  17.075  73.827  1.00  0.00     0.136 C 
ATOM      2  O   UNL     1       0.069  17.143  74.589  1.00  0.00    -0.299 OA
ENDROOT
BRANCH   1   3
ATOM      3  C   UNL     1       2.290  17.848  74.141  1.00  0.00     0.053 C 
ATOM      4  C   UNL     1       1.959  19.311  74.472  1.00  0.00     0.016 C 
BRANCH   3   5
ATOM      5  C   UNL     1       3.052  17.176  75.304  1.00  0.00     0.015 C 
BRANCH   5   6
ATOM      6  C   UNL     1       4.287  16.392  74.816  1.00  0.00     0.028 C 
BRANCH   6   7
ATOM      7  C   UNL     1       4.708  16.833  73.438  1.00  0.00    -0.028 C 
ATOM      8  C   UNL     1       4.670  16.061  72.328  1.00  0.00    -0.070 CG0
ATOM      9  C   UNL     1       5.189  16.649  71.040  1.00  0.00     0.039 C 
ATOM     10  G   UNL     1       4.143  14.634  72.318  1.00  0.00     0.000 G0
ENDBRANCH   6   7
ENDBRANCH   5   6
ENDBRANCH   3   5
ENDBRANCH   1   3
BRANCH   1  11
ATOM     11  C   UNL     1       0.917  16.218  72.586  1.00  0.00     0.087 C 
BRANCH  11  12
ATOM     12  C   UNL     1       1.533  14.808  72.784  1.00  0.00     0.066 C 
BRANCH  12  13
ATOM     13  C   UNL     1       2.696  14.584  71.826  1.00  0.00     0.140 C 
ATOM     14  O   UNL     1       2.455  14.409  70.639  1.00  0.00    -0.299 OA
BRANCH  13  15
ATOM     15  C   UNL     1       4.136  14.643  72.284  1.00  0.00     0.106 CG0
ATOM     16  G   UNL     1       4.671  16.066  72.320  1.00  0.00     0.000 G0
ENDBRANCH  13  15
ENDBRANCH  12  13
BRANCH  12  17
ATOM     17  C   UNL     1       0.477  13.661  72.683  1.00  0.00    -0.006 C 
ATOM     18  C   UNL     1      -0.765  14.077  71.872  1.00  0.00     0.008 C 
ATOM     19  C   UNL     1       0.022  13.203  74.081  1.00  0.00     0.008 C 
ENDBRANCH  12  17
ENDBRANCH  11  12
ENDBRANCH   1  11
TORSDOF 1
ENDMDL
MODEL 2
REMARK VINA RESULT:    -2.855     12.720     14.666
REMARK INTER + INTRA:          -4.619
REMARK INTER:                  -4.442
REMARK INTRA:                  -0.177
REMARK UNBOUND:                -0.262
REMARK SMILES CC1=CCC[C@H](C)C(=O)C[C@@H](C(C)C)C(=O)C1
REMARK SMILES IDX 8 1 9 2 6 3 7 4 5 5 4 6 3 7 2 8 1 9 10 11 11 12 15 13 16 14
REMARK SMILES IDX 17 15 12 17 13 18 14 19
REMARK H PARENT
REMARK Flexibility Score: 70.00
ROOT
ATOM      1  C   UNL     1       3.672   4.747  62.000  1.00  0.00     0.136 C 
ATOM      2  O   UNL     1       4.214   3.763  62.487  1.00  0.00    -0.299 OA
ENDROOT
BRANCH   1   3
ATOM      3  C   UNL     1       2.160   4.832  61.969  1.00  0.00     0.053 C 
ATOM      4  C   UNL     1       1.589   4.799  63.395  1.00  0.00     0.016 C 
BRANCH   3   5
ATOM      5  C   UNL     1       1.711   6.108  61.224  1.00  0.00     0.015 C 
BRANCH   5   6
ATOM      6  C   UNL     1       1.125   7.166  62.180  1.00  0.00     0.028 C 
BRANCH   6   7
ATOM      7  C   UNL     1       1.388   8.564  61.680  1.00  0.00    -0.028 C 
ATOM      8  C   UNL     1       2.438   9.336  62.042  1.00  0.00    -0.070 CG0
ATOM      9  C   UNL     1       2.510  10.736  61.487  1.00  0.00     0.039 C 
ATOM     10  G   UNL     1       3.536   8.867  62.985  1.00  0.00     0.000 G0
ENDBRANCH   6   7
ENDBRANCH   5   6
ENDBRANCH   3   5
ENDBRANCH   1   3
BRANCH   1  11
ATOM     11  C   UNL     1       4.531   5.855  61.437  1.00  0.00     0.087 C 
BRANCH  11  12
ATOM     12  C   UNL     1       5.104   6.781  62.542  1.00  0.00     0.066 C 
BRANCH  12  13
ATOM     13  C   UNL     1       4.712   8.232  62.293  1.00  0.00     0.140 C 
ATOM     14  O   UNL     1       5.330   8.872  61.454  1.00  0.00    -0.299 OA
BRANCH  13  15
ATOM     15  C   UNL     1       3.541   8.879  62.996  1.00  0.00     0.106 CG0
ATOM     16  G   UNL     1       2.457   9.320  62.024  1.00  0.00     0.000 G0
ENDBRANCH  13  15
ENDBRANCH  12  13
BRANCH  12  17
ATOM     17  C   UNL     1       6.649   6.628  62.727  1.00  0.00    -0.006 C 
ATOM     18  C   UNL     1       7.302   5.843  61.574  1.00  0.00     0.008 C 
ATOM     19  C   UNL     1       6.979   5.921  64.054  1.00  0.00     0.008 C 
ENDBRANCH  12  17
ENDBRANCH  11  12
ENDBRANCH   1  11
TORSDOF 1
ENDMDL
MODEL 3
REMARK VINA RESULT:    -2.846      1.974      2.573
REMARK INTER + INTRA:          -4.605
REMARK INTER:                  -4.264
REMARK INTRA:                  -0.341
REMARK UNBOUND:                -0.262
REMARK SMILES CC1=CCC[C@H](C)C(=O)C[C@@H](C(C)C)C(=O)C1
REMARK SMILES IDX 8 1 9 2 6 3 7 4 5 5 4 6 3 7 2 8 1 9 10 11 11 12 15 13 16 14
REMARK SMILES IDX 17 15 12 17 13 18 14 19
REMARK H PARENT
REMARK Flexibility Score: 70.00
ROOT
ATOM      1  C   UNL     1       2.462  16.727  74.990  1.00  0.00     0.136 C 
ATOM      2  O   UNL     1       2.777  15.999  75.923  1.00  0.00    -0.299 OA
ENDROOT
BRANCH   1   3
ATOM      3  C   UNL     1       3.466  17.722  74.445  1.00  0.00     0.053 C 
ATOM      4  C   UNL     1       3.858  18.741  75.527  1.00  0.00     0.016 C 
BRANCH   3   5
ATOM      5  C   UNL     1       4.711  16.985  73.904  1.00  0.00     0.015 C 
BRANCH   5   6
ATOM      6  C   UNL     1       4.564  16.607  72.416  1.00  0.00     0.028 C 
BRANCH   6   7
ATOM      7  C   UNL     1       3.983  17.744  71.615  1.00  0.00    -0.028 C 
ATOM      8  C   UNL     1       2.837  17.686  70.899  1.00  0.00    -0.070 CG0
ATOM      9  C   UNL     1       2.437  18.905  70.107  1.00  0.00     0.039 C 
ATOM     10  G   UNL     1       1.946  16.454  70.843  1.00  0.00     0.000 G0
ENDBRANCH   6   7
ENDBRANCH   5   6
ENDBRANCH   3   5
ENDBRANCH   1   3
BRANCH   1  11
ATOM     11  C   UNL     1       1.074  16.614  74.405  1.00  0.00     0.087 C 
BRANCH  11  12
ATOM     12  C   UNL     1       1.019  15.655  73.187  1.00  0.00     0.066 C 
BRANCH  12  13
ATOM     13  C   UNL     1       0.853  16.435  71.888  1.00  0.00     0.140 C 
ATOM     14  O   UNL     1      -0.153  17.113  71.734  1.00  0.00    -0.299 OA
BRANCH  13  15
ATOM     15  C   UNL     1       1.924  16.454  70.821  1.00  0.00     0.106 CG0
ATOM     16  G   UNL     1       2.820  17.679  70.925  1.00  0.00     0.000 G0
ENDBRANCH  13  15
ENDBRANCH  12  13
BRANCH  12  17
ATOM     17  C   UNL     1      -0.070  14.544  73.332  1.00  0.00    -0.006 C 
ATOM     18  C   UNL     1      -0.220  14.057  74.785  1.00  0.00     0.008 C 
ATOM     19  C   UNL     1       0.252  13.334  72.436  1.00  0.00     0.008 C 
ENDBRANCH  12  17
ENDBRANCH  11  12
ENDBRANCH   1  11
TORSDOF 1
ENDMDL
MODEL 4
REMARK VINA RESULT:    -2.815      3.680      5.612
REMARK INTER + INTRA:          -4.558
REMARK INTER:                  -4.350
REMARK INTRA:                  -0.208
REMARK UNBOUND:                -0.262
REMARK SMILES CC1=CCC[C@H](C)C(=O)C[C@@H](C(C)C)C(=O)C1
REMARK SMILES IDX 8 1 9 2 6 3 7 4 5 5 4 6 3 7 2 8 1 9 10 11 11 12 15 13 16 14
REMARK SMILES IDX 17 15 12 17 13 18 14 19
REMARK H PARENT
REMARK Flexibility Score: 70.00
ROOT
ATOM      1  C   UNL     1       5.785  20.466  72.941  1.00  0.00     0.136 C 
ATOM      2  O   UNL     1       6.232  21.603  72.877  1.00  0.00    -0.299 OA
ENDROOT
BRANCH   1   3
ATOM      3  C   UNL     1       6.184  19.566  74.093  1.00  0.00     0.053 C 
ATOM      4  C   UNL     1       7.711  19.408  74.149  1.00  0.00     0.016 C 
BRANCH   3   5
ATOM      5  C   UNL     1       5.638  20.128  75.424  1.00  0.00     0.015 C 
BRANCH   5   6
ATOM      6  C   UNL     1       4.342  19.420  75.868  1.00  0.00     0.028 C 
BRANCH   6   7
ATOM      7  C   UNL     1       4.217  18.056  75.237  1.00  0.00    -0.028 C 
ATOM      8  C   UNL     1       3.265  17.694  74.347  1.00  0.00    -0.070 CG0
ATOM      9  C   UNL     1       3.257  16.266  73.864  1.00  0.00     0.039 C 
ATOM     10  G   UNL     1       2.203  18.647  73.823  1.00  0.00     0.000 G0
ENDBRANCH   6   7
ENDBRANCH   5   6
ENDBRANCH   3   5
ENDBRANCH   1   3
BRANCH   1  11
ATOM     11  C   UNL     1       4.841  19.986  71.862  1.00  0.00     0.087 C 
BRANCH  11  12
ATOM     12  C   UNL     1       3.366  20.374  72.149  1.00  0.00     0.066 C 
BRANCH  12  13
ATOM     13  C   UNL     1       2.517  19.135  72.403  1.00  0.00     0.140 C 
ATOM     14  O   UNL     1       2.133  18.479  71.445  1.00  0.00    -0.299 OA
BRANCH  13  15
ATOM     15  C   UNL     1       2.198  18.654  73.801  1.00  0.00     0.106 CG0
ATOM     16  G   UNL     1       3.253  17.696  74.335  1.00  0.00     0.000 G0
ENDBRANCH  13  15
ENDBRANCH  12  13
BRANCH  12  17
ATOM     17  C   UNL     1       2.745  21.276  71.033  1.00  0.00    -0.006 C 
ATOM     18  C   UNL     1       3.447  21.095  69.675  1.00  0.00     0.008 C 
ATOM     19  C   UNL     1       2.808  22.763  71.426  1.00  0.00     0.008 C 
ENDBRANCH  12  17
ENDBRANCH  11  12
ENDBRANCH   1  11
TORSDOF 1
ENDMDL
MODEL 5
REMARK VINA RESULT:    -2.782     10.365     12.711
REMARK INTER + INTRA:          -4.508
REMARK INTER:                  -4.638
REMARK INTRA:                   0.130
REMARK UNBOUND:                -0.262
REMARK SMILES CC1=CCC[C@H](C)C(=O)C[C@@H](C(C)C)C(=O)C1
REMARK SMILES IDX 8 1 9 2 6 3 7 4 5 5 4 6 3 7 2 8 1 9 10 11 11 12 15 13 16 14
REMARK SMILES IDX 17 15 12 17 13 18 14 19
REMARK H PARENT
REMARK Flexibility Score: 70.00
ROOT
ATOM      1  C   UNL     1      -1.703   5.907  65.059  1.00  0.00     0.136 C 
ATOM      2  O   UNL     1      -2.421   6.834  64.708  1.00  0.00    -0.299 OA
ENDROOT
BRANCH   1   3
ATOM      3  C   UNL     1      -1.609   4.664  64.197  1.00  0.00     0.053 C 
ATOM      4  C   UNL     1      -2.899   4.471  63.387  1.00  0.00     0.016 C 
BRANCH   3   5
ATOM      5  C   UNL     1      -0.379   4.750  63.267  1.00  0.00     0.015 C 
BRANCH   5   6
ATOM      6  C   UNL     1       0.949   4.648  64.045  1.00  0.00     0.028 C 
BRANCH   6   7
ATOM      7  C   UNL     1       1.865   5.800  63.721  1.00  0.00    -0.028 C 
ATOM      8  C   UNL     1       2.261   6.751  64.599  1.00  0.00    -0.070 CG0
ATOM      9  C   UNL     1       3.134   7.867  64.085  1.00  0.00     0.039 C 
ATOM     10  G   UNL     1       1.860   6.753  66.067  1.00  0.00     0.000 G0
ENDBRANCH   6   7
ENDBRANCH   5   6
ENDBRANCH   3   5
ENDBRANCH   1   3
BRANCH   1  11
ATOM     11  C   UNL     1      -0.925   6.027  66.349  1.00  0.00     0.087 C 
BRANCH  11  12
ATOM     12  C   UNL     1      -0.597   7.500  66.709  1.00  0.00     0.066 C 
BRANCH  12  13
ATOM     13  C   UNL     1       0.864   7.819  66.415  1.00  0.00     0.140 C 
ATOM     14  O   UNL     1       1.246   8.977  66.520  1.00  0.00    -0.299 OA
BRANCH  13  15
ATOM     15  C   UNL     1       1.867   6.742  66.071  1.00  0.00     0.106 CG0
ATOM     16  G   UNL     1       2.263   6.769  64.603  1.00  0.00     0.000 G0
ENDBRANCH  13  15
ENDBRANCH  12  13
BRANCH  12  17
ATOM     17  C   UNL     1      -0.980   7.870  68.178  1.00  0.00    -0.006 C 
ATOM     18  C   UNL     1      -0.471   6.833  69.196  1.00  0.00     0.008 C 
ATOM     19  C   UNL     1      -2.506   8.005  68.334  1.00  0.00     0.008 C 
ENDBRANCH  12  17
ENDBRANCH  11  12
ENDBRANCH   1  11
TORSDOF 1
ENDMDL
MODEL 6
REMARK VINA RESULT:    -2.747     11.795     14.104
REMARK INTER + INTRA:          -4.455
REMARK INTER:                  -4.468
REMARK INTRA:                   0.014
REMARK UNBOUND:                -0.262
REMARK SMILES CC1=CCC[C@H](C)C(=O)C[C@@H](C(C)C)C(=O)C1
REMARK SMILES IDX 8 1 9 2 6 3 7 4 5 5 4 6 3 7 2 8 1 9 10 11 11 12 15 13 16 14
REMARK SMILES IDX 17 15 12 17 13 18 14 19
REMARK H PARENT
REMARK Flexibility Score: 70.00
ROOT
ATOM      1  C   UNL     1       0.677   5.231  66.684  1.00  0.00     0.136 C 
ATOM      2  O   UNL     1       1.302   6.281  66.752  1.00  0.00    -0.299 OA
ENDROOT
BRANCH   1   3
ATOM      3  C   UNL     1      -0.043   4.705  67.909  1.00  0.00     0.053 C 
ATOM      4  C   UNL     1       0.112   5.681  69.085  1.00  0.00     0.016 C 
BRANCH   3   5
ATOM      5  C   UNL     1      -1.534   4.459  67.588  1.00  0.00     0.015 C 
BRANCH   5   6
ATOM      6  C   UNL     1      -2.308   5.775  67.369  1.00  0.00     0.028 C 
BRANCH   6   7
ATOM      7  C   UNL     1      -3.445   5.588  66.398  1.00  0.00    -0.028 C 
ATOM      8  C   UNL     1      -3.404   5.896  65.081  1.00  0.00    -0.070 CG0
ATOM      9  C   UNL     1      -4.659   5.698  64.269  1.00  0.00     0.039 C 
ATOM     10  G   UNL     1      -2.164   6.440  64.388  1.00  0.00     0.000 G0
ENDBRANCH   6   7
ENDBRANCH   5   6
ENDBRANCH   3   5
ENDBRANCH   1   3
BRANCH   1  11
ATOM     11  C   UNL     1       0.641   4.481  65.372  1.00  0.00     0.087 C 
BRANCH  11  12
ATOM     12  C   UNL     1       0.269   5.397  64.176  1.00  0.00     0.066 C 
BRANCH  12  13
ATOM     13  C   UNL     1      -1.229   5.351  63.901  1.00  0.00     0.140 C 
ATOM     14  O   UNL     1      -1.693   4.375  63.329  1.00  0.00    -0.299 OA
BRANCH  13  15
ATOM     15  C   UNL     1      -2.166   6.438  64.379  1.00  0.00     0.106 CG0
ATOM     16  G   UNL     1      -3.405   5.874  65.057  1.00  0.00     0.000 G0
ENDBRANCH  13  15
ENDBRANCH  12  13
BRANCH  12  17
ATOM     17  C   UNL     1       1.097   5.085  62.887  1.00  0.00    -0.006 C 
ATOM     18  C   UNL     1       2.426   4.373  63.203  1.00  0.00     0.008 C 
ATOM     19  C   UNL     1       1.403   6.373  62.102  1.00  0.00     0.008 C 
ENDBRANCH  12  17
ENDBRANCH  11  12
ENDBRANCH   1  11
TORSDOF 1
ENDMDL
MODEL 7
REMARK VINA RESULT:    -2.695     11.873     13.693
REMARK INTER + INTRA:          -4.375
REMARK INTER:                  -4.587
REMARK INTRA:                   0.211
REMARK UNBOUND:                -0.262
REMARK SMILES CC1=CCC[C@H](C)C(=O)C[C@@H](C(C)C)C(=O)C1
REMARK SMILES IDX 8 1 9 2 6 3 7 4 5 5 4 6 3 7 2 8 1 9 10 11 11 12 15 13 16 14
REMARK SMILES IDX 17 15 12 17 13 18 14 19
REMARK H PARENT
REMARK Flexibility Score: 70.00
ROOT
ATOM      1  C   UNL     1      -2.928   4.544  65.962  1.00  0.00     0.136 C 
ATOM      2  O   UNL     1      -3.725   5.388  66.350  1.00  0.00    -0.299 OA
ENDROOT
BRANCH   1   3
ATOM      3  C   UNL     1      -2.957   4.094  64.515  1.00  0.00     0.053 C 
ATOM      4  C   UNL     1      -4.406   3.928  64.031  1.00  0.00     0.016 C 
BRANCH   3   5
ATOM      5  C   UNL     1      -2.190   5.099  63.628  1.00  0.00     0.015 C 
BRANCH   5   6
ATOM      6  C   UNL     1      -0.699   4.733  63.487  1.00  0.00     0.028 C 
BRANCH   6   7
ATOM      7  C   UNL     1       0.190   5.878  63.902  1.00  0.00    -0.028 C 
ATOM      8  C   UNL     1       0.790   6.001  65.108  1.00  0.00    -0.070 CG0
ATOM      9  C   UNL     1       1.597   7.246  65.371  1.00  0.00     0.039 C 
ATOM     10  G   UNL     1       0.679   4.956  66.208  1.00  0.00     0.000 G0
ENDBRANCH   6   7
ENDBRANCH   5   6
ENDBRANCH   3   5
ENDBRANCH   1   3
BRANCH   1  11
ATOM     11  C   UNL     1      -1.932   3.968  66.942  1.00  0.00     0.087 C 
BRANCH  11  12
ATOM     12  C   UNL     1      -1.370   5.038  67.915  1.00  0.00     0.066 C 
BRANCH  12  13
ATOM     13  C   UNL     1       0.004   5.515  67.464  1.00  0.00     0.140 C 
ATOM     14  O   UNL     1       0.599   6.331  68.154  1.00  0.00    -0.299 OA
BRANCH  13  15
ATOM     15  C   UNL     1       0.684   4.957  66.233  1.00  0.00     0.106 CG0
ATOM     16  G   UNL     1       0.781   5.982  65.114  1.00  0.00     0.000 G0
ENDBRANCH  13  15
ENDBRANCH  12  13
BRANCH  12  17
ATOM     17  C   UNL     1      -1.352   4.560  69.403  1.00  0.00    -0.006 C 
ATOM     18  C   UNL     1      -0.132   3.675  69.719  1.00  0.00     0.008 C 
ATOM     19  C   UNL     1      -2.631   3.777  69.747  1.00  0.00     0.008 C 
ENDBRANCH  12  17
ENDBRANCH  11  12
ENDBRANCH   1  11
TORSDOF 1
ENDMDL
MODEL 8
REMARK VINA RESULT:    -2.675      1.763      3.801
REMARK INTER + INTRA:          -4.345
REMARK INTER:                  -4.175
REMARK INTRA:                  -0.169
REMARK UNBOUND:                -0.262
REMARK SMILES CC1=CCC[C@H](C)C(=O)C[C@@H](C(C)C)C(=O)C1
REMARK SMILES IDX 8 1 9 2 6 3 7 4 5 5 4 6 3 7 2 8 1 9 10 11 11 12 15 13 16 14
REMARK SMILES IDX 17 15 12 17 13 18 14 19
REMARK H PARENT
REMARK Flexibility Score: 70.00
ROOT
ATOM      1  C   UNL     1       2.937  15.186  71.735  1.00  0.00     0.136 C 
ATOM      2  O   UNL     1       2.691  15.823  70.719  1.00  0.00    -0.299 OA
ENDROOT
BRANCH   1   3
ATOM      3  C   UNL     1       4.360  15.116  72.250  1.00  0.00     0.053 C 
ATOM      4  C   UNL     1       5.333  14.795  71.105  1.00  0.00     0.016 C 
BRANCH   3   5
ATOM      5  C   UNL     1       4.743  16.441  72.945  1.00  0.00     0.015 C 
BRANCH   5   6
ATOM      6  C   UNL     1       4.064  16.595  74.321  1.00  0.00     0.028 C 
BRANCH   6   7
ATOM      7  C   UNL     1       3.045  17.706  74.310  1.00  0.00    -0.028 C 
ATOM      8  C   UNL     1       1.712  17.541  74.467  1.00  0.00    -0.070 CG0
ATOM      9  C   UNL     1       0.833  18.761  74.367  1.00  0.00     0.039 C 
ATOM     10  G   UNL     1       1.060  16.190  74.725  1.00  0.00     0.000 G0
ENDBRANCH   6   7
ENDBRANCH   5   6
ENDBRANCH   3   5
ENDBRANCH   1   3
BRANCH   1  11
ATOM     11  C   UNL     1       1.808  14.481  72.452  1.00  0.00     0.087 C 
BRANCH  11  12
ATOM     12  C   UNL     1       0.457  15.229  72.309  1.00  0.00     0.066 C 
BRANCH  12  13
ATOM     13  C   UNL     1       0.039  15.856  73.634  1.00  0.00     0.140 C 
ATOM     14  O   UNL     1      -1.151  16.036  73.850  1.00  0.00    -0.299 OA
BRANCH  13  15
ATOM     15  C   UNL     1       1.043  16.192  74.714  1.00  0.00     0.106 CG0
ATOM     16  G   UNL     1       1.696  17.547  74.492  1.00  0.00     0.000 G0
ENDBRANCH  13  15
ENDBRANCH  12  13
BRANCH  12  17
ATOM     17  C   UNL     1      -0.678  14.332  71.717  1.00  0.00    -0.006 C 
ATOM     18  C   UNL     1      -0.260  12.854  71.609  1.00  0.00     0.008 C 
ATOM     19  C   UNL     1      -1.103  14.827  70.323  1.00  0.00     0.008 C 
ENDBRANCH  12  17
ENDBRANCH  11  12
ENDBRANCH   1  11
TORSDOF 1
ENDMDL
MODEL 9
REMARK VINA RESULT:    -2.574      9.971     12.911
REMARK INTER + INTRA:          -4.191
REMARK INTER:                  -3.981
REMARK INTRA:                  -0.209
REMARK UNBOUND:                -0.262
REMARK SMILES CC1=CCC[C@H](C)C(=O)C[C@@H](C(C)C)C(=O)C1
REMARK SMILES IDX 8 1 9 2 6 3 7 4 5 5 4 6 3 7 2 8 1 9 10 11 11 12 15 13 16 14
REMARK SMILES IDX 17 15 12 17 13 18 14 19
REMARK H PARENT
REMARK Flexibility Score: 70.00
ROOT
ATOM      1  C   UNL     1       0.392   6.058  65.455  1.00  0.00     0.136 C 
ATOM      2  O   UNL     1       1.563   5.966  65.111  1.00  0.00    -0.299 OA
ENDROOT
BRANCH   1   3
ATOM      3  C   UNL     1      -0.578   4.943  65.118  1.00  0.00     0.053 C 
ATOM      4  C   UNL     1      -0.749   4.819  63.597  1.00  0.00     0.016 C 
BRANCH   3   5
ATOM      5  C   UNL     1      -0.094   3.611  65.731  1.00  0.00     0.015 C 
BRANCH   5   6
ATOM      6  C   UNL     1      -0.770   3.311  67.084  1.00  0.00     0.028 C 
BRANCH   6   7
ATOM      7  C   UNL     1      -2.154   3.906  67.150  1.00  0.00    -0.028 C 
ATOM      8  C   UNL     1      -2.534   4.902  67.982  1.00  0.00    -0.070 CG0
ATOM      9  C   UNL     1      -3.979   5.332  67.954  1.00  0.00     0.039 C 
ATOM     10  G   UNL     1      -1.584   5.595  68.947  1.00  0.00     0.000 G0
ENDBRANCH   6   7
ENDBRANCH   5   6
ENDBRANCH   3   5
ENDBRANCH   1   3
BRANCH   1  11
ATOM     11  C   UNL     1      -0.059   7.288  66.209  1.00  0.00     0.087 C 
BRANCH  11  12
ATOM     12  C   UNL     1       0.174   7.165  67.738  1.00  0.00     0.066 C 
BRANCH  12  13
ATOM     13  C   UNL     1      -1.144   6.963  68.474  1.00  0.00     0.140 C 
ATOM     14  O   UNL     1      -1.888   7.922  68.622  1.00  0.00    -0.299 OA
BRANCH  13  15
ATOM     15  C   UNL     1      -1.592   5.602  68.959  1.00  0.00     0.106 CG0
ATOM     16  G   UNL     1      -2.522   4.915  67.972  1.00  0.00     0.000 G0
ENDBRANCH  13  15
ENDBRANCH  12  13
BRANCH  12  17
ATOM     17  C   UNL     1       0.984   8.363  68.330  1.00  0.00    -0.006 C 
ATOM     18  C   UNL     1       2.260   8.664  67.524  1.00  0.00     0.008 C 
ATOM     19  C   UNL     1       1.377   8.094  69.794  1.00  0.00     0.008 C 
ENDBRANCH  12  17
ENDBRANCH  11  12
ENDBRANCH   1  11
TORSDOF 1
ENDMDL
