MODEL 1
REMARK VINA RESULT:    -3.640      0.000      0.000
REMARK INTER + INTRA:          -4.940
REMARK INTER:                  -4.811
REMARK INTRA:                  -0.129
REMARK UNBOUND:                -0.129
REMARK SMILES CCCCCCCO
REMARK SMILES IDX 5 1 4 2 3 3 2 4 1 5 6 6 7 7 8 8
REMARK H PARENT 8 9
REMARK Flexibility Score: inf
ROOT
ATOM      1  C   UNL     1       1.660  -1.662 -21.756  1.00  0.00     0.002 C 
ENDROOT
BRANCH   1   2
ATOM      2  C   UNL     1       2.411  -2.782 -22.492  1.00  0.00     0.000 C 
BRANCH   2   3
ATOM      3  C   UNL     1       3.552  -3.379 -21.653  1.00  0.00    -0.000 C 
BRANCH   3   4
ATOM      4  C   UNL     1       3.973  -4.775 -22.136  1.00  0.00    -0.003 C 
ATOM      5  C   UNL     1       4.747  -5.520 -21.052  1.00  0.00     0.004 C 
ENDBRANCH   3   4
ENDBRANCH   2   3
ENDBRANCH   1   2
BRANCH   1   6
ATOM      6  C   UNL     1       2.305  -0.297 -22.032  1.00  0.00     0.028 C 
BRANCH   6   7
ATOM      7  C   UNL     1       2.429  -0.022 -23.532  1.00  0.00     0.156 C 
BRANCH   7   8
ATOM      8  O   UNL     1       3.766   0.221 -23.870  1.00  0.00    -0.396 OA
ATOM      9  H   UNL     1       4.077   0.942 -23.262  1.00  0.00     0.210 HD
ENDBRANCH   7   8
ENDBRANCH   6   7
ENDBRANCH   1   6
TORSDOF 6
ENDMDL
MODEL 2
REMARK VINA RESULT:    -3.601      1.744      1.744
REMARK INTER + INTRA:          -4.888
REMARK INTER:                  -4.793
REMARK INTRA:                  -0.095
REMARK UNBOUND:                -0.129
REMARK SMILES CCCCCCCO
REMARK SMILES IDX 5 1 4 2 3 3 2 4 1 5 6 6 7 7 8 8
REMARK H PARENT 8 9
REMARK Flexibility Score: inf
ROOT
ATOM      1  C   UNL     1       2.162  -1.341 -21.650  1.00  0.00     0.002 C 
ENDROOT
BRANCH   1   2
ATOM      2  C   UNL     1       2.414  -2.773 -22.146  1.00  0.00     0.000 C 
BRANCH   2   3
ATOM      3  C   UNL     1       3.789  -3.313 -21.722  1.00  0.00    -0.000 C 
BRANCH   3   4
ATOM      4  C   UNL     1       3.961  -4.806 -22.038  1.00  0.00    -0.003 C 
ATOM      5  C   UNL     1       4.788  -5.503 -20.961  1.00  0.00     0.004 C 
ENDBRANCH   3   4
ENDBRANCH   2   3
ENDBRANCH   1   2
BRANCH   1   6
ATOM      6  C   UNL     1       2.055  -0.363 -22.828  1.00  0.00     0.028 C 
BRANCH   6   7
ATOM      7  C   UNL     1       0.715   0.374 -22.834  1.00  0.00     0.156 C 
BRANCH   7   8
ATOM      8  O   UNL     1      -0.204  -0.288 -22.008  1.00  0.00    -0.396 OA
ATOM      9  H   UNL     1      -0.953  -0.565 -22.597  1.00  0.00     0.210 HD
ENDBRANCH   7   8
ENDBRANCH   6   7
ENDBRANCH   1   6
TORSDOF 6
ENDMDL
MODEL 3
REMARK VINA RESULT:    -3.570      8.355      9.097
REMARK INTER + INTRA:          -4.846
REMARK INTER:                  -4.775
REMARK INTRA:                  -0.071
REMARK UNBOUND:                -0.129
REMARK SMILES CCCCCCCO
REMARK SMILES IDX 5 1 4 2 3 3 2 4 1 5 6 6 7 7 8 8
REMARK H PARENT 8 9
REMARK Flexibility Score: inf
ROOT
ATOM      1  C   UNL     1      -2.886   3.792 -23.398  1.00  0.00     0.002 C 
ENDROOT
BRANCH   1   2
ATOM      2  C   UNL     1      -3.317   3.026 -22.138  1.00  0.00     0.000 C 
BRANCH   2   3
ATOM      3  C   UNL     1      -4.824   3.144 -21.860  1.00  0.00    -0.000 C 
BRANCH   3   4
ATOM      4  C   UNL     1      -5.337   2.053 -20.910  1.00  0.00    -0.003 C 
ATOM      5  C   UNL     1      -4.986   2.377 -19.460  1.00  0.00     0.004 C 
ENDBRANCH   3   4
ENDBRANCH   2   3
ENDBRANCH   1   2
BRANCH   1   6
ATOM      6  C   UNL     1      -1.382   4.098 -23.365  1.00  0.00     0.028 C 
BRANCH   6   7
ATOM      7  C   UNL     1      -1.085   5.529 -23.818  1.00  0.00     0.156 C 
BRANCH   7   8
ATOM      8  O   UNL     1      -0.606   6.287 -22.742  1.00  0.00    -0.396 OA
ATOM      9  H   UNL     1      -1.181   7.094 -22.697  1.00  0.00     0.210 HD
ENDBRANCH   7   8
ENDBRANCH   6   7
ENDBRANCH   1   6
TORSDOF 6
ENDMDL
MODEL 4
REMARK VINA RESULT:    -3.511      2.466      4.746
REMARK INTER + INTRA:          -4.769
REMARK INTER:                  -4.616
REMARK INTRA:                  -0.152
REMARK UNBOUND:                -0.129
REMARK SMILES CCCCCCCO
REMARK SMILES IDX 5 1 4 2 3 3 2 4 1 5 6 6 7 7 8 8
REMARK H PARENT 8 9
REMARK Flexibility Score: inf
ROOT
ATOM      1  C   UNL     1       2.866  -3.108 -22.439  1.00  0.00     0.002 C 
ENDROOT
BRANCH   1   2
ATOM      2  C   UNL     1       1.924  -2.103 -21.759  1.00  0.00     0.000 C 
BRANCH   2   3
ATOM      3  C   UNL     1       2.416  -0.652 -21.887  1.00  0.00    -0.000 C 
BRANCH   3   4
ATOM      4  C   UNL     1       2.039  -0.016 -23.232  1.00  0.00    -0.003 C 
ATOM      5  C   UNL     1       3.283   0.421 -24.001  1.00  0.00     0.004 C 
ENDBRANCH   3   4
ENDBRANCH   2   3
ENDBRANCH   1   2
BRANCH   1   6
ATOM      6  C   UNL     1       3.887  -3.666 -21.438  1.00  0.00     0.028 C 
BRANCH   6   7
ATOM      7  C   UNL     1       4.306  -5.094 -21.791  1.00  0.00     0.156 C 
BRANCH   7   8
ATOM      8  O   UNL     1       5.048  -5.654 -20.744  1.00  0.00    -0.396 OA
ATOM      9  H   UNL     1       6.003  -5.534 -20.989  1.00  0.00     0.210 HD
ENDBRANCH   7   8
ENDBRANCH   6   7
ENDBRANCH   1   6
TORSDOF 6
ENDMDL
MODEL 5
REMARK VINA RESULT:    -3.501      8.552      9.108
REMARK INTER + INTRA:          -4.755
REMARK INTER:                  -4.621
REMARK INTRA:                  -0.134
REMARK UNBOUND:                -0.129
REMARK SMILES CCCCCCCO
REMARK SMILES IDX 5 1 4 2 3 3 2 4 1 5 6 6 7 7 8 8
REMARK H PARENT 8 9
REMARK Flexibility Score: inf
ROOT
ATOM      1  C   UNL     1      -2.837   4.217 -24.237  1.00  0.00     0.002 C 
ENDROOT
BRANCH   1   2
ATOM      2  C   UNL     1      -3.929   3.938 -23.192  1.00  0.00     0.000 C 
BRANCH   2   3
ATOM      3  C   UNL     1      -3.460   2.980 -22.086  1.00  0.00    -0.000 C 
BRANCH   3   4
ATOM      4  C   UNL     1      -4.418   2.945 -20.887  1.00  0.00    -0.003 C 
ATOM      5  C   UNL     1      -5.433   1.814 -21.028  1.00  0.00     0.004 C 
ENDBRANCH   3   4
ENDBRANCH   2   3
ENDBRANCH   1   2
BRANCH   1   6
ATOM      6  C   UNL     1      -1.452   4.279 -23.577  1.00  0.00     0.028 C 
BRANCH   6   7
ATOM      7  C   UNL     1      -0.751   5.610 -23.855  1.00  0.00     0.156 C 
BRANCH   7   8
ATOM      8  O   UNL     1      -0.662   6.364 -22.678  1.00  0.00    -0.396 OA
ATOM      9  H   UNL     1      -0.386   7.276 -22.957  1.00  0.00     0.210 HD
ENDBRANCH   7   8
ENDBRANCH   6   7
ENDBRANCH   1   6
TORSDOF 6
ENDMDL
MODEL 6
REMARK VINA RESULT:    -3.427      9.820     11.854
REMARK INTER + INTRA:          -4.657
REMARK INTER:                  -4.483
REMARK INTRA:                  -0.174
REMARK UNBOUND:                -0.129
REMARK SMILES CCCCCCCO
REMARK SMILES IDX 5 1 4 2 3 3 2 4 1 5 6 6 7 7 8 8
REMARK H PARENT 8 9
REMARK Flexibility Score: inf
ROOT
ATOM      1  C   UNL     1      -5.879   2.861 -22.172  1.00  0.00     0.002 C 
ENDROOT
BRANCH   1   2
ATOM      2  C   UNL     1      -7.206   2.520 -22.868  1.00  0.00     0.000 C 
BRANCH   2   3
ATOM      3  C   UNL     1      -8.073   3.762 -23.129  1.00  0.00    -0.000 C 
BRANCH   3   4
ATOM      4  C   UNL     1      -7.340   5.073 -22.814  1.00  0.00    -0.003 C 
ATOM      5  C   UNL     1      -8.124   5.914 -21.810  1.00  0.00     0.004 C 
ENDBRANCH   3   4
ENDBRANCH   2   3
ENDBRANCH   1   2
BRANCH   1   6
ATOM      6  C   UNL     1      -5.568   1.849 -21.061  1.00  0.00     0.028 C 
BRANCH   6   7
ATOM      7  C   UNL     1      -4.869   2.509 -19.872  1.00  0.00     0.156 C 
BRANCH   7   8
ATOM      8  O   UNL     1      -3.584   2.929 -20.239  1.00  0.00    -0.396 OA
ATOM      9  H   UNL     1      -3.706   3.767 -20.757  1.00  0.00     0.210 HD
ENDBRANCH   7   8
ENDBRANCH   6   7
ENDBRANCH   1   6
TORSDOF 6
ENDMDL
MODEL 7
REMARK VINA RESULT:    -3.399      6.671      8.682
REMARK INTER + INTRA:          -4.620
REMARK INTER:                  -4.498
REMARK INTRA:                  -0.122
REMARK UNBOUND:                -0.129
REMARK SMILES CCCCCCCO
REMARK SMILES IDX 5 1 4 2 3 3 2 4 1 5 6 6 7 7 8 8
REMARK H PARENT 8 9
REMARK Flexibility Score: inf
ROOT
ATOM      1  C   UNL     1      -2.857   2.576 -22.097  1.00  0.00     0.002 C 
ENDROOT
BRANCH   1   2
ATOM      2  C   UNL     1      -4.026   3.489 -22.501  1.00  0.00     0.000 C 
BRANCH   2   3
ATOM      3  C   UNL     1      -5.282   3.255 -21.648  1.00  0.00    -0.000 C 
BRANCH   3   4
ATOM      4  C   UNL     1      -5.191   1.979 -20.798  1.00  0.00    -0.003 C 
ATOM      5  C   UNL     1      -5.096   2.316 -19.312  1.00  0.00     0.004 C 
ENDBRANCH   3   4
ENDBRANCH   2   3
ENDBRANCH   1   2
BRANCH   1   6
ATOM      6  C   UNL     1      -1.676   2.738 -23.064  1.00  0.00     0.028 C 
BRANCH   6   7
ATOM      7  C   UNL     1      -1.093   1.386 -23.478  1.00  0.00     0.156 C 
BRANCH   7   8
ATOM      8  O   UNL     1      -1.397   0.414 -22.516  1.00  0.00    -0.396 OA
ATOM      9  H   UNL     1      -2.386   0.324 -22.519  1.00  0.00     0.210 HD
ENDBRANCH   7   8
ENDBRANCH   6   7
ENDBRANCH   1   6
TORSDOF 6
ENDMDL
MODEL 8
REMARK VINA RESULT:    -3.398      2.441      4.794
REMARK INTER + INTRA:          -4.619
REMARK INTER:                  -4.499
REMARK INTRA:                  -0.120
REMARK UNBOUND:                -0.129
REMARK SMILES CCCCCCCO
REMARK SMILES IDX 5 1 4 2 3 3 2 4 1 5 6 6 7 7 8 8
REMARK H PARENT 8 9
REMARK Flexibility Score: inf
ROOT
ATOM      1  C   UNL     1       2.973  -3.745 -22.176  1.00  0.00     0.002 C 
ENDROOT
BRANCH   1   2
ATOM      2  C   UNL     1       2.950  -2.289 -21.687  1.00  0.00     0.000 C 
BRANCH   2   3
ATOM      3  C   UNL     1       1.587  -1.613 -21.903  1.00  0.00    -0.000 C 
BRANCH   3   4
ATOM      4  C   UNL     1       1.717  -0.144 -22.334  1.00  0.00    -0.003 C 
ATOM      5  C   UNL     1       2.657  -0.004 -23.529  1.00  0.00     0.004 C 
ENDBRANCH   3   4
ENDBRANCH   2   3
ENDBRANCH   1   2
BRANCH   1   6
ATOM      6  C   UNL     1       4.208  -4.483 -21.642  1.00  0.00     0.028 C 
BRANCH   6   7
ATOM      7  C   UNL     1       4.594  -5.663 -22.536  1.00  0.00     0.156 C 
BRANCH   7   8
ATOM      8  O   UNL     1       3.444  -6.282 -23.042  1.00  0.00    -0.396 OA
ATOM      9  H   UNL     1       3.587  -6.370 -24.021  1.00  0.00     0.210 HD
ENDBRANCH   7   8
ENDBRANCH   6   7
ENDBRANCH   1   6
TORSDOF 6
ENDMDL
MODEL 9
REMARK VINA RESULT:    -3.298      9.287     11.168
REMARK INTER + INTRA:          -4.487
REMARK INTER:                  -4.227
REMARK INTRA:                  -0.260
REMARK UNBOUND:                -0.129
REMARK SMILES CCCCCCCO
REMARK SMILES IDX 5 1 4 2 3 3 2 4 1 5 6 6 7 7 8 8
REMARK H PARENT 8 9
REMARK Flexibility Score: inf
ROOT
ATOM      1  C   UNL     1      -4.830   3.425 -22.308  1.00  0.00     0.002 C 
ENDROOT
BRANCH   1   2
ATOM      2  C   UNL     1      -6.015   4.241 -21.769  1.00  0.00     0.000 C 
BRANCH   2   3
ATOM      3  C   UNL     1      -7.200   4.280 -22.748  1.00  0.00    -0.000 C 
BRANCH   3   4
ATOM      4  C   UNL     1      -7.112   3.191 -23.827  1.00  0.00    -0.003 C 
ATOM      5  C   UNL     1      -8.064   2.037 -23.521  1.00  0.00     0.004 C 
ENDBRANCH   3   4
ENDBRANCH   2   3
ENDBRANCH   1   2
BRANCH   1   6
ATOM      6  C   UNL     1      -4.405   2.347 -21.301  1.00  0.00     0.028 C 
BRANCH   6   7
ATOM      7  C   UNL     1      -4.963   2.626 -19.904  1.00  0.00     0.156 C 
BRANCH   7   8
ATOM      8  O   UNL     1      -4.018   2.281 -18.929  1.00  0.00    -0.396 OA
ATOM      9  H   UNL     1      -3.200   2.010 -19.422  1.00  0.00     0.210 HD
ENDBRANCH   7   8
ENDBRANCH   6   7
ENDBRANCH   1   6
TORSDOF 6
ENDMDL
