MODEL 1
REMARK VINA RESULT:    -4.203      0.000      0.000
REMARK INTER + INTRA:          -8.410
REMARK INTER:                  -7.152
REMARK INTRA:                  -1.258
REMARK UNBOUND:                -1.258
REMARK SMILES CCCCCCCCCCCCCC(=O)[O-]
REMARK SMILES IDX 8 1 9 2 10 3 11 4 12 5 13 6 14 7 15 8 16 9 7 10 6 11 5 12
REMARK SMILES IDX 4 13 3 14 2 15 1 16
REMARK H PARENT
REMARK Flexibility Score: inf
ROOT
ATOM      1  C   UNL     1    -109.795 -41.485 -65.764  1.00  0.00     0.000 C 
ENDROOT
BRANCH   1   2
ATOM      2  C   UNL     1    -111.117 -40.687 -65.798  1.00  0.00     0.000 C 
BRANCH   2   3
ATOM      3  C   UNL     1    -112.298 -41.501 -65.241  1.00  0.00     0.000 C 
BRANCH   3   4
ATOM      4  C   UNL     1    -113.662 -40.923 -65.650  1.00  0.00     0.000 C 
BRANCH   4   5
ATOM      5  C   UNL     1    -114.263 -41.635 -66.875  1.00  0.00     0.006 C 
BRANCH   5   6
ATOM      6  C   UNL     1    -113.650 -43.023 -67.095  1.00  0.00     0.053 C 
BRANCH   6   7
ATOM      7  C   UNL     1    -112.998 -43.133 -68.438  1.00  0.00     0.041 C 
ATOM      8  O   UNL     1    -113.700 -43.177 -69.483  1.00  0.00    -0.550 OA
ATOM      9  O   UNL     1    -111.612 -43.151 -68.540  1.00  0.00    -0.550 OA
ENDBRANCH   6   7
ENDBRANCH   5   6
ENDBRANCH   4   5
ENDBRANCH   3   4
ENDBRANCH   2   3
ENDBRANCH   1   2
BRANCH   1  10
ATOM     10  C   UNL     1    -109.885 -42.793 -64.961  1.00  0.00     0.000 C 
BRANCH  10  11
ATOM     11  C   UNL     1    -108.536 -43.218 -64.360  1.00  0.00    -0.000 C 
BRANCH  11  12
ATOM     12  C   UNL     1    -108.532 -43.209 -62.821  1.00  0.00    -0.000 C 
BRANCH  12  13
ATOM     13  C   UNL     1    -107.775 -42.034 -62.172  1.00  0.00    -0.000 C 
BRANCH  13  14
ATOM     14  C   UNL     1    -106.980 -41.200 -63.187  1.00  0.00    -0.000 C 
BRANCH  14  15
ATOM     15  C   UNL     1    -107.180 -39.700 -62.940  1.00  0.00    -0.003 C 
ATOM     16  C   UNL     1    -107.423 -38.952 -64.248  1.00  0.00     0.004 C 
ENDBRANCH  14  15
ENDBRANCH  13  14
ENDBRANCH  12  13
ENDBRANCH  11  12
ENDBRANCH  10  11
ENDBRANCH   1  10
TORSDOF 12
ENDMDL
MODEL 2
REMARK VINA RESULT:    -4.135      3.318      6.065
REMARK INTER + INTRA:          -8.294
REMARK INTER:                  -6.521
REMARK INTRA:                  -1.772
REMARK UNBOUND:                -1.258
REMARK SMILES CCCCCCCCCCCCCC(=O)[O-]
REMARK SMILES IDX 8 1 9 2 10 3 11 4 12 5 13 6 14 7 15 8 16 9 7 10 6 11 5 12
REMARK SMILES IDX 4 13 3 14 2 15 1 16
REMARK H PARENT
REMARK Flexibility Score: inf
ROOT
ATOM      1  C   UNL     1    -112.738 -40.779 -66.020  1.00  0.00     0.000 C 
ENDROOT
BRANCH   1   2
ATOM      2  C   UNL     1    -113.567 -41.511 -64.942  1.00  0.00     0.000 C 
BRANCH   2   3
ATOM      3  C   UNL     1    -112.759 -42.622 -64.246  1.00  0.00     0.000 C 
BRANCH   3   4
ATOM      4  C   UNL     1    -111.487 -43.002 -65.020  1.00  0.00     0.000 C 
BRANCH   4   5
ATOM      5  C   UNL     1    -110.315 -43.363 -64.091  1.00  0.00     0.006 C 
BRANCH   5   6
ATOM      6  C   UNL     1    -109.008 -42.686 -64.519  1.00  0.00     0.053 C 
BRANCH   6   7
ATOM      7  C   UNL     1    -107.916 -42.907 -63.519  1.00  0.00     0.041 C 
ATOM      8  O   UNL     1    -106.795 -42.354 -63.672  1.00  0.00    -0.550 OA
ATOM      9  O   UNL     1    -108.147 -43.697 -62.399  1.00  0.00    -0.550 OA
ENDBRANCH   6   7
ENDBRANCH   5   6
ENDBRANCH   4   5
ENDBRANCH   3   4
ENDBRANCH   2   3
ENDBRANCH   1   2
BRANCH   1  10
ATOM     10  C   UNL     1    -113.331 -40.890 -67.435  1.00  0.00     0.000 C 
BRANCH  10  11
ATOM     11  C   UNL     1    -114.173 -42.160 -67.630  1.00  0.00    -0.000 C 
BRANCH  11  12
ATOM     12  C   UNL     1    -113.378 -43.319 -68.257  1.00  0.00    -0.000 C 
BRANCH  12  13
ATOM     13  C   UNL     1    -112.136 -42.901 -69.067  1.00  0.00    -0.000 C 
BRANCH  13  14
ATOM     14  C   UNL     1    -111.025 -43.962 -69.052  1.00  0.00    -0.000 C 
BRANCH  14  15
ATOM     15  C   UNL     1    -109.811 -43.473 -68.253  1.00  0.00    -0.003 C 
ATOM     16  C   UNL     1    -109.808 -41.951 -68.131  1.00  0.00     0.004 C 
ENDBRANCH  14  15
ENDBRANCH  13  14
ENDBRANCH  12  13
ENDBRANCH  11  12
ENDBRANCH  10  11
ENDBRANCH   1  10
TORSDOF 12
ENDMDL
MODEL 3
REMARK VINA RESULT:    -4.049      3.062      6.253
REMARK INTER + INTRA:          -8.148
REMARK INTER:                  -6.104
REMARK INTRA:                  -2.044
REMARK UNBOUND:                -1.258
REMARK SMILES CCCCCCCCCCCCCC(=O)[O-]
REMARK SMILES IDX 8 1 9 2 10 3 11 4 12 5 13 6 14 7 15 8 16 9 7 10 6 11 5 12
REMARK SMILES IDX 4 13 3 14 2 15 1 16
REMARK H PARENT
REMARK Flexibility Score: inf
ROOT
ATOM      1  C   UNL     1    -112.152 -42.635 -64.210  1.00  0.00     0.000 C 
ENDROOT
BRANCH   1   2
ATOM      2  C   UNL     1    -111.144 -43.210 -65.229  1.00  0.00     0.000 C 
BRANCH   2   3
ATOM      3  C   UNL     1    -109.686 -42.932 -64.821  1.00  0.00     0.000 C 
BRANCH   3   4
ATOM      4  C   UNL     1    -108.837 -42.399 -65.985  1.00  0.00     0.000 C 
BRANCH   4   5
ATOM      5  C   UNL     1    -109.410 -41.106 -66.592  1.00  0.00     0.006 C 
BRANCH   5   6
ATOM      6  C   UNL     1    -109.403 -39.944 -65.591  1.00  0.00     0.053 C 
BRANCH   6   7
ATOM      7  C   UNL     1    -108.075 -39.253 -65.555  1.00  0.00     0.041 C 
ATOM      8  O   UNL     1    -107.654 -38.744 -64.482  1.00  0.00    -0.550 OA
ATOM      9  O   UNL     1    -107.285 -39.201 -66.697  1.00  0.00    -0.550 OA
ENDBRANCH   6   7
ENDBRANCH   5   6
ENDBRANCH   4   5
ENDBRANCH   3   4
ENDBRANCH   2   3
ENDBRANCH   1   2
BRANCH   1  10
ATOM     10  C   UNL     1    -113.390 -41.995 -64.860  1.00  0.00     0.000 C 
BRANCH  10  11
ATOM     11  C   UNL     1    -113.046 -40.760 -65.708  1.00  0.00    -0.000 C 
BRANCH  11  12
ATOM     12  C   UNL     1    -113.277 -40.981 -67.213  1.00  0.00    -0.000 C 
BRANCH  12  13
ATOM     13  C   UNL     1    -114.140 -42.205 -67.573  1.00  0.00    -0.000 C 
BRANCH  13  14
ATOM     14  C   UNL     1    -113.371 -43.268 -68.372  1.00  0.00    -0.000 C 
BRANCH  14  15
ATOM     15  C   UNL     1    -112.010 -42.730 -68.830  1.00  0.00    -0.003 C 
ATOM     16  C   UNL     1    -110.968 -43.844 -68.888  1.00  0.00     0.004 C 
ENDBRANCH  14  15
ENDBRANCH  13  14
ENDBRANCH  12  13
ENDBRANCH  11  12
ENDBRANCH  10  11
ENDBRANCH   1  10
TORSDOF 12
ENDMDL
MODEL 4
REMARK VINA RESULT:    -4.043      2.479      6.069
REMARK INTER + INTRA:          -8.137
REMARK INTER:                  -6.724
REMARK INTRA:                  -1.413
REMARK UNBOUND:                -1.258
REMARK SMILES CCCCCCCCCCCCCC(=O)[O-]
REMARK SMILES IDX 8 1 9 2 10 3 11 4 12 5 13 6 14 7 15 8 16 9 7 10 6 11 5 12
REMARK SMILES IDX 4 13 3 14 2 15 1 16
REMARK H PARENT
REMARK Flexibility Score: inf
ROOT
ATOM      1  C   UNL     1    -112.463 -41.939 -65.067  1.00  0.00     0.000 C 
ENDROOT
BRANCH   1   2
ATOM      2  C   UNL     1    -112.652 -42.834 -63.822  1.00  0.00     0.000 C 
BRANCH   2   3
ATOM      3  C   UNL     1    -111.383 -43.639 -63.491  1.00  0.00     0.000 C 
BRANCH   3   4
ATOM      4  C   UNL     1    -110.289 -43.487 -64.559  1.00  0.00     0.000 C 
BRANCH   4   5
ATOM      5  C   UNL     1    -108.952 -43.001 -63.973  1.00  0.00     0.006 C 
BRANCH   5   6
ATOM      6  C   UNL     1    -108.115 -42.231 -65.002  1.00  0.00     0.053 C 
BRANCH   6   7
ATOM      7  C   UNL     1    -108.451 -40.772 -65.009  1.00  0.00     0.041 C 
ATOM      8  O   UNL     1    -109.383 -40.339 -65.737  1.00  0.00    -0.550 OA
ATOM      9  O   UNL     1    -107.758 -39.894 -64.185  1.00  0.00    -0.550 OA
ENDBRANCH   6   7
ENDBRANCH   5   6
ENDBRANCH   4   5
ENDBRANCH   3   4
ENDBRANCH   2   3
ENDBRANCH   1   2
BRANCH   1  10
ATOM     10  C   UNL     1    -113.737 -41.186 -65.484  1.00  0.00     0.000 C 
BRANCH  10  11
ATOM     11  C   UNL     1    -114.244 -41.597 -66.875  1.00  0.00    -0.000 C 
BRANCH  11  12
ATOM     12  C   UNL     1    -113.727 -42.977 -67.320  1.00  0.00    -0.000 C 
BRANCH  12  13
ATOM     13  C   UNL     1    -113.331 -43.082 -68.806  1.00  0.00    -0.000 C 
BRANCH  13  14
ATOM     14  C   UNL     1    -111.977 -43.775 -69.017  1.00  0.00    -0.000 C 
BRANCH  14  15
ATOM     15  C   UNL     1    -110.870 -43.070 -68.224  1.00  0.00    -0.003 C 
ATOM     16  C   UNL     1    -109.614 -43.934 -68.141  1.00  0.00     0.004 C 
ENDBRANCH  14  15
ENDBRANCH  13  14
ENDBRANCH  12  13
ENDBRANCH  11  12
ENDBRANCH  10  11
ENDBRANCH   1  10
TORSDOF 12
ENDMDL
MODEL 5
REMARK VINA RESULT:    -4.039      2.560      4.233
REMARK INTER + INTRA:          -8.131
REMARK INTER:                  -6.242
REMARK INTRA:                  -1.889
REMARK UNBOUND:                -1.258
REMARK SMILES CCCCCCCCCCCCCC(=O)[O-]
REMARK SMILES IDX 8 1 9 2 10 3 11 4 12 5 13 6 14 7 15 8 16 9 7 10 6 11 5 12
REMARK SMILES IDX 4 13 3 14 2 15 1 16
REMARK H PARENT
REMARK Flexibility Score: inf
ROOT
ATOM      1  C   UNL     1    -114.497 -42.075 -66.327  1.00  0.00     0.000 C 
ENDROOT
BRANCH   1   2
ATOM      2  C   UNL     1    -113.983 -42.023 -67.783  1.00  0.00     0.000 C 
BRANCH   2   3
ATOM      3  C   UNL     1    -113.375 -43.364 -68.229  1.00  0.00     0.000 C 
BRANCH   3   4
ATOM      4  C   UNL     1    -112.991 -43.375 -69.717  1.00  0.00     0.000 C 
BRANCH   4   5
ATOM      5  C   UNL     1    -111.507 -43.037 -69.947  1.00  0.00     0.006 C 
BRANCH   5   6
ATOM      6  C   UNL     1    -111.316 -42.016 -71.075  1.00  0.00     0.053 C 
BRANCH   6   7
ATOM      7  C   UNL     1    -112.092 -40.760 -70.823  1.00  0.00     0.041 C 
ATOM      8  O   UNL     1    -113.000 -40.405 -71.619  1.00  0.00    -0.550 OA
ATOM      9  O   UNL     1    -111.836 -40.000 -69.688  1.00  0.00    -0.550 OA
ENDBRANCH   6   7
ENDBRANCH   5   6
ENDBRANCH   4   5
ENDBRANCH   3   4
ENDBRANCH   2   3
ENDBRANCH   1   2
BRANCH   1  10
ATOM     10  C   UNL     1    -113.750 -41.126 -65.375  1.00  0.00     0.000 C 
BRANCH  10  11
ATOM     11  C   UNL     1    -113.095 -41.860 -64.194  1.00  0.00    -0.000 C 
BRANCH  11  12
ATOM     12  C   UNL     1    -112.293 -43.100 -64.627  1.00  0.00    -0.000 C 
BRANCH  12  13
ATOM     13  C   UNL     1    -110.774 -42.885 -64.769  1.00  0.00    -0.000 C 
BRANCH  13  14
ATOM     14  C   UNL     1    -110.310 -42.831 -66.232  1.00  0.00    -0.000 C 
BRANCH  14  15
ATOM     15  C   UNL     1    -110.397 -41.402 -66.781  1.00  0.00    -0.003 C 
ATOM     16  C   UNL     1    -109.918 -40.383 -65.750  1.00  0.00     0.004 C 
ENDBRANCH  14  15
ENDBRANCH  13  14
ENDBRANCH  12  13
ENDBRANCH  11  12
ENDBRANCH  10  11
ENDBRANCH   1  10
TORSDOF 12
ENDMDL
MODEL 6
REMARK VINA RESULT:    -4.017      0.970      1.553
REMARK INTER + INTRA:          -8.093
REMARK INTER:                  -6.991
REMARK INTRA:                  -1.101
REMARK UNBOUND:                -1.258
REMARK SMILES CCCCCCCCCCCCCC(=O)[O-]
REMARK SMILES IDX 8 1 9 2 10 3 11 4 12 5 13 6 14 7 15 8 16 9 7 10 6 11 5 12
REMARK SMILES IDX 4 13 3 14 2 15 1 16
REMARK H PARENT
REMARK Flexibility Score: inf
ROOT
ATOM      1  C   UNL     1    -110.243 -43.401 -64.846  1.00  0.00     0.000 C 
ENDROOT
BRANCH   1   2
ATOM      2  C   UNL     1    -111.287 -43.372 -63.709  1.00  0.00     0.000 C 
BRANCH   2   3
ATOM      3  C   UNL     1    -112.700 -43.055 -64.230  1.00  0.00     0.000 C 
BRANCH   3   4
ATOM      4  C   UNL     1    -112.866 -41.582 -64.632  1.00  0.00     0.000 C 
BRANCH   4   5
ATOM      5  C   UNL     1    -113.722 -41.406 -65.899  1.00  0.00     0.006 C 
BRANCH   5   6
ATOM      6  C   UNL     1    -114.022 -42.746 -66.583  1.00  0.00     0.053 C 
BRANCH   6   7
ATOM      7  C   UNL     1    -113.291 -42.879 -67.883  1.00  0.00     0.041 C 
ATOM      8  O   UNL     1    -113.925 -43.106 -68.947  1.00  0.00    -0.550 OA
ATOM      9  O   UNL     1    -111.911 -42.719 -67.925  1.00  0.00    -0.550 OA
ENDBRANCH   6   7
ENDBRANCH   5   6
ENDBRANCH   4   5
ENDBRANCH   3   4
ENDBRANCH   2   3
ENDBRANCH   1   2
BRANCH   1  10
ATOM     10  C   UNL     1    -108.807 -43.118 -64.373  1.00  0.00     0.000 C 
BRANCH  10  11
ATOM     11  C   UNL     1    -108.639 -43.273 -62.853  1.00  0.00    -0.000 C 
BRANCH  11  12
ATOM     12  C   UNL     1    -107.877 -42.101 -62.209  1.00  0.00    -0.000 C 
BRANCH  12  13
ATOM     13  C   UNL     1    -107.047 -41.243 -63.183  1.00  0.00    -0.000 C 
BRANCH  13  14
ATOM     14  C   UNL     1    -106.936 -39.776 -62.745  1.00  0.00    -0.000 C 
BRANCH  14  15
ATOM     15  C   UNL     1    -107.297 -38.831 -63.897  1.00  0.00    -0.003 C 
ATOM     16  C   UNL     1    -107.992 -39.582 -65.029  1.00  0.00     0.004 C 
ENDBRANCH  14  15
ENDBRANCH  13  14
ENDBRANCH  12  13
ENDBRANCH  11  12
ENDBRANCH  10  11
ENDBRANCH   1  10
TORSDOF 12
ENDMDL
MODEL 7
REMARK VINA RESULT:    -3.996      3.437      6.810
REMARK INTER + INTRA:          -8.057
REMARK INTER:                  -6.547
REMARK INTRA:                  -1.510
REMARK UNBOUND:                -1.258
REMARK SMILES CCCCCCCCCCCCCC(=O)[O-]
REMARK SMILES IDX 8 1 9 2 10 3 11 4 12 5 13 6 14 7 15 8 16 9 7 10 6 11 5 12
REMARK SMILES IDX 4 13 3 14 2 15 1 16
REMARK H PARENT
REMARK Flexibility Score: inf
ROOT
ATOM      1  C   UNL     1    -111.713 -40.711 -65.743  1.00  0.00     0.000 C 
ENDROOT
BRANCH   1   2
ATOM      2  C   UNL     1    -110.279 -41.269 -65.875  1.00  0.00     0.000 C 
BRANCH   2   3
ATOM      3  C   UNL     1    -110.262 -42.806 -65.954  1.00  0.00     0.000 C 
BRANCH   3   4
ATOM      4  C   UNL     1    -109.382 -43.445 -64.869  1.00  0.00     0.000 C 
BRANCH   4   5
ATOM      5  C   UNL     1    -108.618 -42.402 -64.035  1.00  0.00     0.006 C 
BRANCH   5   6
ATOM      6  C   UNL     1    -108.165 -42.963 -62.682  1.00  0.00     0.053 C 
BRANCH   6   7
ATOM      7  C   UNL     1    -107.348 -41.970 -61.916  1.00  0.00     0.041 C 
ATOM      8  O   UNL     1    -107.166 -40.811 -62.374  1.00  0.00    -0.550 OA
ATOM      9  O   UNL     1    -106.814 -42.312 -60.679  1.00  0.00    -0.550 OA
ENDBRANCH   6   7
ENDBRANCH   5   6
ENDBRANCH   4   5
ENDBRANCH   3   4
ENDBRANCH   2   3
ENDBRANCH   1   2
BRANCH   1  10
ATOM     10  C   UNL     1    -112.712 -41.714 -65.140  1.00  0.00     0.000 C 
BRANCH  10  11
ATOM     11  C   UNL     1    -114.118 -41.592 -65.747  1.00  0.00    -0.000 C 
BRANCH  11  12
ATOM     12  C   UNL     1    -114.111 -41.586 -67.286  1.00  0.00    -0.000 C 
BRANCH  12  13
ATOM     13  C   UNL     1    -113.707 -42.918 -67.947  1.00  0.00    -0.000 C 
BRANCH  13  14
ATOM     14  C   UNL     1    -112.460 -42.793 -68.834  1.00  0.00    -0.000 C 
BRANCH  14  15
ATOM     15  C   UNL     1    -112.524 -41.525 -69.694  1.00  0.00    -0.003 C 
ATOM     16  C   UNL     1    -111.307 -40.635 -69.455  1.00  0.00     0.004 C 
ENDBRANCH  14  15
ENDBRANCH  13  14
ENDBRANCH  12  13
ENDBRANCH  11  12
ENDBRANCH  10  11
ENDBRANCH   1  10
TORSDOF 12
ENDMDL
MODEL 8
REMARK VINA RESULT:    -3.980      1.599      2.960
REMARK INTER + INTRA:          -8.030
REMARK INTER:                  -6.389
REMARK INTRA:                  -1.641
REMARK UNBOUND:                -1.258
REMARK SMILES CCCCCCCCCCCCCC(=O)[O-]
REMARK SMILES IDX 8 1 9 2 10 3 11 4 12 5 13 6 14 7 15 8 16 9 7 10 6 11 5 12
REMARK SMILES IDX 4 13 3 14 2 15 1 16
REMARK H PARENT
REMARK Flexibility Score: inf
ROOT
ATOM      1  C   UNL     1    -112.517 -41.293 -65.228  1.00  0.00     0.000 C 
ENDROOT
BRANCH   1   2
ATOM      2  C   UNL     1    -113.655 -41.122 -66.257  1.00  0.00     0.000 C 
BRANCH   2   3
ATOM      3  C   UNL     1    -114.112 -42.470 -66.843  1.00  0.00     0.000 C 
BRANCH   3   4
ATOM      4  C   UNL     1    -113.785 -42.608 -68.338  1.00  0.00     0.000 C 
BRANCH   4   5
ATOM      5  C   UNL     1    -112.420 -43.272 -68.587  1.00  0.00     0.006 C 
BRANCH   5   6
ATOM      6  C   UNL     1    -111.588 -42.512 -69.628  1.00  0.00     0.053 C 
BRANCH   6   7
ATOM      7  C   UNL     1    -111.313 -41.105 -69.196  1.00  0.00     0.041 C 
ATOM      8  O   UNL     1    -111.843 -40.139 -69.805  1.00  0.00    -0.550 OA
ATOM      9  O   UNL     1    -110.497 -40.861 -68.097  1.00  0.00    -0.550 OA
ENDBRANCH   6   7
ENDBRANCH   5   6
ENDBRANCH   4   5
ENDBRANCH   3   4
ENDBRANCH   2   3
ENDBRANCH   1   2
BRANCH   1  10
ATOM     10  C   UNL     1    -112.600 -42.605 -64.428  1.00  0.00     0.000 C 
BRANCH  10  11
ATOM     11  C   UNL     1    -111.227 -43.265 -64.222  1.00  0.00    -0.000 C 
BRANCH  11  12
ATOM     12  C   UNL     1    -110.392 -43.332 -65.513  1.00  0.00    -0.000 C 
BRANCH  12  13
ATOM     13  C   UNL     1    -108.921 -42.895 -65.367  1.00  0.00    -0.000 C 
BRANCH  13  14
ATOM     14  C   UNL     1    -108.769 -41.406 -65.024  1.00  0.00    -0.000 C 
BRANCH  14  15
ATOM     15  C   UNL     1    -107.778 -41.209 -63.871  1.00  0.00    -0.003 C 
ATOM     16  C   UNL     1    -107.834 -42.377 -62.889  1.00  0.00     0.004 C 
ENDBRANCH  14  15
ENDBRANCH  13  14
ENDBRANCH  12  13
ENDBRANCH  11  12
ENDBRANCH  10  11
ENDBRANCH   1  10
TORSDOF 12
ENDMDL
