MODEL 1
REMARK VINA RESULT:    -3.918      0.000      0.000
REMARK INTER + INTRA:          -4.906
REMARK INTER:                  -4.835
REMARK INTRA:                  -0.072
REMARK UNBOUND:                -0.072
REMARK SMILES CCCCCC(C)=O
REMARK SMILES IDX 4 1 3 2 2 3 1 4 5 5 6 6 8 7 7 8
REMARK H PARENT
REMARK Flexibility Score: inf
ROOT
ATOM      1  C   UNL     1      27.606  46.458  -0.796  1.00  0.00     0.008 C 
ENDROOT
BRANCH   1   2
ATOM      2  C   UNL     1      27.059  46.834  -2.181  1.00  0.00     0.000 C 
BRANCH   2   3
ATOM      3  C   UNL     1      25.936  47.879  -2.108  1.00  0.00    -0.003 C 
ATOM      4  C   UNL     1      24.818  47.617  -3.116  1.00  0.00     0.004 C 
ENDBRANCH   2   3
ENDBRANCH   1   2
BRANCH   1   5
ATOM      5  C   UNL     1      28.213  45.051  -0.809  1.00  0.00     0.075 C 
BRANCH   5   6
ATOM      6  C   UNL     1      29.460  44.999   0.035  1.00  0.00     0.129 C 
ATOM      7  O   UNL     1      29.497  45.613   1.090  1.00  0.00    -0.300 OA
ATOM      8  C   UNL     1      30.665  44.217  -0.397  1.00  0.00     0.087 C 
ENDBRANCH   5   6
ENDBRANCH   1   5
TORSDOF 4
ENDMDL
MODEL 2
REMARK VINA RESULT:    -3.883     12.986     14.610
REMARK INTER + INTRA:          -4.863
REMARK INTER:                  -4.759
REMARK INTRA:                  -0.104
REMARK UNBOUND:                -0.072
REMARK SMILES CCCCCC(C)=O
REMARK SMILES IDX 4 1 3 2 2 3 1 4 5 5 6 6 8 7 7 8
REMARK H PARENT
REMARK Flexibility Score: inf
ROOT
ATOM      1  C   UNL     1      25.766  56.648  -9.332  1.00  0.00     0.008 C 
ENDROOT
BRANCH   1   2
ATOM      2  C   UNL     1      25.010  55.813  -8.288  1.00  0.00     0.000 C 
BRANCH   2   3
ATOM      3  C   UNL     1      23.570  55.494  -8.718  1.00  0.00    -0.003 C 
ATOM      4  C   UNL     1      22.776  54.769  -7.632  1.00  0.00     0.004 C 
ENDBRANCH   2   3
ENDBRANCH   1   2
BRANCH   1   5
ATOM      5  C   UNL     1      25.255  58.092  -9.354  1.00  0.00     0.075 C 
BRANCH   5   6
ATOM      6  C   UNL     1      26.286  59.014  -9.952  1.00  0.00     0.129 C 
ATOM      7  O   UNL     1      26.245  60.208  -9.696  1.00  0.00    -0.300 OA
ATOM      8  C   UNL     1      27.361  58.500 -10.863  1.00  0.00     0.087 C 
ENDBRANCH   5   6
ENDBRANCH   1   5
TORSDOF 4
ENDMDL
MODEL 3
REMARK VINA RESULT:    -3.873     12.285     14.273
REMARK INTER + INTRA:          -4.850
REMARK INTER:                  -4.797
REMARK INTRA:                  -0.054
REMARK UNBOUND:                -0.072
REMARK SMILES CCCCCC(C)=O
REMARK SMILES IDX 4 1 3 2 2 3 1 4 5 5 6 6 8 7 7 8
REMARK H PARENT
REMARK Flexibility Score: inf
ROOT
ATOM      1  C   UNL     1      25.826  56.993  -9.353  1.00  0.00     0.008 C 
ENDROOT
BRANCH   1   2
ATOM      2  C   UNL     1      26.015  58.466  -9.741  1.00  0.00     0.000 C 
BRANCH   2   3
ATOM      3  C   UNL     1      27.241  58.688 -10.639  1.00  0.00    -0.003 C 
ATOM      4  C   UNL     1      27.581  60.167 -10.822  1.00  0.00     0.004 C 
ENDBRANCH   2   3
ENDBRANCH   1   2
BRANCH   1   5
ATOM      5  C   UNL     1      24.381  56.719  -8.923  1.00  0.00     0.075 C 
BRANCH   5   6
ATOM      6  C   UNL     1      24.261  55.359  -8.287  1.00  0.00     0.129 C 
ATOM      7  O   UNL     1      25.258  54.665  -8.160  1.00  0.00    -0.300 OA
ATOM      8  C   UNL     1      22.939  54.831  -7.813  1.00  0.00     0.087 C 
ENDBRANCH   5   6
ENDBRANCH   1   5
TORSDOF 4
ENDMDL
MODEL 4
REMARK VINA RESULT:    -3.852     11.881     13.325
REMARK INTER + INTRA:          -4.825
REMARK INTER:                  -4.822
REMARK INTRA:                  -0.003
REMARK UNBOUND:                -0.072
REMARK SMILES CCCCCC(C)=O
REMARK SMILES IDX 4 1 3 2 2 3 1 4 5 5 6 6 8 7 7 8
REMARK H PARENT
REMARK Flexibility Score: inf
ROOT
ATOM      1  C   UNL     1      24.325  55.212  -8.714  1.00  0.00     0.008 C 
ENDROOT
BRANCH   1   2
ATOM      2  C   UNL     1      23.657  55.244  -7.331  1.00  0.00     0.000 C 
BRANCH   2   3
ATOM      3  C   UNL     1      22.366  54.414  -7.280  1.00  0.00    -0.003 C 
ATOM      4  C   UNL     1      21.966  54.031  -5.855  1.00  0.00     0.004 C 
ENDBRANCH   2   3
ENDBRANCH   1   2
BRANCH   1   5
ATOM      5  C   UNL     1      25.661  55.962  -8.696  1.00  0.00     0.075 C 
BRANCH   5   6
ATOM      6  C   UNL     1      25.496  57.360  -9.234  1.00  0.00     0.129 C 
ATOM      7  O   UNL     1      24.481  57.987  -8.974  1.00  0.00    -0.300 OA
ATOM      8  C   UNL     1      26.548  57.997 -10.092  1.00  0.00     0.087 C 
ENDBRANCH   5   6
ENDBRANCH   1   5
TORSDOF 4
ENDMDL
MODEL 5
REMARK VINA RESULT:    -3.793      1.884      4.887
REMARK INTER + INTRA:          -4.751
REMARK INTER:                  -4.686
REMARK INTRA:                  -0.066
REMARK UNBOUND:                -0.072
REMARK SMILES CCCCCC(C)=O
REMARK SMILES IDX 4 1 3 2 2 3 1 4 5 5 6 6 8 7 7 8
REMARK H PARENT
REMARK Flexibility Score: inf
ROOT
ATOM      1  C   UNL     1      28.072  46.048  -0.777  1.00  0.00     0.008 C 
ENDROOT
BRANCH   1   2
ATOM      2  C   UNL     1      28.730  44.688  -0.505  1.00  0.00     0.000 C 
BRANCH   2   3
ATOM      3  C   UNL     1      30.228  44.810  -0.189  1.00  0.00    -0.003 C 
ATOM      4  C   UNL     1      30.496  45.255   1.248  1.00  0.00     0.004 C 
ENDBRANCH   2   3
ENDBRANCH   1   2
BRANCH   1   5
ATOM      5  C   UNL     1      26.790  45.883  -1.601  1.00  0.00     0.075 C 
BRANCH   5   6
ATOM      6  C   UNL     1      26.364  47.200  -2.196  1.00  0.00     0.129 C 
ATOM      7  O   UNL     1      27.021  48.204  -1.966  1.00  0.00    -0.300 OA
ATOM      8  C   UNL     1      25.143  47.308  -3.060  1.00  0.00     0.087 C 
ENDBRANCH   5   6
ENDBRANCH   1   5
TORSDOF 4
ENDMDL
MODEL 6
REMARK VINA RESULT:    -3.649     11.418     12.975
REMARK INTER + INTRA:          -4.573
REMARK INTER:                  -4.510
REMARK INTRA:                  -0.063
REMARK UNBOUND:                -0.072
REMARK SMILES CCCCCC(C)=O
REMARK SMILES IDX 4 1 3 2 2 3 1 4 5 5 6 6 8 7 7 8
REMARK H PARENT
REMARK Flexibility Score: inf
ROOT
ATOM      1  C   UNL     1      24.180  55.237  -8.683  1.00  0.00     0.008 C 
ENDROOT
BRANCH   1   2
ATOM      2  C   UNL     1      25.465  56.046  -8.911  1.00  0.00     0.000 C 
BRANCH   2   3
ATOM      3  C   UNL     1      25.188  57.537  -9.158  1.00  0.00    -0.003 C 
ATOM      4  C   UNL     1      26.323  58.233  -9.907  1.00  0.00     0.004 C 
ENDBRANCH   2   3
ENDBRANCH   1   2
BRANCH   1   5
ATOM      5  C   UNL     1      23.809  55.202  -7.197  1.00  0.00     0.075 C 
BRANCH   5   6
ATOM      6  C   UNL     1      22.541  54.418  -6.981  1.00  0.00     0.129 C 
ATOM      7  O   UNL     1      21.885  54.059  -7.947  1.00  0.00    -0.300 OA
ATOM      8  C   UNL     1      22.058  54.077  -5.603  1.00  0.00     0.087 C 
ENDBRANCH   5   6
ENDBRANCH   1   5
TORSDOF 4
ENDMDL
MODEL 7
REMARK VINA RESULT:    -3.606      1.789      2.668
REMARK INTER + INTRA:          -4.521
REMARK INTER:                  -4.449
REMARK INTRA:                  -0.072
REMARK UNBOUND:                -0.072
REMARK SMILES CCCCCC(C)=O
REMARK SMILES IDX 4 1 3 2 2 3 1 4 5 5 6 6 8 7 7 8
REMARK H PARENT
REMARK Flexibility Score: inf
ROOT
ATOM      1  C   UNL     1      29.316  45.385   0.430  1.00  0.00     0.008 C 
ENDROOT
BRANCH   1   2
ATOM      2  C   UNL     1      28.352  45.360  -0.765  1.00  0.00     0.000 C 
BRANCH   2   3
ATOM      3  C   UNL     1      27.377  46.547  -0.761  1.00  0.00    -0.003 C 
ATOM      4  C   UNL     1      27.032  47.034  -2.168  1.00  0.00     0.004 C 
ENDBRANCH   2   3
ENDBRANCH   1   2
BRANCH   1   5
ATOM      5  C   UNL     1      30.725  44.954   0.008  1.00  0.00     0.075 C 
BRANCH   5   6
ATOM      6  C   UNL     1      31.571  44.641   1.215  1.00  0.00     0.129 C 
ATOM      7  O   UNL     1      31.830  43.478   1.481  1.00  0.00    -0.300 OA
ATOM      8  C   UNL     1      32.098  45.728   2.104  1.00  0.00     0.087 C 
ENDBRANCH   5   6
ENDBRANCH   1   5
TORSDOF 4
ENDMDL
MODEL 8
REMARK VINA RESULT:    -3.444      1.851      5.028
REMARK INTER + INTRA:          -4.321
REMARK INTER:                  -4.204
REMARK INTRA:                  -0.117
REMARK UNBOUND:                -0.072
REMARK SMILES CCCCCC(C)=O
REMARK SMILES IDX 4 1 3 2 2 3 1 4 5 5 6 6 8 7 7 8
REMARK H PARENT
REMARK Flexibility Score: inf
ROOT
ATOM      1  C   UNL     1      29.154  44.340  -0.387  1.00  0.00     0.008 C 
ENDROOT
BRANCH   1   2
ATOM      2  C   UNL     1      30.432  44.146   0.441  1.00  0.00     0.000 C 
BRANCH   2   3
ATOM      3  C   UNL     1      31.413  45.319   0.297  1.00  0.00    -0.003 C 
ATOM      4  C   UNL     1      32.275  45.526   1.541  1.00  0.00     0.004 C 
ENDBRANCH   2   3
ENDBRANCH   1   2
BRANCH   1   5
ATOM      5  C   UNL     1      28.697  45.802  -0.358  1.00  0.00     0.075 C 
BRANCH   5   6
ATOM      6  C   UNL     1      27.406  45.974  -1.116  1.00  0.00     0.129 C 
ATOM      7  O   UNL     1      26.645  45.026  -1.229  1.00  0.00    -0.300 OA
ATOM      8  C   UNL     1      27.038  47.285  -1.746  1.00  0.00     0.087 C 
ENDBRANCH   5   6
ENDBRANCH   1   5
TORSDOF 4
ENDMDL
MODEL 9
REMARK VINA RESULT:    -3.413      2.778      4.261
REMARK INTER + INTRA:          -4.282
REMARK INTER:                  -4.158
REMARK INTRA:                  -0.125
REMARK UNBOUND:                -0.072
REMARK SMILES CCCCCC(C)=O
REMARK SMILES IDX 4 1 3 2 2 3 1 4 5 5 6 6 8 7 7 8
REMARK H PARENT
REMARK Flexibility Score: inf
ROOT
ATOM      1  C   UNL     1      31.153  44.912   0.504  1.00  0.00     0.008 C 
ENDROOT
BRANCH   1   2
ATOM      2  C   UNL     1      29.690  45.342   0.685  1.00  0.00     0.000 C 
BRANCH   2   3
ATOM      3  C   UNL     1      28.807  44.953  -0.510  1.00  0.00    -0.003 C 
ATOM      4  C   UNL     1      27.840  46.064  -0.917  1.00  0.00     0.004 C 
ENDBRANCH   2   3
ENDBRANCH   1   2
BRANCH   1   5
ATOM      5  C   UNL     1      31.872  44.827   1.854  1.00  0.00     0.075 C 
BRANCH   5   6
ATOM      6  C   UNL     1      32.468  46.160   2.227  1.00  0.00     0.129 C 
ATOM      7  O   UNL     1      33.232  46.714   1.452  1.00  0.00    -0.300 OA
ATOM      8  C   UNL     1      32.151  46.819   3.536  1.00  0.00     0.087 C 
ENDBRANCH   5   6
ENDBRANCH   1   5
TORSDOF 4
ENDMDL
