MODEL 1
REMARK VINA RESULT:    -4.158      0.000      0.000
REMARK INTER + INTRA:          -6.497
REMARK INTER:                  -5.859
REMARK INTRA:                  -0.638
REMARK UNBOUND:                -0.638
REMARK SMILES CCCCCCCCC(=O)[O-]
REMARK SMILES IDX 6 1 7 2 8 3 9 4 10 5 11 6 5 7 4 8 3 9 2 10 1 11
REMARK H PARENT
REMARK Flexibility Score: inf
ROOT
ATOM      1  C   UNL     1      15.057 -13.199  37.074  1.00  0.00     0.000 C 
ENDROOT
BRANCH   1   2
ATOM      2  C   UNL     1      15.764 -14.496  36.639  1.00  0.00     0.006 C 
BRANCH   2   3
ATOM      3  C   UNL     1      16.583 -14.357  35.345  1.00  0.00     0.053 C 
BRANCH   3   4
ATOM      4  C   UNL     1      17.991 -13.913  35.601  1.00  0.00     0.041 C 
ATOM      5  O   UNL     1      18.585 -13.179  34.767  1.00  0.00    -0.550 OA
ATOM      6  O   UNL     1      18.637 -14.277  36.776  1.00  0.00    -0.550 OA
ENDBRANCH   3   4
ENDBRANCH   2   3
ENDBRANCH   1   2
BRANCH   1   7
ATOM      7  C   UNL     1      15.115 -12.960  38.590  1.00  0.00     0.000 C 
BRANCH   7   8
ATOM      8  C   UNL     1      16.105 -13.921  39.260  1.00  0.00    -0.000 C 
BRANCH   8   9
ATOM      9  C   UNL     1      15.451 -14.655  40.436  1.00  0.00    -0.000 C 
BRANCH   9  10
ATOM     10  C   UNL     1      14.378 -15.634  39.947  1.00  0.00    -0.003 C 
ATOM     11  C   UNL     1      15.000 -16.950  39.489  1.00  0.00     0.004 C 
ENDBRANCH   9  10
ENDBRANCH   8   9
ENDBRANCH   7   8
ENDBRANCH   1   7
TORSDOF 7
ENDMDL
MODEL 2
REMARK VINA RESULT:    -4.149     10.787     12.276
REMARK INTER + INTRA:          -6.485
REMARK INTER:                  -5.974
REMARK INTRA:                  -0.511
REMARK UNBOUND:                -0.638
REMARK SMILES CCCCCCCCC(=O)[O-]
REMARK SMILES IDX 6 1 7 2 8 3 9 4 10 5 11 6 5 7 4 8 3 9 2 10 1 11
REMARK H PARENT
REMARK Flexibility Score: inf
ROOT
ATOM      1  C   UNL     1      22.701 -22.150  33.290  1.00  0.00     0.000 C 
ENDROOT
BRANCH   1   2
ATOM      2  C   UNL     1      23.839 -22.227  32.256  1.00  0.00     0.006 C 
BRANCH   2   3
ATOM      3  C   UNL     1      24.968 -23.199  32.639  1.00  0.00     0.053 C 
BRANCH   3   4
ATOM      4  C   UNL     1      25.354 -24.105  31.509  1.00  0.00     0.041 C 
ATOM      5  O   UNL     1      24.532 -24.357  30.590  1.00  0.00    -0.550 OA
ATOM      6  O   UNL     1      26.634 -24.644  31.452  1.00  0.00    -0.550 OA
ENDBRANCH   3   4
ENDBRANCH   2   3
ENDBRANCH   1   2
BRANCH   1   7
ATOM      7  C   UNL     1      21.652 -23.258  33.115  1.00  0.00     0.000 C 
BRANCH   7   8
ATOM      8  C   UNL     1      20.242 -22.666  33.000  1.00  0.00    -0.000 C 
BRANCH   8   9
ATOM      9  C   UNL     1      20.265 -21.145  33.186  1.00  0.00    -0.000 C 
BRANCH   9  10
ATOM     10  C   UNL     1      19.567 -20.437  32.020  1.00  0.00    -0.003 C 
ATOM     11  C   UNL     1      20.584 -19.809  31.069  1.00  0.00     0.004 C 
ENDBRANCH   9  10
ENDBRANCH   8   9
ENDBRANCH   7   8
ENDBRANCH   1   7
TORSDOF 7
ENDMDL
MODEL 3
REMARK VINA RESULT:    -4.122      2.125      2.804
REMARK INTER + INTRA:          -6.446
REMARK INTER:                  -5.666
REMARK INTRA:                  -0.780
REMARK UNBOUND:                -0.638
REMARK SMILES CCCCCCCCC(=O)[O-]
REMARK SMILES IDX 6 1 7 2 8 3 9 4 10 5 11 6 5 7 4 8 3 9 2 10 1 11
REMARK H PARENT
REMARK Flexibility Score: inf
ROOT
ATOM      1  C   UNL     1      17.154 -13.906  37.125  1.00  0.00     0.000 C 
ENDROOT
BRANCH   1   2
ATOM      2  C   UNL     1      17.298 -14.887  35.947  1.00  0.00     0.006 C 
BRANCH   2   3
ATOM      3  C   UNL     1      16.134 -15.885  35.818  1.00  0.00     0.053 C 
BRANCH   3   4
ATOM      4  C   UNL     1      16.180 -16.958  36.863  1.00  0.00     0.041 C 
ATOM      5  O   UNL     1      15.111 -17.420  37.342  1.00  0.00    -0.550 OA
ATOM      6  O   UNL     1      17.399 -17.474  37.283  1.00  0.00    -0.550 OA
ENDBRANCH   3   4
ENDBRANCH   2   3
ENDBRANCH   1   2
BRANCH   1   7
ATOM      7  C   UNL     1      15.868 -13.069  37.058  1.00  0.00     0.000 C 
BRANCH   7   8
ATOM      8  C   UNL     1      15.039 -13.231  38.338  1.00  0.00    -0.000 C 
BRANCH   8   9
ATOM      9  C   UNL     1      15.857 -13.909  39.443  1.00  0.00    -0.000 C 
BRANCH   9  10
ATOM     10  C   UNL     1      15.114 -15.122  40.013  1.00  0.00    -0.003 C 
ATOM     11  C   UNL     1      13.658 -15.141  39.556  1.00  0.00     0.004 C 
ENDBRANCH   9  10
ENDBRANCH   8   9
ENDBRANCH   7   8
ENDBRANCH   1   7
TORSDOF 7
ENDMDL
MODEL 4
REMARK VINA RESULT:    -4.100      1.874      2.185
REMARK INTER + INTRA:          -6.415
REMARK INTER:                  -5.671
REMARK INTRA:                  -0.744
REMARK UNBOUND:                -0.638
REMARK SMILES CCCCCCCCC(=O)[O-]
REMARK SMILES IDX 6 1 7 2 8 3 9 4 10 5 11 6 5 7 4 8 3 9 2 10 1 11
REMARK H PARENT
REMARK Flexibility Score: inf
ROOT
ATOM      1  C   UNL     1      15.685 -13.142  37.126  1.00  0.00     0.000 C 
ENDROOT
BRANCH   1   2
ATOM      2  C   UNL     1      17.015 -13.913  37.029  1.00  0.00     0.006 C 
BRANCH   2   3
ATOM      3  C   UNL     1      17.072 -14.916  35.864  1.00  0.00     0.053 C 
BRANCH   3   4
ATOM      4  C   UNL     1      16.422 -16.224  36.200  1.00  0.00     0.041 C 
ATOM      5  O   UNL     1      17.068 -17.111  36.818  1.00  0.00    -0.550 OA
ATOM      6  O   UNL     1      15.093 -16.451  35.864  1.00  0.00    -0.550 OA
ENDBRANCH   3   4
ENDBRANCH   2   3
ENDBRANCH   1   2
BRANCH   1   7
ATOM      7  C   UNL     1      15.007 -13.281  38.497  1.00  0.00     0.000 C 
BRANCH   7   8
ATOM      8  C   UNL     1      15.972 -13.877  39.529  1.00  0.00    -0.000 C 
BRANCH   8   9
ATOM      9  C   UNL     1      15.290 -14.977  40.351  1.00  0.00    -0.000 C 
BRANCH   9  10
ATOM     10  C   UNL     1      14.556 -15.968  39.442  1.00  0.00    -0.003 C 
ATOM     11  C   UNL     1      15.091 -17.385  39.626  1.00  0.00     0.004 C 
ENDBRANCH   9  10
ENDBRANCH   8   9
ENDBRANCH   7   8
ENDBRANCH   1   7
TORSDOF 7
ENDMDL
MODEL 5
REMARK VINA RESULT:    -4.073      2.248      4.141
REMARK INTER + INTRA:          -6.377
REMARK INTER:                  -5.572
REMARK INTRA:                  -0.805
REMARK UNBOUND:                -0.638
REMARK SMILES CCCCCCCCC(=O)[O-]
REMARK SMILES IDX 6 1 7 2 8 3 9 4 10 5 11 6 5 7 4 8 3 9 2 10 1 11
REMARK H PARENT
REMARK Flexibility Score: inf
ROOT
ATOM      1  C   UNL     1      15.625 -14.303  39.637  1.00  0.00     0.000 C 
ENDROOT
BRANCH   1   2
ATOM      2  C   UNL     1      14.539 -15.395  39.624  1.00  0.00     0.006 C 
BRANCH   2   3
ATOM      3  C   UNL     1      15.093 -16.826  39.509  1.00  0.00     0.053 C 
BRANCH   3   4
ATOM      4  C   UNL     1      15.503 -17.173  38.110  1.00  0.00     0.041 C 
ATOM      5  O   UNL     1      14.717 -16.960  37.149  1.00  0.00    -0.550 OA
ATOM      6  O   UNL     1      16.765 -17.696  37.861  1.00  0.00    -0.550 OA
ENDBRANCH   3   4
ENDBRANCH   2   3
ENDBRANCH   1   2
BRANCH   1   7
ATOM      7  C   UNL     1      15.257 -13.079  38.786  1.00  0.00     0.000 C 
BRANCH   7   8
ATOM      8  C   UNL     1      15.121 -13.458  37.306  1.00  0.00    -0.000 C 
BRANCH   8   9
ATOM      9  C   UNL     1      16.399 -13.119  36.530  1.00  0.00    -0.000 C 
BRANCH   9  10
ATOM     10  C   UNL     1      17.187 -14.387  36.185  1.00  0.00    -0.003 C 
ATOM     11  C   UNL     1      18.337 -14.605  37.164  1.00  0.00     0.004 C 
ENDBRANCH   9  10
ENDBRANCH   8   9
ENDBRANCH   7   8
ENDBRANCH   1   7
TORSDOF 7
ENDMDL
MODEL 6
REMARK VINA RESULT:    -4.057     11.328     12.867
REMARK INTER + INTRA:          -6.355
REMARK INTER:                  -5.944
REMARK INTRA:                  -0.411
REMARK UNBOUND:                -0.638
REMARK SMILES CCCCCCCCC(=O)[O-]
REMARK SMILES IDX 6 1 7 2 8 3 9 4 10 5 11 6 5 7 4 8 3 9 2 10 1 11
REMARK H PARENT
REMARK Flexibility Score: inf
ROOT
ATOM      1  C   UNL     1      23.777 -23.083  32.798  1.00  0.00     0.000 C 
ENDROOT
BRANCH   1   2
ATOM      2  C   UNL     1      24.181 -23.964  31.602  1.00  0.00     0.006 C 
BRANCH   2   3
ATOM      3  C   UNL     1      24.825 -23.187  30.441  1.00  0.00     0.053 C 
BRANCH   3   4
ATOM      4  C   UNL     1      26.287 -23.482  30.292  1.00  0.00     0.041 C 
ATOM      5  O   UNL     1      26.812 -24.423  30.944  1.00  0.00    -0.550 OA
ATOM      6  O   UNL     1      27.063 -22.742  29.408  1.00  0.00    -0.550 OA
ENDBRANCH   3   4
ENDBRANCH   2   3
ENDBRANCH   1   2
BRANCH   1   7
ATOM      7  C   UNL     1      23.854 -21.580  32.491  1.00  0.00     0.000 C 
BRANCH   7   8
ATOM      8  C   UNL     1      22.464 -21.010  32.183  1.00  0.00    -0.000 C 
BRANCH   8   9
ATOM      9  C   UNL     1      21.419 -21.539  33.173  1.00  0.00    -0.000 C 
BRANCH   9  10
ATOM     10  C   UNL     1      19.998 -21.214  32.699  1.00  0.00    -0.003 C 
ATOM     11  C   UNL     1      20.017 -20.235  31.529  1.00  0.00     0.004 C 
ENDBRANCH   9  10
ENDBRANCH   8   9
ENDBRANCH   7   8
ENDBRANCH   1   7
TORSDOF 7
ENDMDL
MODEL 7
REMARK VINA RESULT:    -4.021      1.213      2.577
REMARK INTER + INTRA:          -6.305
REMARK INTER:                  -5.537
REMARK INTRA:                  -0.768
REMARK UNBOUND:                -0.638
REMARK SMILES CCCCCCCCC(=O)[O-]
REMARK SMILES IDX 6 1 7 2 8 3 9 4 10 5 11 6 5 7 4 8 3 9 2 10 1 11
REMARK H PARENT
REMARK Flexibility Score: inf
ROOT
ATOM      1  C   UNL     1      15.097 -16.719  36.107  1.00  0.00     0.000 C 
ENDROOT
BRANCH   1   2
ATOM      2  C   UNL     1      16.516 -16.122  36.082  1.00  0.00     0.006 C 
BRANCH   2   3
ATOM      3  C   UNL     1      16.590 -14.713  35.469  1.00  0.00     0.053 C 
BRANCH   3   4
ATOM      4  C   UNL     1      17.873 -14.010  35.797  1.00  0.00     0.041 C 
ATOM      5  O   UNL     1      18.430 -14.197  36.910  1.00  0.00    -0.550 OA
ATOM      6  O   UNL     1      18.473 -13.177  34.860  1.00  0.00    -0.550 OA
ENDBRANCH   3   4
ENDBRANCH   2   3
ENDBRANCH   1   2
BRANCH   1   7
ATOM      7  C   UNL     1      14.405 -16.570  37.470  1.00  0.00     0.000 C 
BRANCH   7   8
ATOM      8  C   UNL     1      15.433 -16.356  38.588  1.00  0.00    -0.000 C 
BRANCH   8   9
ATOM      9  C   UNL     1      14.995 -15.231  39.533  1.00  0.00    -0.000 C 
BRANCH   9  10
ATOM     10  C   UNL     1      15.855 -13.979  39.335  1.00  0.00    -0.003 C 
ATOM     11  C   UNL     1      15.107 -12.918  38.532  1.00  0.00     0.004 C 
ENDBRANCH   9  10
ENDBRANCH   8   9
ENDBRANCH   7   8
ENDBRANCH   1   7
TORSDOF 7
ENDMDL
MODEL 8
REMARK VINA RESULT:    -3.990      1.603      3.052
REMARK INTER + INTRA:          -6.261
REMARK INTER:                  -5.555
REMARK INTRA:                  -0.706
REMARK UNBOUND:                -0.638
REMARK SMILES CCCCCCCCC(=O)[O-]
REMARK SMILES IDX 6 1 7 2 8 3 9 4 10 5 11 6 5 7 4 8 3 9 2 10 1 11
REMARK H PARENT
REMARK Flexibility Score: inf
ROOT
ATOM      1  C   UNL     1      15.178 -14.994  40.291  1.00  0.00     0.000 C 
ENDROOT
BRANCH   1   2
ATOM      2  C   UNL     1      15.920 -13.901  39.499  1.00  0.00     0.006 C 
BRANCH   2   3
ATOM      3  C   UNL     1      15.286 -13.578  38.136  1.00  0.00     0.053 C 
BRANCH   3   4
ATOM      4  C   UNL     1      16.310 -13.356  37.064  1.00  0.00     0.041 C 
ATOM      5  O   UNL     1      16.077 -12.552  36.123  1.00  0.00    -0.550 OA
ATOM      6  O   UNL     1      17.536 -14.007  37.122  1.00  0.00    -0.550 OA
ENDBRANCH   3   4
ENDBRANCH   2   3
ENDBRANCH   1   2
BRANCH   1   7
ATOM      7  C   UNL     1      14.065 -15.674  39.481  1.00  0.00     0.000 C 
BRANCH   7   8
ATOM      8  C   UNL     1      14.124 -17.198  39.637  1.00  0.00    -0.000 C 
BRANCH   8   9
ATOM      9  C   UNL     1      15.465 -17.752  39.144  1.00  0.00    -0.000 C 
BRANCH   9  10
ATOM     10  C   UNL     1      15.700 -17.399  37.672  1.00  0.00    -0.003 C 
ATOM     11  C   UNL     1      17.185 -17.444  37.324  1.00  0.00     0.004 C 
ENDBRANCH   9  10
ENDBRANCH   8   9
ENDBRANCH   7   8
ENDBRANCH   1   7
TORSDOF 7
ENDMDL
MODEL 9
REMARK VINA RESULT:    -3.983      2.344      4.484
REMARK INTER + INTRA:          -6.252
REMARK INTER:                  -5.596
REMARK INTRA:                  -0.655
REMARK UNBOUND:                -0.638
REMARK SMILES CCCCCCCCC(=O)[O-]
REMARK SMILES IDX 6 1 7 2 8 3 9 4 10 5 11 6 5 7 4 8 3 9 2 10 1 11
REMARK H PARENT
REMARK Flexibility Score: inf
ROOT
ATOM      1  C   UNL     1      15.105 -12.995  38.872  1.00  0.00     0.000 C 
ENDROOT
BRANCH   1   2
ATOM      2  C   UNL     1      15.838 -14.211  39.469  1.00  0.00     0.006 C 
BRANCH   2   3
ATOM      3  C   UNL     1      14.900 -15.304  40.010  1.00  0.00     0.053 C 
BRANCH   3   4
ATOM      4  C   UNL     1      15.028 -16.595  39.259  1.00  0.00     0.041 C 
ATOM      5  O   UNL     1      15.149 -16.589  38.006  1.00  0.00    -0.550 OA
ATOM      6  O   UNL     1      15.050 -17.803  39.945  1.00  0.00    -0.550 OA
ENDBRANCH   3   4
ENDBRANCH   2   3
ENDBRANCH   1   2
BRANCH   1   7
ATOM      7  C   UNL     1      14.825 -13.139  37.369  1.00  0.00     0.000 C 
BRANCH   7   8
ATOM      8  C   UNL     1      16.078 -12.826  36.544  1.00  0.00    -0.000 C 
BRANCH   8   9
ATOM      9  C   UNL     1      16.331 -13.911  35.491  1.00  0.00    -0.000 C 
BRANCH   9  10
ATOM     10  C   UNL     1      17.318 -14.962  36.009  1.00  0.00    -0.003 C 
ATOM     11  C   UNL     1      18.391 -14.325  36.888  1.00  0.00     0.004 C 
ENDBRANCH   9  10
ENDBRANCH   8   9
ENDBRANCH   7   8
ENDBRANCH   1   7
TORSDOF 7
ENDMDL
