MODEL 1
REMARK VINA RESULT:    54.724      0.000      0.000
REMARK INTER + INTRA:          82.787
REMARK INTER:                  78.717
REMARK INTRA:                   4.070
REMARK UNBOUND:                 4.070
REMARK SMILES O=c1c(O[C@@H]2O[C@H](CO)[C@H](O)[C@@H](O)[C@@H]2O)c(-c2ccc(O)cc2)oc2cc(O)cc(O)c12
REMARK SMILES IDX 4 1 3 2 16 3 24 4 2 5 25 6 1 7 32 8 26 9 30 10 27 11 29 12
REMARK SMILES IDX 17 13 18 14 19 15 20 16 23 17 22 18 21 19 31 21 28 23 5 25
REMARK SMILES IDX 14 26 6 27 12 28 7 29 10 30 15 31 13 33 8 35 9 36 11 38
REMARK H PARENT 21 20 31 22 28 24 15 32 13 34 9 37 11 39
REMARK Flexibility Score: inf
ROOT
ATOM      1  O   UNL     1      -2.478  22.701  41.827  1.00  0.00    -0.454 OA
ENDROOT
BRANCH   1   2
ATOM      2  C   UNL     1      -1.889  21.816  40.905  1.00  0.00     0.214 A 
ATOM      3  C   UNL     1      -1.563  22.265  39.614  1.00  0.00     0.180 A 
ATOM      4  O   UNL     1      -0.906  21.476  38.771  1.00  0.00    -0.452 OA
ATOM      5  C   UNL     1      -1.598  20.479  41.239  1.00  0.00     0.239 A 
ATOM      6  C   UNL     1      -0.552  20.232  39.070  1.00  0.00     0.146 A 
ATOM      7  O   UNL     1      -1.992  20.008  42.336  1.00  0.00    -0.285 OA
ATOM      8  C   UNL     1      -0.892  19.669  40.324  1.00  0.00     0.111 A 
ATOM      9  C   UNL     1       0.159  19.483  38.127  1.00  0.00     0.094 A 
ATOM     10  C   UNL     1      -0.515  18.333  40.600  1.00  0.00     0.134 A 
ATOM     11  C   UNL     1       0.539  18.169  38.410  1.00  0.00     0.123 A 
ATOM     12  C   UNL     1       0.191  17.596  39.636  1.00  0.00     0.093 A 
BRANCH   3  13
ATOM     13  C   UNL     1      -1.935  23.605  39.151  1.00  0.00     0.021 A 
ATOM     14  C   UNL     1      -1.689  24.719  39.970  1.00  0.00     0.016 A 
ATOM     15  C   UNL     1      -2.090  25.993  39.560  1.00  0.00     0.047 A 
ATOM     16  C   UNL     1      -2.740  26.165  38.331  1.00  0.00     0.115 A 
ATOM     17  C   UNL     1      -2.606  23.773  37.933  1.00  0.00     0.016 A 
ATOM     18  C   UNL     1      -2.997  25.051  37.517  1.00  0.00     0.047 A 
BRANCH  16  19
ATOM     19  O   UNL     1      -3.124  27.442  37.928  1.00  0.00    -0.508 OA
ATOM     20  H   UNL     1      -4.059  27.791  38.098  1.00  0.00     0.293 HD
ENDBRANCH  16  19
ENDBRANCH   3  13
BRANCH  10  21
ATOM     21  O   UNL     1      -0.822  17.743  41.824  1.00  0.00    -0.507 OA
ATOM     22  H   UNL     1      -1.770  17.481  42.067  1.00  0.00     0.293 HD
ENDBRANCH  10  21
BRANCH  11  23
ATOM     23  O   UNL     1       1.266  17.425  37.486  1.00  0.00    -0.508 OA
ATOM     24  H   UNL     1       1.941  16.730  37.782  1.00  0.00     0.293 HD
ENDBRANCH  11  23
ENDBRANCH   1   2
BRANCH   1  25
ATOM     25  C   UNL     1      -3.790  22.513  42.381  1.00  0.00     0.339 C 
ATOM     26  C   UNL     1      -4.506  23.854  42.651  1.00  0.00     0.214 C 
ATOM     27  O   UNL     1      -4.557  21.617  41.587  1.00  0.00    -0.332 OA
ATOM     28  C   UNL     1      -4.899  24.522  41.336  1.00  0.00     0.180 C 
ATOM     29  C   UNL     1      -5.066  22.154  40.369  1.00  0.00     0.179 C 
ATOM     30  C   UNL     1      -5.750  23.536  40.517  1.00  0.00     0.177 C 
BRANCH  26  31
ATOM     31  O   UNL     1      -3.686  24.722  43.392  1.00  0.00    -0.384 OA
ATOM     32  H   UNL     1      -3.676  24.381  44.324  1.00  0.00     0.211 HD
ENDBRANCH  26  31
BRANCH  28  33
ATOM     33  O   UNL     1      -5.642  25.678  41.616  1.00  0.00    -0.387 OA
ATOM     34  H   UNL     1      -5.198  26.433  41.153  1.00  0.00     0.211 HD
ENDBRANCH  28  33
BRANCH  29  35
ATOM     35  C   UNL     1      -4.068  22.015  39.204  1.00  0.00     0.191 C 
BRANCH  35  36
ATOM     36  O   UNL     1      -4.697  21.625  38.017  1.00  0.00    -0.394 OA
ATOM     37  H   UNL     1      -5.447  22.250  37.860  1.00  0.00     0.210 HD
ENDBRANCH  35  36
ENDBRANCH  29  35
BRANCH  30  38
ATOM     38  O   UNL     1      -6.121  24.057  39.261  1.00  0.00    -0.387 OA
ATOM     39  H   UNL     1      -5.506  24.804  39.035  1.00  0.00     0.211 HD
ENDBRANCH  30  38
ENDBRANCH   1  25
TORSDOF 11
ENDMDL
MODEL 2
REMARK VINA RESULT:    56.241      2.490      6.831
REMARK INTER + INTRA:          84.969
REMARK INTER:                  80.423
REMARK INTRA:                   4.547
REMARK UNBOUND:                 4.070
REMARK SMILES O=c1c(O[C@@H]2O[C@H](CO)[C@H](O)[C@@H](O)[C@@H]2O)c(-c2ccc(O)cc2)oc2cc(O)cc(O)c12
REMARK SMILES IDX 4 1 3 2 16 3 24 4 2 5 25 6 1 7 32 8 26 9 30 10 27 11 29 12
REMARK SMILES IDX 17 13 18 14 19 15 20 16 23 17 22 18 21 19 31 21 28 23 5 25
REMARK SMILES IDX 14 26 6 27 12 28 7 29 10 30 15 31 13 33 8 35 9 36 11 38
REMARK H PARENT 21 20 31 22 28 24 15 32 13 34 9 37 11 39
REMARK Flexibility Score: inf
ROOT
ATOM      1  O   UNL     1      -3.561  23.796  38.176  1.00  0.00    -0.454 OA
ENDROOT
BRANCH   1   2
ATOM      2  C   UNL     1      -2.878  24.949  38.606  1.00  0.00     0.214 A 
ATOM      3  C   UNL     1      -2.562  25.109  39.966  1.00  0.00     0.180 A 
ATOM      4  O   UNL     1      -1.820  26.135  40.370  1.00  0.00    -0.452 OA
ATOM      5  C   UNL     1      -2.482  25.959  37.707  1.00  0.00     0.239 A 
ATOM      6  C   UNL     1      -1.369  27.072  39.546  1.00  0.00     0.146 A 
ATOM      7  O   UNL     1      -2.860  25.913  36.510  1.00  0.00    -0.285 OA
ATOM      8  C   UNL     1      -1.690  27.032  38.168  1.00  0.00     0.111 A 
ATOM      9  C   UNL     1      -0.577  28.104  40.059  1.00  0.00     0.094 A 
ATOM     10  C   UNL     1      -1.208  28.059  37.322  1.00  0.00     0.134 A 
ATOM     11  C   UNL     1      -0.094  29.108  39.217  1.00  0.00     0.123 A 
ATOM     12  C   UNL     1      -0.420  29.090  37.859  1.00  0.00     0.093 A 
BRANCH   3  13
ATOM     13  C   UNL     1      -3.034  24.162  40.980  1.00  0.00     0.021 A 
ATOM     14  C   UNL     1      -4.267  24.376  41.615  1.00  0.00     0.016 A 
ATOM     15  C   UNL     1      -4.699  23.508  42.621  1.00  0.00     0.047 A 
ATOM     16  C   UNL     1      -3.902  22.421  43.002  1.00  0.00     0.115 A 
ATOM     17  C   UNL     1      -2.226  23.089  41.377  1.00  0.00     0.016 A 
ATOM     18  C   UNL     1      -2.663  22.212  42.377  1.00  0.00     0.047 A 
BRANCH  16  19
ATOM     19  O   UNL     1      -4.349  21.556  43.998  1.00  0.00    -0.508 OA
ATOM     20  H   UNL     1      -5.281  21.634  44.388  1.00  0.00     0.293 HD
ENDBRANCH  16  19
ENDBRANCH   3  13
BRANCH  10  21
ATOM     21  O   UNL     1      -1.492  28.054  35.958  1.00  0.00    -0.507 OA
ATOM     22  H   UNL     1      -2.444  28.030  35.611  1.00  0.00     0.293 HD
ENDBRANCH  10  21
BRANCH  11  23
ATOM     23  O   UNL     1       0.715  30.125  39.716  1.00  0.00    -0.508 OA
ATOM     24  H   UNL     1       1.232  30.739  39.097  1.00  0.00     0.293 HD
ENDBRANCH  11  23
ENDBRANCH   1   2
BRANCH   1  25
ATOM     25  C   UNL     1      -4.043  22.780  39.069  1.00  0.00     0.339 C 
ATOM     26  C   UNL     1      -5.113  21.884  38.409  1.00  0.00     0.214 C 
ATOM     27  O   UNL     1      -2.967  22.044  39.635  1.00  0.00    -0.332 OA
ATOM     28  C   UNL     1      -4.478  20.987  37.351  1.00  0.00     0.180 C 
ATOM     29  C   UNL     1      -2.346  21.096  38.771  1.00  0.00     0.179 C 
ATOM     30  C   UNL     1      -3.338  20.185  38.004  1.00  0.00     0.177 C 
BRANCH  26  31
ATOM     31  O   UNL     1      -6.125  22.661  37.819  1.00  0.00    -0.384 OA
ATOM     32  H   UNL     1      -5.785  23.593  37.778  1.00  0.00     0.211 HD
ENDBRANCH  26  31
BRANCH  28  33
ATOM     33  O   UNL     1      -5.452  20.111  36.850  1.00  0.00    -0.387 OA
ATOM     34  H   UNL     1      -5.986  19.792  37.620  1.00  0.00     0.211 HD
ENDBRANCH  28  33
BRANCH  29  35
ATOM     35  C   UNL     1      -1.215  21.719  37.932  1.00  0.00     0.191 C 
BRANCH  35  36
ATOM     36  O   UNL     1      -0.195  20.801  37.660  1.00  0.00    -0.394 OA
ATOM     37  H   UNL     1      -0.041  20.276  38.484  1.00  0.00     0.210 HD
ENDBRANCH  35  36
ENDBRANCH  29  35
BRANCH  30  38
ATOM     38  O   UNL     1      -2.662  19.358  37.084  1.00  0.00    -0.387 OA
ATOM     39  H   UNL     1      -3.082  18.457  37.103  1.00  0.00     0.211 HD
ENDBRANCH  30  38
ENDBRANCH   1  25
TORSDOF 11
ENDMDL
