MODEL 1
REMARK VINA RESULT:    -3.981      0.000      0.000
REMARK INTER + INTRA:          -5.438
REMARK INTER:                  -5.145
REMARK INTRA:                  -0.293
REMARK UNBOUND:                -0.293
REMARK SMILES C=CC(=O)CCCCC
REMARK SMILES IDX 6 1 7 2 8 3 9 4 5 5 3 6 4 7 2 8 1 9
REMARK H PARENT
REMARK Flexibility Score: inf
ROOT
ATOM      1  C   UNL     1     -16.947 -37.548 211.979  1.00  0.00     0.008 C 
ENDROOT
BRANCH   1   2
ATOM      2  C   UNL     1     -16.598 -38.662 212.988  1.00  0.00     0.000 C 
BRANCH   2   3
ATOM      3  C   UNL     1     -16.813 -40.097 212.473  1.00  0.00    -0.003 C 
ATOM      4  C   UNL     1     -16.158 -41.154 213.360  1.00  0.00     0.004 C 
ENDBRANCH   2   3
ENDBRANCH   1   2
BRANCH   1   5
ATOM      5  C   UNL     1     -15.990 -37.455 210.778  1.00  0.00     0.080 C 
BRANCH   5   6
ATOM      6  C   UNL     1     -16.600 -37.951 209.486  1.00  0.00     0.155 C 
ATOM      7  O   UNL     1     -15.970 -38.791 208.788  1.00  0.00    -0.295 OA
BRANCH   6   8
ATOM      8  C   UNL     1     -17.891 -37.450 208.971  1.00  0.00     0.039 C 
ATOM      9  C   UNL     1     -18.997 -38.189 208.896  1.00  0.00     0.012 C 
ENDBRANCH   6   8
ENDBRANCH   5   6
ENDBRANCH   1   5
TORSDOF 5
ENDMDL
MODEL 2
REMARK VINA RESULT:    -3.971      1.213      1.891
REMARK INTER + INTRA:          -5.425
REMARK INTER:                  -4.968
REMARK INTRA:                  -0.457
REMARK UNBOUND:                -0.293
REMARK SMILES C=CC(=O)CCCCC
REMARK SMILES IDX 6 1 7 2 8 3 9 4 5 5 3 6 4 7 2 8 1 9
REMARK H PARENT
REMARK Flexibility Score: inf
ROOT
ATOM      1  C   UNL     1     -17.011 -37.551 212.003  1.00  0.00     0.008 C 
ENDROOT
BRANCH   1   2
ATOM      2  C   UNL     1     -16.597 -38.663 212.989  1.00  0.00     0.000 C 
BRANCH   2   3
ATOM      3  C   UNL     1     -16.901 -40.097 212.518  1.00  0.00    -0.003 C 
ATOM      4  C   UNL     1     -16.109 -41.157 213.282  1.00  0.00     0.004 C 
ENDBRANCH   2   3
ENDBRANCH   1   2
BRANCH   1   5
ATOM      5  C   UNL     1     -16.038 -37.348 210.827  1.00  0.00     0.080 C 
BRANCH   5   6
ATOM      6  C   UNL     1     -16.504 -38.000 209.545  1.00  0.00     0.155 C 
ATOM      7  O   UNL     1     -17.499 -37.524 208.935  1.00  0.00    -0.295 OA
BRANCH   6   8
ATOM      8  C   UNL     1     -15.872 -39.218 208.996  1.00  0.00     0.039 C 
ATOM      9  C   UNL     1     -14.711 -39.710 209.428  1.00  0.00     0.012 C 
ENDBRANCH   6   8
ENDBRANCH   5   6
ENDBRANCH   1   5
TORSDOF 5
ENDMDL
MODEL 3
REMARK VINA RESULT:    -3.925      1.454      1.947
REMARK INTER + INTRA:          -5.365
REMARK INTER:                  -4.795
REMARK INTRA:                  -0.571
REMARK UNBOUND:                -0.293
REMARK SMILES C=CC(=O)CCCCC
REMARK SMILES IDX 6 1 7 2 8 3 9 4 5 5 3 6 4 7 2 8 1 9
REMARK H PARENT
REMARK Flexibility Score: inf
ROOT
ATOM      1  C   UNL     1     -16.688 -39.131 212.934  1.00  0.00     0.008 C 
ENDROOT
BRANCH   1   2
ATOM      2  C   UNL     1     -17.124 -40.434 212.231  1.00  0.00     0.000 C 
BRANCH   2   3
ATOM      3  C   UNL     1     -15.969 -41.327 211.744  1.00  0.00    -0.003 C 
ATOM      4  C   UNL     1     -15.495 -40.976 210.335  1.00  0.00     0.004 C 
ENDBRANCH   2   3
ENDBRANCH   1   2
BRANCH   1   5
ATOM      5  C   UNL     1     -17.266 -37.848 212.310  1.00  0.00     0.080 C 
BRANCH   5   6
ATOM      6  C   UNL     1     -16.719 -37.553 210.931  1.00  0.00     0.155 C 
ATOM      7  O   UNL     1     -15.501 -37.257 210.800  1.00  0.00    -0.295 OA
BRANCH   6   8
ATOM      8  C   UNL     1     -17.570 -37.543 209.723  1.00  0.00     0.039 C 
ATOM      9  C   UNL     1     -18.660 -38.295 209.578  1.00  0.00     0.012 C 
ENDBRANCH   6   8
ENDBRANCH   5   6
ENDBRANCH   1   5
TORSDOF 5
ENDMDL
MODEL 4
REMARK VINA RESULT:    -3.907      1.760      3.886
REMARK INTER + INTRA:          -5.342
REMARK INTER:                  -4.771
REMARK INTRA:                  -0.571
REMARK UNBOUND:                -0.293
REMARK SMILES C=CC(=O)CCCCC
REMARK SMILES IDX 6 1 7 2 8 3 9 4 5 5 3 6 4 7 2 8 1 9
REMARK H PARENT
REMARK Flexibility Score: inf
ROOT
ATOM      1  C   UNL     1     -16.981 -37.354 209.762  1.00  0.00     0.008 C 
ENDROOT
BRANCH   1   2
ATOM      2  C   UNL     1     -17.735 -38.543 209.132  1.00  0.00     0.000 C 
BRANCH   2   3
ATOM      3  C   UNL     1     -19.260 -38.531 209.342  1.00  0.00    -0.003 C 
ATOM      4  C   UNL     1     -19.708 -39.402 210.515  1.00  0.00     0.004 C 
ENDBRANCH   2   3
ENDBRANCH   1   2
BRANCH   1   5
ATOM      5  C   UNL     1     -16.037 -37.738 210.915  1.00  0.00     0.080 C 
BRANCH   5   6
ATOM      6  C   UNL     1     -16.763 -38.066 212.200  1.00  0.00     0.155 C 
ATOM      7  O   UNL     1     -17.606 -37.249 212.659  1.00  0.00    -0.295 OA
BRANCH   6   8
ATOM      8  C   UNL     1     -16.487 -39.289 212.981  1.00  0.00     0.039 C 
ATOM      9  C   UNL     1     -16.774 -40.520 212.558  1.00  0.00     0.012 C 
ENDBRANCH   6   8
ENDBRANCH   5   6
ENDBRANCH   1   5
TORSDOF 5
ENDMDL
MODEL 5
REMARK VINA RESULT:    -3.881      1.592      4.163
REMARK INTER + INTRA:          -5.309
REMARK INTER:                  -4.940
REMARK INTRA:                  -0.369
REMARK UNBOUND:                -0.293
REMARK SMILES C=CC(=O)CCCCC
REMARK SMILES IDX 6 1 7 2 8 3 9 4 5 5 3 6 4 7 2 8 1 9
REMARK H PARENT
REMARK Flexibility Score: inf
ROOT
ATOM      1  C   UNL     1     -17.045 -37.633 212.149  1.00  0.00     0.008 C 
ENDROOT
BRANCH   1   2
ATOM      2  C   UNL     1     -16.161 -37.380 210.910  1.00  0.00     0.000 C 
BRANCH   2   3
ATOM      3  C   UNL     1     -16.872 -37.555 209.556  1.00  0.00    -0.003 C 
ATOM      4  C   UNL     1     -16.383 -38.776 208.778  1.00  0.00     0.004 C 
ENDBRANCH   2   3
ENDBRANCH   1   2
BRANCH   1   5
ATOM      5  C   UNL     1     -16.713 -38.927 212.914  1.00  0.00     0.080 C 
BRANCH   5   6
ATOM      6  C   UNL     1     -17.199 -40.176 212.215  1.00  0.00     0.155 C 
ATOM      7  O   UNL     1     -18.269 -40.136 211.549  1.00  0.00    -0.295 OA
BRANCH   6   8
ATOM      8  C   UNL     1     -16.497 -41.473 212.323  1.00  0.00     0.039 C 
ATOM      9  C   UNL     1     -16.042 -41.975 213.470  1.00  0.00     0.012 C 
ENDBRANCH   6   8
ENDBRANCH   5   6
ENDBRANCH   1   5
TORSDOF 5
ENDMDL
MODEL 6
REMARK VINA RESULT:    -3.820      2.056      3.699
REMARK INTER + INTRA:          -5.230
REMARK INTER:                  -4.661
REMARK INTRA:                  -0.569
REMARK UNBOUND:                -0.293
REMARK SMILES C=CC(=O)CCCCC
REMARK SMILES IDX 6 1 7 2 8 3 9 4 5 5 3 6 4 7 2 8 1 9
REMARK H PARENT
REMARK Flexibility Score: inf
ROOT
ATOM      1  C   UNL     1     -15.969 -37.529 210.406  1.00  0.00     0.008 C 
ENDROOT
BRANCH   1   2
ATOM      2  C   UNL     1     -15.930 -38.697 209.399  1.00  0.00     0.000 C 
BRANCH   2   3
ATOM      3  C   UNL     1     -14.695 -39.609 209.507  1.00  0.00    -0.003 C 
ATOM      4  C   UNL     1     -15.055 -41.086 209.660  1.00  0.00     0.004 C 
ENDBRANCH   2   3
ENDBRANCH   1   2
BRANCH   1   5
ATOM      5  C   UNL     1     -17.215 -37.508 211.309  1.00  0.00     0.080 C 
BRANCH   5   6
ATOM      6  C   UNL     1     -17.499 -38.838 211.970  1.00  0.00     0.155 C 
ATOM      7  O   UNL     1     -18.539 -39.476 211.653  1.00  0.00    -0.295 OA
BRANCH   6   8
ATOM      8  C   UNL     1     -16.631 -39.405 213.023  1.00  0.00     0.039 C 
ATOM      9  C   UNL     1     -16.349 -40.703 213.132  1.00  0.00     0.012 C 
ENDBRANCH   6   8
ENDBRANCH   5   6
ENDBRANCH   1   5
TORSDOF 5
ENDMDL
MODEL 7
REMARK VINA RESULT:    -3.678      1.417      2.042
REMARK INTER + INTRA:          -5.046
REMARK INTER:                  -4.512
REMARK INTRA:                  -0.534
REMARK UNBOUND:                -0.293
REMARK SMILES C=CC(=O)CCCCC
REMARK SMILES IDX 6 1 7 2 8 3 9 4 5 5 3 6 4 7 2 8 1 9
REMARK H PARENT
REMARK Flexibility Score: inf
ROOT
ATOM      1  C   UNL     1     -16.491 -37.945 210.497  1.00  0.00     0.008 C 
ENDROOT
BRANCH   1   2
ATOM      2  C   UNL     1     -16.742 -37.496 211.951  1.00  0.00     0.000 C 
BRANCH   2   3
ATOM      3  C   UNL     1     -16.684 -38.622 212.999  1.00  0.00    -0.003 C 
ATOM      4  C   UNL     1     -16.612 -40.015 212.376  1.00  0.00     0.004 C 
ENDBRANCH   2   3
ENDBRANCH   1   2
BRANCH   1   5
ATOM      5  C   UNL     1     -17.426 -37.296 209.460  1.00  0.00     0.080 C 
BRANCH   5   6
ATOM      6  C   UNL     1     -18.410 -38.268 208.850  1.00  0.00     0.155 C 
ATOM      7  O   UNL     1     -18.820 -38.076 207.673  1.00  0.00    -0.295 OA
BRANCH   6   8
ATOM      8  C   UNL     1     -18.962 -39.417 209.597  1.00  0.00     0.039 C 
ATOM      9  C   UNL     1     -19.983 -39.326 210.449  1.00  0.00     0.012 C 
ENDBRANCH   6   8
ENDBRANCH   5   6
ENDBRANCH   1   5
TORSDOF 5
ENDMDL
MODEL 8
REMARK VINA RESULT:    -3.617     12.240     13.295
REMARK INTER + INTRA:          -4.967
REMARK INTER:                  -4.482
REMARK INTRA:                  -0.485
REMARK UNBOUND:                -0.293
REMARK SMILES C=CC(=O)CCCCC
REMARK SMILES IDX 6 1 7 2 8 3 9 4 5 5 3 6 4 7 2 8 1 9
REMARK H PARENT
REMARK Flexibility Score: inf
ROOT
ATOM      1  C   UNL     1      -3.622 -37.834 215.526  1.00  0.00     0.008 C 
ENDROOT
BRANCH   1   2
ATOM      2  C   UNL     1      -2.363 -38.651 215.168  1.00  0.00     0.000 C 
BRANCH   2   3
ATOM      3  C   UNL     1      -2.422 -39.379 213.814  1.00  0.00    -0.003 C 
ATOM      4  C   UNL     1      -3.168 -40.711 213.883  1.00  0.00     0.004 C 
ENDBRANCH   2   3
ENDBRANCH   1   2
BRANCH   1   5
ATOM      5  C   UNL     1      -4.541 -38.502 216.564  1.00  0.00     0.080 C 
BRANCH   5   6
ATOM      6  C   UNL     1      -5.782 -39.117 215.958  1.00  0.00     0.155 C 
ATOM      7  O   UNL     1      -6.288 -40.142 216.490  1.00  0.00    -0.295 OA
BRANCH   6   8
ATOM      8  C   UNL     1      -6.406 -38.598 214.723  1.00  0.00     0.039 C 
ATOM      9  C   UNL     1      -7.114 -39.348 213.879  1.00  0.00     0.012 C 
ENDBRANCH   6   8
ENDBRANCH   5   6
ENDBRANCH   1   5
TORSDOF 5
ENDMDL
MODEL 9
REMARK VINA RESULT:    -3.546      1.656      2.970
REMARK INTER + INTRA:          -4.876
REMARK INTER:                  -4.299
REMARK INTRA:                  -0.577
REMARK UNBOUND:                -0.293
REMARK SMILES C=CC(=O)CCCCC
REMARK SMILES IDX 6 1 7 2 8 3 9 4 5 5 3 6 4 7 2 8 1 9
REMARK H PARENT
REMARK Flexibility Score: inf
ROOT
ATOM      1  C   UNL     1     -16.582 -40.142 212.017  1.00  0.00     0.008 C 
ENDROOT
BRANCH   1   2
ATOM      2  C   UNL     1     -16.675 -38.902 212.931  1.00  0.00     0.000 C 
BRANCH   2   3
ATOM      3  C   UNL     1     -16.868 -37.564 212.195  1.00  0.00    -0.003 C 
ATOM      4  C   UNL     1     -16.099 -37.491 210.877  1.00  0.00     0.004 C 
ENDBRANCH   2   3
ENDBRANCH   1   2
BRANCH   1   5
ATOM      5  C   UNL     1     -17.928 -40.843 211.757  1.00  0.00     0.080 C 
BRANCH   5   6
ATOM      6  C   UNL     1     -18.533 -40.498 210.415  1.00  0.00     0.155 C 
ATOM      7  O   UNL     1     -18.171 -41.138 209.391  1.00  0.00    -0.295 OA
BRANCH   6   8
ATOM      8  C   UNL     1     -19.499 -39.394 210.237  1.00  0.00     0.039 C 
ATOM      9  C   UNL     1     -19.399 -38.467 209.285  1.00  0.00     0.012 C 
ENDBRANCH   6   8
ENDBRANCH   5   6
ENDBRANCH   1   5
TORSDOF 5
ENDMDL
