MODEL 1
REMARK VINA RESULT:    -3.838      0.000      0.000
REMARK INTER + INTRA:          -6.427
REMARK INTER:                  -5.633
REMARK INTRA:                  -0.793
REMARK UNBOUND:                -0.793
REMARK SMILES O=C([O-])CCCCCCCC(=O)[O-]
REMARK SMILES IDX 7 1 6 2 5 3 4 4 2 5 1 6 3 7 8 8 9 9 10 10 11 11 12 12 13 13
REMARK H PARENT
REMARK Flexibility Score: inf
ROOT
ATOM      1  C   UNL     1      -5.662   8.131  -9.827  1.00  0.00     0.000 C 
ENDROOT
BRANCH   1   2
ATOM      2  C   UNL     1      -4.183   8.181  -9.392  1.00  0.00     0.000 C 
BRANCH   2   3
ATOM      3  C   UNL     1      -3.951   8.406  -7.887  1.00  0.00     0.006 C 
BRANCH   3   4
ATOM      4  C   UNL     1      -3.476   7.141  -7.163  1.00  0.00     0.053 C 
BRANCH   4   5
ATOM      5  C   UNL     1      -4.221   6.964  -5.877  1.00  0.00     0.041 C 
ATOM      6  O   UNL     1      -3.752   6.229  -4.969  1.00  0.00    -0.550 OA
ATOM      7  O   UNL     1      -5.409   7.652  -5.661  1.00  0.00    -0.550 OA
ENDBRANCH   4   5
ENDBRANCH   3   4
ENDBRANCH   2   3
ENDBRANCH   1   2
BRANCH   1   8
ATOM      8  C   UNL     1      -6.652   8.785  -8.846  1.00  0.00     0.000 C 
BRANCH   8   9
ATOM      9  C   UNL     1      -7.660   7.782  -8.260  1.00  0.00     0.006 C 
BRANCH   9  10
ATOM     10  C   UNL     1      -7.557   6.403  -8.926  1.00  0.00     0.053 C 
BRANCH  10  11
ATOM     11  C   UNL     1      -7.307   5.321  -7.921  1.00  0.00     0.041 C 
ATOM     12  O   UNL     1      -8.243   4.914  -7.182  1.00  0.00    -0.550 OA
ATOM     13  O   UNL     1      -6.052   4.736  -7.825  1.00  0.00    -0.550 OA
ENDBRANCH  10  11
ENDBRANCH   9  10
ENDBRANCH   8   9
ENDBRANCH   1   8
TORSDOF 8
ENDMDL
MODEL 2
REMARK VINA RESULT:    -3.835      0.234      1.290
REMARK INTER + INTRA:          -6.422
REMARK INTER:                  -5.619
REMARK INTRA:                  -0.804
REMARK UNBOUND:                -0.793
REMARK SMILES O=C([O-])CCCCCCCC(=O)[O-]
REMARK SMILES IDX 7 1 6 2 5 3 4 4 2 5 1 6 3 7 8 8 9 9 10 10 11 11 12 12 13 13
REMARK H PARENT
REMARK Flexibility Score: inf
ROOT
ATOM      1  C   UNL     1      -5.587   8.225  -9.544  1.00  0.00     0.000 C 
ENDROOT
BRANCH   1   2
ATOM      2  C   UNL     1      -4.148   8.679  -9.229  1.00  0.00     0.000 C 
BRANCH   2   3
ATOM      3  C   UNL     1      -3.739   8.578  -7.748  1.00  0.00     0.006 C 
BRANCH   3   4
ATOM      4  C   UNL     1      -3.606   7.129  -7.265  1.00  0.00     0.053 C 
BRANCH   4   5
ATOM      5  C   UNL     1      -4.191   6.978  -5.897  1.00  0.00     0.041 C 
ATOM      6  O   UNL     1      -5.314   7.479  -5.629  1.00  0.00    -0.550 OA
ATOM      7  O   UNL     1      -3.519   6.239  -4.930  1.00  0.00    -0.550 OA
ENDBRANCH   4   5
ENDBRANCH   3   4
ENDBRANCH   2   3
ENDBRANCH   1   2
BRANCH   1   8
ATOM      8  C   UNL     1      -6.663   8.751  -8.577  1.00  0.00     0.000 C 
BRANCH   8   9
ATOM      9  C   UNL     1      -7.752   7.709  -8.272  1.00  0.00     0.006 C 
BRANCH   9  10
ATOM     10  C   UNL     1      -7.481   6.370  -8.972  1.00  0.00     0.053 C 
BRANCH  10  11
ATOM     11  C   UNL     1      -7.230   5.271  -7.985  1.00  0.00     0.041 C 
ATOM     12  O   UNL     1      -6.084   4.757  -7.887  1.00  0.00    -0.550 OA
ATOM     13  O   UNL     1      -8.251   4.837  -7.150  1.00  0.00    -0.550 OA
ENDBRANCH  10  11
ENDBRANCH   9  10
ENDBRANCH   8   9
ENDBRANCH   1   8
TORSDOF 8
ENDMDL
MODEL 3
REMARK VINA RESULT:    -3.818      0.193      3.808
REMARK INTER + INTRA:          -6.397
REMARK INTER:                  -5.591
REMARK INTRA:                  -0.806
REMARK UNBOUND:                -0.793
REMARK SMILES O=C([O-])CCCCCCCC(=O)[O-]
REMARK SMILES IDX 7 1 6 2 5 3 4 4 2 5 1 6 3 7 8 8 9 9 10 10 11 11 12 12 13 13
REMARK H PARENT
REMARK Flexibility Score: inf
ROOT
ATOM      1  C   UNL     1      -5.769   8.508  -9.704  1.00  0.00     0.000 C 
ENDROOT
BRANCH   1   2
ATOM      2  C   UNL     1      -6.679   8.916  -8.528  1.00  0.00     0.000 C 
BRANCH   2   3
ATOM      3  C   UNL     1      -7.708   7.855  -8.099  1.00  0.00     0.006 C 
BRANCH   3   4
ATOM      4  C   UNL     1      -7.551   6.532  -8.859  1.00  0.00     0.053 C 
BRANCH   4   5
ATOM      5  C   UNL     1      -7.259   5.414  -7.908  1.00  0.00     0.041 C 
ATOM      6  O   UNL     1      -8.167   4.964  -7.162  1.00  0.00    -0.550 OA
ATOM      7  O   UNL     1      -5.997   4.835  -7.882  1.00  0.00    -0.550 OA
ENDBRANCH   4   5
ENDBRANCH   3   4
ENDBRANCH   2   3
ENDBRANCH   1   2
BRANCH   1   8
ATOM      8  C   UNL     1      -4.299   8.246  -9.331  1.00  0.00     0.000 C 
BRANCH   8   9
ATOM      9  C   UNL     1      -4.002   8.524  -7.848  1.00  0.00     0.006 C 
BRANCH   9  10
ATOM     10  C   UNL     1      -3.453   7.285  -7.126  1.00  0.00     0.053 C 
BRANCH  10  11
ATOM     11  C   UNL     1      -4.200   7.007  -5.858  1.00  0.00     0.041 C 
ATOM     12  O   UNL     1      -5.307   7.567  -5.639  1.00  0.00    -0.550 OA
ATOM     13  O   UNL     1      -3.693   6.103  -4.934  1.00  0.00    -0.550 OA
ENDBRANCH  10  11
ENDBRANCH   9  10
ENDBRANCH   8   9
ENDBRANCH   1   8
TORSDOF 8
ENDMDL
MODEL 4
REMARK VINA RESULT:    -3.653      1.396      4.041
REMARK INTER + INTRA:          -6.155
REMARK INTER:                  -5.409
REMARK INTRA:                  -0.746
REMARK UNBOUND:                -0.793
REMARK SMILES O=C([O-])CCCCCCCC(=O)[O-]
REMARK SMILES IDX 7 1 6 2 5 3 4 4 2 5 1 6 3 7 8 8 9 9 10 10 11 11 12 12 13 13
REMARK H PARENT
REMARK Flexibility Score: inf
ROOT
ATOM      1  C   UNL     1      -8.037   8.537  -9.236  1.00  0.00     0.000 C 
ENDROOT
BRANCH   1   2
ATOM      2  C   UNL     1      -7.580   7.230  -9.914  1.00  0.00     0.000 C 
BRANCH   2   3
ATOM      3  C   UNL     1      -8.645   6.120  -9.979  1.00  0.00     0.006 C 
BRANCH   3   4
ATOM      4  C   UNL     1      -8.137   4.777  -9.440  1.00  0.00     0.053 C 
BRANCH   4   5
ATOM      5  C   UNL     1      -7.539   4.952  -8.080  1.00  0.00     0.041 C 
ATOM      6  O   UNL     1      -6.323   4.695  -7.885  1.00  0.00    -0.550 OA
ATOM      7  O   UNL     1      -8.314   5.448  -7.038  1.00  0.00    -0.550 OA
ENDBRANCH   4   5
ENDBRANCH   3   4
ENDBRANCH   2   3
ENDBRANCH   1   2
BRANCH   1   8
ATOM      8  C   UNL     1      -7.417   8.805  -7.852  1.00  0.00     0.000 C 
BRANCH   8   9
ATOM      9  C   UNL     1      -5.963   8.316  -7.746  1.00  0.00     0.006 C 
BRANCH   9  10
ATOM     10  C   UNL     1      -5.645   7.746  -6.357  1.00  0.00     0.053 C 
BRANCH  10  11
ATOM     11  C   UNL     1      -4.253   7.195  -6.291  1.00  0.00     0.041 C 
ATOM     12  O   UNL     1      -3.440   7.415  -7.227  1.00  0.00    -0.550 OA
ATOM     13  O   UNL     1      -3.844   6.469  -5.181  1.00  0.00    -0.550 OA
ENDBRANCH  10  11
ENDBRANCH   9  10
ENDBRANCH   8   9
ENDBRANCH   1   8
TORSDOF 8
ENDMDL
MODEL 5
REMARK VINA RESULT:    -3.545      1.321      1.732
REMARK INTER + INTRA:          -5.996
REMARK INTER:                  -5.414
REMARK INTRA:                  -0.582
REMARK UNBOUND:                -0.793
REMARK SMILES O=C([O-])CCCCCCCC(=O)[O-]
REMARK SMILES IDX 7 1 6 2 5 3 4 4 2 5 1 6 3 7 8 8 9 9 10 10 11 11 12 12 13 13
REMARK H PARENT
REMARK Flexibility Score: inf
ROOT
ATOM      1  C   UNL     1      -7.054   8.604  -7.940  1.00  0.00     0.000 C 
ENDROOT
BRANCH   1   2
ATOM      2  C   UNL     1      -5.936   8.169  -6.971  1.00  0.00     0.000 C 
BRANCH   2   3
ATOM      3  C   UNL     1      -4.640   7.682  -7.644  1.00  0.00     0.006 C 
BRANCH   3   4
ATOM      4  C   UNL     1      -3.524   7.382  -6.636  1.00  0.00     0.053 C 
BRANCH   4   5
ATOM      5  C   UNL     1      -3.872   6.181  -5.814  1.00  0.00     0.041 C 
ATOM      6  O   UNL     1      -4.144   5.087  -6.373  1.00  0.00    -0.550 OA
ATOM      7  O   UNL     1      -3.846   6.257  -4.427  1.00  0.00    -0.550 OA
ENDBRANCH   4   5
ENDBRANCH   3   4
ENDBRANCH   2   3
ENDBRANCH   1   2
BRANCH   1   8
ATOM      8  C   UNL     1      -6.731   8.415  -9.434  1.00  0.00     0.000 C 
BRANCH   8   9
ATOM      9  C   UNL     1      -7.553   7.289 -10.083  1.00  0.00     0.006 C 
BRANCH   9  10
ATOM     10  C   UNL     1      -8.320   6.461  -9.043  1.00  0.00     0.053 C 
BRANCH  10  11
ATOM     11  C   UNL     1      -7.819   5.050  -8.980  1.00  0.00     0.041 C 
ATOM     12  O   UNL     1      -8.476   4.120  -9.519  1.00  0.00    -0.550 OA
ATOM     13  O   UNL     1      -6.610   4.768  -8.359  1.00  0.00    -0.550 OA
ENDBRANCH  10  11
ENDBRANCH   9  10
ENDBRANCH   8   9
ENDBRANCH   1   8
TORSDOF 8
ENDMDL
MODEL 6
REMARK VINA RESULT:    -3.415      1.700      4.894
REMARK INTER + INTRA:          -5.805
REMARK INTER:                  -5.360
REMARK INTRA:                  -0.445
REMARK UNBOUND:                -0.793
REMARK SMILES O=C([O-])CCCCCCCC(=O)[O-]
REMARK SMILES IDX 7 1 6 2 5 3 4 4 2 5 1 6 3 7 8 8 9 9 10 10 11 11 12 12 13 13
REMARK H PARENT
REMARK Flexibility Score: inf
ROOT
ATOM      1  C   UNL     1      -7.125   7.156  -7.127  1.00  0.00     0.000 C 
ENDROOT
BRANCH   1   2
ATOM      2  C   UNL     1      -7.657   7.246  -8.571  1.00  0.00     0.000 C 
BRANCH   2   3
ATOM      3  C   UNL     1      -7.541   5.950  -9.393  1.00  0.00     0.006 C 
BRANCH   3   4
ATOM      4  C   UNL     1      -8.893   5.460  -9.926  1.00  0.00     0.053 C 
BRANCH   4   5
ATOM      5  C   UNL     1      -9.389   4.308  -9.111  1.00  0.00     0.041 C 
ATOM      6  O   UNL     1      -9.440   3.154  -9.610  1.00  0.00    -0.550 OA
ATOM      7  O   UNL     1      -9.748   4.499  -7.782  1.00  0.00    -0.550 OA
ENDBRANCH   4   5
ENDBRANCH   3   4
ENDBRANCH   2   3
ENDBRANCH   1   2
BRANCH   1   8
ATOM      8  C   UNL     1      -5.987   8.136  -6.789  1.00  0.00     0.000 C 
BRANCH   8   9
ATOM      9  C   UNL     1      -4.734   7.915  -7.652  1.00  0.00     0.006 C 
BRANCH   9  10
ATOM     10  C   UNL     1      -3.524   7.479  -6.814  1.00  0.00     0.053 C 
BRANCH  10  11
ATOM     11  C   UNL     1      -3.833   6.272  -5.983  1.00  0.00     0.041 C 
ATOM     12  O   UNL     1      -3.798   6.342  -4.726  1.00  0.00    -0.550 OA
ATOM     13  O   UNL     1      -4.191   5.078  -6.595  1.00  0.00    -0.550 OA
ENDBRANCH  10  11
ENDBRANCH   9  10
ENDBRANCH   8   9
ENDBRANCH   1   8
TORSDOF 8
ENDMDL
MODEL 7
REMARK VINA RESULT:    -3.310      3.395      4.648
REMARK INTER + INTRA:          -5.651
REMARK INTER:                  -5.410
REMARK INTRA:                  -0.241
REMARK UNBOUND:                -0.793
REMARK SMILES O=C([O-])CCCCCCCC(=O)[O-]
REMARK SMILES IDX 7 1 6 2 5 3 4 4 2 5 1 6 3 7 8 8 9 9 10 10 11 11 12 12 13 13
REMARK H PARENT
REMARK Flexibility Score: inf
ROOT
ATOM      1  C   UNL     1      -3.797   5.577  -5.984  1.00  0.00     0.000 C 
ENDROOT
BRANCH   1   2
ATOM      2  C   UNL     1      -3.409   5.332  -4.512  1.00  0.00     0.000 C 
BRANCH   2   3
ATOM      3  C   UNL     1      -2.465   4.140  -4.274  1.00  0.00     0.006 C 
BRANCH   3   4
ATOM      4  C   UNL     1      -2.799   3.362  -2.995  1.00  0.00     0.053 C 
BRANCH   4   5
ATOM      5  C   UNL     1      -1.560   2.763  -2.409  1.00  0.00     0.041 C 
ATOM      6  O   UNL     1      -1.037   3.269  -1.382  1.00  0.00    -0.550 OA
ATOM      7  O   UNL     1      -1.012   1.615  -2.967  1.00  0.00    -0.550 OA
ENDBRANCH   4   5
ENDBRANCH   3   4
ENDBRANCH   2   3
ENDBRANCH   1   2
BRANCH   1   8
ATOM      8  C   UNL     1      -4.115   7.041  -6.340  1.00  0.00     0.000 C 
BRANCH   8   9
ATOM      9  C   UNL     1      -5.077   7.168  -7.533  1.00  0.00     0.006 C 
BRANCH   9  10
ATOM     10  C   UNL     1      -6.547   7.073  -7.103  1.00  0.00     0.053 C 
BRANCH  10  11
ATOM     11  C   UNL     1      -7.159   5.767  -7.509  1.00  0.00     0.041 C 
ATOM     12  O   UNL     1      -8.363   5.519  -7.235  1.00  0.00    -0.550 OA
ATOM     13  O   UNL     1      -6.410   4.837  -8.219  1.00  0.00    -0.550 OA
ENDBRANCH  10  11
ENDBRANCH   9  10
ENDBRANCH   8   9
ENDBRANCH   1   8
TORSDOF 8
ENDMDL
MODEL 8
REMARK VINA RESULT:    -3.298      3.388      6.121
REMARK INTER + INTRA:          -5.634
REMARK INTER:                  -5.387
REMARK INTRA:                  -0.247
REMARK UNBOUND:                -0.793
REMARK SMILES O=C([O-])CCCCCCCC(=O)[O-]
REMARK SMILES IDX 7 1 6 2 5 3 4 4 2 5 1 6 3 7 8 8 9 9 10 10 11 11 12 12 13 13
REMARK H PARENT
REMARK Flexibility Score: inf
ROOT
ATOM      1  C   UNL     1      -3.751   5.581  -6.001  1.00  0.00     0.000 C 
ENDROOT
BRANCH   1   2
ATOM      2  C   UNL     1      -4.178   7.030  -6.311  1.00  0.00     0.000 C 
BRANCH   2   3
ATOM      3  C   UNL     1      -5.124   7.190  -7.515  1.00  0.00     0.006 C 
BRANCH   3   4
ATOM      4  C   UNL     1      -6.604   7.112  -7.123  1.00  0.00     0.053 C 
BRANCH   4   5
ATOM      5  C   UNL     1      -7.168   5.771  -7.476  1.00  0.00     0.041 C 
ATOM      6  O   UNL     1      -8.339   5.466  -7.131  1.00  0.00    -0.550 OA
ATOM      7  O   UNL     1      -6.418   4.879  -8.232  1.00  0.00    -0.550 OA
ENDBRANCH   4   5
ENDBRANCH   3   4
ENDBRANCH   2   3
ENDBRANCH   1   2
BRANCH   1   8
ATOM      8  C   UNL     1      -3.426   5.299  -4.523  1.00  0.00     0.000 C 
BRANCH   8   9
ATOM      9  C   UNL     1      -2.511   4.077  -4.337  1.00  0.00     0.006 C 
BRANCH   9  10
ATOM     10  C   UNL     1      -2.778   3.351  -3.011  1.00  0.00     0.053 C 
BRANCH  10  11
ATOM     11  C   UNL     1      -1.525   2.758  -2.444  1.00  0.00     0.041 C 
ATOM     12  O   UNL     1      -1.006   1.742  -2.980  1.00  0.00    -0.550 OA
ATOM     13  O   UNL     1      -0.910   3.345  -1.346  1.00  0.00    -0.550 OA
ENDBRANCH  10  11
ENDBRANCH   9  10
ENDBRANCH   8   9
ENDBRANCH   1   8
TORSDOF 8
ENDMDL
MODEL 9
REMARK VINA RESULT:    -3.297      2.524      3.731
REMARK INTER + INTRA:          -5.633
REMARK INTER:                  -4.689
REMARK INTRA:                  -0.944
REMARK UNBOUND:                -0.793
REMARK SMILES O=C([O-])CCCCCCCC(=O)[O-]
REMARK SMILES IDX 7 1 6 2 5 3 4 4 2 5 1 6 3 7 8 8 9 9 10 10 11 11 12 12 13 13
REMARK H PARENT
REMARK Flexibility Score: inf
ROOT
ATOM      1  C   UNL     1      -4.840   5.670  -6.761  1.00  0.00     0.000 C 
ENDROOT
BRANCH   1   2
ATOM      2  C   UNL     1      -4.329   7.100  -6.494  1.00  0.00     0.000 C 
BRANCH   2   3
ATOM      3  C   UNL     1      -3.366   7.659  -7.557  1.00  0.00     0.006 C 
BRANCH   3   4
ATOM      4  C   UNL     1      -3.827   9.005  -8.129  1.00  0.00     0.053 C 
BRANCH   4   5
ATOM      5  C   UNL     1      -4.436   8.816  -9.483  1.00  0.00     0.041 C 
ATOM      6  O   UNL     1      -4.435   7.680 -10.025  1.00  0.00    -0.550 OA
ATOM      7  O   UNL     1      -5.050   9.884 -10.125  1.00  0.00    -0.550 OA
ENDBRANCH   4   5
ENDBRANCH   3   4
ENDBRANCH   2   3
ENDBRANCH   1   2
BRANCH   1   8
ATOM      8  C   UNL     1      -6.068   5.579  -7.687  1.00  0.00     0.000 C 
BRANCH   8   9
ATOM      9  C   UNL     1      -7.200   6.532  -7.270  1.00  0.00     0.006 C 
BRANCH   9  10
ATOM     10  C   UNL     1      -7.736   7.346  -8.455  1.00  0.00     0.053 C 
BRANCH  10  11
ATOM     11  C   UNL     1      -7.752   8.814  -8.155  1.00  0.00     0.041 C 
ATOM     12  O   UNL     1      -7.128   9.264  -7.157  1.00  0.00    -0.550 OA
ATOM     13  O   UNL     1      -8.425   9.690  -8.997  1.00  0.00    -0.550 OA
ENDBRANCH  10  11
ENDBRANCH   9  10
ENDBRANCH   8   9
ENDBRANCH   1   8
TORSDOF 8
ENDMDL
