MODEL 1
REMARK VINA RESULT:    -3.271      0.000      0.000
REMARK INTER + INTRA:          -5.892
REMARK INTER:                  -4.610
REMARK INTRA:                  -1.283
REMARK UNBOUND:                -1.283
REMARK SMILES OC[C@H]1O[C@H](O[C@@H]2OC=C[C@H]3[C@H](O)[C@H]4O[C@@]4(CO)[C@H]23)[C@H](O)[C@@H](O)[C@@H]1O
REMARK SMILES IDX 6 1 7 2 10 3 9 4 11 5 8 6 19 7 12 8 16 9 14 10 15 11 13 12
REMARK SMILES IDX 17 14 18 15 5 17 20 18 4 19 22 20 3 21 24 22 21 23 23 25
REMARK SMILES IDX 2 27 1 28 25 30
REMARK H PARENT 13 13 18 16 21 24 23 26 1 29 25 31
REMARK Flexibility Score: inf
ROOT
ATOM      1  O   UNL     1    -126.481  39.011  16.368  1.00  0.00    -0.310 OA
ENDROOT
BRANCH   1   2
ATOM      2  C   UNL     1    -125.496  38.043  16.030  1.00  0.00     0.315 C 
ATOM      3  C   UNL     1    -123.127  39.068  17.349  1.00  0.00     0.018 C 
ATOM      4  C   UNL     1    -123.778  38.007  17.871  1.00  0.00     0.186 C 
ATOM      5  C   UNL     1    -123.733  39.750  16.156  1.00  0.00     0.059 C 
ATOM      6  O   UNL     1    -124.928  37.465  17.225  1.00  0.00    -0.472 OA
ATOM      7  C   UNL     1    -124.351  38.688  15.246  1.00  0.00     0.105 C 
ATOM      8  C   UNL     1    -122.825  40.571  15.229  1.00  0.00     0.154 C 
ATOM      9  C   UNL     1    -124.556  39.414  13.930  1.00  0.00     0.130 C 
ATOM     10  C   UNL     1    -123.597  40.574  13.901  1.00  0.00     0.183 C 
ATOM     11  O   UNL     1    -123.346  39.378  13.215  1.00  0.00    -0.360 OA
BRANCH   8  12
ATOM     12  O   UNL     1    -122.643  41.896  15.680  1.00  0.00    -0.390 OA
ATOM     13  H   UNL     1    -121.663  42.023  15.819  1.00  0.00     0.211 HD
ENDBRANCH   8  12
BRANCH   9  14
ATOM     14  C   UNL     1    -125.637  38.972  12.947  1.00  0.00     0.195 C 
BRANCH  14  15
ATOM     15  O   UNL     1    -126.714  39.856  12.923  1.00  0.00    -0.393 OA
ATOM     16  H   UNL     1    -127.058  39.927  13.874  1.00  0.00     0.210 HD
ENDBRANCH  14  15
ENDBRANCH   9  14
ENDBRANCH   1   2
BRANCH   1  17
ATOM     17  C   UNL     1    -127.805  38.580  16.022  1.00  0.00     0.286 C 
ATOM     18  C   UNL     1    -128.801  39.779  15.989  1.00  0.00     0.202 C 
ATOM     19  O   UNL     1    -128.253  37.578  16.942  1.00  0.00    -0.341 OA
ATOM     20  C   UNL     1    -128.947  40.356  17.404  1.00  0.00     0.179 C 
ATOM     21  C   UNL     1    -128.320  38.099  18.272  1.00  0.00     0.178 C 
ATOM     22  C   UNL     1    -129.404  39.191  18.336  1.00  0.00     0.177 C 
BRANCH  18  23
ATOM     23  O   UNL     1    -128.317  40.786  15.121  1.00  0.00    -0.385 OA
ATOM     24  H   UNL     1    -127.587  40.362  14.598  1.00  0.00     0.211 HD
ENDBRANCH  18  23
BRANCH  20  25
ATOM     25  O   UNL     1    -129.930  41.374  17.375  1.00  0.00    -0.387 OA
ATOM     26  H   UNL     1    -130.730  40.965  16.924  1.00  0.00     0.211 HD
ENDBRANCH  20  25
BRANCH  21  27
ATOM     27  C   UNL     1    -128.575  36.918  19.225  1.00  0.00     0.191 C 
BRANCH  27  28
ATOM     28  O   UNL     1    -129.951  36.734  19.450  1.00  0.00    -0.394 OA
ATOM     29  H   UNL     1    -130.255  37.494  20.038  1.00  0.00     0.210 HD
ENDBRANCH  27  28
ENDBRANCH  21  27
BRANCH  22  30
ATOM     30  O   UNL     1    -129.615  39.631  19.652  1.00  0.00    -0.387 OA
ATOM     31  H   UNL     1    -130.607  39.752  19.755  1.00  0.00     0.211 HD
ENDBRANCH  22  30
ENDBRANCH   1  17
TORSDOF 10
ENDMDL
MODEL 2
REMARK VINA RESULT:    -3.237     10.715     13.262
REMARK INTER + INTRA:          -5.844
REMARK INTER:                  -4.584
REMARK INTRA:                  -1.260
REMARK UNBOUND:                -1.283
REMARK SMILES OC[C@H]1O[C@H](O[C@@H]2OC=C[C@H]3[C@H](O)[C@H]4O[C@@]4(CO)[C@H]23)[C@H](O)[C@@H](O)[C@@H]1O
REMARK SMILES IDX 6 1 7 2 10 3 9 4 11 5 8 6 19 7 12 8 16 9 14 10 15 11 13 12
REMARK SMILES IDX 17 14 18 15 5 17 20 18 4 19 22 20 3 21 24 22 21 23 23 25
REMARK SMILES IDX 2 27 1 28 25 30
REMARK H PARENT 13 13 18 16 21 24 23 26 1 29 25 31
REMARK Flexibility Score: inf
ROOT
ATOM      1  O   UNL     1    -123.475  38.988   4.061  1.00  0.00    -0.310 OA
ENDROOT
BRANCH   1   2
ATOM      2  C   UNL     1    -122.120  38.902   4.486  1.00  0.00     0.315 C 
ATOM      3  C   UNL     1    -120.852  41.028   2.978  1.00  0.00     0.018 C 
ATOM      4  C   UNL     1    -121.100  41.197   4.295  1.00  0.00     0.186 C 
ATOM      5  C   UNL     1    -121.356  39.775   2.321  1.00  0.00     0.059 C 
ATOM      6  O   UNL     1    -121.696  40.155   5.065  1.00  0.00    -0.472 OA
ATOM      7  C   UNL     1    -121.199  38.611   3.299  1.00  0.00     0.105 C 
ATOM      8  C   UNL     1    -120.677  39.289   1.032  1.00  0.00     0.154 C 
ATOM      9  C   UNL     1    -121.342  37.381   2.424  1.00  0.00     0.130 C 
ATOM     10  C   UNL     1    -120.999  37.787   1.016  1.00  0.00     0.183 C 
ATOM     11  O   UNL     1    -120.092  37.108   1.841  1.00  0.00    -0.360 OA
BRANCH   8  12
ATOM     12  O   UNL     1    -121.203  39.904  -0.125  1.00  0.00    -0.390 OA
ATOM     13  H   UNL     1    -122.148  39.597  -0.212  1.00  0.00     0.211 HD
ENDBRANCH   8  12
BRANCH   9  14
ATOM     14  C   UNL     1    -121.833  36.056   3.003  1.00  0.00     0.195 C 
BRANCH  14  15
ATOM     15  O   UNL     1    -123.223  35.992   3.055  1.00  0.00    -0.393 OA
ATOM     16  H   UNL     1    -123.541  36.852   3.489  1.00  0.00     0.210 HD
ENDBRANCH  14  15
ENDBRANCH   9  14
ENDBRANCH   1   2
BRANCH   1  17
ATOM     17  C   UNL     1    -124.392  38.596   5.093  1.00  0.00     0.286 C 
ATOM     18  C   UNL     1    -125.811  38.311   4.512  1.00  0.00     0.202 C 
ATOM     19  O   UNL     1    -124.455  39.606   6.106  1.00  0.00    -0.341 OA
ATOM     20  C   UNL     1    -126.400  39.613   3.954  1.00  0.00     0.179 C 
ATOM     21  C   UNL     1    -124.939  40.839   5.568  1.00  0.00     0.178 C 
ATOM     22  C   UNL     1    -126.400  40.658   5.114  1.00  0.00     0.177 C 
BRANCH  18  23
ATOM     23  O   UNL     1    -125.724  37.354   3.474  1.00  0.00    -0.385 OA
ATOM     24  H   UNL     1    -124.782  37.044   3.471  1.00  0.00     0.211 HD
ENDBRANCH  18  23
BRANCH  20  25
ATOM     25  O   UNL     1    -127.726  39.360   3.527  1.00  0.00    -0.387 OA
ATOM     26  H   UNL     1    -128.234  39.104   4.355  1.00  0.00     0.211 HD
ENDBRANCH  20  25
BRANCH  21  27
ATOM     27  C   UNL     1    -124.756  41.924   6.644  1.00  0.00     0.191 C 
BRANCH  27  28
ATOM     28  O   UNL     1    -123.414  42.004   7.062  1.00  0.00    -0.394 OA
ATOM     29  H   UNL     1    -122.846  41.908   6.234  1.00  0.00     0.210 HD
ENDBRANCH  27  28
ENDBRANCH  21  27
BRANCH  22  30
ATOM     30  O   UNL     1    -126.970  41.877   4.716  1.00  0.00    -0.387 OA
ATOM     31  H   UNL     1    -126.541  42.589   5.280  1.00  0.00     0.211 HD
ENDBRANCH  22  30
ENDBRANCH   1  17
TORSDOF 10
ENDMDL
MODEL 3
REMARK VINA RESULT:    -3.200      1.808      6.306
REMARK INTER + INTRA:          -5.792
REMARK INTER:                  -4.409
REMARK INTRA:                  -1.383
REMARK UNBOUND:                -1.283
REMARK SMILES OC[C@H]1O[C@H](O[C@@H]2OC=C[C@H]3[C@H](O)[C@H]4O[C@@]4(CO)[C@H]23)[C@H](O)[C@@H](O)[C@@H]1O
REMARK SMILES IDX 6 1 7 2 10 3 9 4 11 5 8 6 19 7 12 8 16 9 14 10 15 11 13 12
REMARK SMILES IDX 17 14 18 15 5 17 20 18 4 19 22 20 3 21 24 22 21 23 23 25
REMARK SMILES IDX 2 27 1 28 25 30
REMARK H PARENT 13 13 18 16 21 24 23 26 1 29 25 31
REMARK Flexibility Score: inf
ROOT
ATOM      1  O   UNL     1    -126.270  38.007  16.521  1.00  0.00    -0.310 OA
ENDROOT
BRANCH   1   2
ATOM      2  C   UNL     1    -127.199  36.932  16.451  1.00  0.00     0.315 C 
ATOM      3  C   UNL     1    -129.746  38.279  16.760  1.00  0.00     0.018 C 
ATOM      4  C   UNL     1    -129.367  37.837  15.543  1.00  0.00     0.186 C 
ATOM      5  C   UNL     1    -128.768  38.154  17.893  1.00  0.00     0.059 C 
ATOM      6  O   UNL     1    -128.132  37.145  15.369  1.00  0.00    -0.472 OA
ATOM      7  C   UNL     1    -128.012  36.834  17.744  1.00  0.00     0.105 C 
ATOM      8  C   UNL     1    -129.298  38.133  19.334  1.00  0.00     0.154 C 
ATOM      9  C   UNL     1    -127.377  36.623  19.105  1.00  0.00     0.130 C 
ATOM     10  C   UNL     1    -128.182  37.411  20.104  1.00  0.00     0.183 C 
ATOM     11  O   UNL     1    -128.331  36.026  19.947  1.00  0.00    -0.360 OA
BRANCH   8  12
ATOM     12  O   UNL     1    -129.485  39.428  19.863  1.00  0.00    -0.390 OA
ATOM     13  H   UNL     1    -130.149  39.888  19.277  1.00  0.00     0.211 HD
ENDBRANCH   8  12
BRANCH   9  14
ATOM     14  C   UNL     1    -126.103  35.796  19.260  1.00  0.00     0.195 C 
BRANCH  14  15
ATOM     15  O   UNL     1    -124.958  36.548  19.004  1.00  0.00    -0.393 OA
ATOM     16  H   UNL     1    -124.737  37.048  19.858  1.00  0.00     0.210 HD
ENDBRANCH  14  15
ENDBRANCH   9  14
ENDBRANCH   1   2
BRANCH   1  17
ATOM     17  C   UNL     1    -125.408  38.053  15.375  1.00  0.00     0.286 C 
ATOM     18  C   UNL     1    -123.933  38.344  15.788  1.00  0.00     0.202 C 
ATOM     19  O   UNL     1    -125.876  39.038  14.446  1.00  0.00    -0.341 OA
ATOM     20  C   UNL     1    -123.843  39.754  16.388  1.00  0.00     0.179 C 
ATOM     21  C   UNL     1    -125.858  40.342  15.033  1.00  0.00     0.178 C 
ATOM     22  C   UNL     1    -124.401  40.749  15.323  1.00  0.00     0.177 C 
BRANCH  18  23
ATOM     23  O   UNL     1    -123.504  37.398  16.748  1.00  0.00    -0.385 OA
ATOM     24  H   UNL     1    -124.047  37.574  17.560  1.00  0.00     0.211 HD
ENDBRANCH  18  23
BRANCH  20  25
ATOM     25  O   UNL     1    -122.484  40.041  16.661  1.00  0.00    -0.387 OA
ATOM     26  H   UNL     1    -122.328  39.744  17.608  1.00  0.00     0.211 HD
ENDBRANCH  20  25
BRANCH  21  27
ATOM     27  C   UNL     1    -126.587  41.297  14.072  1.00  0.00     0.191 C 
BRANCH  27  28
ATOM     28  O   UNL     1    -125.674  42.088  13.351  1.00  0.00    -0.394 OA
ATOM     29  H   UNL     1    -125.694  43.007  13.766  1.00  0.00     0.210 HD
ENDBRANCH  27  28
ENDBRANCH  21  27
BRANCH  22  30
ATOM     30  O   UNL     1    -124.316  42.080  15.761  1.00  0.00    -0.387 OA
ATOM     31  H   UNL     1    -123.410  42.413  15.483  1.00  0.00     0.211 HD
ENDBRANCH  22  30
ENDBRANCH   1  17
TORSDOF 10
ENDMDL
MODEL 4
REMARK VINA RESULT:    -3.190      1.352      1.605
REMARK INTER + INTRA:          -5.778
REMARK INTER:                  -4.382
REMARK INTRA:                  -1.396
REMARK UNBOUND:                -1.283
REMARK SMILES OC[C@H]1O[C@H](O[C@@H]2OC=C[C@H]3[C@H](O)[C@H]4O[C@@]4(CO)[C@H]23)[C@H](O)[C@@H](O)[C@@H]1O
REMARK SMILES IDX 6 1 7 2 10 3 9 4 11 5 8 6 19 7 12 8 16 9 14 10 15 11 13 12
REMARK SMILES IDX 17 14 18 15 5 17 20 18 4 19 22 20 3 21 24 22 21 23 23 25
REMARK SMILES IDX 2 27 1 28 25 30
REMARK H PARENT 13 13 18 16 21 24 23 26 1 29 25 31
REMARK Flexibility Score: inf
ROOT
ATOM      1  O   UNL     1    -127.118  39.115  15.380  1.00  0.00    -0.310 OA
ENDROOT
BRANCH   1   2
ATOM      2  C   UNL     1    -126.364  38.410  14.401  1.00  0.00     0.315 C 
ATOM      3  C   UNL     1    -124.310  37.126  15.992  1.00  0.00     0.018 C 
ATOM      4  C   UNL     1    -125.339  36.396  15.512  1.00  0.00     0.186 C 
ATOM      5  C   UNL     1    -124.337  38.612  15.774  1.00  0.00     0.059 C 
ATOM      6  O   UNL     1    -126.346  36.998  14.702  1.00  0.00    -0.472 OA
ATOM      7  C   UNL     1    -124.912  38.893  14.386  1.00  0.00     0.105 C 
ATOM      8  C   UNL     1    -123.015  39.392  15.808  1.00  0.00     0.154 C 
ATOM      9  C   UNL     1    -124.523  40.334  14.117  1.00  0.00     0.130 C 
ATOM     10  C   UNL     1    -123.332  40.648  14.981  1.00  0.00     0.183 C 
ATOM     11  O   UNL     1    -123.209  40.349  13.618  1.00  0.00    -0.360 OA
BRANCH   8  12
ATOM     12  O   UNL     1    -122.636  39.762  17.116  1.00  0.00    -0.390 OA
ATOM     13  H   UNL     1    -121.872  39.175  17.374  1.00  0.00     0.211 HD
ENDBRANCH   8  12
BRANCH   9  14
ATOM     14  C   UNL     1    -125.342  41.207  13.170  1.00  0.00     0.195 C 
BRANCH  14  15
ATOM     15  O   UNL     1    -126.455  41.760  13.800  1.00  0.00    -0.393 OA
ATOM     16  H   UNL     1    -127.243  41.627  13.175  1.00  0.00     0.210 HD
ENDBRANCH  14  15
ENDBRANCH   9  14
ENDBRANCH   1   2
BRANCH   1  17
ATOM     17  C   UNL     1    -128.517  38.803  15.314  1.00  0.00     0.286 C 
ATOM     18  C   UNL     1    -129.392  40.072  15.547  1.00  0.00     0.202 C 
ATOM     19  O   UNL     1    -128.840  37.785  16.268  1.00  0.00    -0.341 OA
ATOM     20  C   UNL     1    -129.182  40.576  16.982  1.00  0.00     0.179 C 
ATOM     21  C   UNL     1    -128.577  38.232  17.601  1.00  0.00     0.178 C 
ATOM     22  C   UNL     1    -129.526  39.395  17.944  1.00  0.00     0.177 C 
BRANCH  18  23
ATOM     23  O   UNL     1    -129.022  41.088  14.635  1.00  0.00    -0.385 OA
ATOM     24  H   UNL     1    -128.848  40.627  13.774  1.00  0.00     0.211 HD
ENDBRANCH  18  23
BRANCH  20  25
ATOM     25  O   UNL     1    -130.060  41.663  17.209  1.00  0.00    -0.387 OA
ATOM     26  H   UNL     1    -130.434  41.903  16.308  1.00  0.00     0.211 HD
ENDBRANCH  20  25
BRANCH  21  27
ATOM     27  C   UNL     1    -128.720  37.020  18.538  1.00  0.00     0.191 C 
BRANCH  27  28
ATOM     28  O   UNL     1    -128.056  37.240  19.758  1.00  0.00    -0.394 OA
ATOM     29  H   UNL     1    -128.270  38.184  20.040  1.00  0.00     0.210 HD
ENDBRANCH  27  28
ENDBRANCH  21  27
BRANCH  22  30
ATOM     30  O   UNL     1    -129.412  39.773  19.290  1.00  0.00    -0.387 OA
ATOM     31  H   UNL     1    -129.124  38.951  19.792  1.00  0.00     0.211 HD
ENDBRANCH  22  30
ENDBRANCH   1  17
TORSDOF 10
ENDMDL
MODEL 5
REMARK VINA RESULT:    -3.142      9.231     13.646
REMARK INTER + INTRA:          -5.710
REMARK INTER:                  -4.419
REMARK INTRA:                  -1.291
REMARK UNBOUND:                -1.283
REMARK SMILES OC[C@H]1O[C@H](O[C@@H]2OC=C[C@H]3[C@H](O)[C@H]4O[C@@]4(CO)[C@H]23)[C@H](O)[C@@H](O)[C@@H]1O
REMARK SMILES IDX 6 1 7 2 10 3 9 4 11 5 8 6 19 7 12 8 16 9 14 10 15 11 13 12
REMARK SMILES IDX 17 14 18 15 5 17 20 18 4 19 22 20 3 21 24 22 21 23 23 25
REMARK SMILES IDX 2 27 1 28 25 30
REMARK H PARENT 13 13 18 16 21 24 23 26 1 29 25 31
REMARK Flexibility Score: inf
ROOT
ATOM      1  O   UNL     1    -123.434  39.652   4.636  1.00  0.00    -0.310 OA
ENDROOT
BRANCH   1   2
ATOM      2  C   UNL     1    -124.286  38.684   5.237  1.00  0.00     0.315 C 
ATOM      3  C   UNL     1    -126.768  39.042   3.784  1.00  0.00     0.018 C 
ATOM      4  C   UNL     1    -125.986  37.974   3.520  1.00  0.00     0.186 C 
ATOM      5  C   UNL     1    -126.254  40.071   4.750  1.00  0.00     0.059 C 
ATOM      6  O   UNL     1    -124.775  37.759   4.242  1.00  0.00    -0.472 OA
ATOM      7  C   UNL     1    -125.504  39.357   5.874  1.00  0.00     0.105 C 
ATOM      8  C   UNL     1    -127.259  40.978   5.474  1.00  0.00     0.154 C 
ATOM      9  C   UNL     1    -125.393  40.408   6.962  1.00  0.00     0.130 C 
ATOM     10  C   UNL     1    -126.493  41.410   6.734  1.00  0.00     0.183 C 
ATOM     11  O   UNL     1    -126.587  40.402   7.703  1.00  0.00    -0.360 OA
BRANCH   8  12
ATOM     12  O   UNL     1    -127.611  42.115   4.714  1.00  0.00    -0.390 OA
ATOM     13  H   UNL     1    -126.771  42.629   4.556  1.00  0.00     0.211 HD
ENDBRANCH   8  12
BRANCH   9  14
ATOM     14  C   UNL     1    -124.262  40.364   7.987  1.00  0.00     0.195 C 
BRANCH  14  15
ATOM     15  O   UNL     1    -123.160  41.115   7.581  1.00  0.00    -0.393 OA
ATOM     16  H   UNL     1    -123.124  41.061   6.569  1.00  0.00     0.210 HD
ENDBRANCH  14  15
ENDBRANCH   9  14
ENDBRANCH   1   2
BRANCH   1  17
ATOM     17  C   UNL     1    -122.045  39.336   4.814  1.00  0.00     0.286 C 
ATOM     18  C   UNL     1    -121.147  40.592   4.605  1.00  0.00     0.202 C 
ATOM     19  O   UNL     1    -121.662  38.285   3.919  1.00  0.00    -0.341 OA
ATOM     20  C   UNL     1    -121.249  41.050   3.144  1.00  0.00     0.179 C 
ATOM     21  C   UNL     1    -121.824  38.690   2.557  1.00  0.00     0.178 C 
ATOM     22  C   UNL     1    -120.844  39.838   2.247  1.00  0.00     0.177 C 
BRANCH  18  23
ATOM     23  O   UNL     1    -121.575  41.639   5.454  1.00  0.00    -0.385 OA
ATOM     24  H   UNL     1    -120.835  42.299   5.462  1.00  0.00     0.211 HD
ENDBRANCH  18  23
BRANCH  20  25
ATOM     25  O   UNL     1    -120.349  42.125   2.946  1.00  0.00    -0.387 OA
ATOM     26  H   UNL     1    -119.751  41.843   2.189  1.00  0.00     0.211 HD
ENDBRANCH  20  25
BRANCH  21  27
ATOM     27  C   UNL     1    -121.621  37.448   1.672  1.00  0.00     0.191 C 
BRANCH  27  28
ATOM     28  O   UNL     1    -121.977  37.712   0.337  1.00  0.00    -0.394 OA
ATOM     29  H   UNL     1    -122.971  37.879   0.328  1.00  0.00     0.210 HD
ENDBRANCH  27  28
ENDBRANCH  21  27
BRANCH  22  30
ATOM     30  O   UNL     1    -120.858  40.172   0.884  1.00  0.00    -0.387 OA
ATOM     31  H   UNL     1    -121.317  41.063   0.816  1.00  0.00     0.211 HD
ENDBRANCH  22  30
ENDBRANCH   1  17
TORSDOF 10
ENDMDL
MODEL 6
REMARK VINA RESULT:    -3.096      1.447      6.267
REMARK INTER + INTRA:          -5.645
REMARK INTER:                  -4.500
REMARK INTRA:                  -1.146
REMARK UNBOUND:                -1.283
REMARK SMILES OC[C@H]1O[C@H](O[C@@H]2OC=C[C@H]3[C@H](O)[C@H]4O[C@@]4(CO)[C@H]23)[C@H](O)[C@@H](O)[C@@H]1O
REMARK SMILES IDX 6 1 7 2 10 3 9 4 11 5 8 6 19 7 12 8 16 9 14 10 15 11 13 12
REMARK SMILES IDX 17 14 18 15 5 17 20 18 4 19 22 20 3 21 24 22 21 23 23 25
REMARK SMILES IDX 2 27 1 28 25 30
REMARK H PARENT 13 13 18 16 21 24 23 26 1 29 25 31
REMARK Flexibility Score: inf
ROOT
ATOM      1  O   UNL     1    -126.443  38.619  15.889  1.00  0.00    -0.310 OA
ENDROOT
BRANCH   1   2
ATOM      2  C   UNL     1    -127.585  37.851  15.532  1.00  0.00     0.315 C 
ATOM      3  C   UNL     1    -129.436  39.877  14.598  1.00  0.00     0.018 C 
ATOM      4  C   UNL     1    -128.807  39.083  13.706  1.00  0.00     0.186 C 
ATOM      5  C   UNL     1    -129.057  39.749  16.045  1.00  0.00     0.059 C 
ATOM      6  O   UNL     1    -127.915  38.059  14.141  1.00  0.00    -0.472 OA
ATOM      7  C   UNL     1    -128.802  38.275  16.358  1.00  0.00     0.105 C 
ATOM      8  C   UNL     1    -130.059  40.202  17.118  1.00  0.00     0.154 C 
ATOM      9  C   UNL     1    -128.834  38.215  17.873  1.00  0.00     0.130 C 
ATOM     10  C   UNL     1    -129.630  39.397  18.354  1.00  0.00     0.183 C 
ATOM     11  O   UNL     1    -130.175  38.108  18.280  1.00  0.00    -0.360 OA
BRANCH   8  12
ATOM     12  O   UNL     1    -129.973  41.584  17.393  1.00  0.00    -0.390 OA
ATOM     13  H   UNL     1    -130.330  41.719  18.315  1.00  0.00     0.211 HD
ENDBRANCH   8  12
BRANCH   9  14
ATOM     14  C   UNL     1    -128.076  37.129  18.634  1.00  0.00     0.195 C 
BRANCH  14  15
ATOM     15  O   UNL     1    -126.696  37.283  18.527  1.00  0.00    -0.393 OA
ATOM     16  H   UNL     1    -126.428  36.917  17.620  1.00  0.00     0.210 HD
ENDBRANCH  14  15
ENDBRANCH   9  14
ENDBRANCH   1   2
BRANCH   1  17
ATOM     17  C   UNL     1    -125.316  38.337  15.046  1.00  0.00     0.286 C 
ATOM     18  C   UNL     1    -123.994  38.269  15.871  1.00  0.00     0.202 C 
ATOM     19  O   UNL     1    -125.216  39.324  14.012  1.00  0.00    -0.341 OA
ATOM     20  C   UNL     1    -123.693  39.655  16.459  1.00  0.00     0.179 C 
ATOM     21  C   UNL     1    -125.005  40.624  14.567  1.00  0.00     0.178 C 
ATOM     22  C   UNL     1    -123.634  40.663  15.268  1.00  0.00     0.177 C 
BRANCH  18  23
ATOM     23  O   UNL     1    -124.128  37.334  16.923  1.00  0.00    -0.385 OA
ATOM     24  H   UNL     1    -124.230  37.872  17.750  1.00  0.00     0.211 HD
ENDBRANCH  18  23
BRANCH  20  25
ATOM     25  O   UNL     1    -122.440  39.601  17.115  1.00  0.00    -0.387 OA
ATOM     26  H   UNL     1    -122.283  40.526  17.478  1.00  0.00     0.211 HD
ENDBRANCH  20  25
BRANCH  21  27
ATOM     27  C   UNL     1    -125.145  41.648  13.426  1.00  0.00     0.191 C 
BRANCH  27  28
ATOM     28  O   UNL     1    -126.498  41.895  13.128  1.00  0.00    -0.394 OA
ATOM     29  H   UNL     1    -126.988  41.023  13.253  1.00  0.00     0.210 HD
ENDBRANCH  27  28
ENDBRANCH  21  27
BRANCH  22  30
ATOM     30  O   UNL     1    -123.313  41.959  15.700  1.00  0.00    -0.387 OA
ATOM     31  H   UNL     1    -123.724  42.064  16.611  1.00  0.00     0.211 HD
ENDBRANCH  22  30
ENDBRANCH   1  17
TORSDOF 10
ENDMDL
MODEL 7
REMARK VINA RESULT:    -2.949     11.179     14.003
REMARK INTER + INTRA:          -5.439
REMARK INTER:                  -4.003
REMARK INTRA:                  -1.436
REMARK UNBOUND:                -1.283
REMARK SMILES OC[C@H]1O[C@H](O[C@@H]2OC=C[C@H]3[C@H](O)[C@H]4O[C@@]4(CO)[C@H]23)[C@H](O)[C@@H](O)[C@@H]1O
REMARK SMILES IDX 6 1 7 2 10 3 9 4 11 5 8 6 19 7 12 8 16 9 14 10 15 11 13 12
REMARK SMILES IDX 17 14 18 15 5 17 20 18 4 19 22 20 3 21 24 22 21 23 23 25
REMARK SMILES IDX 2 27 1 28 25 30
REMARK H PARENT 13 13 18 16 21 24 23 26 1 29 25 31
REMARK Flexibility Score: inf
ROOT
ATOM      1  O   UNL     1    -123.297  38.549   4.462  1.00  0.00    -0.310 OA
ENDROOT
BRANCH   1   2
ATOM      2  C   UNL     1    -123.939  38.102   5.649  1.00  0.00     0.315 C 
ATOM      3  C   UNL     1    -125.102  35.578   4.826  1.00  0.00     0.018 C 
ATOM      4  C   UNL     1    -123.997  35.585   5.601  1.00  0.00     0.186 C 
ATOM      5  C   UNL     1    -125.618  36.896   4.323  1.00  0.00     0.059 C 
ATOM      6  O   UNL     1    -123.424  36.813   6.045  1.00  0.00    -0.472 OA
ATOM      7  C   UNL     1    -125.444  37.943   5.423  1.00  0.00     0.105 C 
ATOM      8  C   UNL     1    -127.094  37.008   3.915  1.00  0.00     0.154 C 
ATOM      9  C   UNL     1    -126.340  39.085   4.981  1.00  0.00     0.130 C 
ATOM     10  C   UNL     1    -127.381  38.510   4.059  1.00  0.00     0.183 C 
ATOM     11  O   UNL     1    -127.650  38.804   5.403  1.00  0.00    -0.360 OA
BRANCH   8  12
ATOM     12  O   UNL     1    -127.322  36.603   2.581  1.00  0.00    -0.390 OA
ATOM     13  H   UNL     1    -127.891  37.306   2.158  1.00  0.00     0.211 HD
ENDBRANCH   8  12
BRANCH   9  14
ATOM     14  C   UNL     1    -126.056  40.520   5.417  1.00  0.00     0.195 C 
BRANCH  14  15
ATOM     15  O   UNL     1    -124.936  41.049   4.780  1.00  0.00    -0.393 OA
ATOM     16  H   UNL     1    -124.385  40.262   4.453  1.00  0.00     0.210 HD
ENDBRANCH  14  15
ENDBRANCH   9  14
ENDBRANCH   1   2
BRANCH   1  17
ATOM     17  C   UNL     1    -121.873  38.635   4.616  1.00  0.00     0.286 C 
ATOM     18  C   UNL     1    -121.380  40.111   4.512  1.00  0.00     0.202 C 
ATOM     19  O   UNL     1    -121.221  37.815   3.639  1.00  0.00    -0.341 OA
ATOM     20  C   UNL     1    -121.641  40.632   3.092  1.00  0.00     0.179 C 
ATOM     21  C   UNL     1    -121.523  38.261   2.315  1.00  0.00     0.178 C 
ATOM     22  C   UNL     1    -120.923  39.663   2.101  1.00  0.00     0.177 C 
BRANCH  18  23
ATOM     23  O   UNL     1    -122.074  40.919   5.442  1.00  0.00    -0.385 OA
ATOM     24  H   UNL     1    -121.882  40.528   6.333  1.00  0.00     0.211 HD
ENDBRANCH  18  23
BRANCH  20  25
ATOM     25  O   UNL     1    -121.095  41.934   2.984  1.00  0.00    -0.387 OA
ATOM     26  H   UNL     1    -121.777  42.474   2.481  1.00  0.00     0.211 HD
ENDBRANCH  20  25
BRANCH  21  27
ATOM     27  C   UNL     1    -120.989  37.204   1.332  1.00  0.00     0.191 C 
BRANCH  27  28
ATOM     28  O   UNL     1    -121.644  37.289   0.089  1.00  0.00    -0.394 OA
ATOM     29  H   UNL     1    -122.245  36.482   0.021  1.00  0.00     0.210 HD
ENDBRANCH  27  28
ENDBRANCH  21  27
BRANCH  22  30
ATOM     30  O   UNL     1    -121.062  40.085   0.770  1.00  0.00    -0.387 OA
ATOM     31  H   UNL     1    -120.131  40.196   0.409  1.00  0.00     0.211 HD
ENDBRANCH  22  30
ENDBRANCH   1  17
TORSDOF 10
ENDMDL
MODEL 8
REMARK VINA RESULT:    -2.907      9.275     13.401
REMARK INTER + INTRA:          -5.379
REMARK INTER:                  -4.048
REMARK INTRA:                  -1.331
REMARK UNBOUND:                -1.283
REMARK SMILES OC[C@H]1O[C@H](O[C@@H]2OC=C[C@H]3[C@H](O)[C@H]4O[C@@]4(CO)[C@H]23)[C@H](O)[C@@H](O)[C@@H]1O
REMARK SMILES IDX 6 1 7 2 10 3 9 4 11 5 8 6 19 7 12 8 16 9 14 10 15 11 13 12
REMARK SMILES IDX 17 14 18 15 5 17 20 18 4 19 22 20 3 21 24 22 21 23 23 25
REMARK SMILES IDX 2 27 1 28 25 30
REMARK H PARENT 13 13 18 16 21 24 23 26 1 29 25 31
REMARK Flexibility Score: inf
ROOT
ATOM      1  O   UNL     1    -123.645  38.522   5.000  1.00  0.00    -0.310 OA
ENDROOT
BRANCH   1   2
ATOM      2  C   UNL     1    -124.287  37.255   4.930  1.00  0.00     0.315 C 
ATOM      3  C   UNL     1    -126.124  37.602   2.715  1.00  0.00     0.018 C 
ATOM      4  C   UNL     1    -124.999  36.876   2.544  1.00  0.00     0.186 C 
ATOM      5  C   UNL     1    -126.318  38.302   4.030  1.00  0.00     0.059 C 
ATOM      6  O   UNL     1    -124.094  36.666   3.626  1.00  0.00    -0.472 OA
ATOM      7  C   UNL     1    -125.795  37.400   5.147  1.00  0.00     0.105 C 
ATOM      8  C   UNL     1    -127.742  38.672   4.470  1.00  0.00     0.154 C 
ATOM      9  C   UNL     1    -126.395  37.997   6.406  1.00  0.00     0.130 C 
ATOM     10  C   UNL     1    -127.618  38.773   5.997  1.00  0.00     0.183 C 
ATOM     11  O   UNL     1    -127.697  37.490   6.555  1.00  0.00    -0.360 OA
BRANCH   8  12
ATOM     12  O   UNL     1    -128.170  39.910   3.941  1.00  0.00    -0.390 OA
ATOM     13  H   UNL     1    -127.873  39.936   2.989  1.00  0.00     0.211 HD
ENDBRANCH   8  12
BRANCH   9  14
ATOM     14  C   UNL     1    -125.717  37.819   7.762  1.00  0.00     0.195 C 
BRANCH  14  15
ATOM     15  O   UNL     1    -124.742  38.788   7.990  1.00  0.00    -0.393 OA
ATOM     16  H   UNL     1    -123.846  38.313   7.977  1.00  0.00     0.210 HD
ENDBRANCH  14  15
ENDBRANCH   9  14
ENDBRANCH   1   2
BRANCH   1  17
ATOM     17  C   UNL     1    -122.225  38.401   5.173  1.00  0.00     0.286 C 
ATOM     18  C   UNL     1    -121.647  39.605   5.976  1.00  0.00     0.202 C 
ATOM     19  O   UNL     1    -121.582  38.288   3.897  1.00  0.00    -0.341 OA
ATOM     20  C   UNL     1    -121.822  40.891   5.156  1.00  0.00     0.179 C 
ATOM     21  C   UNL     1    -121.806  39.459   3.108  1.00  0.00     0.178 C 
ATOM     22  C   UNL     1    -121.121  40.664   3.780  1.00  0.00     0.177 C 
BRANCH  18  23
ATOM     23  O   UNL     1    -122.331  39.738   7.206  1.00  0.00    -0.385 OA
ATOM     24  H   UNL     1    -121.665  39.523   7.909  1.00  0.00     0.211 HD
ENDBRANCH  18  23
BRANCH  20  25
ATOM     25  O   UNL     1    -121.200  41.956   5.851  1.00  0.00    -0.387 OA
ATOM     26  H   UNL     1    -120.213  41.842   5.695  1.00  0.00     0.211 HD
ENDBRANCH  20  25
BRANCH  21  27
ATOM     27  C   UNL     1    -121.294  39.170   1.686  1.00  0.00     0.191 C 
BRANCH  27  28
ATOM     28  O   UNL     1    -119.994  39.677   1.501  1.00  0.00    -0.394 OA
ATOM     29  H   UNL     1    -119.552  39.682   2.407  1.00  0.00     0.210 HD
ENDBRANCH  27  28
ENDBRANCH  21  27
BRANCH  22  30
ATOM     30  O   UNL     1    -121.183  41.809   2.970  1.00  0.00    -0.387 OA
ATOM     31  H   UNL     1    -121.698  41.547   2.148  1.00  0.00     0.211 HD
ENDBRANCH  22  30
ENDBRANCH   1  17
TORSDOF 10
ENDMDL
MODEL 9
REMARK VINA RESULT:    -2.806      8.270     11.244
REMARK INTER + INTRA:          -5.237
REMARK INTER:                  -3.945
REMARK INTRA:                  -1.293
REMARK UNBOUND:                -1.283
REMARK SMILES OC[C@H]1O[C@H](O[C@@H]2OC=C[C@H]3[C@H](O)[C@H]4O[C@@]4(CO)[C@H]23)[C@H](O)[C@@H](O)[C@@H]1O
REMARK SMILES IDX 6 1 7 2 10 3 9 4 11 5 8 6 19 7 12 8 16 9 14 10 15 11 13 12
REMARK SMILES IDX 17 14 18 15 5 17 20 18 4 19 22 20 3 21 24 22 21 23 23 25
REMARK SMILES IDX 2 27 1 28 25 30
REMARK H PARENT 13 13 18 16 21 24 23 26 1 29 25 31
REMARK Flexibility Score: inf
ROOT
ATOM      1  O   UNL     1    -124.852  39.558   5.588  1.00  0.00    -0.310 OA
ENDROOT
BRANCH   1   2
ATOM      2  C   UNL     1    -123.651  39.018   6.126  1.00  0.00     0.315 C 
ATOM      3  C   UNL     1    -121.787  41.219   5.839  1.00  0.00     0.018 C 
ATOM      4  C   UNL     1    -122.290  40.922   7.056  1.00  0.00     0.186 C 
ATOM      5  C   UNL     1    -122.310  40.458   4.655  1.00  0.00     0.059 C 
ATOM      6  O   UNL     1    -123.186  39.826   7.228  1.00  0.00    -0.472 OA
ATOM      7  C   UNL     1    -122.544  39.005   5.069  1.00  0.00     0.105 C 
ATOM      8  C   UNL     1    -121.443  40.363   3.391  1.00  0.00     0.154 C 
ATOM      9  C   UNL     1    -122.668  38.267   3.750  1.00  0.00     0.130 C 
ATOM     10  C   UNL     1    -121.969  39.093   2.704  1.00  0.00     0.183 C 
ATOM     11  O   UNL     1    -121.374  37.968   3.290  1.00  0.00    -0.360 OA
BRANCH   8  12
ATOM     12  O   UNL     1    -121.607  41.473   2.535  1.00  0.00    -0.390 OA
ATOM     13  H   UNL     1    -120.811  41.494   1.932  1.00  0.00     0.211 HD
ENDBRANCH   8  12
BRANCH   9  14
ATOM     14  C   UNL     1    -123.461  36.967   3.648  1.00  0.00     0.195 C 
BRANCH  14  15
ATOM     15  O   UNL     1    -124.677  37.147   2.992  1.00  0.00    -0.393 OA
ATOM     16  H   UNL     1    -124.463  37.305   2.013  1.00  0.00     0.210 HD
ENDBRANCH  14  15
ENDBRANCH   9  14
ENDBRANCH   1   2
BRANCH   1  17
ATOM     17  C   UNL     1    -125.997  38.752   5.903  1.00  0.00     0.286 C 
ATOM     18  C   UNL     1    -127.185  39.056   4.941  1.00  0.00     0.202 C 
ATOM     19  O   UNL     1    -126.384  38.958   7.266  1.00  0.00    -0.341 OA
ATOM     20  C   UNL     1    -127.662  40.498   5.166  1.00  0.00     0.179 C 
ATOM     21  C   UNL     1    -126.762  40.319   7.489  1.00  0.00     0.178 C 
ATOM     22  C   UNL     1    -128.031  40.636   6.676  1.00  0.00     0.177 C 
BRANCH  18  23
ATOM     23  O   UNL     1    -126.771  38.905   3.597  1.00  0.00    -0.385 OA
ATOM     24  H   UNL     1    -126.720  39.823   3.226  1.00  0.00     0.211 HD
ENDBRANCH  18  23
BRANCH  20  25
ATOM     25  O   UNL     1    -128.805  40.723   4.362  1.00  0.00    -0.387 OA
ATOM     26  H   UNL     1    -128.802  41.707   4.155  1.00  0.00     0.211 HD
ENDBRANCH  20  25
BRANCH  21  27
ATOM     27  C   UNL     1    -126.934  40.515   9.006  1.00  0.00     0.191 C 
BRANCH  27  28
ATOM     28  O   UNL     1    -128.255  40.243   9.407  1.00  0.00    -0.394 OA
ATOM     29  H   UNL     1    -128.731  39.863   8.603  1.00  0.00     0.210 HD
ENDBRANCH  27  28
ENDBRANCH  21  27
BRANCH  22  30
ATOM     30  O   UNL     1    -128.529  41.913   6.975  1.00  0.00    -0.387 OA
ATOM     31  H   UNL     1    -129.216  42.122   6.272  1.00  0.00     0.211 HD
ENDBRANCH  22  30
ENDBRANCH   1  17
TORSDOF 10
ENDMDL
