MODEL 1
REMARK VINA RESULT:    -7.389      0.000      0.000
REMARK INTER + INTRA:          -9.787
REMARK INTER:                  -9.333
REMARK INTRA:                  -0.454
REMARK UNBOUND:                -0.454
REMARK SMILES O=C(C=Cc1ccc(O)cc1)c1ccc(O)cc1O
REMARK SMILES IDX 4 1 3 2 5 3 6 4 7 5 8 6 11 7 10 8 9 9 2 11 1 12 12 13 18 14
REMARK SMILES IDX 13 15 17 16 14 17 15 18 19 19 16 21
REMARK H PARENT 9 10 19 20 16 22
REMARK Flexibility Score: inf
ROOT
ATOM      1  C   UNL     1       6.943 -10.959  13.618  1.00  0.00     0.012 C 
ATOM      2  C   UNL     1       6.262 -12.095  13.408  1.00  0.00     0.053 C 
ENDROOT
BRANCH   1   3
ATOM      3  C   UNL     1       7.827 -10.734  14.788  1.00  0.00    -0.025 A 
ATOM      4  C   UNL     1       9.119 -10.230  14.567  1.00  0.00     0.012 A 
ATOM      5  C   UNL     1       9.985  -9.993  15.639  1.00  0.00     0.047 A 
ATOM      6  C   UNL     1       9.565 -10.247  16.950  1.00  0.00     0.115 A 
ATOM      7  C   UNL     1       7.407 -10.972  16.113  1.00  0.00     0.012 A 
ATOM      8  C   UNL     1       8.275 -10.733  17.183  1.00  0.00     0.047 A 
BRANCH   6   9
ATOM      9  O   UNL     1      10.418 -10.015  18.028  1.00  0.00    -0.508 OA
ATOM     10  H   UNL     1      11.317  -9.565  17.903  1.00  0.00     0.293 HD
ENDBRANCH   6   9
ENDBRANCH   1   3
BRANCH   2  11
ATOM     11  C   UNL     1       5.399 -12.290  12.223  1.00  0.00     0.189 C 
ATOM     12  O   UNL     1       5.289 -11.375  11.361  1.00  0.00    -0.289 OA
BRANCH  11  13
ATOM     13  C   UNL     1       4.634 -13.545  12.053  1.00  0.00     0.064 A 
ATOM     14  C   UNL     1       3.277 -13.652  12.444  1.00  0.00     0.130 A 
ATOM     15  C   UNL     1       5.283 -14.676  11.525  1.00  0.00     0.020 A 
ATOM     16  C   UNL     1       2.618 -14.883  12.331  1.00  0.00     0.093 A 
ATOM     17  C   UNL     1       4.609 -15.893  11.404  1.00  0.00     0.047 A 
ATOM     18  C   UNL     1       3.275 -16.000  11.812  1.00  0.00     0.119 A 
BRANCH  14  19
ATOM     19  O   UNL     1       2.548 -12.560  12.918  1.00  0.00    -0.507 OA
ATOM     20  H   UNL     1       2.446 -11.695  12.404  1.00  0.00     0.293 HD
ENDBRANCH  14  19
BRANCH  18  21
ATOM     21  O   UNL     1       2.595 -17.211  11.703  1.00  0.00    -0.508 OA
ATOM     22  H   UNL     1       2.106 -17.470  10.854  1.00  0.00     0.293 HD
ENDBRANCH  18  21
ENDBRANCH  11  13
ENDBRANCH   2  11
TORSDOF 6
ENDMDL
MODEL 2
REMARK VINA RESULT:    -7.344      2.183      2.402
REMARK INTER + INTRA:          -9.729
REMARK INTER:                  -9.210
REMARK INTRA:                  -0.519
REMARK UNBOUND:                -0.454
REMARK SMILES O=C(C=Cc1ccc(O)cc1)c1ccc(O)cc1O
REMARK SMILES IDX 4 1 3 2 5 3 6 4 7 5 8 6 11 7 10 8 9 9 2 11 1 12 12 13 18 14
REMARK SMILES IDX 13 15 17 16 14 17 15 18 19 19 16 21
REMARK H PARENT 9 10 19 20 16 22
REMARK Flexibility Score: inf
ROOT
ATOM      1  C   UNL     1       6.385 -13.812  13.831  1.00  0.00     0.012 C 
ATOM      2  C   UNL     1       6.019 -12.689  13.198  1.00  0.00     0.053 C 
ENDROOT
BRANCH   1   3
ATOM      3  C   UNL     1       7.532 -13.892  14.769  1.00  0.00    -0.025 A 
ATOM      4  C   UNL     1       8.120 -12.697  15.215  1.00  0.00     0.012 A 
ATOM      5  C   UNL     1       9.198 -12.723  16.105  1.00  0.00     0.047 A 
ATOM      6  C   UNL     1       9.696 -13.946  16.571  1.00  0.00     0.115 A 
ATOM      7  C   UNL     1       8.031 -15.119  15.254  1.00  0.00     0.012 A 
ATOM      8  C   UNL     1       9.108 -15.140  16.145  1.00  0.00     0.047 A 
BRANCH   6   9
ATOM      9  O   UNL     1      10.770 -13.984  17.458  1.00  0.00    -0.508 OA
ATOM     10  H   UNL     1      10.627 -13.984  18.461  1.00  0.00     0.293 HD
ENDBRANCH   6   9
ENDBRANCH   1   3
BRANCH   2  11
ATOM     11  C   UNL     1       4.860 -12.642  12.279  1.00  0.00     0.189 C 
ATOM     12  O   UNL     1       4.550 -11.563  11.705  1.00  0.00    -0.289 OA
BRANCH  11  13
ATOM     13  C   UNL     1       4.037 -13.850  12.051  1.00  0.00     0.064 A 
ATOM     14  C   UNL     1       2.713 -13.958  12.544  1.00  0.00     0.130 A 
ATOM     15  C   UNL     1       4.598 -14.939  11.360  1.00  0.00     0.020 A 
ATOM     16  C   UNL     1       2.002 -15.151  12.365  1.00  0.00     0.093 A 
ATOM     17  C   UNL     1       3.871 -16.118  11.175  1.00  0.00     0.047 A 
ATOM     18  C   UNL     1       2.572 -16.227  11.683  1.00  0.00     0.119 A 
BRANCH  14  19
ATOM     19  O   UNL     1       2.067 -12.899  13.185  1.00  0.00    -0.507 OA
ATOM     20  H   UNL     1       2.370 -12.520  14.072  1.00  0.00     0.293 HD
ENDBRANCH  14  19
BRANCH  18  21
ATOM     21  O   UNL     1       1.840 -17.400  11.512  1.00  0.00    -0.508 OA
ATOM     22  H   UNL     1       1.117 -17.674  12.168  1.00  0.00     0.293 HD
ENDBRANCH  18  21
ENDBRANCH  11  13
ENDBRANCH   2  11
TORSDOF 6
ENDMDL
MODEL 3
REMARK VINA RESULT:    -7.161      1.542      7.690
REMARK INTER + INTRA:          -9.499
REMARK INTER:                  -8.952
REMARK INTRA:                  -0.548
REMARK UNBOUND:                -0.454
REMARK SMILES O=C(C=Cc1ccc(O)cc1)c1ccc(O)cc1O
REMARK SMILES IDX 4 1 3 2 5 3 6 4 7 5 8 6 11 7 10 8 9 9 2 11 1 12 12 13 18 14
REMARK SMILES IDX 13 15 17 16 14 17 15 18 19 19 16 21
REMARK H PARENT 9 10 19 20 16 22
REMARK Flexibility Score: inf
ROOT
ATOM      1  C   UNL     1       5.438 -12.391  12.569  1.00  0.00     0.012 C 
ATOM      2  C   UNL     1       6.247 -12.266  13.631  1.00  0.00     0.053 C 
ENDROOT
BRANCH   1   3
ATOM      3  C   UNL     1       4.664 -13.620  12.264  1.00  0.00    -0.025 A 
ATOM      4  C   UNL     1       3.281 -13.622  12.512  1.00  0.00     0.012 A 
ATOM      5  C   UNL     1       2.509 -14.753  12.233  1.00  0.00     0.047 A 
ATOM      6  C   UNL     1       3.108 -15.897  11.690  1.00  0.00     0.115 A 
ATOM      7  C   UNL     1       5.256 -14.770  11.704  1.00  0.00     0.012 A 
ATOM      8  C   UNL     1       4.480 -15.900  11.425  1.00  0.00     0.047 A 
BRANCH   6   9
ATOM      9  O   UNL     1       2.349 -17.031  11.408  1.00  0.00    -0.508 OA
ATOM     10  H   UNL     1       1.478 -16.970  10.894  1.00  0.00     0.293 HD
ENDBRANCH   6   9
ENDBRANCH   1   3
BRANCH   2  11
ATOM     11  C   UNL     1       6.994 -11.021  13.911  1.00  0.00     0.189 C 
ATOM     12  O   UNL     1       6.616  -9.928  13.407  1.00  0.00    -0.289 OA
BRANCH  11  13
ATOM     13  C   UNL     1       8.207 -11.051  14.757  1.00  0.00     0.064 A 
ATOM     14  C   UNL     1       9.183 -10.025  14.703  1.00  0.00     0.130 A 
ATOM     15  C   UNL     1       8.419 -12.149  15.609  1.00  0.00     0.020 A 
ATOM     16  C   UNL     1      10.349 -10.136  15.470  1.00  0.00     0.093 A 
ATOM     17  C   UNL     1       9.581 -12.240  16.380  1.00  0.00     0.047 A 
ATOM     18  C   UNL     1      10.552 -11.235  16.307  1.00  0.00     0.119 A 
BRANCH  14  19
ATOM     19  O   UNL     1       9.014  -8.875  13.929  1.00  0.00    -0.507 OA
ATOM     20  H   UNL     1       8.496  -8.066  14.243  1.00  0.00     0.293 HD
ENDBRANCH  14  19
BRANCH  18  21
ATOM     21  O   UNL     1      11.717 -11.319  17.065  1.00  0.00    -0.508 OA
ATOM     22  H   UNL     1      12.630 -11.380  16.628  1.00  0.00     0.293 HD
ENDBRANCH  18  21
ENDBRANCH  11  13
ENDBRANCH   2  11
TORSDOF 6
ENDMDL
MODEL 4
REMARK VINA RESULT:    -6.970      2.166      7.589
REMARK INTER + INTRA:          -9.257
REMARK INTER:                  -8.689
REMARK INTRA:                  -0.568
REMARK UNBOUND:                -0.454
REMARK SMILES O=C(C=Cc1ccc(O)cc1)c1ccc(O)cc1O
REMARK SMILES IDX 4 1 3 2 5 3 6 4 7 5 8 6 11 7 10 8 9 9 2 11 1 12 12 13 18 14
REMARK SMILES IDX 13 15 17 16 14 17 15 18 19 19 16 21
REMARK H PARENT 9 10 19 20 16 22
REMARK Flexibility Score: inf
ROOT
ATOM      1  C   UNL     1       6.245 -12.032  13.550  1.00  0.00     0.012 C 
ATOM      2  C   UNL     1       7.002 -12.265  14.632  1.00  0.00     0.053 C 
ENDROOT
BRANCH   1   3
ATOM      3  C   UNL     1       5.455 -13.080  12.857  1.00  0.00    -0.025 A 
ATOM      4  C   UNL     1       6.063 -14.321  12.603  1.00  0.00     0.012 A 
ATOM      5  C   UNL     1       5.355 -15.342  11.960  1.00  0.00     0.047 A 
ATOM      6  C   UNL     1       4.025 -15.139  11.573  1.00  0.00     0.115 A 
ATOM      7  C   UNL     1       4.111 -12.890  12.477  1.00  0.00     0.012 A 
ATOM      8  C   UNL     1       3.407 -13.913  11.835  1.00  0.00     0.047 A 
BRANCH   6   9
ATOM      9  O   UNL     1       3.309 -16.148  10.931  1.00  0.00    -0.508 OA
ATOM     10  H   UNL     1       2.782 -16.837  11.455  1.00  0.00     0.293 HD
ENDBRANCH   6   9
ENDBRANCH   1   3
BRANCH   2  11
ATOM     11  C   UNL     1       7.766 -11.193  15.306  1.00  0.00     0.189 C 
ATOM     12  O   UNL     1       7.289 -10.617  16.322  1.00  0.00    -0.289 OA
BRANCH  11  13
ATOM     13  C   UNL     1       9.080 -10.765  14.778  1.00  0.00     0.064 A 
ATOM     14  C   UNL     1       9.200  -9.725  13.823  1.00  0.00     0.130 A 
ATOM     15  C   UNL     1      10.240 -11.436  15.205  1.00  0.00     0.020 A 
ATOM     16  C   UNL     1      10.460  -9.408  13.299  1.00  0.00     0.093 A 
ATOM     17  C   UNL     1      11.492 -11.099  14.684  1.00  0.00     0.047 A 
ATOM     18  C   UNL     1      11.603 -10.086  13.726  1.00  0.00     0.119 A 
BRANCH  14  19
ATOM     19  O   UNL     1       8.104  -8.973  13.397  1.00  0.00    -0.507 OA
ATOM     20  H   UNL     1       7.521  -9.236  12.614  1.00  0.00     0.293 HD
ENDBRANCH  14  19
BRANCH  18  21
ATOM     21  O   UNL     1      12.845  -9.746  13.194  1.00  0.00    -0.508 OA
ATOM     22  H   UNL     1      12.926  -9.174  12.361  1.00  0.00     0.293 HD
ENDBRANCH  18  21
ENDBRANCH  11  13
ENDBRANCH   2  11
TORSDOF 6
ENDMDL
MODEL 5
REMARK VINA RESULT:    -6.681      2.077      7.722
REMARK INTER + INTRA:          -8.893
REMARK INTER:                  -8.219
REMARK INTRA:                  -0.674
REMARK UNBOUND:                -0.454
REMARK SMILES O=C(C=Cc1ccc(O)cc1)c1ccc(O)cc1O
REMARK SMILES IDX 4 1 3 2 5 3 6 4 7 5 8 6 11 7 10 8 9 9 2 11 1 12 12 13 18 14
REMARK SMILES IDX 13 15 17 16 14 17 15 18 19 19 16 21
REMARK H PARENT 9 10 19 20 16 22
REMARK Flexibility Score: inf
ROOT
ATOM      1  C   UNL     1       6.694 -12.879  14.318  1.00  0.00     0.012 C 
ATOM      2  C   UNL     1       6.936 -11.572  14.488  1.00  0.00     0.053 C 
ENDROOT
BRANCH   1   3
ATOM      3  C   UNL     1       5.819 -13.422  13.249  1.00  0.00    -0.025 A 
ATOM      4  C   UNL     1       6.180 -14.632  12.634  1.00  0.00     0.012 A 
ATOM      5  C   UNL     1       5.382 -15.186  11.629  1.00  0.00     0.047 A 
ATOM      6  C   UNL     1       4.203 -14.542  11.232  1.00  0.00     0.115 A 
ATOM      7  C   UNL     1       4.623 -12.788  12.854  1.00  0.00     0.012 A 
ATOM      8  C   UNL     1       3.827 -13.345  11.849  1.00  0.00     0.047 A 
BRANCH   6   9
ATOM      9  O   UNL     1       3.399 -15.084  10.231  1.00  0.00    -0.508 OA
ATOM     10  H   UNL     1       2.466 -15.426  10.429  1.00  0.00     0.293 HD
ENDBRANCH   6   9
ENDBRANCH   1   3
BRANCH   2  11
ATOM     11  C   UNL     1       7.825 -11.067  15.557  1.00  0.00     0.189 C 
ATOM     12  O   UNL     1       7.339 -10.471  16.557  1.00  0.00    -0.289 OA
BRANCH  11  13
ATOM     13  C   UNL     1       9.292 -11.227  15.448  1.00  0.00     0.064 A 
ATOM     14  C   UNL     1      10.033 -11.987  16.385  1.00  0.00     0.130 A 
ATOM     15  C   UNL     1       9.976 -10.572  14.408  1.00  0.00     0.020 A 
ATOM     16  C   UNL     1      11.429 -12.047  16.281  1.00  0.00     0.093 A 
ATOM     17  C   UNL     1      11.367 -10.653  14.307  1.00  0.00     0.047 A 
ATOM     18  C   UNL     1      12.097 -11.387  15.247  1.00  0.00     0.119 A 
BRANCH  14  19
ATOM     19  O   UNL     1       9.421 -12.715  17.408  1.00  0.00    -0.507 OA
ATOM     20  H   UNL     1       8.875 -12.286  18.143  1.00  0.00     0.293 HD
ENDBRANCH  14  19
BRANCH  18  21
ATOM     21  O   UNL     1      13.485 -11.468  15.162  1.00  0.00    -0.508 OA
ATOM     22  H   UNL     1      13.944 -11.832  14.335  1.00  0.00     0.293 HD
ENDBRANCH  18  21
ENDBRANCH  11  13
ENDBRANCH   2  11
TORSDOF 6
ENDMDL
MODEL 6
REMARK VINA RESULT:    -6.654      3.786      7.779
REMARK INTER + INTRA:          -8.859
REMARK INTER:                  -8.251
REMARK INTRA:                  -0.608
REMARK UNBOUND:                -0.454
REMARK SMILES O=C(C=Cc1ccc(O)cc1)c1ccc(O)cc1O
REMARK SMILES IDX 4 1 3 2 5 3 6 4 7 5 8 6 11 7 10 8 9 9 2 11 1 12 12 13 18 14
REMARK SMILES IDX 13 15 17 16 14 17 15 18 19 19 16 21
REMARK H PARENT 9 10 19 20 16 22
REMARK Flexibility Score: inf
ROOT
ATOM      1  C   UNL     1       6.250 -13.682  13.550  1.00  0.00     0.012 C 
ATOM      2  C   UNL     1       7.003 -14.410  14.387  1.00  0.00     0.053 C 
ENDROOT
BRANCH   1   3
ATOM      3  C   UNL     1       5.146 -14.246  12.734  1.00  0.00    -0.025 A 
ATOM      4  C   UNL     1       3.853 -13.724  12.901  1.00  0.00     0.012 A 
ATOM      5  C   UNL     1       2.783 -14.218  12.148  1.00  0.00     0.047 A 
ATOM      6  C   UNL     1       2.995 -15.235  11.209  1.00  0.00     0.115 A 
ATOM      7  C   UNL     1       5.353 -15.260  11.776  1.00  0.00     0.012 A 
ATOM      8  C   UNL     1       4.281 -15.750  11.024  1.00  0.00     0.047 A 
BRANCH   6   9
ATOM      9  O   UNL     1       1.937 -15.736  10.452  1.00  0.00    -0.508 OA
ATOM     10  H   UNL     1       2.097 -16.232   9.583  1.00  0.00     0.293 HD
ENDBRANCH   6   9
ENDBRANCH   1   3
BRANCH   2  11
ATOM     11  C   UNL     1       8.088 -13.812  15.195  1.00  0.00     0.189 C 
ATOM     12  O   UNL     1       8.243 -12.560  15.221  1.00  0.00    -0.289 OA
BRANCH  11  13
ATOM     13  C   UNL     1       9.020 -14.675  15.953  1.00  0.00     0.064 A 
ATOM     14  C   UNL     1       9.567 -14.275  17.197  1.00  0.00     0.130 A 
ATOM     15  C   UNL     1       9.405 -15.912  15.405  1.00  0.00     0.020 A 
ATOM     16  C   UNL     1      10.501 -15.096  17.840  1.00  0.00     0.093 A 
ATOM     17  C   UNL     1      10.327 -16.729  16.065  1.00  0.00     0.047 A 
ATOM     18  C   UNL     1      10.881 -16.319  17.282  1.00  0.00     0.119 A 
BRANCH  14  19
ATOM     19  O   UNL     1       9.187 -13.092  17.834  1.00  0.00    -0.507 OA
ATOM     20  H   UNL     1       8.637 -12.372  17.384  1.00  0.00     0.293 HD
ENDBRANCH  14  19
BRANCH  18  21
ATOM     21  O   UNL     1      11.807 -17.121  17.946  1.00  0.00    -0.508 OA
ATOM     22  H   UNL     1      12.406 -16.748  18.674  1.00  0.00     0.293 HD
ENDBRANCH  18  21
ENDBRANCH  11  13
ENDBRANCH   2  11
TORSDOF 6
ENDMDL
MODEL 7
REMARK VINA RESULT:    -6.634      2.424      2.994
REMARK INTER + INTRA:          -8.833
REMARK INTER:                  -8.402
REMARK INTRA:                  -0.432
REMARK UNBOUND:                -0.454
REMARK SMILES O=C(C=Cc1ccc(O)cc1)c1ccc(O)cc1O
REMARK SMILES IDX 4 1 3 2 5 3 6 4 7 5 8 6 11 7 10 8 9 9 2 11 1 12 12 13 18 14
REMARK SMILES IDX 13 15 17 16 14 17 15 18 19 19 16 21
REMARK H PARENT 9 10 19 20 16 22
REMARK Flexibility Score: inf
ROOT
ATOM      1  C   UNL     1       6.627 -12.740  13.874  1.00  0.00     0.012 C 
ATOM      2  C   UNL     1       5.896 -13.582  13.129  1.00  0.00     0.053 C 
ENDROOT
BRANCH   1   3
ATOM      3  C   UNL     1       7.673 -13.181  14.829  1.00  0.00    -0.025 A 
ATOM      4  C   UNL     1       7.866 -14.559  15.025  1.00  0.00     0.012 A 
ATOM      5  C   UNL     1       8.846 -15.022  15.909  1.00  0.00     0.047 A 
ATOM      6  C   UNL     1       9.655 -14.112  16.601  1.00  0.00     0.115 A 
ATOM      7  C   UNL     1       8.502 -12.273  15.519  1.00  0.00     0.012 A 
ATOM      8  C   UNL     1       9.481 -12.740  16.401  1.00  0.00     0.047 A 
BRANCH   6   9
ATOM      9  O   UNL     1      10.635 -14.561  17.484  1.00  0.00    -0.508 OA
ATOM     10  H   UNL     1      11.553 -14.840  17.158  1.00  0.00     0.293 HD
ENDBRANCH   6   9
ENDBRANCH   1   3
BRANCH   2  11
ATOM     11  C   UNL     1       4.870 -13.106  12.177  1.00  0.00     0.189 C 
ATOM     12  O   UNL     1       4.964 -11.956  11.666  1.00  0.00    -0.289 OA
BRANCH  11  13
ATOM     13  C   UNL     1       3.709 -13.959  11.839  1.00  0.00     0.064 A 
ATOM     14  C   UNL     1       3.792 -14.985  10.865  1.00  0.00     0.130 A 
ATOM     15  C   UNL     1       2.477 -13.720  12.474  1.00  0.00     0.020 A 
ATOM     16  C   UNL     1       2.646 -15.715  10.528  1.00  0.00     0.093 A 
ATOM     17  C   UNL     1       1.345 -14.467  12.139  1.00  0.00     0.047 A 
ATOM     18  C   UNL     1       1.427 -15.464  11.161  1.00  0.00     0.119 A 
BRANCH  14  19
ATOM     19  O   UNL     1       4.993 -15.322  10.237  1.00  0.00    -0.507 OA
ATOM     20  H   UNL     1       5.212 -15.063   9.285  1.00  0.00     0.293 HD
ENDBRANCH  14  19
BRANCH  18  21
ATOM     21  O   UNL     1       0.303 -16.210  10.813  1.00  0.00    -0.508 OA
ATOM     22  H   UNL     1       0.334 -17.222  10.762  1.00  0.00     0.293 HD
ENDBRANCH  18  21
ENDBRANCH  11  13
ENDBRANCH   2  11
TORSDOF 6
ENDMDL
MODEL 8
REMARK VINA RESULT:    -6.619      6.129      7.903
REMARK INTER + INTRA:          -8.815
REMARK INTER:                  -8.120
REMARK INTRA:                  -0.694
REMARK UNBOUND:                -0.454
REMARK SMILES O=C(C=Cc1ccc(O)cc1)c1ccc(O)cc1O
REMARK SMILES IDX 4 1 3 2 5 3 6 4 7 5 8 6 11 7 10 8 9 9 2 11 1 12 12 13 18 14
REMARK SMILES IDX 13 15 17 16 14 17 15 18 19 19 16 21
REMARK H PARENT 9 10 19 20 16 22
REMARK Flexibility Score: inf
ROOT
ATOM      1  C   UNL     1      11.855 -11.827  16.075  1.00  0.00     0.012 C 
ATOM      2  C   UNL     1      10.844 -11.470  15.271  1.00  0.00     0.053 C 
ENDROOT
BRANCH   1   3
ATOM      3  C   UNL     1      12.632 -13.081  15.913  1.00  0.00    -0.025 A 
ATOM      4  C   UNL     1      12.803 -13.604  14.621  1.00  0.00     0.012 A 
ATOM      5  C   UNL     1      13.535 -14.778  14.419  1.00  0.00     0.047 A 
ATOM      6  C   UNL     1      14.115 -15.441  15.507  1.00  0.00     0.115 A 
ATOM      7  C   UNL     1      13.232 -13.747  17.002  1.00  0.00     0.012 A 
ATOM      8  C   UNL     1      13.963 -14.921  16.796  1.00  0.00     0.047 A 
BRANCH   6   9
ATOM      9  O   UNL     1      14.846 -16.613  15.319  1.00  0.00    -0.508 OA
ATOM     10  H   UNL     1      15.624 -16.652  14.671  1.00  0.00     0.293 HD
ENDBRANCH   6   9
ENDBRANCH   1   3
BRANCH   2  11
ATOM     11  C   UNL     1      10.099 -10.205  15.453  1.00  0.00     0.189 C 
ATOM     12  O   UNL     1      10.177  -9.293  14.585  1.00  0.00    -0.289 OA
BRANCH  11  13
ATOM     13  C   UNL     1       9.284  -9.986  16.668  1.00  0.00     0.064 A 
ATOM     14  C   UNL     1       9.266  -8.740  17.342  1.00  0.00     0.130 A 
ATOM     15  C   UNL     1       8.535 -11.055  17.191  1.00  0.00     0.020 A 
ATOM     16  C   UNL     1       8.536  -8.605  18.530  1.00  0.00     0.093 A 
ATOM     17  C   UNL     1       7.798 -10.902  18.368  1.00  0.00     0.047 A 
ATOM     18  C   UNL     1       7.802  -9.677  19.043  1.00  0.00     0.119 A 
BRANCH  14  19
ATOM     19  O   UNL     1       9.933  -7.616  16.852  1.00  0.00    -0.507 OA
ATOM     20  H   UNL     1       9.466  -6.749  16.624  1.00  0.00     0.293 HD
ENDBRANCH  14  19
BRANCH  18  21
ATOM     21  O   UNL     1       7.078  -9.514  20.222  1.00  0.00    -0.508 OA
ATOM     22  H   UNL     1       7.537  -9.464  21.124  1.00  0.00     0.293 HD
ENDBRANCH  18  21
ENDBRANCH  11  13
ENDBRANCH   2  11
TORSDOF 6
ENDMDL
MODEL 9
REMARK VINA RESULT:    -6.575      6.137      8.012
REMARK INTER + INTRA:          -8.759
REMARK INTER:                  -8.130
REMARK INTRA:                  -0.629
REMARK UNBOUND:                -0.454
REMARK SMILES O=C(C=Cc1ccc(O)cc1)c1ccc(O)cc1O
REMARK SMILES IDX 4 1 3 2 5 3 6 4 7 5 8 6 11 7 10 8 9 9 2 11 1 12 12 13 18 14
REMARK SMILES IDX 13 15 17 16 14 17 15 18 19 19 16 21
REMARK H PARENT 9 10 19 20 16 22
REMARK Flexibility Score: inf
ROOT
ATOM      1  C   UNL     1      11.853 -11.583  14.398  1.00  0.00     0.012 C 
ATOM      2  C   UNL     1      10.967 -11.422  15.391  1.00  0.00     0.053 C 
ENDROOT
BRANCH   1   3
ATOM      3  C   UNL     1      12.713 -12.783  14.248  1.00  0.00    -0.025 A 
ATOM      4  C   UNL     1      12.429 -13.915  15.030  1.00  0.00     0.012 A 
ATOM      5  C   UNL     1      13.206 -15.072  14.917  1.00  0.00     0.047 A 
ATOM      6  C   UNL     1      14.272 -15.117  14.010  1.00  0.00     0.115 A 
ATOM      7  C   UNL     1      13.779 -12.842  13.327  1.00  0.00     0.012 A 
ATOM      8  C   UNL     1      14.553 -14.002  13.216  1.00  0.00     0.047 A 
BRANCH   6   9
ATOM      9  O   UNL     1      15.054 -16.264  13.889  1.00  0.00    -0.508 OA
ATOM     10  H   UNL     1      15.093 -16.958  14.627  1.00  0.00     0.293 HD
ENDBRANCH   6   9
ENDBRANCH   1   3
BRANCH   2  11
ATOM     11  C   UNL     1      10.117 -10.217  15.502  1.00  0.00     0.189 C 
ATOM     12  O   UNL     1      10.111  -9.358  14.577  1.00  0.00    -0.289 OA
BRANCH  11  13
ATOM     13  C   UNL     1       9.292  -9.992  16.709  1.00  0.00     0.064 A 
ATOM     14  C   UNL     1       9.254  -8.738  17.367  1.00  0.00     0.130 A 
ATOM     15  C   UNL     1       8.554 -11.065  17.243  1.00  0.00     0.020 A 
ATOM     16  C   UNL     1       8.516  -8.597  18.548  1.00  0.00     0.093 A 
ATOM     17  C   UNL     1       7.810 -10.905  18.414  1.00  0.00     0.047 A 
ATOM     18  C   UNL     1       7.793  -9.671  19.072  1.00  0.00     0.119 A 
BRANCH  14  19
ATOM     19  O   UNL     1       9.909  -7.612  16.864  1.00  0.00    -0.507 OA
ATOM     20  H   UNL     1      10.409  -6.955  17.448  1.00  0.00     0.293 HD
ENDBRANCH  14  19
BRANCH  18  21
ATOM     21  O   UNL     1       7.061  -9.502  20.245  1.00  0.00    -0.508 OA
ATOM     22  H   UNL     1       7.397  -8.914  20.999  1.00  0.00     0.293 HD
ENDBRANCH  18  21
ENDBRANCH  11  13
ENDBRANCH   2  11
TORSDOF 6
ENDMDL
