MODEL 1
REMARK VINA RESULT:    -3.510      0.000      0.000
REMARK INTER + INTRA:          -4.186
REMARK INTER:                  -4.126
REMARK INTRA:                  -0.060
REMARK UNBOUND:                -0.060
REMARK SMILES O=C([O-])CCC(=O)[O-]
REMARK SMILES IDX 4 1 2 2 1 3 3 4 5 5 6 6 7 7 8 8
REMARK H PARENT
REMARK Flexibility Score: inf
ROOT
ATOM      1  C   UNL     1       1.792   7.198   0.997  1.00  0.00     0.059 C 
ENDROOT
BRANCH   1   2
ATOM      2  C   UNL     1       3.173   6.843   1.448  1.00  0.00     0.042 C 
ATOM      3  O   UNL     1       4.056   7.734   1.544  1.00  0.00    -0.550 OA
ATOM      4  O   UNL     1       3.471   5.535   1.811  1.00  0.00    -0.550 OA
ENDBRANCH   1   2
BRANCH   1   5
ATOM      5  C   UNL     1       1.842   7.965  -0.327  1.00  0.00     0.059 C 
BRANCH   5   6
ATOM      6  C   UNL     1       0.906   9.131  -0.291  1.00  0.00     0.042 C 
ATOM      7  O   UNL     1      -0.037   9.161   0.544  1.00  0.00    -0.550 OA
ATOM      8  O   UNL     1       1.104  10.208  -1.145  1.00  0.00    -0.550 OA
ENDBRANCH   5   6
ENDBRANCH   1   5
TORSDOF 3
ENDMDL
MODEL 2
REMARK VINA RESULT:    -3.492      0.219      4.187
REMARK INTER + INTRA:          -4.164
REMARK INTER:                  -4.099
REMARK INTRA:                  -0.065
REMARK UNBOUND:                -0.060
REMARK SMILES O=C([O-])CCC(=O)[O-]
REMARK SMILES IDX 4 1 2 2 1 3 3 4 5 5 6 6 7 7 8 8
REMARK H PARENT
REMARK Flexibility Score: inf
ROOT
ATOM      1  C   UNL     1       1.691   7.739  -0.378  1.00  0.00     0.059 C 
ENDROOT
BRANCH   1   2
ATOM      2  C   UNL     1       0.993   9.060  -0.441  1.00  0.00     0.042 C 
ATOM      3  O   UNL     1       0.035   9.308   0.338  1.00  0.00    -0.550 OA
ATOM      4  O   UNL     1       1.432  10.037  -1.324  1.00  0.00    -0.550 OA
ENDBRANCH   1   2
BRANCH   1   5
ATOM      5  C   UNL     1       1.732   7.223   1.062  1.00  0.00     0.059 C 
BRANCH   5   6
ATOM      6  C   UNL     1       3.136   6.899   1.461  1.00  0.00     0.042 C 
ATOM      7  O   UNL     1       4.018   7.799   1.466  1.00  0.00    -0.550 OA
ATOM      8  O   UNL     1       3.463   5.614   1.876  1.00  0.00    -0.550 OA
ENDBRANCH   5   6
ENDBRANCH   1   5
TORSDOF 3
ENDMDL
MODEL 3
REMARK VINA RESULT:    -3.401      0.403      1.197
REMARK INTER + INTRA:          -4.058
REMARK INTER:                  -3.977
REMARK INTRA:                  -0.081
REMARK UNBOUND:                -0.060
REMARK SMILES O=C([O-])CCC(=O)[O-]
REMARK SMILES IDX 4 1 2 2 1 3 3 4 5 5 6 6 7 7 8 8
REMARK H PARENT
REMARK Flexibility Score: inf
ROOT
ATOM      1  C   UNL     1       1.878   7.199   0.972  1.00  0.00     0.059 C 
ENDROOT
BRANCH   1   2
ATOM      2  C   UNL     1       3.305   7.220   1.418  1.00  0.00     0.042 C 
ATOM      3  O   UNL     1       3.817   6.202   1.953  1.00  0.00    -0.550 OA
ATOM      4  O   UNL     1       4.086   8.348   1.198  1.00  0.00    -0.550 OA
ENDBRANCH   1   2
BRANCH   1   5
ATOM      5  C   UNL     1       1.737   7.854  -0.403  1.00  0.00     0.059 C 
BRANCH   5   6
ATOM      6  C   UNL     1       0.912   9.098  -0.308  1.00  0.00     0.042 C 
ATOM      7  O   UNL     1      -0.040   9.166   0.513  1.00  0.00    -0.550 OA
ATOM      8  O   UNL     1       1.225  10.202  -1.092  1.00  0.00    -0.550 OA
ENDBRANCH   5   6
ENDBRANCH   1   5
TORSDOF 3
ENDMDL
MODEL 4
REMARK VINA RESULT:    -3.276      0.998      3.969
REMARK INTER + INTRA:          -3.910
REMARK INTER:                  -3.805
REMARK INTRA:                  -0.105
REMARK UNBOUND:                -0.060
REMARK SMILES O=C([O-])CCC(=O)[O-]
REMARK SMILES IDX 4 1 2 2 1 3 3 4 5 5 6 6 7 7 8 8
REMARK H PARENT
REMARK Flexibility Score: inf
ROOT
ATOM      1  C   UNL     1       2.112   8.417  -0.657  1.00  0.00     0.059 C 
ENDROOT
BRANCH   1   2
ATOM      2  C   UNL     1       0.964   9.360  -0.480  1.00  0.00     0.042 C 
ATOM      3  O   UNL     1       0.830  10.345  -1.251  1.00  0.00    -0.550 OA
ATOM      4  O   UNL     1       0.015   9.122   0.505  1.00  0.00    -0.550 OA
ENDBRANCH   1   2
BRANCH   1   5
ATOM      5  C   UNL     1       3.075   8.518   0.528  1.00  0.00     0.059 C 
BRANCH   5   6
ATOM      6  C   UNL     1       3.010   7.279   1.362  1.00  0.00     0.042 C 
ATOM      7  O   UNL     1       1.963   6.578   1.377  1.00  0.00    -0.550 OA
ATOM      8  O   UNL     1       4.123   6.868   2.086  1.00  0.00    -0.550 OA
ENDBRANCH   5   6
ENDBRANCH   1   5
TORSDOF 3
ENDMDL
MODEL 5
REMARK VINA RESULT:    -3.110      1.611      2.079
REMARK INTER + INTRA:          -3.716
REMARK INTER:                  -3.595
REMARK INTRA:                  -0.120
REMARK UNBOUND:                -0.060
REMARK SMILES O=C([O-])CCC(=O)[O-]
REMARK SMILES IDX 4 1 2 2 1 3 3 4 5 5 6 6 7 7 8 8
REMARK H PARENT
REMARK Flexibility Score: inf
ROOT
ATOM      1  C   UNL     1       3.397   8.375   0.464  1.00  0.00     0.059 C 
ENDROOT
BRANCH   1   2
ATOM      2  C   UNL     1       2.746   7.269   1.231  1.00  0.00     0.042 C 
ATOM      3  O   UNL     1       1.495   7.249   1.375  1.00  0.00    -0.550 OA
ATOM      4  O   UNL     1       3.515   6.232   1.744  1.00  0.00    -0.550 OA
ENDBRANCH   1   2
BRANCH   1   5
ATOM      5  C   UNL     1       3.097   8.240  -1.030  1.00  0.00     0.059 C 
BRANCH   5   6
ATOM      6  C   UNL     1       2.253   9.382  -1.500  1.00  0.00     0.042 C 
ATOM      7  O   UNL     1       2.434   9.875  -2.645  1.00  0.00    -0.550 OA
ATOM      8  O   UNL     1       1.233   9.871  -0.694  1.00  0.00    -0.550 OA
ENDBRANCH   5   6
ENDBRANCH   1   5
TORSDOF 3
ENDMDL
MODEL 6
REMARK VINA RESULT:    -3.073      7.721      8.992
REMARK INTER + INTRA:          -3.672
REMARK INTER:                  -3.559
REMARK INTRA:                  -0.113
REMARK UNBOUND:                -0.060
REMARK SMILES O=C([O-])CCC(=O)[O-]
REMARK SMILES IDX 4 1 2 2 1 3 3 4 5 5 6 6 7 7 8 8
REMARK H PARENT
REMARK Flexibility Score: inf
ROOT
ATOM      1  C   UNL     1      -2.821  13.018  -5.527  1.00  0.00     0.059 C 
ENDROOT
BRANCH   1   2
ATOM      2  C   UNL     1      -2.221  11.951  -4.668  1.00  0.00     0.042 C 
ATOM      3  O   UNL     1      -2.922  10.980  -4.282  1.00  0.00    -0.550 OA
ATOM      4  O   UNL     1      -0.873  12.003  -4.334  1.00  0.00    -0.550 OA
ENDBRANCH   1   2
BRANCH   1   5
ATOM      5  C   UNL     1      -3.269  14.205  -4.672  1.00  0.00     0.059 C 
BRANCH   5   6
ATOM      6  C   UNL     1      -2.162  15.201  -4.537  1.00  0.00     0.042 C 
ATOM      7  O   UNL     1      -1.970  15.792  -3.442  1.00  0.00    -0.550 OA
ATOM      8  O   UNL     1      -1.308  15.441  -5.607  1.00  0.00    -0.550 OA
ENDBRANCH   5   6
ENDBRANCH   1   5
TORSDOF 3
ENDMDL
MODEL 7
REMARK VINA RESULT:    -3.053      7.847      9.912
REMARK INTER + INTRA:          -3.648
REMARK INTER:                  -3.531
REMARK INTRA:                  -0.117
REMARK UNBOUND:                -0.060
REMARK SMILES O=C([O-])CCC(=O)[O-]
REMARK SMILES IDX 4 1 2 2 1 3 3 4 5 5 6 6 7 7 8 8
REMARK H PARENT
REMARK Flexibility Score: inf
ROOT
ATOM      1  C   UNL     1      -3.159  14.320  -4.892  1.00  0.00     0.059 C 
ENDROOT
BRANCH   1   2
ATOM      2  C   UNL     1      -2.299  15.386  -5.492  1.00  0.00     0.042 C 
ATOM      3  O   UNL     1      -1.116  15.127  -5.834  1.00  0.00    -0.550 OA
ATOM      4  O   UNL     1      -2.820  16.654  -5.720  1.00  0.00    -0.550 OA
ENDBRANCH   1   2
BRANCH   1   5
ATOM      5  C   UNL     1      -2.965  12.995  -5.633  1.00  0.00     0.059 C 
BRANCH   5   6
ATOM      6  C   UNL     1      -2.326  11.983  -4.736  1.00  0.00     0.042 C 
ATOM      7  O   UNL     1      -2.983  10.985  -4.338  1.00  0.00    -0.550 OA
ATOM      8  O   UNL     1      -0.991  12.116  -4.378  1.00  0.00    -0.550 OA
ENDBRANCH   5   6
ENDBRANCH   1   5
TORSDOF 3
ENDMDL
MODEL 8
REMARK VINA RESULT:    -2.922      8.521     10.046
REMARK INTER + INTRA:          -3.495
REMARK INTER:                  -3.372
REMARK INTRA:                  -0.122
REMARK UNBOUND:                -0.060
REMARK SMILES O=C([O-])CCC(=O)[O-]
REMARK SMILES IDX 4 1 2 2 1 3 3 4 5 5 6 6 7 7 8 8
REMARK H PARENT
REMARK Flexibility Score: inf
ROOT
ATOM      1  C   UNL     1      -3.390  14.011  -5.198  1.00  0.00     0.059 C 
ENDROOT
BRANCH   1   2
ATOM      2  C   UNL     1      -2.519  12.866  -4.789  1.00  0.00     0.042 C 
ATOM      3  O   UNL     1      -3.009  11.715  -4.651  1.00  0.00    -0.550 OA
ATOM      4  O   UNL     1      -1.155  13.059  -4.609  1.00  0.00    -0.550 OA
ENDBRANCH   1   2
BRANCH   1   5
ATOM      5  C   UNL     1      -2.626  14.960  -6.124  1.00  0.00     0.059 C 
BRANCH   5   6
ATOM      6  C   UNL     1      -2.433  16.289  -5.466  1.00  0.00     0.042 C 
ATOM      7  O   UNL     1      -2.982  17.318  -5.942  1.00  0.00    -0.550 OA
ATOM      8  O   UNL     1      -1.687  16.386  -4.298  1.00  0.00    -0.550 OA
ENDBRANCH   5   6
ENDBRANCH   1   5
TORSDOF 3
ENDMDL
MODEL 9
REMARK VINA RESULT:    -2.852      8.725      9.556
REMARK INTER + INTRA:          -3.412
REMARK INTER:                  -3.384
REMARK INTRA:                  -0.028
REMARK UNBOUND:                -0.060
REMARK SMILES O=C([O-])CCC(=O)[O-]
REMARK SMILES IDX 4 1 2 2 1 3 3 4 5 5 6 6 7 7 8 8
REMARK H PARENT
REMARK Flexibility Score: inf
ROOT
ATOM      1  C   UNL     1      -1.323  14.167  -4.631  1.00  0.00     0.059 C 
ENDROOT
BRANCH   1   2
ATOM      2  C   UNL     1      -2.551  13.400  -5.007  1.00  0.00     0.042 C 
ATOM      3  O   UNL     1      -3.464  13.954  -5.674  1.00  0.00    -0.550 OA
ATOM      4  O   UNL     1      -2.665  12.059  -4.663  1.00  0.00    -0.550 OA
ENDBRANCH   1   2
BRANCH   1   5
ATOM      5  C   UNL     1      -1.703  15.495  -3.971  1.00  0.00     0.059 C 
BRANCH   5   6
ATOM      6  C   UNL     1      -0.530  16.070  -3.242  1.00  0.00     0.042 C 
ATOM      7  O   UNL     1       0.307  16.786  -3.853  1.00  0.00    -0.550 OA
ATOM      8  O   UNL     1      -0.388  15.858  -1.876  1.00  0.00    -0.550 OA
ENDBRANCH   5   6
ENDBRANCH   1   5
TORSDOF 3
ENDMDL
