MODEL 1
REMARK VINA RESULT:    -4.854      0.000      0.000
REMARK INTER + INTRA:          -7.894
REMARK INTER:                  -7.407
REMARK INTRA:                  -0.487
REMARK UNBOUND:                -0.487
REMARK SMILES CCCCCCCCCCC(=O)[O-]
REMARK SMILES IDX 7 1 8 2 9 3 10 4 11 5 12 6 13 7 6 8 5 9 4 10 3 11 2 12 1 13
REMARK H PARENT
REMARK Flexibility Score: inf
ROOT
ATOM      1  C   UNL     1      48.702  33.772  16.811  1.00  0.00     0.000 C 
ENDROOT
BRANCH   1   2
ATOM      2  C   UNL     1      48.419  32.566  17.720  1.00  0.00     0.000 C 
BRANCH   2   3
ATOM      3  C   UNL     1      49.027  31.262  17.180  1.00  0.00     0.006 C 
BRANCH   3   4
ATOM      4  C   UNL     1      48.129  30.043  17.430  1.00  0.00     0.053 C 
BRANCH   4   5
ATOM      5  C   UNL     1      47.741  29.406  16.134  1.00  0.00     0.041 C 
ATOM      6  O   UNL     1      46.958  29.998  15.345  1.00  0.00    -0.550 OA
ATOM      7  O   UNL     1      48.282  28.178  15.773  1.00  0.00    -0.550 OA
ENDBRANCH   4   5
ENDBRANCH   3   4
ENDBRANCH   2   3
ENDBRANCH   1   2
BRANCH   1   8
ATOM      8  C   UNL     1      47.643  33.888  15.707  1.00  0.00     0.000 C 
BRANCH   8   9
ATOM      9  C   UNL     1      48.146  33.263  14.397  1.00  0.00    -0.000 C 
BRANCH   9  10
ATOM     10  C   UNL     1      48.431  34.312  13.310  1.00  0.00    -0.000 C 
BRANCH  10  11
ATOM     11  C   UNL     1      47.784  33.955  11.960  1.00  0.00    -0.000 C 
BRANCH  11  12
ATOM     12  C   UNL     1      48.814  33.493  10.918  1.00  0.00    -0.003 C 
ATOM     13  C   UNL     1      50.256  33.758  11.352  1.00  0.00     0.004 C 
ENDBRANCH  11  12
ENDBRANCH  10  11
ENDBRANCH   9  10
ENDBRANCH   8   9
ENDBRANCH   1   8
TORSDOF 9
ENDMDL
MODEL 2
REMARK VINA RESULT:    -4.551      2.926      5.441
REMARK INTER + INTRA:          -7.433
REMARK INTER:                  -6.652
REMARK INTRA:                  -0.781
REMARK UNBOUND:                -0.487
REMARK SMILES CCCCCCCCCCC(=O)[O-]
REMARK SMILES IDX 7 1 8 2 9 3 10 4 11 5 12 6 13 7 6 8 5 9 4 10 3 11 2 12 1 13
REMARK H PARENT
REMARK Flexibility Score: inf
ROOT
ATOM      1  C   UNL     1      48.467  33.821  15.410  1.00  0.00     0.000 C 
ENDROOT
BRANCH   1   2
ATOM      2  C   UNL     1      47.398  34.238  14.389  1.00  0.00     0.000 C 
BRANCH   2   3
ATOM      3  C   UNL     1      47.982  34.494  12.991  1.00  0.00     0.006 C 
BRANCH   3   4
ATOM      4  C   UNL     1      48.628  33.242  12.382  1.00  0.00     0.053 C 
BRANCH   4   5
ATOM      5  C   UNL     1      49.148  33.537  11.011  1.00  0.00     0.041 C 
ATOM      6  O   UNL     1      48.364  33.554  10.025  1.00  0.00    -0.550 OA
ATOM      7  O   UNL     1      50.491  33.844  10.827  1.00  0.00    -0.550 OA
ENDBRANCH   4   5
ENDBRANCH   3   4
ENDBRANCH   2   3
ENDBRANCH   1   2
BRANCH   1   8
ATOM      8  C   UNL     1      47.837  33.529  16.777  1.00  0.00     0.000 C 
BRANCH   8   9
ATOM      9  C   UNL     1      48.786  32.700  17.655  1.00  0.00    -0.000 C 
BRANCH   9  10
ATOM     10  C   UNL     1      48.992  31.272  17.123  1.00  0.00    -0.000 C 
BRANCH  10  11
ATOM     11  C   UNL     1      47.779  30.363  17.387  1.00  0.00    -0.000 C 
BRANCH  11  12
ATOM     12  C   UNL     1      47.283  29.661  16.114  1.00  0.00    -0.003 C 
ATOM     13  C   UNL     1      47.889  30.246  14.839  1.00  0.00     0.004 C 
ENDBRANCH  11  12
ENDBRANCH  10  11
ENDBRANCH   9  10
ENDBRANCH   8   9
ENDBRANCH   1   8
TORSDOF 9
ENDMDL
MODEL 3
REMARK VINA RESULT:    -4.528      5.635      9.030
REMARK INTER + INTRA:          -7.397
REMARK INTER:                  -6.610
REMARK INTRA:                  -0.787
REMARK UNBOUND:                -0.487
REMARK SMILES CCCCCCCCCCC(=O)[O-]
REMARK SMILES IDX 7 1 8 2 9 3 10 4 11 5 12 6 13 7 6 8 5 9 4 10 3 11 2 12 1 13
REMARK H PARENT
REMARK Flexibility Score: inf
ROOT
ATOM      1  C   UNL     1      48.521  25.665  19.460  1.00  0.00     0.000 C 
ENDROOT
BRANCH   1   2
ATOM      2  C   UNL     1      49.693  25.232  18.566  1.00  0.00     0.000 C 
BRANCH   2   3
ATOM      3  C   UNL     1      49.439  25.517  17.078  1.00  0.00     0.006 C 
BRANCH   3   4
ATOM      4  C   UNL     1      48.118  26.261  16.835  1.00  0.00     0.053 C 
BRANCH   4   5
ATOM      5  C   UNL     1      48.377  27.589  16.199  1.00  0.00     0.041 C 
ATOM      6  O   UNL     1      49.385  27.755  15.463  1.00  0.00    -0.550 OA
ATOM      7  O   UNL     1      47.477  28.633  16.379  1.00  0.00    -0.550 OA
ENDBRANCH   4   5
ENDBRANCH   3   4
ENDBRANCH   2   3
ENDBRANCH   1   2
BRANCH   1   8
ATOM      8  C   UNL     1      48.748  25.226  20.912  1.00  0.00     0.000 C 
BRANCH   8   9
ATOM      9  C   UNL     1      48.454  26.378  21.886  1.00  0.00    -0.000 C 
BRANCH   9  10
ATOM     10  C   UNL     1      49.713  26.880  22.610  1.00  0.00    -0.000 C 
BRANCH  10  11
ATOM     11  C   UNL     1      50.882  25.883  22.524  1.00  0.00    -0.000 C 
BRANCH  11  12
ATOM     12  C   UNL     1      52.225  26.575  22.247  1.00  0.00    -0.003 C 
ATOM     13  C   UNL     1      52.520  26.722  20.754  1.00  0.00     0.004 C 
ENDBRANCH  11  12
ENDBRANCH  10  11
ENDBRANCH   9  10
ENDBRANCH   8   9
ENDBRANCH   1   8
TORSDOF 9
ENDMDL
MODEL 4
REMARK VINA RESULT:    -4.515      1.286      2.193
REMARK INTER + INTRA:          -7.378
REMARK INTER:                  -6.680
REMARK INTRA:                  -0.697
REMARK UNBOUND:                -0.487
REMARK SMILES CCCCCCCCCCC(=O)[O-]
REMARK SMILES IDX 7 1 8 2 9 3 10 4 11 5 12 6 13 7 6 8 5 9 4 10 3 11 2 12 1 13
REMARK H PARENT
REMARK Flexibility Score: inf
ROOT
ATOM      1  C   UNL     1      49.370  32.214  17.773  1.00  0.00     0.000 C 
ENDROOT
BRANCH   1   2
ATOM      2  C   UNL     1      48.082  31.434  18.076  1.00  0.00     0.000 C 
BRANCH   2   3
ATOM      3  C   UNL     1      47.778  30.359  17.020  1.00  0.00     0.006 C 
BRANCH   3   4
ATOM      4  C   UNL     1      49.047  29.815  16.350  1.00  0.00     0.053 C 
BRANCH   4   5
ATOM      5  C   UNL     1      49.076  28.321  16.423  1.00  0.00     0.041 C 
ATOM      6  O   UNL     1      48.921  27.632  15.380  1.00  0.00    -0.550 OA
ATOM      7  O   UNL     1      49.323  27.689  17.635  1.00  0.00    -0.550 OA
ENDBRANCH   4   5
ENDBRANCH   3   4
ENDBRANCH   2   3
ENDBRANCH   1   2
BRANCH   1   8
ATOM      8  C   UNL     1      49.054  33.657  17.359  1.00  0.00     0.000 C 
BRANCH   8   9
ATOM      9  C   UNL     1      47.555  33.829  17.067  1.00  0.00    -0.000 C 
BRANCH   9  10
ATOM     10  C   UNL     1      47.274  34.206  15.604  1.00  0.00    -0.000 C 
BRANCH  10  11
ATOM     11  C   UNL     1      48.225  33.505  14.619  1.00  0.00    -0.000 C 
BRANCH  11  12
ATOM     12  C   UNL     1      48.328  34.243  13.275  1.00  0.00    -0.003 C 
ATOM     13  C   UNL     1      48.976  33.395  12.181  1.00  0.00     0.004 C 
ENDBRANCH  11  12
ENDBRANCH  10  11
ENDBRANCH   9  10
ENDBRANCH   8   9
ENDBRANCH   1   8
TORSDOF 9
ENDMDL
MODEL 5
REMARK VINA RESULT:    -4.496      3.313      6.397
REMARK INTER + INTRA:          -7.348
REMARK INTER:                  -6.712
REMARK INTRA:                  -0.636
REMARK UNBOUND:                -0.487
REMARK SMILES CCCCCCCCCCC(=O)[O-]
REMARK SMILES IDX 7 1 8 2 9 3 10 4 11 5 12 6 13 7 6 8 5 9 4 10 3 11 2 12 1 13
REMARK H PARENT
REMARK Flexibility Score: inf
ROOT
ATOM      1  C   UNL     1      47.753  30.323  17.033  1.00  0.00     0.000 C 
ENDROOT
BRANCH   1   2
ATOM      2  C   UNL     1      48.108  31.404  18.065  1.00  0.00     0.000 C 
BRANCH   2   3
ATOM      3  C   UNL     1      49.181  32.379  17.555  1.00  0.00     0.006 C 
BRANCH   3   4
ATOM      4  C   UNL     1      48.667  33.821  17.449  1.00  0.00     0.053 C 
BRANCH   4   5
ATOM      5  C   UNL     1      47.720  33.955  16.300  1.00  0.00     0.041 C 
ATOM      6  O   UNL     1      46.579  34.460  16.474  1.00  0.00    -0.550 OA
ATOM      7  O   UNL     1      48.114  33.568  15.025  1.00  0.00    -0.550 OA
ENDBRANCH   4   5
ENDBRANCH   3   4
ENDBRANCH   2   3
ENDBRANCH   1   2
BRANCH   1   8
ATOM      8  C   UNL     1      48.843  30.208  15.960  1.00  0.00     0.000 C 
BRANCH   8   9
ATOM      9  C   UNL     1      49.507  28.823  15.996  1.00  0.00    -0.000 C 
BRANCH   9  10
ATOM     10  C   UNL     1      48.607  27.749  16.627  1.00  0.00    -0.000 C 
BRANCH  10  11
ATOM     11  C   UNL     1      49.401  26.722  17.453  1.00  0.00    -0.000 C 
BRANCH  11  12
ATOM     12  C   UNL     1      48.496  25.667  18.106  1.00  0.00    -0.003 C 
ATOM     13  C   UNL     1      48.767  25.496  19.601  1.00  0.00     0.004 C 
ENDBRANCH  11  12
ENDBRANCH  10  11
ENDBRANCH   9  10
ENDBRANCH   8   9
ENDBRANCH   1   8
TORSDOF 9
ENDMDL
MODEL 6
REMARK VINA RESULT:    -4.434      3.146      6.709
REMARK INTER + INTRA:          -7.254
REMARK INTER:                  -6.556
REMARK INTRA:                  -0.698
REMARK UNBOUND:                -0.487
REMARK SMILES CCCCCCCCCCC(=O)[O-]
REMARK SMILES IDX 7 1 8 2 9 3 10 4 11 5 12 6 13 7 6 8 5 9 4 10 3 11 2 12 1 13
REMARK H PARENT
REMARK Flexibility Score: inf
ROOT
ATOM      1  C   UNL     1      47.362  29.304  16.246  1.00  0.00     0.000 C 
ENDROOT
BRANCH   1   2
ATOM      2  C   UNL     1      47.635  30.089  14.953  1.00  0.00     0.000 C 
BRANCH   2   3
ATOM      3  C   UNL     1      48.560  31.296  15.177  1.00  0.00     0.006 C 
BRANCH   3   4
ATOM      4  C   UNL     1      47.863  32.445  15.919  1.00  0.00     0.053 C 
BRANCH   4   5
ATOM      5  C   UNL     1      48.748  32.980  17.000  1.00  0.00     0.041 C 
ATOM      6  O   UNL     1      48.637  34.177  17.375  1.00  0.00    -0.550 OA
ATOM      7  O   UNL     1      49.661  32.144  17.629  1.00  0.00    -0.550 OA
ENDBRANCH   4   5
ENDBRANCH   3   4
ENDBRANCH   2   3
ENDBRANCH   1   2
BRANCH   1   8
ATOM      8  C   UNL     1      48.675  28.880  16.917  1.00  0.00     0.000 C 
BRANCH   8   9
ATOM      9  C   UNL     1      49.405  27.822  16.077  1.00  0.00    -0.000 C 
BRANCH   9  10
ATOM     10  C   UNL     1      48.580  26.539  15.890  1.00  0.00    -0.000 C 
BRANCH  10  11
ATOM     11  C   UNL     1      48.112  25.937  17.226  1.00  0.00    -0.000 C 
BRANCH  11  12
ATOM     12  C   UNL     1      49.280  25.424  18.082  1.00  0.00    -0.003 C 
ATOM     13  C   UNL     1      48.964  25.423  19.577  1.00  0.00     0.004 C 
ENDBRANCH  11  12
ENDBRANCH  10  11
ENDBRANCH   9  10
ENDBRANCH   8   9
ENDBRANCH   1   8
TORSDOF 9
ENDMDL
MODEL 7
REMARK VINA RESULT:    -4.314      4.638      8.793
REMARK INTER + INTRA:          -7.070
REMARK INTER:                  -6.464
REMARK INTRA:                  -0.606
REMARK UNBOUND:                -0.487
REMARK SMILES CCCCCCCCCCC(=O)[O-]
REMARK SMILES IDX 7 1 8 2 9 3 10 4 11 5 12 6 13 7 6 8 5 9 4 10 3 11 2 12 1 13
REMARK H PARENT
REMARK Flexibility Score: inf
ROOT
ATOM      1  C   UNL     1      49.732  25.337  17.402  1.00  0.00     0.000 C 
ENDROOT
BRANCH   1   2
ATOM      2  C   UNL     1      48.452  26.082  16.996  1.00  0.00     0.000 C 
BRANCH   2   3
ATOM      3  C   UNL     1      48.727  27.256  16.044  1.00  0.00     0.006 C 
BRANCH   3   4
ATOM      4  C   UNL     1      47.805  28.456  16.303  1.00  0.00     0.053 C 
BRANCH   4   5
ATOM      5  C   UNL     1      48.533  29.518  17.064  1.00  0.00     0.041 C 
ATOM      6  O   UNL     1      49.770  29.683  16.898  1.00  0.00    -0.550 OA
ATOM      7  O   UNL     1      47.836  30.361  17.922  1.00  0.00    -0.550 OA
ENDBRANCH   4   5
ENDBRANCH   3   4
ENDBRANCH   2   3
ENDBRANCH   1   2
BRANCH   1   8
ATOM      8  C   UNL     1      49.845  25.232  18.928  1.00  0.00     0.000 C 
BRANCH   8   9
ATOM      9  C   UNL     1      48.515  25.598  19.604  1.00  0.00    -0.000 C 
BRANCH   9  10
ATOM     10  C   UNL     1      48.493  25.248  21.100  1.00  0.00    -0.000 C 
BRANCH  10  11
ATOM     11  C   UNL     1      49.902  25.201  21.718  1.00  0.00    -0.000 C 
BRANCH  11  12
ATOM     12  C   UNL     1      50.274  26.509  22.432  1.00  0.00    -0.003 C 
ATOM     13  C   UNL     1      51.747  26.882  22.259  1.00  0.00     0.004 C 
ENDBRANCH  11  12
ENDBRANCH  10  11
ENDBRANCH   9  10
ENDBRANCH   8   9
ENDBRANCH   1   8
TORSDOF 9
ENDMDL
MODEL 8
REMARK VINA RESULT:    -4.303      3.943      8.184
REMARK INTER + INTRA:          -7.053
REMARK INTER:                  -6.570
REMARK INTRA:                  -0.484
REMARK UNBOUND:                -0.487
REMARK SMILES CCCCCCCCCCC(=O)[O-]
REMARK SMILES IDX 7 1 8 2 9 3 10 4 11 5 12 6 13 7 6 8 5 9 4 10 3 11 2 12 1 13
REMARK H PARENT
REMARK Flexibility Score: inf
ROOT
ATOM      1  C   UNL     1      48.210  26.430  16.726  1.00  0.00     0.000 C 
ENDROOT
BRANCH   1   2
ATOM      2  C   UNL     1      48.486  27.747  15.985  1.00  0.00     0.000 C 
BRANCH   2   3
ATOM      3  C   UNL     1      48.714  28.928  16.941  1.00  0.00     0.006 C 
BRANCH   3   4
ATOM      4  C   UNL     1      47.663  30.034  16.775  1.00  0.00     0.053 C 
BRANCH   4   5
ATOM      5  C   UNL     1      48.248  31.205  16.052  1.00  0.00     0.041 C 
ATOM      6  O   UNL     1      48.495  32.274  16.670  1.00  0.00    -0.550 OA
ATOM      7  O   UNL     1      48.567  31.101  14.704  1.00  0.00    -0.550 OA
ENDBRANCH   4   5
ENDBRANCH   3   4
ENDBRANCH   2   3
ENDBRANCH   1   2
BRANCH   1   8
ATOM      8  C   UNL     1      49.489  25.593  16.854  1.00  0.00     0.000 C 
BRANCH   8   9
ATOM      9  C   UNL     1      49.756  25.217  18.320  1.00  0.00    -0.000 C 
BRANCH   9  10
ATOM     10  C   UNL     1      48.553  25.497  19.234  1.00  0.00    -0.000 C 
BRANCH  10  11
ATOM     11  C   UNL     1      48.879  25.281  20.722  1.00  0.00    -0.000 C 
BRANCH  11  12
ATOM     12  C   UNL     1      48.317  26.398  21.615  1.00  0.00    -0.003 C 
ATOM     13  C   UNL     1      49.343  26.931  22.615  1.00  0.00     0.004 C 
ENDBRANCH  11  12
ENDBRANCH  10  11
ENDBRANCH   9  10
ENDBRANCH   8   9
ENDBRANCH   1   8
TORSDOF 9
ENDMDL
MODEL 9
REMARK VINA RESULT:    -4.302      8.626     10.323
REMARK INTER + INTRA:          -7.052
REMARK INTER:                  -5.750
REMARK INTRA:                  -1.302
REMARK UNBOUND:                -0.487
REMARK SMILES CCCCCCCCCCC(=O)[O-]
REMARK SMILES IDX 7 1 8 2 9 3 10 4 11 5 12 6 13 7 6 8 5 9 4 10 3 11 2 12 1 13
REMARK H PARENT
REMARK Flexibility Score: inf
ROOT
ATOM      1  C   UNL     1      39.589  35.273  11.722  1.00  0.00     0.000 C 
ENDROOT
BRANCH   1   2
ATOM      2  C   UNL     1      38.771  36.531  11.393  1.00  0.00     0.000 C 
BRANCH   2   3
ATOM      3  C   UNL     1      38.959  37.648  12.432  1.00  0.00     0.006 C 
BRANCH   3   4
ATOM      4  C   UNL     1      39.452  37.119  13.786  1.00  0.00     0.053 C 
BRANCH   4   5
ATOM      5  C   UNL     1      40.158  38.199  14.542  1.00  0.00     0.041 C 
ATOM      6  O   UNL     1      40.876  37.912  15.536  1.00  0.00    -0.550 OA
ATOM      7  O   UNL     1      40.064  39.519  14.120  1.00  0.00    -0.550 OA
ENDBRANCH   4   5
ENDBRANCH   3   4
ENDBRANCH   2   3
ENDBRANCH   1   2
BRANCH   1   8
ATOM      8  C   UNL     1      40.542  34.922  10.572  1.00  0.00     0.000 C 
BRANCH   8   9
ATOM      9  C   UNL     1      41.656  35.972  10.442  1.00  0.00    -0.000 C 
BRANCH   9  10
ATOM     10  C   UNL     1      42.530  36.071  11.702  1.00  0.00    -0.000 C 
BRANCH  10  11
ATOM     11  C   UNL     1      42.864  37.525  12.078  1.00  0.00    -0.000 C 
BRANCH  11  12
ATOM     12  C   UNL     1      42.751  38.482  10.881  1.00  0.00    -0.003 C 
ATOM     13  C   UNL     1      42.027  39.783  11.228  1.00  0.00     0.004 C 
ENDBRANCH  11  12
ENDBRANCH  10  11
ENDBRANCH   9  10
ENDBRANCH   8   9
ENDBRANCH   1   8
TORSDOF 9
ENDMDL
