MODEL 1
REMARK VINA RESULT:    -5.573      0.000      0.000
REMARK INTER + INTRA:         -13.413
REMARK INTER:                 -10.786
REMARK INTRA:                  -2.627
REMARK UNBOUND:                -2.627
REMARK SMILES CCCCCCCCCCCCCCCCCC(=O)[O-]
REMARK SMILES IDX 10 1 11 2 12 3 13 4 14 5 15 6 16 7 17 8 18 9 19 10 20 11
REMARK SMILES IDX 9 12 8 13 7 14 6 15 5 16 4 17 3 18 2 19 1 20
REMARK H PARENT
REMARK Flexibility Score: inf
ROOT
ATOM      1  C   UNL     1      10.015   6.066 -12.119  1.00  0.00     0.000 C 
ENDROOT
BRANCH   1   2
ATOM      2  C   UNL     1      10.019   5.918 -10.587  1.00  0.00     0.000 C 
BRANCH   2   3
ATOM      3  C   UNL     1      11.121   6.757  -9.919  1.00  0.00     0.000 C 
BRANCH   3   4
ATOM      4  C   UNL     1      12.335   5.914  -9.503  1.00  0.00     0.000 C 
BRANCH   4   5
ATOM      5  C   UNL     1      13.627   6.482 -10.101  1.00  0.00     0.000 C 
BRANCH   5   6
ATOM      6  C   UNL     1      13.629   6.356 -11.632  1.00  0.00     0.000 C 
BRANCH   6   7
ATOM      7  C   UNL     1      14.459   7.453 -12.317  1.00  0.00     0.006 C 
BRANCH   7   8
ATOM      8  C   UNL     1      14.474   8.766 -11.523  1.00  0.00     0.053 C 
BRANCH   8   9
ATOM      9  C   UNL     1      13.996   9.898 -12.376  1.00  0.00     0.041 C 
ATOM     10  O   UNL     1      14.395  10.007 -13.566  1.00  0.00    -0.550 OA
ATOM     11  O   UNL     1      13.144  10.858 -11.845  1.00  0.00    -0.550 OA
ENDBRANCH   8   9
ENDBRANCH   7   8
ENDBRANCH   6   7
ENDBRANCH   5   6
ENDBRANCH   4   5
ENDBRANCH   3   4
ENDBRANCH   2   3
ENDBRANCH   1   2
BRANCH   1  12
ATOM     12  C   UNL     1      10.102   7.533 -12.578  1.00  0.00     0.000 C 
BRANCH  12  13
ATOM     13  C   UNL     1      11.035   7.791 -13.778  1.00  0.00    -0.000 C 
BRANCH  13  14
ATOM     14  C   UNL     1      11.301   6.570 -14.676  1.00  0.00    -0.000 C 
BRANCH  14  15
ATOM     15  C   UNL     1      12.475   6.786 -15.644  1.00  0.00    -0.000 C 
BRANCH  15  16
ATOM     16  C   UNL     1      12.633   8.274 -15.991  1.00  0.00    -0.000 C 
BRANCH  16  17
ATOM     17  C   UNL     1      12.025   8.630 -17.356  1.00  0.00    -0.000 C 
BRANCH  17  18
ATOM     18  C   UNL     1      10.637   9.284 -17.233  1.00  0.00    -0.000 C 
BRANCH  18  19
ATOM     19  C   UNL     1       9.493   8.281 -17.451  1.00  0.00    -0.003 C 
ATOM     20  C   UNL     1       8.375   8.430 -16.420  1.00  0.00     0.004 C 
ENDBRANCH  18  19
ENDBRANCH  17  18
ENDBRANCH  16  17
ENDBRANCH  15  16
ENDBRANCH  14  15
ENDBRANCH  13  14
ENDBRANCH  12  13
ENDBRANCH   1  12
TORSDOF 16
ENDMDL
MODEL 2
REMARK VINA RESULT:    -5.548      2.225      5.107
REMARK INTER + INTRA:         -13.363
REMARK INTER:                 -10.362
REMARK INTRA:                  -3.001
REMARK UNBOUND:                -2.627
REMARK SMILES CCCCCCCCCCCCCCCCCC(=O)[O-]
REMARK SMILES IDX 10 1 11 2 12 3 13 4 14 5 15 6 16 7 17 8 18 9 19 10 20 11
REMARK SMILES IDX 9 12 8 13 7 14 6 15 5 16 4 17 3 18 2 19 1 20
REMARK H PARENT
REMARK Flexibility Score: inf
ROOT
ATOM      1  C   UNL     1       9.485   6.431 -11.413  1.00  0.00     0.000 C 
ENDROOT
BRANCH   1   2
ATOM      2  C   UNL     1      10.023   6.158 -12.828  1.00  0.00     0.000 C 
BRANCH   2   3
ATOM      3  C   UNL     1      10.638   4.755 -12.962  1.00  0.00     0.000 C 
BRANCH   3   4
ATOM      4  C   UNL     1      11.562   4.629 -14.183  1.00  0.00     0.000 C 
BRANCH   4   5
ATOM      5  C   UNL     1      11.141   5.601 -15.291  1.00  0.00     0.000 C 
BRANCH   5   6
ATOM      6  C   UNL     1      12.367   6.257 -15.944  1.00  0.00     0.000 C 
BRANCH   6   7
ATOM      7  C   UNL     1      12.248   7.787 -16.027  1.00  0.00     0.006 C 
BRANCH   7   8
ATOM      8  C   UNL     1      10.818   8.283 -15.772  1.00  0.00     0.053 C 
BRANCH   8   9
ATOM      9  C   UNL     1      10.206   8.788 -17.041  1.00  0.00     0.041 C 
ATOM     10  O   UNL     1      10.915   9.392 -17.890  1.00  0.00    -0.550 OA
ATOM     11  O   UNL     1       8.845   8.629 -17.269  1.00  0.00    -0.550 OA
ENDBRANCH   8   9
ENDBRANCH   7   8
ENDBRANCH   6   7
ENDBRANCH   5   6
ENDBRANCH   4   5
ENDBRANCH   3   4
ENDBRANCH   2   3
ENDBRANCH   1   2
BRANCH   1  12
ATOM     12  C   UNL     1      10.328   5.760 -10.313  1.00  0.00     0.000 C 
BRANCH  12  13
ATOM     13  C   UNL     1      11.329   6.687  -9.594  1.00  0.00    -0.000 C 
BRANCH  13  14
ATOM     14  C   UNL     1      12.731   6.092  -9.374  1.00  0.00    -0.000 C 
BRANCH  14  15
ATOM     15  C   UNL     1      13.806   6.760 -10.245  1.00  0.00    -0.000 C 
BRANCH  15  16
ATOM     16  C   UNL     1      13.694   6.299 -11.706  1.00  0.00    -0.000 C 
BRANCH  16  17
ATOM     17  C   UNL     1      13.775   7.466 -12.701  1.00  0.00    -0.000 C 
BRANCH  17  18
ATOM     18  C   UNL     1      12.708   8.545 -12.437  1.00  0.00    -0.000 C 
BRANCH  18  19
ATOM     19  C   UNL     1      13.201   9.958 -12.783  1.00  0.00    -0.003 C 
ATOM     20  C   UNL     1      14.508   9.947 -13.575  1.00  0.00     0.004 C 
ENDBRANCH  18  19
ENDBRANCH  17  18
ENDBRANCH  16  17
ENDBRANCH  15  16
ENDBRANCH  14  15
ENDBRANCH  13  14
ENDBRANCH  12  13
ENDBRANCH   1  12
TORSDOF 16
ENDMDL
MODEL 3
REMARK VINA RESULT:    -5.526      2.430      5.748
REMARK INTER + INTRA:         -13.321
REMARK INTER:                 -10.687
REMARK INTRA:                  -2.634
REMARK UNBOUND:                -2.627
REMARK SMILES CCCCCCCCCCCCCCCCCC(=O)[O-]
REMARK SMILES IDX 10 1 11 2 12 3 13 4 14 5 15 6 16 7 17 8 18 9 19 10 20 11
REMARK SMILES IDX 9 12 8 13 7 14 6 15 5 16 4 17 3 18 2 19 1 20
REMARK H PARENT
REMARK Flexibility Score: inf
ROOT
ATOM      1  C   UNL     1      14.102   7.406 -11.973  1.00  0.00     0.000 C 
ENDROOT
BRANCH   1   2
ATOM      2  C   UNL     1      13.504   8.746 -12.436  1.00  0.00     0.000 C 
BRANCH   2   3
ATOM      3  C   UNL     1      12.867   8.654 -13.832  1.00  0.00     0.000 C 
BRANCH   3   4
ATOM      4  C   UNL     1      13.893   8.331 -14.929  1.00  0.00     0.000 C 
BRANCH   4   5
ATOM      5  C   UNL     1      13.209   8.193 -16.294  1.00  0.00     0.000 C 
BRANCH   5   6
ATOM      6  C   UNL     1      11.695   7.986 -16.135  1.00  0.00     0.000 C 
BRANCH   6   7
ATOM      7  C   UNL     1      10.872   8.896 -17.060  1.00  0.00     0.006 C 
BRANCH   7   8
ATOM      8  C   UNL     1       9.511   8.290 -17.427  1.00  0.00     0.053 C 
BRANCH   8   9
ATOM      9  C   UNL     1       8.697   8.048 -16.195  1.00  0.00     0.041 C 
ATOM     10  O   UNL     1       8.239   9.019 -15.537  1.00  0.00    -0.550 OA
ATOM     11  O   UNL     1       8.479   6.750 -15.749  1.00  0.00    -0.550 OA
ENDBRANCH   8   9
ENDBRANCH   7   8
ENDBRANCH   6   7
ENDBRANCH   5   6
ENDBRANCH   4   5
ENDBRANCH   3   4
ENDBRANCH   2   3
ENDBRANCH   1   2
BRANCH   1  12
ATOM     12  C   UNL     1      13.900   7.149 -10.469  1.00  0.00     0.000 C 
BRANCH  12  13
ATOM     13  C   UNL     1      12.929   6.002 -10.123  1.00  0.00    -0.000 C 
BRANCH  13  14
ATOM     14  C   UNL     1      11.539   6.445  -9.632  1.00  0.00    -0.000 C 
BRANCH  14  15
ATOM     15  C   UNL     1      10.397   5.900 -10.503  1.00  0.00    -0.000 C 
BRANCH  15  16
ATOM     16  C   UNL     1       9.992   6.920 -11.578  1.00  0.00    -0.000 C 
BRANCH  16  17
ATOM     17  C   UNL     1      10.285   6.424 -13.003  1.00  0.00    -0.000 C 
BRANCH  17  18
ATOM     18  C   UNL     1      10.820   4.980 -13.028  1.00  0.00    -0.000 C 
BRANCH  18  19
ATOM     19  C   UNL     1      12.206   4.879 -13.683  1.00  0.00    -0.003 C 
ATOM     20  C   UNL     1      12.129   4.594 -15.183  1.00  0.00     0.004 C 
ENDBRANCH  18  19
ENDBRANCH  17  18
ENDBRANCH  16  17
ENDBRANCH  15  16
ENDBRANCH  14  15
ENDBRANCH  13  14
ENDBRANCH  12  13
ENDBRANCH   1  12
TORSDOF 16
ENDMDL
MODEL 4
REMARK VINA RESULT:    -5.518      2.268      4.590
REMARK INTER + INTRA:         -13.305
REMARK INTER:                 -10.678
REMARK INTRA:                  -2.628
REMARK UNBOUND:                -2.627
REMARK SMILES CCCCCCCCCCCCCCCCCC(=O)[O-]
REMARK SMILES IDX 10 1 11 2 12 3 13 4 14 5 15 6 16 7 17 8 18 9 19 10 20 11
REMARK SMILES IDX 9 12 8 13 7 14 6 15 5 16 4 17 3 18 2 19 1 20
REMARK H PARENT
REMARK Flexibility Score: inf
ROOT
ATOM      1  C   UNL     1      11.230   5.268 -15.268  1.00  0.00     0.000 C 
ENDROOT
BRANCH   1   2
ATOM      2  C   UNL     1      11.050   4.533 -13.928  1.00  0.00     0.000 C 
BRANCH   2   3
ATOM      3  C   UNL     1      11.765   5.244 -12.767  1.00  0.00     0.000 C 
BRANCH   3   4
ATOM      4  C   UNL     1      11.111   6.585 -12.404  1.00  0.00     0.000 C 
BRANCH   4   5
ATOM      5  C   UNL     1      10.133   6.419 -11.235  1.00  0.00     0.000 C 
BRANCH   5   6
ATOM      6  C   UNL     1       8.735   6.025 -11.738  1.00  0.00     0.000 C 
BRANCH   6   7
ATOM      7  C   UNL     1       8.216   6.962 -12.840  1.00  0.00     0.006 C 
BRANCH   7   8
ATOM      8  C   UNL     1       7.641   8.270 -12.281  1.00  0.00     0.053 C 
BRANCH   8   9
ATOM      9  C   UNL     1       8.246   9.447 -12.979  1.00  0.00     0.041 C 
ATOM     10  O   UNL     1       7.571  10.103 -13.817  1.00  0.00    -0.550 OA
ATOM     11  O   UNL     1       9.568   9.797 -12.737  1.00  0.00    -0.550 OA
ENDBRANCH   8   9
ENDBRANCH   7   8
ENDBRANCH   6   7
ENDBRANCH   5   6
ENDBRANCH   4   5
ENDBRANCH   3   4
ENDBRANCH   2   3
ENDBRANCH   1   2
BRANCH   1  12
ATOM     12  C   UNL     1       9.900   5.768 -15.860  1.00  0.00     0.000 C 
BRANCH  12  13
ATOM     13  C   UNL     1       9.876   7.258 -16.257  1.00  0.00    -0.000 C 
BRANCH  13  14
ATOM     14  C   UNL     1      11.025   8.107 -15.687  1.00  0.00    -0.000 C 
BRANCH  14  15
ATOM     15  C   UNL     1      12.071   8.486 -16.747  1.00  0.00    -0.000 C 
BRANCH  15  16
ATOM     16  C   UNL     1      13.482   8.079 -16.296  1.00  0.00    -0.000 C 
BRANCH  16  17
ATOM     17  C   UNL     1      13.616   8.009 -14.767  1.00  0.00    -0.000 C 
BRANCH  17  18
ATOM     18  C   UNL     1      14.777   8.870 -14.235  1.00  0.00    -0.000 C 
BRANCH  18  19
ATOM     19  C   UNL     1      14.294  10.010 -13.325  1.00  0.00    -0.003 C 
ATOM     20  C   UNL     1      13.455   9.509 -12.149  1.00  0.00     0.004 C 
ENDBRANCH  18  19
ENDBRANCH  17  18
ENDBRANCH  16  17
ENDBRANCH  15  16
ENDBRANCH  14  15
ENDBRANCH  13  14
ENDBRANCH  12  13
ENDBRANCH   1  12
TORSDOF 16
ENDMDL
MODEL 5
REMARK VINA RESULT:    -5.492      1.464      3.246
REMARK INTER + INTRA:         -13.255
REMARK INTER:                 -10.657
REMARK INTRA:                  -2.597
REMARK UNBOUND:                -2.627
REMARK SMILES CCCCCCCCCCCCCCCCCC(=O)[O-]
REMARK SMILES IDX 10 1 11 2 12 3 13 4 14 5 15 6 16 7 17 8 18 9 19 10 20 11
REMARK SMILES IDX 9 12 8 13 7 14 6 15 5 16 4 17 3 18 2 19 1 20
REMARK H PARENT
REMARK Flexibility Score: inf
ROOT
ATOM      1  C   UNL     1       8.664   8.785 -13.874  1.00  0.00     0.000 C 
ENDROOT
BRANCH   1   2
ATOM      2  C   UNL     1       9.367   7.975 -12.771  1.00  0.00     0.000 C 
BRANCH   2   3
ATOM      3  C   UNL     1       8.528   6.777 -12.297  1.00  0.00     0.000 C 
BRANCH   3   4
ATOM      4  C   UNL     1       9.296   5.864 -11.330  1.00  0.00     0.000 C 
BRANCH   4   5
ATOM      5  C   UNL     1      10.786   6.221 -11.306  1.00  0.00     0.000 C 
BRANCH   5   6
ATOM      6  C   UNL     1      11.315   6.290  -9.865  1.00  0.00     0.000 C 
BRANCH   6   7
ATOM      7  C   UNL     1      12.850   6.327  -9.797  1.00  0.00     0.006 C 
BRANCH   7   8
ATOM      8  C   UNL     1      13.498   6.497 -11.178  1.00  0.00     0.053 C 
BRANCH   8   9
ATOM      9  C   UNL     1      14.485   7.620 -11.157  1.00  0.00     0.041 C 
ATOM     10  O   UNL     1      14.577   8.402 -12.140  1.00  0.00    -0.550 OA
ATOM     11  O   UNL     1      15.334   7.781 -10.069  1.00  0.00    -0.550 OA
ENDBRANCH   8   9
ENDBRANCH   7   8
ENDBRANCH   6   7
ENDBRANCH   5   6
ENDBRANCH   4   5
ENDBRANCH   3   4
ENDBRANCH   2   3
ENDBRANCH   1   2
BRANCH   1  12
ATOM     12  C   UNL     1       8.223   7.916 -15.065  1.00  0.00     0.000 C 
BRANCH  12  13
ATOM     13  C   UNL     1       8.334   8.589 -16.448  1.00  0.00    -0.000 C 
BRANCH  13  14
ATOM     14  C   UNL     1       9.615   8.261 -17.235  1.00  0.00    -0.000 C 
BRANCH  14  15
ATOM     15  C   UNL     1      10.804   9.148 -16.836  1.00  0.00    -0.000 C 
BRANCH  15  16
ATOM     16  C   UNL     1      12.126   8.370 -16.932  1.00  0.00    -0.000 C 
BRANCH  16  17
ATOM     17  C   UNL     1      12.894   8.343 -15.602  1.00  0.00    -0.000 C 
BRANCH  17  18
ATOM     18  C   UNL     1      12.307   7.330 -14.601  1.00  0.00    -0.000 C 
BRANCH  18  19
ATOM     19  C   UNL     1      12.190   5.918 -15.194  1.00  0.00    -0.003 C 
ATOM     20  C   UNL     1      10.774   5.350 -15.087  1.00  0.00     0.004 C 
ENDBRANCH  18  19
ENDBRANCH  17  18
ENDBRANCH  16  17
ENDBRANCH  15  16
ENDBRANCH  14  15
ENDBRANCH  13  14
ENDBRANCH  12  13
ENDBRANCH   1  12
TORSDOF 16
ENDMDL
MODEL 6
REMARK VINA RESULT:    -5.488      2.075      5.889
REMARK INTER + INTRA:         -13.249
REMARK INTER:                 -10.522
REMARK INTRA:                  -2.727
REMARK UNBOUND:                -2.627
REMARK SMILES CCCCCCCCCCCCCCCCCC(=O)[O-]
REMARK SMILES IDX 10 1 11 2 12 3 13 4 14 5 15 6 16 7 17 8 18 9 19 10 20 11
REMARK SMILES IDX 9 12 8 13 7 14 6 15 5 16 4 17 3 18 2 19 1 20
REMARK H PARENT
REMARK Flexibility Score: inf
ROOT
ATOM      1  C   UNL     1      14.122   8.588 -14.819  1.00  0.00     0.000 C 
ENDROOT
BRANCH   1   2
ATOM      2  C   UNL     1      13.329   8.126 -16.053  1.00  0.00     0.000 C 
BRANCH   2   3
ATOM      3  C   UNL     1      11.809   8.260 -15.859  1.00  0.00     0.000 C 
BRANCH   3   4
ATOM      4  C   UNL     1      11.090   8.727 -17.133  1.00  0.00     0.000 C 
BRANCH   4   5
ATOM      5  C   UNL     1       9.592   8.409 -17.064  1.00  0.00     0.000 C 
BRANCH   5   6
ATOM      6  C   UNL     1       9.320   7.240 -16.106  1.00  0.00     0.000 C 
BRANCH   6   7
ATOM      7  C   UNL     1       8.187   7.539 -15.111  1.00  0.00     0.006 C 
BRANCH   7   8
ATOM      8  C   UNL     1       8.122   9.021 -14.718  1.00  0.00     0.053 C 
BRANCH   8   9
ATOM      9  C   UNL     1       8.399   9.187 -13.258  1.00  0.00     0.041 C 
ATOM     10  O   UNL     1       9.416   9.824 -12.874  1.00  0.00    -0.550 OA
ATOM     11  O   UNL     1       7.558   8.603 -12.319  1.00  0.00    -0.550 OA
ENDBRANCH   8   9
ENDBRANCH   7   8
ENDBRANCH   6   7
ENDBRANCH   5   6
ENDBRANCH   4   5
ENDBRANCH   3   4
ENDBRANCH   2   3
ENDBRANCH   1   2
BRANCH   1  12
ATOM     12  C   UNL     1      13.216   9.018 -13.652  1.00  0.00     0.000 C 
BRANCH  12  13
ATOM     13  C   UNL     1      13.627   8.480 -12.266  1.00  0.00    -0.000 C 
BRANCH  13  14
ATOM     14  C   UNL     1      14.322   7.107 -12.277  1.00  0.00    -0.000 C 
BRANCH  14  15
ATOM     15  C   UNL     1      13.354   5.946 -12.002  1.00  0.00    -0.000 C 
BRANCH  15  16
ATOM     16  C   UNL     1      12.934   5.260 -13.311  1.00  0.00    -0.000 C 
BRANCH  16  17
ATOM     17  C   UNL     1      11.426   5.374 -13.580  1.00  0.00    -0.000 C 
BRANCH  17  18
ATOM     18  C   UNL     1      10.738   6.408 -12.670  1.00  0.00    -0.000 C 
BRANCH  18  19
ATOM     19  C   UNL     1       9.820   5.755 -11.626  1.00  0.00    -0.003 C 
ATOM     20  C   UNL     1      10.259   6.046 -10.191  1.00  0.00     0.004 C 
ENDBRANCH  18  19
ENDBRANCH  17  18
ENDBRANCH  16  17
ENDBRANCH  15  16
ENDBRANCH  14  15
ENDBRANCH  13  14
ENDBRANCH  12  13
ENDBRANCH   1  12
TORSDOF 16
ENDMDL
MODEL 7
REMARK VINA RESULT:    -5.462      1.646      5.027
REMARK INTER + INTRA:         -13.198
REMARK INTER:                 -10.243
REMARK INTRA:                  -2.955
REMARK UNBOUND:                -2.627
REMARK SMILES CCCCCCCCCCCCCCCCCC(=O)[O-]
REMARK SMILES IDX 10 1 11 2 12 3 13 4 14 5 15 6 16 7 17 8 18 9 19 10 20 11
REMARK SMILES IDX 9 12 8 13 7 14 6 15 5 16 4 17 3 18 2 19 1 20
REMARK H PARENT
REMARK Flexibility Score: inf
ROOT
ATOM      1  C   UNL     1      10.899   4.545 -13.206  1.00  0.00     0.000 C 
ENDROOT
BRANCH   1   2
ATOM      2  C   UNL     1      11.734   4.602 -14.497  1.00  0.00     0.000 C 
BRANCH   2   3
ATOM      3  C   UNL     1      11.311   5.758 -15.419  1.00  0.00     0.000 C 
BRANCH   3   4
ATOM      4  C   UNL     1      12.482   6.684 -15.780  1.00  0.00     0.000 C 
BRANCH   4   5
ATOM      5  C   UNL     1      11.996   8.122 -15.994  1.00  0.00     0.000 C 
BRANCH   5   6
ATOM      6  C   UNL     1      10.470   8.218 -15.841  1.00  0.00     0.000 C 
BRANCH   6   7
ATOM      7  C   UNL     1      10.044   9.261 -14.795  1.00  0.00     0.006 C 
BRANCH   7   8
ATOM      8  C   UNL     1      10.963   9.276 -13.567  1.00  0.00     0.053 C 
BRANCH   8   9
ATOM      9  C   UNL     1      10.698  10.488 -12.731  1.00  0.00     0.041 C 
ATOM     10  O   UNL     1       9.632  11.142 -12.883  1.00  0.00    -0.550 OA
ATOM     11  O   UNL     1      11.645  10.920 -11.811  1.00  0.00    -0.550 OA
ENDBRANCH   8   9
ENDBRANCH   7   8
ENDBRANCH   6   7
ENDBRANCH   5   6
ENDBRANCH   4   5
ENDBRANCH   3   4
ENDBRANCH   2   3
ENDBRANCH   1   2
BRANCH   1  12
ATOM     12  C   UNL     1      10.062   5.816 -12.979  1.00  0.00     0.000 C 
BRANCH  12  13
ATOM     13  C   UNL     1       9.730   6.131 -11.506  1.00  0.00    -0.000 C 
BRANCH  13  14
ATOM     14  C   UNL     1      10.916   6.028 -10.531  1.00  0.00    -0.000 C 
BRANCH  14  15
ATOM     15  C   UNL     1      11.893   7.207 -10.653  1.00  0.00    -0.000 C 
BRANCH  15  16
ATOM     16  C   UNL     1      13.333   6.708 -10.848  1.00  0.00    -0.000 C 
BRANCH  16  17
ATOM     17  C   UNL     1      13.785   6.769 -12.315  1.00  0.00    -0.000 C 
BRANCH  17  18
ATOM     18  C   UNL     1      15.091   7.564 -12.500  1.00  0.00    -0.000 C 
BRANCH  18  19
ATOM     19  C   UNL     1      15.088   8.410 -13.783  1.00  0.00    -0.003 C 
ATOM     20  C   UNL     1      14.517   9.811 -13.563  1.00  0.00     0.004 C 
ENDBRANCH  18  19
ENDBRANCH  17  18
ENDBRANCH  16  17
ENDBRANCH  15  16
ENDBRANCH  14  15
ENDBRANCH  13  14
ENDBRANCH  12  13
ENDBRANCH   1  12
TORSDOF 16
ENDMDL
MODEL 8
REMARK VINA RESULT:    -5.441      1.860      5.827
REMARK INTER + INTRA:         -13.156
REMARK INTER:                 -10.164
REMARK INTRA:                  -2.992
REMARK UNBOUND:                -2.627
REMARK SMILES CCCCCCCCCCCCCCCCCC(=O)[O-]
REMARK SMILES IDX 10 1 11 2 12 3 13 4 14 5 15 6 16 7 17 8 18 9 19 10 20 11
REMARK SMILES IDX 9 12 8 13 7 14 6 15 5 16 4 17 3 18 2 19 1 20
REMARK H PARENT
REMARK Flexibility Score: inf
ROOT
ATOM      1  C   UNL     1      11.736   7.768 -15.752  1.00  0.00     0.000 C 
ENDROOT
BRANCH   1   2
ATOM      2  C   UNL     1      11.685   8.688 -16.985  1.00  0.00     0.000 C 
BRANCH   2   3
ATOM      3  C   UNL     1      10.246   9.022 -17.410  1.00  0.00     0.000 C 
BRANCH   3   4
ATOM      4  C   UNL     1       9.242   7.934 -17.000  1.00  0.00     0.000 C 
BRANCH   4   5
ATOM      5  C   UNL     1       8.179   8.499 -16.051  1.00  0.00     0.000 C 
BRANCH   5   6
ATOM      6  C   UNL     1       7.954   7.563 -14.855  1.00  0.00     0.000 C 
BRANCH   6   7
ATOM      7  C   UNL     1       7.986   8.303 -13.508  1.00  0.00     0.006 C 
BRANCH   7   8
ATOM      8  C   UNL     1       9.399   8.752 -13.114  1.00  0.00     0.053 C 
BRANCH   8   9
ATOM      9  C   UNL     1       9.461  10.242 -13.000  1.00  0.00     0.041 C 
ATOM     10  O   UNL     1       8.419  10.933 -13.149  1.00  0.00    -0.550 OA
ATOM     11  O   UNL     1      10.678  10.873 -12.770  1.00  0.00    -0.550 OA
ENDBRANCH   8   9
ENDBRANCH   7   8
ENDBRANCH   6   7
ENDBRANCH   5   6
ENDBRANCH   4   5
ENDBRANCH   3   4
ENDBRANCH   2   3
ENDBRANCH   1   2
BRANCH   1  12
ATOM     12  C   UNL     1      12.709   6.588 -15.927  1.00  0.00     0.000 C 
BRANCH  12  13
ATOM     13  C   UNL     1      12.137   5.205 -15.557  1.00  0.00    -0.000 C 
BRANCH  13  14
ATOM     14  C   UNL     1      10.818   5.231 -14.766  1.00  0.00    -0.000 C 
BRANCH  14  15
ATOM     15  C   UNL     1      10.966   4.682 -13.338  1.00  0.00    -0.000 C 
BRANCH  15  16
ATOM     16  C   UNL     1      11.452   5.778 -12.377  1.00  0.00    -0.000 C 
BRANCH  16  17
ATOM     17  C   UNL     1      12.910   5.575 -11.937  1.00  0.00    -0.000 C 
BRANCH  17  18
ATOM     18  C   UNL     1      13.831   6.721 -12.393  1.00  0.00    -0.000 C 
BRANCH  18  19
ATOM     19  C   UNL     1      13.151   8.095 -12.299  1.00  0.00    -0.003 C 
ATOM     20  C   UNL     1      13.891   9.174 -13.090  1.00  0.00     0.004 C 
ENDBRANCH  18  19
ENDBRANCH  17  18
ENDBRANCH  16  17
ENDBRANCH  15  16
ENDBRANCH  14  15
ENDBRANCH  13  14
ENDBRANCH  12  13
ENDBRANCH   1  12
TORSDOF 16
ENDMDL
MODEL 9
REMARK VINA RESULT:    -5.400      2.590      4.788
REMARK INTER + INTRA:         -13.078
REMARK INTER:                 -10.141
REMARK INTRA:                  -2.937
REMARK UNBOUND:                -2.627
REMARK SMILES CCCCCCCCCCCCCCCCCC(=O)[O-]
REMARK SMILES IDX 10 1 11 2 12 3 13 4 14 5 15 6 16 7 17 8 18 9 19 10 20 11
REMARK SMILES IDX 9 12 8 13 7 14 6 15 5 16 4 17 3 18 2 19 1 20
REMARK H PARENT
REMARK Flexibility Score: inf
ROOT
ATOM      1  C   UNL     1      13.864   6.375 -12.007  1.00  0.00     0.000 C 
ENDROOT
BRANCH   1   2
ATOM      2  C   UNL     1      14.526   7.636 -12.589  1.00  0.00     0.000 C 
BRANCH   2   3
ATOM      3  C   UNL     1      14.558   8.800 -11.585  1.00  0.00     0.000 C 
BRANCH   3   4
ATOM      4  C   UNL     1      13.969  10.095 -12.162  1.00  0.00     0.000 C 
BRANCH   4   5
ATOM      5  C   UNL     1      12.623   9.827 -12.846  1.00  0.00     0.000 C 
BRANCH   5   6
ATOM      6  C   UNL     1      11.478  10.534 -12.105  1.00  0.00     0.000 C 
BRANCH   6   7
ATOM      7  C   UNL     1      10.287  10.855 -13.022  1.00  0.00     0.006 C 
BRANCH   7   8
ATOM      8  C   UNL     1       9.603   9.594 -13.565  1.00  0.00     0.053 C 
BRANCH   8   9
ATOM      9  C   UNL     1       8.154   9.584 -13.194  1.00  0.00     0.041 C 
ATOM     10  O   UNL     1       7.389  10.499 -13.602  1.00  0.00    -0.550 OA
ATOM     11  O   UNL     1       7.654   8.589 -12.364  1.00  0.00    -0.550 OA
ENDBRANCH   8   9
ENDBRANCH   7   8
ENDBRANCH   6   7
ENDBRANCH   5   6
ENDBRANCH   4   5
ENDBRANCH   3   4
ENDBRANCH   2   3
ENDBRANCH   1   2
BRANCH   1  12
ATOM     12  C   UNL     1      13.379   6.569 -10.559  1.00  0.00     0.000 C 
BRANCH  12  13
ATOM     13  C   UNL     1      11.871   6.336 -10.334  1.00  0.00    -0.000 C 
BRANCH  13  14
ATOM     14  C   UNL     1      10.954   6.851 -11.457  1.00  0.00    -0.000 C 
BRANCH  14  15
ATOM     15  C   UNL     1      10.262   5.716 -12.229  1.00  0.00    -0.000 C 
BRANCH  15  16
ATOM     16  C   UNL     1      10.394   5.924 -13.746  1.00  0.00    -0.000 C 
BRANCH  16  17
ATOM     17  C   UNL     1      11.467   5.021 -14.374  1.00  0.00    -0.000 C 
BRANCH  17  18
ATOM     18  C   UNL     1      12.224   5.713 -15.523  1.00  0.00    -0.000 C 
BRANCH  18  19
ATOM     19  C   UNL     1      12.074   7.242 -15.489  1.00  0.00    -0.003 C 
ATOM     20  C   UNL     1      13.267   7.964 -16.115  1.00  0.00     0.004 C 
ENDBRANCH  18  19
ENDBRANCH  17  18
ENDBRANCH  16  17
ENDBRANCH  15  16
ENDBRANCH  14  15
ENDBRANCH  13  14
ENDBRANCH  12  13
ENDBRANCH   1  12
TORSDOF 16
ENDMDL
