MODEL 1
REMARK VINA RESULT:    -2.927      0.000      0.000
REMARK INTER + INTRA:          -3.530
REMARK INTER:                  -3.354
REMARK INTRA:                  -0.175
REMARK UNBOUND:                -0.175
REMARK SMILES CC=Cc1ccc(O)c(OC)c1
REMARK SMILES IDX 4 1 12 2 9 3 7 4 6 5 5 6 3 7 1 8 2 9 10 10 11 11 8 12
REMARK H PARENT 8 13
REMARK Flexibility Score: inf
ROOT
ATOM      1  C   UNL     1     118.978 108.746 108.549  1.00  0.00    -0.022 A 
ATOM      2  C   UNL     1     117.865 108.111 107.959  1.00  0.00     0.058 A 
ATOM      3  C   UNL     1     116.613 108.757 107.908  1.00  0.00     0.161 A 
ATOM      4  C   UNL     1     116.477 110.037 108.460  1.00  0.00     0.157 A 
ATOM      5  C   UNL     1     117.574 110.664 109.062  1.00  0.00     0.051 A 
ATOM      6  C   UNL     1     118.813 110.021 109.110  1.00  0.00     0.012 A 
ENDROOT
BRANCH   1   7
ATOM      7  C   UNL     1     120.312 108.102 108.634  1.00  0.00     0.003 C 
ATOM      8  C   UNL     1     122.389 107.395 109.753  1.00  0.00     0.035 C 
ATOM      9  C   UNL     1     121.060 108.079 109.742  1.00  0.00    -0.030 C 
ENDBRANCH   1   7
BRANCH   3  10
ATOM     10  O   UNL     1     115.485 108.159 107.324  1.00  0.00    -0.493 OA
ATOM     11  C   UNL     1     114.591 107.284 108.004  1.00  0.00     0.278 C 
ENDBRANCH   3  10
BRANCH   4  12
ATOM     12  O   UNL     1     115.241 110.681 108.411  1.00  0.00    -0.504 OA
ATOM     13  H   UNL     1     115.070 111.540 108.920  1.00  0.00     0.293 HD
ENDBRANCH   4  12
TORSDOF 3
ENDMDL
MODEL 2
REMARK VINA RESULT:    -2.922     13.268     15.734
REMARK INTER + INTRA:          -3.524
REMARK INTER:                  -3.348
REMARK INTRA:                  -0.176
REMARK UNBOUND:                -0.175
REMARK SMILES CC=Cc1ccc(O)c(OC)c1
REMARK SMILES IDX 4 1 12 2 9 3 7 4 6 5 5 6 3 7 1 8 2 9 10 10 11 11 8 12
REMARK H PARENT 8 13
REMARK Flexibility Score: inf
ROOT
ATOM      1  C   UNL     1     113.008 123.225 108.555  1.00  0.00    -0.022 A 
ATOM      2  C   UNL     1     114.114 123.862 107.955  1.00  0.00     0.058 A 
ATOM      3  C   UNL     1     115.372 123.228 107.915  1.00  0.00     0.161 A 
ATOM      4  C   UNL     1     115.521 121.958 108.488  1.00  0.00     0.157 A 
ATOM      5  C   UNL     1     114.430 121.330 109.100  1.00  0.00     0.051 A 
ATOM      6  C   UNL     1     113.185 121.961 109.137  1.00  0.00     0.012 A 
ENDROOT
BRANCH   1   7
ATOM      7  C   UNL     1     111.667 123.857 108.629  1.00  0.00     0.003 C 
ATOM      8  C   UNL     1     109.609 124.616 109.749  1.00  0.00     0.035 C 
ATOM      9  C   UNL     1     110.946 123.948 109.752  1.00  0.00    -0.030 C 
ENDBRANCH   1   7
BRANCH   3  10
ATOM     10  O   UNL     1     116.495 123.827 107.321  1.00  0.00    -0.493 OA
ATOM     11  C   UNL     1     117.371 124.733 107.982  1.00  0.00     0.278 C 
ENDBRANCH   3  10
BRANCH   4  12
ATOM     12  O   UNL     1     116.764 121.325 108.449  1.00  0.00    -0.504 OA
ATOM     13  H   UNL     1     117.239 121.144 107.573  1.00  0.00     0.293 HD
ENDBRANCH   4  12
TORSDOF 3
ENDMDL
MODEL 3
REMARK VINA RESULT:    -2.918      9.735     11.150
REMARK INTER + INTRA:          -3.519
REMARK INTER:                  -3.342
REMARK INTRA:                  -0.178
REMARK UNBOUND:                -0.175
REMARK SMILES CC=Cc1ccc(O)c(OC)c1
REMARK SMILES IDX 4 1 12 2 9 3 7 4 6 5 5 6 3 7 1 8 2 9 10 10 11 11 8 12
REMARK H PARENT 8 13
REMARK Flexibility Score: inf
ROOT
ATOM      1  C   UNL     1     123.262 118.972 108.540  1.00  0.00    -0.022 A 
ATOM      2  C   UNL     1     123.904 117.882 107.915  1.00  0.00     0.058 A 
ATOM      3  C   UNL     1     123.288 116.615 107.871  1.00  0.00     0.161 A 
ATOM      4  C   UNL     1     122.030 116.440 108.464  1.00  0.00     0.157 A 
ATOM      5  C   UNL     1     121.398 117.515 109.100  1.00  0.00     0.051 A 
ATOM      6  C   UNL     1     122.011 118.768 109.143  1.00  0.00     0.012 A 
ENDROOT
BRANCH   1   7
ATOM      7  C   UNL     1     123.876 120.320 108.620  1.00  0.00     0.003 C 
ATOM      8  C   UNL     1     124.582 122.396 109.743  1.00  0.00     0.035 C 
ATOM      9  C   UNL     1     123.932 121.050 109.740  1.00  0.00    -0.030 C 
ENDBRANCH   1   7
BRANCH   3  10
ATOM     10  O   UNL     1     123.893 115.509 107.252  1.00  0.00    -0.493 OA
ATOM     11  C   UNL     1     124.829 114.643 107.884  1.00  0.00     0.278 C 
ENDBRANCH   3  10
BRANCH   4  12
ATOM     12  O   UNL     1     121.416 115.189 108.421  1.00  0.00    -0.504 OA
ATOM     13  H   UNL     1     121.577 114.495 109.141  1.00  0.00     0.293 HD
ENDBRANCH   4  12
TORSDOF 3
ENDMDL
MODEL 4
REMARK VINA RESULT:    -2.915      7.912      9.790
REMARK INTER + INTRA:          -3.516
REMARK INTER:                  -3.331
REMARK INTRA:                  -0.185
REMARK UNBOUND:                -0.175
REMARK SMILES CC=Cc1ccc(O)c(OC)c1
REMARK SMILES IDX 4 1 12 2 9 3 7 4 6 5 5 6 3 7 1 8 2 9 10 10 11 11 8 12
REMARK H PARENT 8 13
REMARK Flexibility Score: inf
ROOT
ATOM      1  C   UNL     1     109.702 112.552 107.509  1.00  0.00    -0.022 A 
ATOM      2  C   UNL     1     111.013 112.985 107.221  1.00  0.00     0.058 A 
ATOM      3  C   UNL     1     111.882 113.381 108.258  1.00  0.00     0.161 A 
ATOM      4  C   UNL     1     111.430 113.352 109.584  1.00  0.00     0.157 A 
ATOM      5  C   UNL     1     110.123 112.940 109.872  1.00  0.00     0.051 A 
ATOM      6  C   UNL     1     109.265 112.548 108.843  1.00  0.00     0.012 A 
ENDROOT
BRANCH   1   7
ATOM      7  C   UNL     1     108.749 112.134 106.451  1.00  0.00     0.003 C 
ATOM      8  C   UNL     1     106.980 110.739 105.454  1.00  0.00     0.035 C 
ATOM      9  C   UNL     1     107.925 111.086 106.560  1.00  0.00    -0.030 C 
ENDBRANCH   1   7
BRANCH   3  10
ATOM     10  O   UNL     1     113.195 113.812 108.010  1.00  0.00    -0.493 OA
ATOM     11  C   UNL     1     113.546 115.112 107.548  1.00  0.00     0.278 C 
ENDBRANCH   3  10
BRANCH   4  12
ATOM     12  O   UNL     1     112.286 113.741 110.613  1.00  0.00    -0.504 OA
ATOM     13  H   UNL     1     113.233 114.050 110.426  1.00  0.00     0.293 HD
ENDBRANCH   4  12
TORSDOF 3
ENDMDL
MODEL 5
REMARK VINA RESULT:    -2.914      9.720     11.826
REMARK INTER + INTRA:          -3.515
REMARK INTER:                  -3.322
REMARK INTRA:                  -0.193
REMARK UNBOUND:                -0.175
REMARK SMILES CC=Cc1ccc(O)c(OC)c1
REMARK SMILES IDX 4 1 12 2 9 3 7 4 6 5 5 6 3 7 1 8 2 9 10 10 11 11 8 12
REMARK H PARENT 8 13
REMARK Flexibility Score: inf
ROOT
ATOM      1  C   UNL     1     106.725 109.486 107.854  1.00  0.00    -0.022 A 
ATOM      2  C   UNL     1     107.481 110.665 108.026  1.00  0.00     0.058 A 
ATOM      3  C   UNL     1     107.482 111.342 109.262  1.00  0.00     0.161 A 
ATOM      4  C   UNL     1     106.716 110.841 110.323  1.00  0.00     0.157 A 
ATOM      5  C   UNL     1     105.951 109.682 110.151  1.00  0.00     0.051 A 
ATOM      6  C   UNL     1     105.951 109.013 108.925  1.00  0.00     0.012 A 
ENDROOT
BRANCH   1   7
ATOM      7  C   UNL     1     106.685 108.745 106.570  1.00  0.00     0.003 C 
ATOM      8  C   UNL     1     106.240 106.806 105.117  1.00  0.00     0.035 C 
ATOM      9  C   UNL     1     106.266 107.480 106.451  1.00  0.00    -0.030 C 
ENDBRANCH   1   7
BRANCH   3  10
ATOM     10  O   UNL     1     108.227 112.514 109.473  1.00  0.00    -0.493 OA
ATOM     11  C   UNL     1     109.628 112.547 109.721  1.00  0.00     0.278 C 
ENDBRANCH   3  10
BRANCH   4  12
ATOM     12  O   UNL     1     106.716 111.507 111.549  1.00  0.00    -0.504 OA
ATOM     13  H   UNL     1     107.568 111.880 111.948  1.00  0.00     0.293 HD
ENDBRANCH   4  12
TORSDOF 3
ENDMDL
MODEL 6
REMARK VINA RESULT:    -2.913      3.191      3.818
REMARK INTER + INTRA:          -3.514
REMARK INTER:                  -3.335
REMARK INTRA:                  -0.180
REMARK UNBOUND:                -0.175
REMARK SMILES CC=Cc1ccc(O)c(OC)c1
REMARK SMILES IDX 4 1 12 2 9 3 7 4 6 5 5 6 3 7 1 8 2 9 10 10 11 11 8 12
REMARK H PARENT 8 13
REMARK Flexibility Score: inf
ROOT
ATOM      1  C   UNL     1     119.401 109.754 107.449  1.00  0.00    -0.022 A 
ATOM      2  C   UNL     1     118.975 111.075 107.196  1.00  0.00     0.058 A 
ATOM      3  C   UNL     1     118.604 111.925 108.257  1.00  0.00     0.161 A 
ATOM      4  C   UNL     1     118.650 111.445 109.573  1.00  0.00     0.157 A 
ATOM      5  C   UNL     1     119.056 110.129 109.827  1.00  0.00     0.051 A 
ATOM      6  C   UNL     1     119.422 109.290 108.773  1.00  0.00     0.012 A 
ENDROOT
BRANCH   1   7
ATOM      7  C   UNL     1     119.792 108.820 106.365  1.00  0.00     0.003 C 
ATOM      8  C   UNL     1     121.273 107.230 105.205  1.00  0.00     0.035 C 
ATOM      9  C   UNL     1     120.959 108.169 106.325  1.00  0.00    -0.030 C 
ENDBRANCH   1   7
BRANCH   3  10
ATOM     10  O   UNL     1     118.182 113.248 108.045  1.00  0.00    -0.493 OA
ATOM     11  C   UNL     1     116.914 113.615 107.511  1.00  0.00     0.278 C 
ENDBRANCH   3  10
BRANCH   4  12
ATOM     12  O   UNL     1     118.286 112.283 110.626  1.00  0.00    -0.504 OA
ATOM     13  H   UNL     1     117.327 112.580 110.760  1.00  0.00     0.293 HD
ENDBRANCH   4  12
TORSDOF 3
ENDMDL
MODEL 7
REMARK VINA RESULT:    -2.912      9.770     11.146
REMARK INTER + INTRA:          -3.513
REMARK INTER:                  -3.334
REMARK INTRA:                  -0.179
REMARK UNBOUND:                -0.175
REMARK SMILES CC=Cc1ccc(O)c(OC)c1
REMARK SMILES IDX 4 1 12 2 9 3 7 4 6 5 5 6 3 7 1 8 2 9 10 10 11 11 8 12
REMARK H PARENT 8 13
REMARK Flexibility Score: inf
ROOT
ATOM      1  C   UNL     1     108.741 113.025 108.535  1.00  0.00    -0.022 A 
ATOM      2  C   UNL     1     108.116 114.117 107.897  1.00  0.00     0.058 A 
ATOM      3  C   UNL     1     108.743 115.378 107.855  1.00  0.00     0.161 A 
ATOM      4  C   UNL     1     109.995 115.545 108.463  1.00  0.00     0.157 A 
ATOM      5  C   UNL     1     110.610 114.468 109.111  1.00  0.00     0.051 A 
ATOM      6  C   UNL     1     109.986 113.220 109.151  1.00  0.00     0.012 A 
ENDROOT
BRANCH   1   7
ATOM      7  C   UNL     1     108.115 111.682 108.613  1.00  0.00     0.003 C 
ATOM      8  C   UNL     1     107.378 109.617 109.737  1.00  0.00     0.035 C 
ATOM      9  C   UNL     1     108.041 110.957 109.735  1.00  0.00    -0.030 C 
ENDBRANCH   1   7
BRANCH   3  10
ATOM     10  O   UNL     1     108.155 116.487 107.224  1.00  0.00    -0.493 OA
ATOM     11  C   UNL     1     107.212 117.359 107.838  1.00  0.00     0.278 C 
ENDBRANCH   3  10
BRANCH   4  12
ATOM     12  O   UNL     1     110.621 116.791 108.421  1.00  0.00    -0.504 OA
ATOM     13  H   UNL     1     110.818 117.313 109.267  1.00  0.00     0.293 HD
ENDBRANCH   4  12
TORSDOF 3
ENDMDL
MODEL 8
REMARK VINA RESULT:    -2.906     12.067     14.381
REMARK INTER + INTRA:          -3.506
REMARK INTER:                  -3.324
REMARK INTRA:                  -0.182
REMARK UNBOUND:                -0.175
REMARK SMILES CC=Cc1ccc(O)c(OC)c1
REMARK SMILES IDX 4 1 12 2 9 3 7 4 6 5 5 6 3 7 1 8 2 9 10 10 11 11 8 12
REMARK H PARENT 8 13
REMARK Flexibility Score: inf
ROOT
ATOM      1  C   UNL     1     112.603 122.283 107.416  1.00  0.00    -0.022 A 
ATOM      2  C   UNL     1     113.059 120.970 107.176  1.00  0.00     0.058 A 
ATOM      3  C   UNL     1     113.423 120.130 108.247  1.00  0.00     0.161 A 
ATOM      4  C   UNL     1     113.338 120.613 109.560  1.00  0.00     0.157 A 
ATOM      5  C   UNL     1     112.903 121.921 109.801  1.00  0.00     0.051 A 
ATOM      6  C   UNL     1     112.544 122.751 108.737  1.00  0.00     0.012 A 
ENDROOT
BRANCH   1   7
ATOM      7  C   UNL     1     112.219 123.207 106.320  1.00  0.00     0.003 C 
ATOM      8  C   UNL     1     110.786 124.856 105.181  1.00  0.00     0.035 C 
ATOM      9  C   UNL     1     111.096 123.934 106.316  1.00  0.00    -0.030 C 
ENDBRANCH   1   7
BRANCH   3  10
ATOM     10  O   UNL     1     113.874 118.815 108.048  1.00  0.00    -0.493 OA
ATOM     11  C   UNL     1     115.134 118.471 107.482  1.00  0.00     0.278 C 
ENDBRANCH   3  10
BRANCH   4  12
ATOM     12  O   UNL     1     113.695 119.784 110.624  1.00  0.00    -0.504 OA
ATOM     13  H   UNL     1     113.899 118.802 110.485  1.00  0.00     0.293 HD
ENDBRANCH   4  12
TORSDOF 3
ENDMDL
MODEL 9
REMARK VINA RESULT:    -2.902      9.852     11.171
REMARK INTER + INTRA:          -3.501
REMARK INTER:                  -3.317
REMARK INTRA:                  -0.185
REMARK UNBOUND:                -0.175
REMARK SMILES CC=Cc1ccc(O)c(OC)c1
REMARK SMILES IDX 4 1 12 2 9 3 7 4 6 5 5 6 3 7 1 8 2 9 10 10 11 11 8 12
REMARK H PARENT 8 13
REMARK Flexibility Score: inf
ROOT
ATOM      1  C   UNL     1     122.300 119.403 107.510  1.00  0.00    -0.022 A 
ATOM      2  C   UNL     1     120.997 118.936 107.236  1.00  0.00     0.058 A 
ATOM      3  C   UNL     1     120.132 118.566 108.286  1.00  0.00     0.161 A 
ATOM      4  C   UNL     1     120.580 118.654 109.611  1.00  0.00     0.157 A 
ATOM      5  C   UNL     1     121.878 119.100 109.885  1.00  0.00     0.051 A 
ATOM      6  C   UNL     1     122.733 119.466 108.843  1.00  0.00     0.012 A 
ENDROOT
BRANCH   1   7
ATOM      7  C   UNL     1     123.249 119.795 106.439  1.00  0.00     0.003 C 
ATOM      8  C   UNL     1     125.045 121.138 105.420  1.00  0.00     0.035 C 
ATOM      9  C   UNL     1     124.107 120.816 106.538  1.00  0.00    -0.030 C 
ENDBRANCH   1   7
BRANCH   3  10
ATOM     10  O   UNL     1     118.827 118.104 108.053  1.00  0.00    -0.493 OA
ATOM     11  C   UNL     1     118.508 116.875 107.409  1.00  0.00     0.278 C 
ENDBRANCH   3  10
BRANCH   4  12
ATOM     12  O   UNL     1     119.727 118.291 110.653  1.00  0.00    -0.504 OA
ATOM     13  H   UNL     1     119.180 117.440 110.617  1.00  0.00     0.293 HD
ENDBRANCH   4  12
TORSDOF 3
ENDMDL
