MODEL 1
REMARK VINA RESULT:    -4.523      0.000      0.000
REMARK INTER + INTRA:          -9.292
REMARK INTER:                  -8.489
REMARK INTRA:                  -0.803
REMARK UNBOUND:                -0.803
REMARK SMILES O=C([O-])CCCCCCCCCCCCCCC(=O)[O-]
REMARK SMILES IDX 10 1 9 2 8 3 7 4 6 5 5 6 4 7 2 8 1 9 3 10 11 11 12 12 13 13
REMARK SMILES IDX 14 14 15 15 16 16 17 17 18 18 19 19 20 20
REMARK H PARENT
REMARK Flexibility Score: inf
ROOT
ATOM      1  C   UNL     1       8.878   6.402   8.387  1.00  0.00     0.000 C 
ENDROOT
BRANCH   1   2
ATOM      2  C   UNL     1       9.738   5.684   9.438  1.00  0.00     0.000 C 
BRANCH   2   3
ATOM      3  C   UNL     1       9.003   4.467  10.013  1.00  0.00     0.000 C 
BRANCH   3   4
ATOM      4  C   UNL     1       7.616   4.310   9.372  1.00  0.00     0.000 C 
BRANCH   4   5
ATOM      5  C   UNL     1       7.064   2.877   9.480  1.00  0.00     0.000 C 
BRANCH   5   6
ATOM      6  C   UNL     1       5.527   2.762   9.413  1.00  0.00     0.006 C 
BRANCH   6   7
ATOM      7  C   UNL     1       5.011   1.425   8.861  1.00  0.00     0.053 C 
BRANCH   7   8
ATOM      8  C   UNL     1       4.642   1.521   7.414  1.00  0.00     0.041 C 
ATOM      9  O   UNL     1       3.729   2.304   7.042  1.00  0.00    -0.550 OA
ATOM     10  O   UNL     1       5.283   0.719   6.477  1.00  0.00    -0.550 OA
ENDBRANCH   7   8
ENDBRANCH   6   7
ENDBRANCH   5   6
ENDBRANCH   4   5
ENDBRANCH   3   4
ENDBRANCH   2   3
ENDBRANCH   1   2
BRANCH   1  11
ATOM     11  C   UNL     1       9.551   7.682   7.847  1.00  0.00     0.000 C 
BRANCH  11  12
ATOM     12  C   UNL     1       9.201   8.951   8.645  1.00  0.00     0.000 C 
BRANCH  12  13
ATOM     13  C   UNL     1       7.917   8.856   9.492  1.00  0.00     0.000 C 
BRANCH  13  14
ATOM     14  C   UNL     1       7.018  10.106   9.450  1.00  0.00     0.000 C 
BRANCH  14  15
ATOM     15  C   UNL     1       6.944  10.743   8.055  1.00  0.00     0.000 C 
BRANCH  15  16
ATOM     16  C   UNL     1       6.178  12.074   8.100  1.00  0.00     0.006 C 
BRANCH  16  17
ATOM     17  C   UNL     1       4.658  11.869   8.151  1.00  0.00     0.053 C 
BRANCH  17  18
ATOM     18  C   UNL     1       4.016  12.133   6.824  1.00  0.00     0.041 C 
ATOM     19  O   UNL     1       3.425  13.225   6.613  1.00  0.00    -0.550 OA
ATOM     20  O   UNL     1       4.040  11.160   5.833  1.00  0.00    -0.550 OA
ENDBRANCH  17  18
ENDBRANCH  16  17
ENDBRANCH  15  16
ENDBRANCH  14  15
ENDBRANCH  13  14
ENDBRANCH  12  13
ENDBRANCH  11  12
ENDBRANCH   1  11
TORSDOF 15
ENDMDL
MODEL 2
REMARK VINA RESULT:    -4.167      0.795      8.245
REMARK INTER + INTRA:          -8.625
REMARK INTER:                  -7.898
REMARK INTRA:                  -0.727
REMARK UNBOUND:                -0.803
REMARK SMILES O=C([O-])CCCCCCCCCCCCCCC(=O)[O-]
REMARK SMILES IDX 10 1 9 2 8 3 7 4 6 5 5 6 4 7 2 8 1 9 3 10 11 11 12 12 13 13
REMARK SMILES IDX 14 14 15 15 16 16 17 17 18 18 19 19 20 20
REMARK H PARENT
REMARK Flexibility Score: inf
ROOT
ATOM      1  C   UNL     1       9.324   7.312   7.882  1.00  0.00     0.000 C 
ENDROOT
BRANCH   1   2
ATOM      2  C   UNL     1       9.048   8.774   8.265  1.00  0.00     0.000 C 
BRANCH   2   3
ATOM      3  C   UNL     1       7.917   8.869   9.296  1.00  0.00     0.000 C 
BRANCH   3   4
ATOM      4  C   UNL     1       7.842  10.279   9.899  1.00  0.00     0.000 C 
BRANCH   4   5
ATOM      5  C   UNL     1       6.530  11.009   9.558  1.00  0.00     0.000 C 
BRANCH   5   6
ATOM      6  C   UNL     1       6.390  11.446   8.085  1.00  0.00     0.006 C 
BRANCH   6   7
ATOM      7  C   UNL     1       5.465  12.653   7.863  1.00  0.00     0.053 C 
BRANCH   7   8
ATOM      8  C   UNL     1       4.174  12.258   7.218  1.00  0.00     0.041 C 
ATOM      9  O   UNL     1       4.153  11.364   6.331  1.00  0.00    -0.550 OA
ATOM     10  O   UNL     1       2.994  12.903   7.571  1.00  0.00    -0.550 OA
ENDBRANCH   7   8
ENDBRANCH   6   7
ENDBRANCH   5   6
ENDBRANCH   4   5
ENDBRANCH   3   4
ENDBRANCH   2   3
ENDBRANCH   1   2
BRANCH   1  11
ATOM     11  C   UNL     1      10.559   6.735   8.606  1.00  0.00     0.000 C 
BRANCH  11  12
ATOM     12  C   UNL     1      10.213   5.734   9.723  1.00  0.00     0.000 C 
BRANCH  12  13
ATOM     13  C   UNL     1       8.713   5.412   9.868  1.00  0.00     0.000 C 
BRANCH  13  14
ATOM     14  C   UNL     1       8.346   3.927   9.681  1.00  0.00     0.000 C 
BRANCH  14  15
ATOM     15  C   UNL     1       6.834   3.697   9.544  1.00  0.00     0.000 C 
BRANCH  15  16
ATOM     16  C   UNL     1       6.542   2.504   8.622  1.00  0.00     0.006 C 
BRANCH  16  17
ATOM     17  C   UNL     1       5.081   2.042   8.713  1.00  0.00     0.053 C 
BRANCH  17  18
ATOM     18  C   UNL     1       4.582   1.512   7.405  1.00  0.00     0.041 C 
ATOM     19  O   UNL     1       3.587   2.043   6.844  1.00  0.00    -0.550 OA
ATOM     20  O   UNL     1       5.194   0.411   6.821  1.00  0.00    -0.550 OA
ENDBRANCH  17  18
ENDBRANCH  16  17
ENDBRANCH  15  16
ENDBRANCH  14  15
ENDBRANCH  13  14
ENDBRANCH  12  13
ENDBRANCH  11  12
ENDBRANCH   1  11
TORSDOF 15
ENDMDL
MODEL 3
REMARK VINA RESULT:    -4.030      1.503      1.713
REMARK INTER + INTRA:          -8.368
REMARK INTER:                  -7.568
REMARK INTRA:                  -0.800
REMARK UNBOUND:                -0.803
REMARK SMILES O=C([O-])CCCCCCCCCCCCCCC(=O)[O-]
REMARK SMILES IDX 10 1 9 2 8 3 7 4 6 5 5 6 4 7 2 8 1 9 3 10 11 11 12 12 13 13
REMARK SMILES IDX 14 14 15 15 16 16 17 17 18 18 19 19 20 20
REMARK H PARENT
REMARK Flexibility Score: inf
ROOT
ATOM      1  C   UNL     1       9.015   6.906   8.244  1.00  0.00     0.000 C 
ENDROOT
BRANCH   1   2
ATOM      2  C   UNL     1       9.572   6.295   9.539  1.00  0.00     0.000 C 
BRANCH   2   3
ATOM      3  C   UNL     1       9.234   4.802   9.633  1.00  0.00     0.000 C 
BRANCH   3   4
ATOM      4  C   UNL     1       7.725   4.592   9.827  1.00  0.00     0.000 C 
BRANCH   4   5
ATOM      5  C   UNL     1       7.128   3.577   8.835  1.00  0.00     0.000 C 
BRANCH   5   6
ATOM      6  C   UNL     1       5.634   3.257   9.047  1.00  0.00     0.006 C 
BRANCH   6   7
ATOM      7  C   UNL     1       5.251   1.794   8.776  1.00  0.00     0.053 C 
BRANCH   7   8
ATOM      8  C   UNL     1       4.717   1.603   7.390  1.00  0.00     0.041 C 
ATOM      9  O   UNL     1       3.662   2.189   7.029  1.00  0.00    -0.550 OA
ATOM     10  O   UNL     1       5.366   0.749   6.506  1.00  0.00    -0.550 OA
ENDBRANCH   7   8
ENDBRANCH   6   7
ENDBRANCH   5   6
ENDBRANCH   4   5
ENDBRANCH   3   4
ENDBRANCH   2   3
ENDBRANCH   1   2
BRANCH   1  11
ATOM     11  C   UNL     1       8.609   8.386   8.416  1.00  0.00     0.000 C 
BRANCH  11  12
ATOM     12  C   UNL     1       7.931   8.691   9.764  1.00  0.00     0.000 C 
BRANCH  12  13
ATOM     13  C   UNL     1       7.078   9.974   9.790  1.00  0.00     0.000 C 
BRANCH  13  14
ATOM     14  C   UNL     1       7.016  10.740   8.455  1.00  0.00     0.000 C 
BRANCH  14  15
ATOM     15  C   UNL     1       6.002  11.893   8.473  1.00  0.00     0.000 C 
BRANCH  15  16
ATOM     16  C   UNL     1       4.801  11.552   9.368  1.00  0.00     0.006 C 
BRANCH  16  17
ATOM     17  C   UNL     1       3.574  12.417   9.048  1.00  0.00     0.053 C 
BRANCH  17  18
ATOM     18  C   UNL     1       2.297  11.650   9.203  1.00  0.00     0.041 C 
ATOM     19  O   UNL     1       1.213  12.133   8.781  1.00  0.00    -0.550 OA
ATOM     20  O   UNL     1       2.298  10.418   9.843  1.00  0.00    -0.550 OA
ENDBRANCH  17  18
ENDBRANCH  16  17
ENDBRANCH  15  16
ENDBRANCH  14  15
ENDBRANCH  13  14
ENDBRANCH  12  13
ENDBRANCH  11  12
ENDBRANCH   1  11
TORSDOF 15
ENDMDL
MODEL 4
REMARK VINA RESULT:    -3.866      4.839      7.884
REMARK INTER + INTRA:          -8.059
REMARK INTER:                  -7.163
REMARK INTRA:                  -0.896
REMARK UNBOUND:                -0.803
REMARK SMILES O=C([O-])CCCCCCCCCCCCCCC(=O)[O-]
REMARK SMILES IDX 10 1 9 2 8 3 7 4 6 5 5 6 4 7 2 8 1 9 3 10 11 11 12 12 13 13
REMARK SMILES IDX 14 14 15 15 16 16 17 17 18 18 19 19 20 20
REMARK H PARENT
REMARK Flexibility Score: inf
ROOT
ATOM      1  C   UNL     1       6.053   2.936   9.127  1.00  0.00     0.000 C 
ENDROOT
BRANCH   1   2
ATOM      2  C   UNL     1       7.409   2.373   9.576  1.00  0.00     0.000 C 
BRANCH   2   3
ATOM      3  C   UNL     1       8.312   3.483  10.125  1.00  0.00     0.000 C 
BRANCH   3   4
ATOM      4  C   UNL     1       7.789   4.868   9.715  1.00  0.00     0.000 C 
BRANCH   4   5
ATOM      5  C   UNL     1       8.888   5.947   9.713  1.00  0.00     0.000 C 
BRANCH   5   6
ATOM      6  C   UNL     1       9.040   6.722   8.388  1.00  0.00     0.006 C 
BRANCH   6   7
ATOM      7  C   UNL     1      10.492   7.021   7.987  1.00  0.00     0.053 C 
BRANCH   7   8
ATOM      8  C   UNL     1      11.283   7.585   9.126  1.00  0.00     0.041 C 
ATOM      9  O   UNL     1      11.025   8.734   9.572  1.00  0.00    -0.550 OA
ATOM     10  O   UNL     1      12.331   6.854   9.674  1.00  0.00    -0.550 OA
ENDBRANCH   7   8
ENDBRANCH   6   7
ENDBRANCH   5   6
ENDBRANCH   4   5
ENDBRANCH   3   4
ENDBRANCH   2   3
ENDBRANCH   1   2
BRANCH   1  11
ATOM     11  C   UNL     1       5.407   2.097   8.003  1.00  0.00     0.000 C 
BRANCH  11  12
ATOM     12  C   UNL     1       3.872   2.019   8.090  1.00  0.00     0.000 C 
BRANCH  12  13
ATOM     13  C   UNL     1       3.316   1.629   9.474  1.00  0.00     0.000 C 
BRANCH  13  14
ATOM     14  C   UNL     1       2.086   2.437   9.931  1.00  0.00     0.000 C 
BRANCH  14  15
ATOM     15  C   UNL     1       2.260   3.950   9.741  1.00  0.00     0.000 C 
BRANCH  15  16
ATOM     16  C   UNL     1       0.900   4.663   9.737  1.00  0.00     0.006 C 
BRANCH  16  17
ATOM     17  C   UNL     1      -0.243   3.732   9.307  1.00  0.00     0.053 C 
BRANCH  17  18
ATOM     18  C   UNL     1      -1.484   4.497   8.965  1.00  0.00     0.041 C 
ATOM     19  O   UNL     1      -2.511   3.890   8.560  1.00  0.00    -0.550 OA
ATOM     20  O   UNL     1      -1.497   5.883   9.060  1.00  0.00    -0.550 OA
ENDBRANCH  17  18
ENDBRANCH  16  17
ENDBRANCH  15  16
ENDBRANCH  14  15
ENDBRANCH  13  14
ENDBRANCH  12  13
ENDBRANCH  11  12
ENDBRANCH   1  11
TORSDOF 15
ENDMDL
MODEL 5
REMARK VINA RESULT:    -3.826      4.244      8.389
REMARK INTER + INTRA:          -7.984
REMARK INTER:                  -6.644
REMARK INTRA:                  -1.339
REMARK UNBOUND:                -0.803
REMARK SMILES O=C([O-])CCCCCCCCCCCCCCC(=O)[O-]
REMARK SMILES IDX 10 1 9 2 8 3 7 4 6 5 5 6 4 7 2 8 1 9 3 10 11 11 12 12 13 13
REMARK SMILES IDX 14 14 15 15 16 16 17 17 18 18 19 19 20 20
REMARK H PARENT
REMARK Flexibility Score: inf
ROOT
ATOM      1  C   UNL     1       4.522  11.500   7.057  1.00  0.00     0.000 C 
ENDROOT
BRANCH   1   2
ATOM      2  C   UNL     1       3.734  12.635   6.386  1.00  0.00     0.000 C 
BRANCH   2   3
ATOM      3  C   UNL     1       3.613  13.847   7.316  1.00  0.00     0.000 C 
BRANCH   3   4
ATOM      4  C   UNL     1       2.292  13.808   8.099  1.00  0.00     0.000 C 
BRANCH   4   5
ATOM      5  C   UNL     1       2.467  13.316   9.548  1.00  0.00     0.000 C 
BRANCH   5   6
ATOM      6  C   UNL     1       1.520  12.175   9.970  1.00  0.00     0.006 C 
BRANCH   6   7
ATOM      7  C   UNL     1       2.137  10.770   9.888  1.00  0.00     0.053 C 
BRANCH   7   8
ATOM      8  C   UNL     1       1.221   9.794   9.218  1.00  0.00     0.041 C 
ATOM      9  O   UNL     1       1.380   9.504   8.003  1.00  0.00    -0.550 OA
ATOM     10  O   UNL     1       0.168   9.229   9.927  1.00  0.00    -0.550 OA
ENDBRANCH   7   8
ENDBRANCH   6   7
ENDBRANCH   5   6
ENDBRANCH   4   5
ENDBRANCH   3   4
ENDBRANCH   2   3
ENDBRANCH   1   2
BRANCH   1  11
ATOM     11  C   UNL     1       5.735  12.018   7.859  1.00  0.00     0.000 C 
BRANCH  11  12
ATOM     12  C   UNL     1       5.818  11.457   9.291  1.00  0.00     0.000 C 
BRANCH  12  13
ATOM     13  C   UNL     1       7.177  10.837   9.671  1.00  0.00     0.000 C 
BRANCH  13  14
ATOM     14  C   UNL     1       7.719   9.798   8.672  1.00  0.00     0.000 C 
BRANCH  14  15
ATOM     15  C   UNL     1       8.872   8.962   9.246  1.00  0.00     0.000 C 
BRANCH  15  16
ATOM     16  C   UNL     1       8.837   7.528   8.696  1.00  0.00     0.006 C 
BRANCH  16  17
ATOM     17  C   UNL     1       9.966   7.263   7.690  1.00  0.00     0.053 C 
BRANCH  17  18
ATOM     18  C   UNL     1      11.186   6.709   8.357  1.00  0.00     0.041 C 
ATOM     19  O   UNL     1      11.102   5.680   9.078  1.00  0.00    -0.550 OA
ATOM     20  O   UNL     1      12.411   7.347   8.211  1.00  0.00    -0.550 OA
ENDBRANCH  17  18
ENDBRANCH  16  17
ENDBRANCH  15  16
ENDBRANCH  14  15
ENDBRANCH  13  14
ENDBRANCH  12  13
ENDBRANCH  11  12
ENDBRANCH   1  11
TORSDOF 15
ENDMDL
MODEL 6
REMARK VINA RESULT:    -3.679      4.609      6.561
REMARK INTER + INTRA:          -7.708
REMARK INTER:                  -6.889
REMARK INTRA:                  -0.819
REMARK UNBOUND:                -0.803
REMARK SMILES O=C([O-])CCCCCCCCCCCCCCC(=O)[O-]
REMARK SMILES IDX 10 1 9 2 8 3 7 4 6 5 5 6 4 7 2 8 1 9 3 10 11 11 12 12 13 13
REMARK SMILES IDX 14 14 15 15 16 16 17 17 18 18 19 19 20 20
REMARK H PARENT
REMARK Flexibility Score: inf
ROOT
ATOM      1  C   UNL     1       5.854   1.734   9.635  1.00  0.00     0.000 C 
ENDROOT
BRANCH   1   2
ATOM      2  C   UNL     1       5.008   1.098   8.522  1.00  0.00     0.000 C 
BRANCH   2   3
ATOM      3  C   UNL     1       3.957   2.084   7.998  1.00  0.00     0.000 C 
BRANCH   3   4
ATOM      4  C   UNL     1       2.952   2.452   9.099  1.00  0.00     0.000 C 
BRANCH   4   5
ATOM      5  C   UNL     1       2.750   3.972   9.244  1.00  0.00     0.000 C 
BRANCH   5   6
ATOM      6  C   UNL     1       1.332   4.405   9.667  1.00  0.00     0.006 C 
BRANCH   6   7
ATOM      7  C   UNL     1       0.396   3.247  10.043  1.00  0.00     0.053 C 
BRANCH   7   8
ATOM      8  C   UNL     1      -0.866   3.262   9.239  1.00  0.00     0.041 C 
ATOM      9  O   UNL     1      -1.212   4.302   8.618  1.00  0.00    -0.550 OA
ATOM     10  O   UNL     1      -1.681   2.136   9.201  1.00  0.00    -0.550 OA
ENDBRANCH   7   8
ENDBRANCH   6   7
ENDBRANCH   5   6
ENDBRANCH   4   5
ENDBRANCH   3   4
ENDBRANCH   2   3
ENDBRANCH   1   2
BRANCH   1  11
ATOM     11  C   UNL     1       6.975   2.639   9.079  1.00  0.00     0.000 C 
BRANCH  11  12
ATOM     12  C   UNL     1       7.135   3.968   9.841  1.00  0.00     0.000 C 
BRANCH  12  13
ATOM     13  C   UNL     1       8.054   5.002   9.162  1.00  0.00     0.000 C 
BRANCH  13  14
ATOM     14  C   UNL     1       8.529   6.148  10.076  1.00  0.00     0.000 C 
BRANCH  14  15
ATOM     15  C   UNL     1       8.485   7.519   9.387  1.00  0.00     0.000 C 
BRANCH  15  16
ATOM     16  C   UNL     1       9.898   7.989   9.010  1.00  0.00     0.006 C 
BRANCH  16  17
ATOM     17  C   UNL     1      10.503   7.157   7.871  1.00  0.00     0.053 C 
BRANCH  17  18
ATOM     18  C   UNL     1      11.798   6.522   8.274  1.00  0.00     0.041 C 
ATOM     19  O   UNL     1      11.826   5.315   8.633  1.00  0.00    -0.550 OA
ATOM     20  O   UNL     1      12.967   7.271   8.286  1.00  0.00    -0.550 OA
ENDBRANCH  17  18
ENDBRANCH  16  17
ENDBRANCH  15  16
ENDBRANCH  14  15
ENDBRANCH  13  14
ENDBRANCH  12  13
ENDBRANCH  11  12
ENDBRANCH   1  11
TORSDOF 15
ENDMDL
MODEL 7
REMARK VINA RESULT:    -3.447      1.827      2.655
REMARK INTER + INTRA:          -7.274
REMARK INTER:                  -6.541
REMARK INTRA:                  -0.733
REMARK UNBOUND:                -0.803
REMARK SMILES O=C([O-])CCCCCCCCCCCCCCC(=O)[O-]
REMARK SMILES IDX 10 1 9 2 8 3 7 4 6 5 5 6 4 7 2 8 1 9 3 10 11 11 12 12 13 13
REMARK SMILES IDX 14 14 15 15 16 16 17 17 18 18 19 19 20 20
REMARK H PARENT
REMARK Flexibility Score: inf
ROOT
ATOM      1  C   UNL     1       7.998   5.199   9.847  1.00  0.00     0.000 C 
ENDROOT
BRANCH   1   2
ATOM      2  C   UNL     1       7.420   4.004   9.073  1.00  0.00     0.000 C 
BRANCH   2   3
ATOM      3  C   UNL     1       7.146   2.822  10.010  1.00  0.00     0.000 C 
BRANCH   3   4
ATOM      4  C   UNL     1       5.666   2.414   9.962  1.00  0.00     0.000 C 
BRANCH   4   5
ATOM      5  C   UNL     1       5.143   2.226   8.526  1.00  0.00     0.000 C 
BRANCH   5   6
ATOM      6  C   UNL     1       4.031   3.207   8.102  1.00  0.00     0.006 C 
BRANCH   6   7
ATOM      7  C   UNL     1       3.414   4.009   9.257  1.00  0.00     0.053 C 
BRANCH   7   8
ATOM      8  C   UNL     1       1.948   3.741   9.405  1.00  0.00     0.041 C 
ATOM      9  O   UNL     1       1.502   2.569   9.290  1.00  0.00    -0.550 OA
ATOM     10  O   UNL     1       1.069   4.792   9.636  1.00  0.00    -0.550 OA
ENDBRANCH   7   8
ENDBRANCH   6   7
ENDBRANCH   5   6
ENDBRANCH   4   5
ENDBRANCH   3   4
ENDBRANCH   2   3
ENDBRANCH   1   2
BRANCH   1  11
ATOM     11  C   UNL     1       9.392   5.617   9.333  1.00  0.00     0.000 C 
BRANCH  11  12
ATOM     12  C   UNL     1       9.416   6.999   8.655  1.00  0.00     0.000 C 
BRANCH  12  13
ATOM     13  C   UNL     1       8.485   8.051   9.288  1.00  0.00     0.000 C 
BRANCH  13  14
ATOM     14  C   UNL     1       8.219   9.293   8.415  1.00  0.00     0.000 C 
BRANCH  14  15
ATOM     15  C   UNL     1       7.357  10.348   9.123  1.00  0.00     0.000 C 
BRANCH  15  16
ATOM     16  C   UNL     1       6.593  11.205   8.104  1.00  0.00     0.006 C 
BRANCH  16  17
ATOM     17  C   UNL     1       5.527  12.088   8.769  1.00  0.00     0.053 C 
BRANCH  17  18
ATOM     18  C   UNL     1       4.413  12.421   7.826  1.00  0.00     0.041 C 
ATOM     19  O   UNL     1       4.479  13.451   7.105  1.00  0.00    -0.550 OA
ATOM     20  O   UNL     1       3.285  11.612   7.767  1.00  0.00    -0.550 OA
ENDBRANCH  17  18
ENDBRANCH  16  17
ENDBRANCH  15  16
ENDBRANCH  14  15
ENDBRANCH  13  14
ENDBRANCH  12  13
ENDBRANCH  11  12
ENDBRANCH   1  11
TORSDOF 15
ENDMDL
MODEL 8
REMARK VINA RESULT:    -3.296      4.463      8.223
REMARK INTER + INTRA:          -6.991
REMARK INTER:                  -6.105
REMARK INTRA:                  -0.885
REMARK UNBOUND:                -0.803
REMARK SMILES O=C([O-])CCCCCCCCCCCCCCC(=O)[O-]
REMARK SMILES IDX 10 1 9 2 8 3 7 4 6 5 5 6 4 7 2 8 1 9 3 10 11 11 12 12 13 13
REMARK SMILES IDX 14 14 15 15 16 16 17 17 18 18 19 19 20 20
REMARK H PARENT
REMARK Flexibility Score: inf
ROOT
ATOM      1  C   UNL     1       5.186   2.619   8.385  1.00  0.00     0.000 C 
ENDROOT
BRANCH   1   2
ATOM      2  C   UNL     1       6.367   1.774   8.885  1.00  0.00     0.000 C 
BRANCH   2   3
ATOM      3  C   UNL     1       7.312   2.609   9.757  1.00  0.00     0.000 C 
BRANCH   3   4
ATOM      4  C   UNL     1       6.672   3.956  10.124  1.00  0.00     0.000 C 
BRANCH   4   5
ATOM      5  C   UNL     1       7.681   5.119  10.125  1.00  0.00     0.000 C 
BRANCH   5   6
ATOM      6  C   UNL     1       8.334   5.419   8.760  1.00  0.00     0.006 C 
BRANCH   6   7
ATOM      7  C   UNL     1       9.715   6.085   8.846  1.00  0.00     0.053 C 
BRANCH   7   8
ATOM      8  C   UNL     1       9.670   7.525   8.438  1.00  0.00     0.041 C 
ATOM      9  O   UNL     1       9.011   7.877   7.424  1.00  0.00    -0.550 OA
ATOM     10  O   UNL     1      10.383   8.475   9.159  1.00  0.00    -0.550 OA
ENDBRANCH   7   8
ENDBRANCH   6   7
ENDBRANCH   5   6
ENDBRANCH   4   5
ENDBRANCH   3   4
ENDBRANCH   2   3
ENDBRANCH   1   2
BRANCH   1  11
ATOM     11  C   UNL     1       3.838   1.876   8.501  1.00  0.00     0.000 C 
BRANCH  11  12
ATOM     12  C   UNL     1       2.703   2.737   9.086  1.00  0.00     0.000 C 
BRANCH  12  13
ATOM     13  C   UNL     1       1.796   2.017  10.102  1.00  0.00     0.000 C 
BRANCH  13  14
ATOM     14  C   UNL     1       0.878   0.934   9.502  1.00  0.00     0.000 C 
BRANCH  14  15
ATOM     15  C   UNL     1      -0.610   1.195   9.773  1.00  0.00     0.000 C 
BRANCH  15  16
ATOM     16  C   UNL     1      -0.856   2.674  10.108  1.00  0.00     0.006 C 
BRANCH  16  17
ATOM     17  C   UNL     1      -1.359   3.470   8.895  1.00  0.00     0.053 C 
BRANCH  17  18
ATOM     18  C   UNL     1      -1.515   4.925   9.211  1.00  0.00     0.041 C 
ATOM     19  O   UNL     1      -2.661   5.445   9.249  1.00  0.00    -0.550 OA
ATOM     20  O   UNL     1      -0.394   5.715   9.429  1.00  0.00    -0.550 OA
ENDBRANCH  17  18
ENDBRANCH  16  17
ENDBRANCH  15  16
ENDBRANCH  14  15
ENDBRANCH  13  14
ENDBRANCH  12  13
ENDBRANCH  11  12
ENDBRANCH   1  11
TORSDOF 15
ENDMDL
MODEL 9
REMARK VINA RESULT:    -2.396      4.948      7.639
REMARK INTER + INTRA:          -5.301
REMARK INTER:                  -4.757
REMARK INTRA:                  -0.544
REMARK UNBOUND:                -0.803
REMARK SMILES O=C([O-])CCCCCCCCCCCCCCC(=O)[O-]
REMARK SMILES IDX 10 1 9 2 8 3 7 4 6 5 5 6 4 7 2 8 1 9 3 10 11 11 12 12 13 13
REMARK SMILES IDX 14 14 15 15 16 16 17 17 18 18 19 19 20 20
REMARK H PARENT
REMARK Flexibility Score: inf
ROOT
ATOM      1  C   UNL     1       3.705   3.075   8.488  1.00  0.00     0.000 C 
ENDROOT
BRANCH   1   2
ATOM      2  C   UNL     1       2.237   2.846   8.878  1.00  0.00     0.000 C 
BRANCH   2   3
ATOM      3  C   UNL     1       1.631   4.106   9.506  1.00  0.00     0.000 C 
BRANCH   3   4
ATOM      4  C   UNL     1       0.148   3.892   9.846  1.00  0.00     0.000 C 
BRANCH   4   5
ATOM      5  C   UNL     1      -0.786   4.158   8.652  1.00  0.00     0.000 C 
BRANCH   5   6
ATOM      6  C   UNL     1      -1.797   5.306   8.856  1.00  0.00     0.006 C 
BRANCH   6   7
ATOM      7  C   UNL     1      -1.566   6.140  10.125  1.00  0.00     0.053 C 
BRANCH   7   8
ATOM      8  C   UNL     1      -1.574   7.609   9.839  1.00  0.00     0.041 C 
ATOM      9  O   UNL     1      -2.594   8.302  10.097  1.00  0.00    -0.550 OA
ATOM     10  O   UNL     1      -0.465   8.210   9.254  1.00  0.00    -0.550 OA
ENDBRANCH   7   8
ENDBRANCH   6   7
ENDBRANCH   5   6
ENDBRANCH   4   5
ENDBRANCH   3   4
ENDBRANCH   2   3
ENDBRANCH   1   2
BRANCH   1  11
ATOM     11  C   UNL     1       4.634   1.955   9.004  1.00  0.00     0.000 C 
BRANCH  11  12
ATOM     12  C   UNL     1       6.063   2.023   8.434  1.00  0.00     0.000 C 
BRANCH  12  13
ATOM     13  C   UNL     1       7.143   2.479   9.435  1.00  0.00     0.000 C 
BRANCH  13  14
ATOM     14  C   UNL     1       7.097   3.973   9.805  1.00  0.00     0.000 C 
BRANCH  14  15
ATOM     15  C   UNL     1       8.491   4.609   9.899  1.00  0.00     0.000 C 
BRANCH  15  16
ATOM     16  C   UNL     1       8.436   6.106   9.558  1.00  0.00     0.006 C 
BRANCH  16  17
ATOM     17  C   UNL     1       9.622   6.549   8.690  1.00  0.00     0.053 C 
BRANCH  17  18
ATOM     18  C   UNL     1       9.712   8.040   8.591  1.00  0.00     0.041 C 
ATOM     19  O   UNL     1      10.611   8.663   9.214  1.00  0.00    -0.550 OA
ATOM     20  O   UNL     1       8.782   8.745   7.838  1.00  0.00    -0.550 OA
ENDBRANCH  17  18
ENDBRANCH  16  17
ENDBRANCH  15  16
ENDBRANCH  14  15
ENDBRANCH  13  14
ENDBRANCH  12  13
ENDBRANCH  11  12
ENDBRANCH   1  11
TORSDOF 15
ENDMDL
