MODEL 1
REMARK VINA RESULT:    -5.049      0.000      0.000
REMARK INTER + INTRA:          -5.622
REMARK INTER:                  -5.492
REMARK INTRA:                  -0.130
REMARK UNBOUND:                -0.130
REMARK SMILES O=C([O-])c1ccccc1O
REMARK SMILES IDX 4 1 9 2 5 3 8 4 6 5 7 6 2 7 1 8 3 9 10 10
REMARK H PARENT 10 11
REMARK Flexibility Score: inf
ROOT
ATOM      1  C   UNL     1      22.530  55.401  31.303  1.00  0.00     0.039 A 
ATOM      2  C   UNL     1      22.037  56.316  30.337  1.00  0.00     0.124 A 
ATOM      3  C   UNL     1      23.335  55.886  32.351  1.00  0.00     0.014 A 
ATOM      4  C   UNL     1      22.409  57.665  30.408  1.00  0.00     0.047 A 
ATOM      5  C   UNL     1      23.678  57.238  32.419  1.00  0.00     0.001 A 
ATOM      6  C   UNL     1      23.224  58.124  31.444  1.00  0.00     0.004 A 
ENDROOT
BRANCH   1   7
ATOM      7  C   UNL     1      22.261  53.948  31.228  1.00  0.00     0.075 C 
ATOM      8  O   UNL     1      21.138  53.495  31.573  1.00  0.00    -0.545 OA
ATOM      9  O   UNL     1      23.257  53.059  30.846  1.00  0.00    -0.545 OA
ENDBRANCH   1   7
BRANCH   2  10
ATOM     10  O   UNL     1      21.156  55.937  29.322  1.00  0.00    -0.507 OA
ATOM     11  H   UNL     1      20.262  55.498  29.498  1.00  0.00     0.293 HD
ENDBRANCH   2  10
TORSDOF 2
ENDMDL
MODEL 2
REMARK VINA RESULT:    -4.906     20.971     22.172
REMARK INTER + INTRA:          -5.467
REMARK INTER:                  -5.219
REMARK INTRA:                  -0.248
REMARK UNBOUND:                -0.130
REMARK SMILES O=C([O-])c1ccccc1O
REMARK SMILES IDX 4 1 9 2 5 3 8 4 6 5 7 6 2 7 1 8 3 9 10 10
REMARK H PARENT 10 11
REMARK Flexibility Score: inf
ROOT
ATOM      1  C   UNL     1       9.122  46.733  16.388  1.00  0.00     0.039 A 
ATOM      2  C   UNL     1      10.243  46.946  15.545  1.00  0.00     0.124 A 
ATOM      3  C   UNL     1       7.960  46.154  15.842  1.00  0.00     0.014 A 
ATOM      4  C   UNL     1      10.153  46.637  14.182  1.00  0.00     0.047 A 
ATOM      5  C   UNL     1       7.895  45.832  14.484  1.00  0.00     0.001 A 
ATOM      6  C   UNL     1       8.987  46.082  13.654  1.00  0.00     0.004 A 
ENDROOT
BRANCH   1   7
ATOM      7  C   UNL     1       9.114  47.132  17.812  1.00  0.00     0.075 C 
ATOM      8  O   UNL     1       9.708  48.180  18.178  1.00  0.00    -0.545 OA
ATOM      9  O   UNL     1       8.514  46.327  18.773  1.00  0.00    -0.545 OA
ENDBRANCH   1   7
BRANCH   2  10
ATOM     10  O   UNL     1      11.465  47.424  16.024  1.00  0.00    -0.507 OA
ATOM     11  H   UNL     1      11.654  48.404  16.183  1.00  0.00     0.293 HD
ENDBRANCH   2  10
TORSDOF 2
ENDMDL
MODEL 3
REMARK VINA RESULT:    -4.896     17.579     18.927
REMARK INTER + INTRA:          -5.455
REMARK INTER:                  -5.208
REMARK INTRA:                  -0.247
REMARK UNBOUND:                -0.130
REMARK SMILES O=C([O-])c1ccccc1O
REMARK SMILES IDX 4 1 9 2 5 3 8 4 6 5 7 6 2 7 1 8 3 9 10 10
REMARK H PARENT 10 11
REMARK Flexibility Score: inf
ROOT
ATOM      1  C   UNL     1       9.473  46.563  21.910  1.00  0.00     0.039 A 
ATOM      2  C   UNL     1       8.595  45.496  21.591  1.00  0.00     0.124 A 
ATOM      3  C   UNL     1       9.564  46.992  23.249  1.00  0.00     0.014 A 
ATOM      4  C   UNL     1       7.794  44.934  22.593  1.00  0.00     0.047 A 
ATOM      5  C   UNL     1       8.774  46.406  24.240  1.00  0.00     0.001 A 
ATOM      6  C   UNL     1       7.883  45.385  23.910  1.00  0.00     0.004 A 
ENDROOT
BRANCH   1   7
ATOM      7  C   UNL     1      10.270  47.269  20.884  1.00  0.00     0.075 C 
ATOM      8  O   UNL     1       9.802  47.440  19.727  1.00  0.00    -0.545 OA
ATOM      9  O   UNL     1      11.566  47.691  21.154  1.00  0.00    -0.545 OA
ENDBRANCH   1   7
BRANCH   2  10
ATOM     10  O   UNL     1       8.516  44.946  20.309  1.00  0.00    -0.507 OA
ATOM     11  H   UNL     1       9.104  44.186  19.993  1.00  0.00     0.293 HD
ENDBRANCH   2  10
TORSDOF 2
ENDMDL
MODEL 4
REMARK VINA RESULT:    -4.846     18.173     19.565
REMARK INTER + INTRA:          -5.401
REMARK INTER:                  -5.149
REMARK INTRA:                  -0.253
REMARK UNBOUND:                -0.130
REMARK SMILES O=C([O-])c1ccccc1O
REMARK SMILES IDX 4 1 9 2 5 3 8 4 6 5 7 6 2 7 1 8 3 9 10 10
REMARK H PARENT 10 11
REMARK Flexibility Score: inf
ROOT
ATOM      1  C   UNL     1       7.728  46.032  24.243  1.00  0.00     0.039 A 
ATOM      2  C   UNL     1       7.440  45.143  23.176  1.00  0.00     0.124 A 
ATOM      3  C   UNL     1       6.689  46.400  25.120  1.00  0.00     0.014 A 
ATOM      4  C   UNL     1       6.127  44.700  22.978  1.00  0.00     0.047 A 
ATOM      5  C   UNL     1       5.389  45.931  24.921  1.00  0.00     0.001 A 
ATOM      6  C   UNL     1       5.106  45.090  23.846  1.00  0.00     0.004 A 
ENDROOT
BRANCH   1   7
ATOM      7  C   UNL     1       9.070  46.619  24.447  1.00  0.00     0.075 C 
ATOM      8  O   UNL     1       9.496  46.833  25.613  1.00  0.00    -0.545 OA
ATOM      9  O   UNL     1       9.850  47.006  23.365  1.00  0.00    -0.545 OA
ENDBRANCH   1   7
BRANCH   2  10
ATOM     10  O   UNL     1       8.429  44.652  22.319  1.00  0.00    -0.507 OA
ATOM     11  H   UNL     1       8.321  44.607  21.315  1.00  0.00     0.293 HD
ENDBRANCH   2  10
TORSDOF 2
ENDMDL
MODEL 5
REMARK VINA RESULT:    -4.827     18.691     20.126
REMARK INTER + INTRA:          -5.380
REMARK INTER:                  -5.130
REMARK INTRA:                  -0.250
REMARK UNBOUND:                -0.130
REMARK SMILES O=C([O-])c1ccccc1O
REMARK SMILES IDX 4 1 9 2 5 3 8 4 6 5 7 6 2 7 1 8 3 9 10 10
REMARK H PARENT 10 11
REMARK Flexibility Score: inf
ROOT
ATOM      1  C   UNL     1       7.089  45.741  24.114  1.00  0.00     0.039 A 
ATOM      2  C   UNL     1       6.159  46.150  25.104  1.00  0.00     0.124 A 
ATOM      3  C   UNL     1       6.650  44.898  23.075  1.00  0.00     0.014 A 
ATOM      4  C   UNL     1       4.847  45.662  25.066  1.00  0.00     0.047 A 
ATOM      5  C   UNL     1       5.332  44.437  23.040  1.00  0.00     0.001 A 
ATOM      6  C   UNL     1       4.434  44.811  24.039  1.00  0.00     0.004 A 
ENDROOT
BRANCH   1   7
ATOM      7  C   UNL     1       8.514  46.136  24.153  1.00  0.00     0.075 C 
ATOM      8  O   UNL     1       9.125  46.191  25.254  1.00  0.00    -0.545 OA
ATOM      9  O   UNL     1       9.179  46.518  22.995  1.00  0.00    -0.545 OA
ENDBRANCH   1   7
BRANCH   2  10
ATOM     10  O   UNL     1       6.485  47.060  26.112  1.00  0.00    -0.507 OA
ATOM     11  H   UNL     1       6.294  46.897  27.092  1.00  0.00     0.293 HD
ENDBRANCH   2  10
TORSDOF 2
ENDMDL
MODEL 6
REMARK VINA RESULT:    -4.810     16.251     17.074
REMARK INTER + INTRA:          -5.361
REMARK INTER:                  -5.111
REMARK INTRA:                  -0.251
REMARK UNBOUND:                -0.130
REMARK SMILES O=C([O-])c1ccccc1O
REMARK SMILES IDX 4 1 9 2 5 3 8 4 6 5 7 6 2 7 1 8 3 9 10 10
REMARK H PARENT 10 11
REMARK Flexibility Score: inf
ROOT
ATOM      1  C   UNL     1       9.365  49.531  22.795  1.00  0.00     0.039 A 
ATOM      2  C   UNL     1       8.603  50.708  22.583  1.00  0.00     0.124 A 
ATOM      3  C   UNL     1      10.035  48.947  21.702  1.00  0.00     0.014 A 
ATOM      4  C   UNL     1       8.480  51.229  21.288  1.00  0.00     0.047 A 
ATOM      5  C   UNL     1       9.918  49.492  20.422  1.00  0.00     0.001 A 
ATOM      6  C   UNL     1       9.135  50.626  20.214  1.00  0.00     0.004 A 
ENDROOT
BRANCH   1   7
ATOM      7  C   UNL     1       9.453  48.870  24.116  1.00  0.00     0.075 C 
ATOM      8  O   UNL     1      10.483  48.216  24.429  1.00  0.00    -0.545 OA
ATOM      9  O   UNL     1       8.381  48.901  24.999  1.00  0.00    -0.545 OA
ENDBRANCH   1   7
BRANCH   2  10
ATOM     10  O   UNL     1       7.989  51.405  23.625  1.00  0.00    -0.507 OA
ATOM     11  H   UNL     1       7.189  51.052  24.134  1.00  0.00     0.293 HD
ENDBRANCH   2  10
TORSDOF 2
ENDMDL
MODEL 7
REMARK VINA RESULT:    -4.796     15.925     17.091
REMARK INTER + INTRA:          -5.347
REMARK INTER:                  -5.093
REMARK INTRA:                  -0.253
REMARK UNBOUND:                -0.130
REMARK SMILES O=C([O-])c1ccccc1O
REMARK SMILES IDX 4 1 9 2 5 3 8 4 6 5 7 6 2 7 1 8 3 9 10 10
REMARK H PARENT 10 11
REMARK Flexibility Score: inf
ROOT
ATOM      1  C   UNL     1       7.093  49.280  27.438  1.00  0.00     0.039 A 
ATOM      2  C   UNL     1       8.004  49.135  28.516  1.00  0.00     0.124 A 
ATOM      3  C   UNL     1       6.002  50.159  27.583  1.00  0.00     0.014 A 
ATOM      4  C   UNL     1       7.769  49.814  29.718  1.00  0.00     0.047 A 
ATOM      5  C   UNL     1       5.795  50.846  28.781  1.00  0.00     0.001 A 
ATOM      6  C   UNL     1       6.672  50.666  29.850  1.00  0.00     0.004 A 
ENDROOT
BRANCH   1   7
ATOM      7  C   UNL     1       7.224  48.514  26.180  1.00  0.00     0.075 C 
ATOM      8  O   UNL     1       6.223  47.924  25.691  1.00  0.00    -0.545 OA
ATOM      9  O   UNL     1       8.458  48.373  25.557  1.00  0.00    -0.545 OA
ENDBRANCH   1   7
BRANCH   2  10
ATOM     10  O   UNL     1       9.162  48.360  28.422  1.00  0.00    -0.507 OA
ATOM     11  H   UNL     1       9.686  48.044  29.227  1.00  0.00     0.293 HD
ENDBRANCH   2  10
TORSDOF 2
ENDMDL
MODEL 8
REMARK VINA RESULT:    -4.721     16.747     17.233
REMARK INTER + INTRA:          -5.265
REMARK INTER:                  -5.026
REMARK INTRA:                  -0.239
REMARK UNBOUND:                -0.130
REMARK SMILES O=C([O-])c1ccccc1O
REMARK SMILES IDX 4 1 9 2 5 3 8 4 6 5 7 6 2 7 1 8 3 9 10 10
REMARK H PARENT 10 11
REMARK Flexibility Score: inf
ROOT
ATOM      1  C   UNL     1       9.826  49.112  21.836  1.00  0.00     0.039 A 
ATOM      2  C   UNL     1       9.116  49.898  22.780  1.00  0.00     0.124 A 
ATOM      3  C   UNL     1       9.869  49.535  20.494  1.00  0.00     0.014 A 
ATOM      4  C   UNL     1       8.424  51.038  22.352  1.00  0.00     0.047 A 
ATOM      5  C   UNL     1       9.191  50.687  20.088  1.00  0.00     0.001 A 
ATOM      6  C   UNL     1       8.462  51.431  21.014  1.00  0.00     0.004 A 
ENDROOT
BRANCH   1   7
ATOM      7  C   UNL     1      10.491  47.842  22.201  1.00  0.00     0.075 C 
ATOM      8  O   UNL     1      11.656  47.598  21.788  1.00  0.00    -0.545 OA
ATOM      9  O   UNL     1       9.823  46.875  22.941  1.00  0.00    -0.545 OA
ENDBRANCH   1   7
BRANCH   2  10
ATOM     10  O   UNL     1       9.104  49.603  24.146  1.00  0.00    -0.507 OA
ATOM     11  H   UNL     1       9.016  50.308  24.865  1.00  0.00     0.293 HD
ENDBRANCH   2  10
TORSDOF 2
ENDMDL
MODEL 9
REMARK VINA RESULT:    -4.706     16.476     17.070
REMARK INTER + INTRA:          -5.249
REMARK INTER:                  -5.000
REMARK INTRA:                  -0.249
REMARK UNBOUND:                -0.130
REMARK SMILES O=C([O-])c1ccccc1O
REMARK SMILES IDX 4 1 9 2 5 3 8 4 6 5 7 6 2 7 1 8 3 9 10 10
REMARK H PARENT 10 11
REMARK Flexibility Score: inf
ROOT
ATOM      1  C   UNL     1       9.811  49.173  22.160  1.00  0.00     0.039 A 
ATOM      2  C   UNL     1       9.838  49.539  20.790  1.00  0.00     0.124 A 
ATOM      3  C   UNL     1       9.020  49.925  23.050  1.00  0.00     0.014 A 
ATOM      4  C   UNL     1       9.133  50.670  20.361  1.00  0.00     0.047 A 
ATOM      5  C   UNL     1       8.306  51.038  22.601  1.00  0.00     0.001 A 
ATOM      6  C   UNL     1       8.370  51.416  21.261  1.00  0.00     0.004 A 
ENDROOT
BRANCH   1   7
ATOM      7  C   UNL     1      10.613  48.052  22.698  1.00  0.00     0.075 C 
ATOM      8  O   UNL     1      10.222  47.428  23.720  1.00  0.00    -0.545 OA
ATOM      9  O   UNL     1      11.836  47.716  22.131  1.00  0.00    -0.545 OA
ENDBRANCH   1   7
BRANCH   2  10
ATOM     10  O   UNL     1      10.517  48.791  19.825  1.00  0.00    -0.507 OA
ATOM     11  H   UNL     1      10.920  49.196  18.990  1.00  0.00     0.293 HD
ENDBRANCH   2  10
TORSDOF 2
ENDMDL
