MODEL 1
REMARK VINA RESULT:    -3.880      0.000      0.000
REMARK INTER + INTRA:          -3.880
REMARK INTER:                  -3.880
REMARK INTRA:                   0.000
REMARK UNBOUND:                 0.000
REMARK SMILES C=C1[C@H]2CC[C@H](C2)C1(C)C
REMARK SMILES IDX 9 1 8 2 6 3 5 4 4 5 3 6 7 7 2 8 1 9 10 10
REMARK H PARENT
REMARK Flexibility Score: inf
ROOT
ATOM      1  C   UNL     1     134.876 134.875 160.532  1.00  0.00     0.016 C 
ATOM      2  C   UNL     1     135.595 136.098 161.141  1.00  0.00    -0.012 C 
ATOM      3  C   UNL     1     134.930 136.536 162.493  1.00  0.00    -0.001 C 
ATOM      4  C   UNL     1     135.527 137.871 163.002  1.00  0.00     0.005 C 
ATOM      5  C   UNL     1     136.971 137.479 163.379  1.00  0.00     0.008 C 
ATOM      6  C   UNL     1     136.989 135.959 163.145  1.00  0.00     0.015 C 
ATOM      7  C   UNL     1     135.567 135.584 163.498  1.00  0.00     0.012 C 
ATOM      8  C   UNL     1     136.967 135.731 161.657  1.00  0.00    -0.068 C 
ATOM      9  C   UNL     1     138.011 135.327 160.924  1.00  0.00     0.008 C 
ATOM     10  C   UNL     1     135.662 137.222 160.081  1.00  0.00     0.016 C 
ENDROOT
TORSDOF 0
ENDMDL
MODEL 2
REMARK VINA RESULT:    -3.766     15.479     17.364
REMARK INTER + INTRA:          -3.766
REMARK INTER:                  -3.766
REMARK INTRA:                   0.000
REMARK UNBOUND:                 0.000
REMARK SMILES C=C1[C@H]2CC[C@H](C2)C1(C)C
REMARK SMILES IDX 9 1 8 2 6 3 5 4 4 5 3 6 7 7 2 8 1 9 10 10
REMARK H PARENT
REMARK Flexibility Score: inf
ROOT
ATOM      1  C   UNL     1     155.077 137.818 162.877  1.00  0.00     0.016 C 
ATOM      2  C   UNL     1     153.665 137.192 162.865  1.00  0.00    -0.012 C 
ATOM      3  C   UNL     1     152.936 137.456 161.501  1.00  0.00    -0.001 C 
ATOM      4  C   UNL     1     151.458 136.998 161.561  1.00  0.00     0.005 C 
ATOM      5  C   UNL     1     151.578 135.462 161.656  1.00  0.00     0.008 C 
ATOM      6  C   UNL     1     153.093 135.226 161.529  1.00  0.00     0.015 C 
ATOM      7  C   UNL     1     153.497 136.356 160.608  1.00  0.00     0.012 C 
ATOM      8  C   UNL     1     153.731 135.684 162.814  1.00  0.00    -0.068 C 
ATOM      9  C   UNL     1     154.216 134.876 163.764  1.00  0.00     0.008 C 
ATOM     10  C   UNL     1     152.883 137.692 164.102  1.00  0.00     0.016 C 
ENDROOT
TORSDOF 0
ENDMDL
MODEL 3
REMARK VINA RESULT:    -3.638      1.298      2.952
REMARK INTER + INTRA:          -3.638
REMARK INTER:                  -3.638
REMARK INTRA:                   0.000
REMARK UNBOUND:                 0.000
REMARK SMILES C=C1[C@H]2CC[C@H](C2)C1(C)C
REMARK SMILES IDX 9 1 8 2 6 3 5 4 4 5 3 6 7 7 2 8 1 9 10 10
REMARK H PARENT
REMARK Flexibility Score: inf
ROOT
ATOM      1  C   UNL     1     138.629 138.269 161.895  1.00  0.00     0.016 C 
ATOM      2  C   UNL     1     137.906 137.081 162.568  1.00  0.00    -0.012 C 
ATOM      3  C   UNL     1     136.348 137.255 162.509  1.00  0.00    -0.001 C 
ATOM      4  C   UNL     1     135.633 136.168 163.348  1.00  0.00     0.005 C 
ATOM      5  C   UNL     1     135.919 134.876 162.552  1.00  0.00     0.008 C 
ATOM      6  C   UNL     1     136.662 135.395 161.309  1.00  0.00     0.015 C 
ATOM      7  C   UNL     1     136.012 136.746 161.112  1.00  0.00     0.012 C 
ATOM      8  C   UNL     1     138.038 135.819 161.749  1.00  0.00    -0.068 C 
ATOM      9  C   UNL     1     139.168 135.149 161.498  1.00  0.00     0.008 C 
ATOM     10  C   UNL     1     138.463 136.899 163.999  1.00  0.00     0.016 C 
ENDROOT
TORSDOF 0
ENDMDL
MODEL 4
REMARK VINA RESULT:    -3.518     15.876     17.504
REMARK INTER + INTRA:          -3.518
REMARK INTER:                  -3.518
REMARK INTRA:                   0.000
REMARK UNBOUND:                 0.000
REMARK SMILES C=C1[C@H]2CC[C@H](C2)C1(C)C
REMARK SMILES IDX 9 1 8 2 6 3 5 4 4 5 3 6 7 7 2 8 1 9 10 10
REMARK H PARENT
REMARK Flexibility Score: inf
ROOT
ATOM      1  C   UNL     1     151.997 135.126 161.960  1.00  0.00     0.016 C 
ATOM      2  C   UNL     1     152.676 136.512 162.018  1.00  0.00    -0.012 C 
ATOM      3  C   UNL     1     152.976 136.939 163.497  1.00  0.00    -0.001 C 
ATOM      4  C   UNL     1     153.477 138.402 163.565  1.00  0.00     0.005 C 
ATOM      5  C   UNL     1     154.862 138.323 162.887  1.00  0.00     0.008 C 
ATOM      6  C   UNL     1     155.028 136.817 162.616  1.00  0.00     0.015 C 
ATOM      7  C   UNL     1     154.286 136.217 163.791  1.00  0.00     0.012 C 
ATOM      8  C   UNL     1     154.092 136.455 161.493  1.00  0.00    -0.068 C 
ATOM      9  C   UNL     1     154.465 136.188 160.236  1.00  0.00     0.008 C 
ATOM     10  C   UNL     1     151.813 137.528 161.234  1.00  0.00     0.016 C 
ENDROOT
TORSDOF 0
ENDMDL
MODEL 5
REMARK VINA RESULT:    -3.237     15.470     17.265
REMARK INTER + INTRA:          -3.237
REMARK INTER:                  -3.237
REMARK INTRA:                   0.000
REMARK UNBOUND:                 0.000
REMARK SMILES C=C1[C@H]2CC[C@H](C2)C1(C)C
REMARK SMILES IDX 9 1 8 2 6 3 5 4 4 5 3 6 7 7 2 8 1 9 10 10
REMARK H PARENT
REMARK Flexibility Score: inf
ROOT
ATOM      1  C   UNL     1     153.251 137.934 164.363  1.00  0.00     0.016 C 
ATOM      2  C   UNL     1     153.588 137.313 162.990  1.00  0.00    -0.012 C 
ATOM      3  C   UNL     1     152.852 135.943 162.787  1.00  0.00    -0.001 C 
ATOM      4  C   UNL     1     153.338 135.232 161.500  1.00  0.00     0.005 C 
ATOM      5  C   UNL     1     152.795 136.144 160.379  1.00  0.00     0.008 C 
ATOM      6  C   UNL     1     151.979 137.194 161.153  1.00  0.00     0.015 C 
ATOM      7  C   UNL     1     151.468 136.377 162.319  1.00  0.00     0.012 C 
ATOM      8  C   UNL     1     152.956 138.094 161.861  1.00  0.00    -0.068 C 
ATOM      9  C   UNL     1     153.246 139.350 161.503  1.00  0.00     0.008 C 
ATOM     10  C   UNL     1     155.125 137.228 162.840  1.00  0.00     0.016 C 
ENDROOT
TORSDOF 0
ENDMDL
MODEL 6
REMARK VINA RESULT:    -3.198     15.597     17.256
REMARK INTER + INTRA:          -3.198
REMARK INTER:                  -3.198
REMARK INTRA:                   0.000
REMARK UNBOUND:                 0.000
REMARK SMILES C=C1[C@H]2CC[C@H](C2)C1(C)C
REMARK SMILES IDX 9 1 8 2 6 3 5 4 4 5 3 6 7 7 2 8 1 9 10 10
REMARK H PARENT
REMARK Flexibility Score: inf
ROOT
ATOM      1  C   UNL     1     151.495 137.818 161.059  1.00  0.00     0.016 C 
ATOM      2  C   UNL     1     152.822 137.144 161.471  1.00  0.00    -0.012 C 
ATOM      3  C   UNL     1     153.685 138.090 162.377  1.00  0.00    -0.001 C 
ATOM      4  C   UNL     1     155.091 137.493 162.628  1.00  0.00     0.005 C 
ATOM      5  C   UNL     1     154.789 136.264 163.512  1.00  0.00     0.008 C 
ATOM      6  C   UNL     1     153.272 136.372 163.747  1.00  0.00     0.015 C 
ATOM      7  C   UNL     1     153.076 137.872 163.757  1.00  0.00     0.012 C 
ATOM      8  C   UNL     1     152.588 136.020 162.452  1.00  0.00    -0.068 C 
ATOM      9  C   UNL     1     151.939 134.875 162.211  1.00  0.00     0.008 C 
ATOM     10  C   UNL     1     153.553 136.654 160.199  1.00  0.00     0.016 C 
ENDROOT
TORSDOF 0
ENDMDL
MODEL 7
REMARK VINA RESULT:    -3.189     16.239     17.818
REMARK INTER + INTRA:          -3.189
REMARK INTER:                  -3.189
REMARK INTRA:                   0.000
REMARK UNBOUND:                 0.000
REMARK SMILES C=C1[C@H]2CC[C@H](C2)C1(C)C
REMARK SMILES IDX 9 1 8 2 6 3 5 4 4 5 3 6 7 7 2 8 1 9 10 10
REMARK H PARENT
REMARK Flexibility Score: inf
ROOT
ATOM      1  C   UNL     1     139.147 155.125 161.699  1.00  0.00     0.016 C 
ATOM      2  C   UNL     1     138.167 153.942 161.857  1.00  0.00    -0.012 C 
ATOM      3  C   UNL     1     137.924 153.601 163.369  1.00  0.00    -0.001 C 
ATOM      4  C   UNL     1     137.098 152.301 163.522  1.00  0.00     0.005 C 
ATOM      5  C   UNL     1     135.711 152.709 162.981  1.00  0.00     0.008 C 
ATOM      6  C   UNL     1     135.883 154.211 162.690  1.00  0.00     0.015 C 
ATOM      7  C   UNL     1     136.860 154.616 163.771  1.00  0.00     0.012 C 
ATOM      8  C   UNL     1     136.760 154.337 161.472  1.00  0.00    -0.068 C 
ATOM      9  C   UNL     1     136.338 154.685 160.251  1.00  0.00     0.008 C 
ATOM     10  C   UNL     1     138.679 152.748 161.018  1.00  0.00     0.016 C 
ENDROOT
TORSDOF 0
ENDMDL
MODEL 8
REMARK VINA RESULT:    -3.182     15.718     17.342
REMARK INTER + INTRA:          -3.182
REMARK INTER:                  -3.182
REMARK INTRA:                   0.000
REMARK UNBOUND:                 0.000
REMARK SMILES C=C1[C@H]2CC[C@H](C2)C1(C)C
REMARK SMILES IDX 9 1 8 2 6 3 5 4 4 5 3 6 7 7 2 8 1 9 10 10
REMARK H PARENT
REMARK Flexibility Score: inf
ROOT
ATOM      1  C   UNL     1     135.014 152.545 162.808  1.00  0.00     0.016 C 
ATOM      2  C   UNL     1     136.518 152.681 162.484  1.00  0.00    -0.012 C 
ATOM      3  C   UNL     1     136.784 153.871 161.497  1.00  0.00    -0.001 C 
ATOM      4  C   UNL     1     138.258 153.886 161.024  1.00  0.00     0.005 C 
ATOM      5  C   UNL     1     139.026 154.259 162.310  1.00  0.00     0.008 C 
ATOM      6  C   UNL     1     137.898 154.517 163.324  1.00  0.00     0.015 C 
ATOM      7  C   UNL     1     136.813 155.075 162.430  1.00  0.00     0.012 C 
ATOM      8  C   UNL     1     137.296 153.183 163.678  1.00  0.00    -0.068 C 
ATOM      9  C   UNL     1     137.477 152.540 164.837  1.00  0.00     0.008 C 
ATOM     10  C   UNL     1     137.051 151.318 161.983  1.00  0.00     0.016 C 
ENDROOT
TORSDOF 0
ENDMDL
