MODEL 1
REMARK VINA RESULT:    -5.204      0.000      0.000
REMARK INTER + INTRA:          -9.383
REMARK INTER:                  -8.095
REMARK INTRA:                  -1.288
REMARK UNBOUND:                -1.288
REMARK SMILES C[C@]12C[C@H](O)[C@@H]3C[C@@]1(O[C@@H]1O[C@H](CO)[C@H](O)[C@H](O)[C@@H]1O)[C@]3(COC(=O)c1ccccc1)C(=O)O2
REMARK SMILES IDX 1 1 2 2 3 3 4 4 6 5 7 6 8 7 21 8 32 9 33 10 34 11 9 12 10 13
REMARK SMILES IDX 19 14 11 15 17 16 12 17 15 18 20 19 18 21 13 23 14 24 16 26
REMARK SMILES IDX 5 28 22 30 23 31 24 32 25 33 26 34 27 35 31 36 28 37 30 38
REMARK SMILES IDX 29 39
REMARK H PARENT 20 20 18 22 14 25 16 27 5 29
REMARK Flexibility Score: inf
ROOT
ATOM      1  C   UNL     1       6.667  -3.041  12.162  1.00  0.00     0.060 C 
ATOM      2  C   UNL     1       7.332  -4.190  12.921  1.00  0.00     0.142 C 
ATOM      3  C   UNL     1       7.399  -5.483  12.037  1.00  0.00     0.083 C 
ATOM      4  C   UNL     1       7.796  -6.734  12.901  1.00  0.00     0.123 C 
ATOM      5  C   UNL     1       7.349  -6.541  14.386  1.00  0.00     0.045 C 
ATOM      6  C   UNL     1       5.957  -5.878  14.366  1.00  0.00     0.049 C 
ATOM      7  C   UNL     1       6.710  -4.528  14.357  1.00  0.00     0.131 C 
ATOM      8  C   UNL     1       7.943  -5.223  14.989  1.00  0.00     0.140 C 
ATOM      9  C   UNL     1       9.095  -4.562  14.302  1.00  0.00     0.319 C 
ATOM     10  O   UNL     1      10.309  -4.670  14.630  1.00  0.00    -0.251 OA
ATOM     11  O   UNL     1       8.681  -3.852  13.202  1.00  0.00    -0.456 OA
ENDROOT
BRANCH   7  12
ATOM     12  O   UNL     1       6.193  -3.369  15.025  1.00  0.00    -0.338 OA
BRANCH  12  13
ATOM     13  C   UNL     1       4.777  -3.290  15.147  1.00  0.00     0.282 C 
ATOM     14  C   UNL     1       4.361  -3.272  16.632  1.00  0.00     0.202 C 
ATOM     15  O   UNL     1       4.221  -2.213  14.395  1.00  0.00    -0.341 OA
ATOM     16  C   UNL     1       4.685  -1.925  17.285  1.00  0.00     0.179 C 
ATOM     17  C   UNL     1       4.408  -0.914  14.945  1.00  0.00     0.178 C 
ATOM     18  C   UNL     1       4.044  -0.811  16.455  1.00  0.00     0.177 C 
BRANCH  14  19
ATOM     19  O   UNL     1       5.003  -4.317  17.322  1.00  0.00    -0.385 OA
ATOM     20  H   UNL     1       4.397  -4.590  18.059  1.00  0.00     0.211 HD
ENDBRANCH  14  19
BRANCH  16  21
ATOM     21  O   UNL     1       6.077  -1.734  17.391  1.00  0.00    -0.387 OA
ATOM     22  H   UNL     1       6.284  -1.630  18.357  1.00  0.00     0.211 HD
ENDBRANCH  16  21
BRANCH  17  23
ATOM     23  C   UNL     1       5.781  -0.338  14.559  1.00  0.00     0.191 C 
BRANCH  23  24
ATOM     24  O   UNL     1       5.723   1.060  14.476  1.00  0.00    -0.394 OA
ATOM     25  H   UNL     1       4.915   1.275  13.939  1.00  0.00     0.210 HD
ENDBRANCH  23  24
ENDBRANCH  17  23
BRANCH  18  26
ATOM     26  O   UNL     1       4.404   0.439  16.988  1.00  0.00    -0.387 OA
ATOM     27  H   UNL     1       3.673   0.692  17.623  1.00  0.00     0.211 HD
ENDBRANCH  18  26
ENDBRANCH  12  13
ENDBRANCH   7  12
BRANCH   4  28
ATOM     28  O   UNL     1       7.199  -7.888  12.376  1.00  0.00    -0.393 OA
ATOM     29  H   UNL     1       7.804  -8.206  11.654  1.00  0.00     0.210 HD
ENDBRANCH   4  28
BRANCH   8  30
ATOM     30  C   UNL     1       8.086  -5.255  16.525  1.00  0.00     0.255 C 
BRANCH  30  31
ATOM     31  O   UNL     1       8.143  -3.923  17.030  1.00  0.00    -0.461 OA
BRANCH  31  32
ATOM     32  C   UNL     1       9.258  -3.414  17.701  1.00  0.00     0.338 C 
ATOM     33  O   UNL     1       9.661  -2.245  17.461  1.00  0.00    -0.246 OA
BRANCH  32  34
ATOM     34  C   UNL     1       9.970  -4.255  18.682  1.00  0.00     0.060 A 
ATOM     35  C   UNL     1       9.638  -4.179  20.049  1.00  0.00     0.015 A 
ATOM     36  C   UNL     1      10.971  -5.156  18.266  1.00  0.00     0.015 A 
ATOM     37  C   UNL     1      10.286  -4.997  20.982  1.00  0.00     0.001 A 
ATOM     38  C   UNL     1      11.613  -5.976  19.202  1.00  0.00     0.001 A 
ATOM     39  C   UNL     1      11.271  -5.897  20.558  1.00  0.00     0.000 A 
ENDBRANCH  32  34
ENDBRANCH  31  32
ENDBRANCH  30  31
ENDBRANCH   8  30
TORSDOF 12
ENDMDL
MODEL 2
REMARK VINA RESULT:    -5.057     12.095     15.157
REMARK INTER + INTRA:          -9.153
REMARK INTER:                  -7.977
REMARK INTRA:                  -1.176
REMARK UNBOUND:                -1.288
REMARK SMILES C[C@]12C[C@H](O)[C@@H]3C[C@@]1(O[C@@H]1O[C@H](CO)[C@H](O)[C@H](O)[C@@H]1O)[C@]3(COC(=O)c1ccccc1)C(=O)O2
REMARK SMILES IDX 1 1 2 2 3 3 4 4 6 5 7 6 8 7 21 8 32 9 33 10 34 11 9 12 10 13
REMARK SMILES IDX 19 14 11 15 17 16 12 17 15 18 20 19 18 21 13 23 14 24 16 26
REMARK SMILES IDX 5 28 22 30 23 31 24 32 25 33 26 34 27 35 31 36 28 37 30 38
REMARK SMILES IDX 29 39
REMARK H PARENT 20 20 18 22 14 25 16 27 5 29
REMARK Flexibility Score: inf
ROOT
ATOM      1  C   UNL     1      21.736  -3.836   8.497  1.00  0.00     0.060 C 
ATOM      2  C   UNL     1      20.647  -2.855   8.936  1.00  0.00     0.142 C 
ATOM      3  C   UNL     1      20.458  -1.716   7.875  1.00  0.00     0.083 C 
ATOM      4  C   UNL     1      19.572  -0.554   8.452  1.00  0.00     0.123 C 
ATOM      5  C   UNL     1      19.704  -0.482  10.008  1.00  0.00     0.045 C 
ATOM      6  C   UNL     1      21.186  -0.729  10.356  1.00  0.00     0.049 C 
ATOM      7  C   UNL     1      20.822  -2.231  10.400  1.00  0.00     0.131 C 
ATOM      8  C   UNL     1      19.342  -1.854  10.671  1.00  0.00     0.140 C 
ATOM      9  C   UNL     1      18.582  -2.868   9.878  1.00  0.00     0.319 C 
ATOM     10  O   UNL     1      17.339  -3.075   9.944  1.00  0.00    -0.251 OA
ATOM     11  O   UNL     1      19.401  -3.530   8.996  1.00  0.00    -0.456 OA
ENDROOT
BRANCH   7  12
ATOM     12  O   UNL     1      21.449  -3.135  11.319  1.00  0.00    -0.338 OA
BRANCH  12  13
ATOM     13  C   UNL     1      22.789  -2.828  11.690  1.00  0.00     0.282 C 
ATOM     14  C   UNL     1      22.890  -2.597  13.211  1.00  0.00     0.202 C 
ATOM     15  O   UNL     1      23.727  -3.787  11.203  1.00  0.00    -0.341 OA
ATOM     16  C   UNL     1      22.775  -3.914  13.984  1.00  0.00     0.179 C 
ATOM     17  C   UNL     1      23.750  -5.032  11.892  1.00  0.00     0.178 C 
ATOM     18  C   UNL     1      23.817  -4.895  13.441  1.00  0.00     0.177 C 
BRANCH  14  19
ATOM     19  O   UNL     1      21.891  -1.697  13.627  1.00  0.00    -0.385 OA
ATOM     20  H   UNL     1      21.018  -2.125  13.427  1.00  0.00     0.211 HD
ENDBRANCH  14  19
BRANCH  16  21
ATOM     21  O   UNL     1      21.477  -4.454  13.877  1.00  0.00    -0.387 OA
ATOM     22  H   UNL     1      20.840  -3.727  14.102  1.00  0.00     0.211 HD
ENDBRANCH  16  21
BRANCH  17  23
ATOM     23  C   UNL     1      22.662  -5.982  11.363  1.00  0.00     0.191 C 
BRANCH  23  24
ATOM     24  O   UNL     1      23.159  -7.288  11.251  1.00  0.00    -0.394 OA
ATOM     25  H   UNL     1      23.527  -7.524  12.144  1.00  0.00     0.210 HD
ENDBRANCH  23  24
ENDBRANCH  17  23
BRANCH  18  26
ATOM     26  O   UNL     1      23.668  -6.139  14.077  1.00  0.00    -0.387 OA
ATOM     27  H   UNL     1      24.589  -6.437  14.328  1.00  0.00     0.211 HD
ENDBRANCH  18  26
ENDBRANCH  12  13
ENDBRANCH   7  12
BRANCH   4  28
ATOM     28  O   UNL     1      19.959   0.669   7.889  1.00  0.00    -0.393 OA
ATOM     29  H   UNL     1      20.515   1.125   8.576  1.00  0.00     0.210 HD
ENDBRANCH   4  28
BRANCH   8  30
ATOM     30  C   UNL     1      18.852  -1.727  12.129  1.00  0.00     0.255 C 
BRANCH  30  31
ATOM     31  O   UNL     1      17.797  -0.772  12.199  1.00  0.00    -0.461 OA
BRANCH  31  32
ATOM     32  C   UNL     1      17.547  -0.001  13.337  1.00  0.00     0.338 C 
ATOM     33  O   UNL     1      16.379   0.080  13.803  1.00  0.00    -0.246 OA
BRANCH  32  34
ATOM     34  C   UNL     1      18.654   0.730  13.985  1.00  0.00     0.060 A 
ATOM     35  C   UNL     1      18.954   0.496  15.341  1.00  0.00     0.015 A 
ATOM     36  C   UNL     1      19.433   1.650  13.256  1.00  0.00     0.015 A 
ATOM     37  C   UNL     1      20.023   1.161  15.954  1.00  0.00     0.001 A 
ATOM     38  C   UNL     1      20.504   2.308  13.872  1.00  0.00     0.001 A 
ATOM     39  C   UNL     1      20.799   2.064  15.219  1.00  0.00     0.000 A 
ENDBRANCH  32  34
ENDBRANCH  31  32
ENDBRANCH  30  31
ENDBRANCH   8  30
TORSDOF 12
ENDMDL
MODEL 3
REMARK VINA RESULT:    -5.036     12.191     15.406
REMARK INTER + INTRA:          -9.121
REMARK INTER:                  -8.246
REMARK INTRA:                  -0.874
REMARK UNBOUND:                -1.288
REMARK SMILES C[C@]12C[C@H](O)[C@@H]3C[C@@]1(O[C@@H]1O[C@H](CO)[C@H](O)[C@H](O)[C@@H]1O)[C@]3(COC(=O)c1ccccc1)C(=O)O2
REMARK SMILES IDX 1 1 2 2 3 3 4 4 6 5 7 6 8 7 21 8 32 9 33 10 34 11 9 12 10 13
REMARK SMILES IDX 19 14 11 15 17 16 12 17 15 18 20 19 18 21 13 23 14 24 16 26
REMARK SMILES IDX 5 28 22 30 23 31 24 32 25 33 26 34 27 35 31 36 28 37 30 38
REMARK SMILES IDX 29 39
REMARK H PARENT 20 20 18 22 14 25 16 27 5 29
REMARK Flexibility Score: inf
ROOT
ATOM      1  C   UNL     1      21.898  -4.097   8.888  1.00  0.00     0.060 C 
ATOM      2  C   UNL     1      21.038  -2.974   9.468  1.00  0.00     0.142 C 
ATOM      3  C   UNL     1      21.083  -1.702   8.551  1.00  0.00     0.083 C 
ATOM      4  C   UNL     1      20.460  -0.460   9.284  1.00  0.00     0.123 C 
ATOM      5  C   UNL     1      20.612  -0.602  10.833  1.00  0.00     0.045 C 
ATOM      6  C   UNL     1      22.012  -1.187  11.108  1.00  0.00     0.049 C 
ATOM      7  C   UNL     1      21.345  -2.577  10.988  1.00  0.00     0.131 C 
ATOM      8  C   UNL     1      19.977  -1.939  11.344  1.00  0.00     0.140 C 
ATOM      9  C   UNL     1      19.019  -2.674  10.462  1.00  0.00     0.319 C 
ATOM     10  O   UNL     1      17.761  -2.628  10.540  1.00  0.00    -0.251 OA
ATOM     11  O   UNL     1      19.679  -3.381   9.486  1.00  0.00    -0.456 OA
ENDROOT
BRANCH   7  12
ATOM     12  O   UNL     1      21.776  -3.693  11.778  1.00  0.00    -0.338 OA
BRANCH  12  13
ATOM     13  C   UNL     1      23.163  -3.744  12.093  1.00  0.00     0.282 C 
ATOM     14  C   UNL     1      23.376  -3.650  13.617  1.00  0.00     0.202 C 
ATOM     15  O   UNL     1      23.819  -4.865  11.502  1.00  0.00    -0.341 OA
ATOM     16  C   UNL     1      22.973  -4.950  14.318  1.00  0.00     0.179 C 
ATOM     17  C   UNL     1      23.564  -6.124  12.116  1.00  0.00     0.178 C 
ATOM     18  C   UNL     1      23.722  -6.114  13.664  1.00  0.00     0.177 C 
BRANCH  14  19
ATOM     19  O   UNL     1      22.644  -2.566  14.138  1.00  0.00    -0.385 OA
ATOM     20  H   UNL     1      21.690  -2.733  13.920  1.00  0.00     0.211 HD
ENDBRANCH  14  19
BRANCH  16  21
ATOM     21  O   UNL     1      21.579  -5.152  14.251  1.00  0.00    -0.387 OA
ATOM     22  H   UNL     1      21.226  -4.520  13.573  1.00  0.00     0.211 HD
ENDBRANCH  16  21
BRANCH  17  23
ATOM     23  C   UNL     1      22.257  -6.744  11.593  1.00  0.00     0.191 C 
BRANCH  23  24
ATOM     24  O   UNL     1      22.325  -8.144  11.635  1.00  0.00    -0.394 OA
ATOM     25  H   UNL     1      22.407  -8.447  10.692  1.00  0.00     0.210 HD
ENDBRANCH  23  24
ENDBRANCH  17  23
BRANCH  18  26
ATOM     26  O   UNL     1      23.299  -7.326  14.235  1.00  0.00    -0.387 OA
ATOM     27  H   UNL     1      22.341  -7.196  14.489  1.00  0.00     0.211 HD
ENDBRANCH  18  26
ENDBRANCH  12  13
ENDBRANCH   7  12
BRANCH   4  28
ATOM     28  O   UNL     1      21.090   0.715   8.855  1.00  0.00    -0.393 OA
ATOM     29  H   UNL     1      21.318   0.572   7.898  1.00  0.00     0.210 HD
ENDBRANCH   4  28
BRANCH   8  30
ATOM     30  C   UNL     1      19.530  -1.888  12.820  1.00  0.00     0.255 C 
BRANCH  30  31
ATOM     31  O   UNL     1      18.437  -0.985  12.961  1.00  0.00    -0.461 OA
BRANCH  31  32
ATOM     32  C   UNL     1      18.365  -0.036  13.984  1.00  0.00     0.338 C 
ATOM     33  O   UNL     1      18.556  -0.381  15.181  1.00  0.00    -0.246 OA
BRANCH  32  34
ATOM     34  C   UNL     1      18.049   1.368  13.660  1.00  0.00     0.060 A 
ATOM     35  C   UNL     1      18.034   1.795  12.318  1.00  0.00     0.015 A 
ATOM     36  C   UNL     1      17.741   2.291  14.680  1.00  0.00     0.015 A 
ATOM     37  C   UNL     1      17.705   3.118  12.000  1.00  0.00     0.001 A 
ATOM     38  C   UNL     1      17.407   3.612  14.356  1.00  0.00     0.001 A 
ATOM     39  C   UNL     1      17.388   4.025  13.018  1.00  0.00     0.000 A 
ENDBRANCH  32  34
ENDBRANCH  31  32
ENDBRANCH  30  31
ENDBRANCH   8  30
TORSDOF 12
ENDMDL
MODEL 4
REMARK VINA RESULT:    -4.924     11.929     13.792
REMARK INTER + INTRA:          -8.946
REMARK INTER:                  -7.987
REMARK INTRA:                  -0.959
REMARK UNBOUND:                -1.288
REMARK SMILES C[C@]12C[C@H](O)[C@@H]3C[C@@]1(O[C@@H]1O[C@H](CO)[C@H](O)[C@H](O)[C@@H]1O)[C@]3(COC(=O)c1ccccc1)C(=O)O2
REMARK SMILES IDX 1 1 2 2 3 3 4 4 6 5 7 6 8 7 21 8 32 9 33 10 34 11 9 12 10 13
REMARK SMILES IDX 19 14 11 15 17 16 12 17 15 18 20 19 18 21 13 23 14 24 16 26
REMARK SMILES IDX 5 28 22 30 23 31 24 32 25 33 26 34 27 35 31 36 28 37 30 38
REMARK SMILES IDX 29 39
REMARK H PARENT 20 20 18 22 14 25 16 27 5 29
REMARK Flexibility Score: inf
ROOT
ATOM      1  C   UNL     1      19.286   0.978   9.488  1.00  0.00     0.060 C 
ATOM      2  C   UNL     1      19.941  -0.352   9.860  1.00  0.00     0.142 C 
ATOM      3  C   UNL     1      19.773  -1.402   8.708  1.00  0.00     0.083 C 
ATOM      4  C   UNL     1      20.168  -2.841   9.198  1.00  0.00     0.123 C 
ATOM      5  C   UNL     1      19.942  -2.979  10.738  1.00  0.00     0.045 C 
ATOM      6  C   UNL     1      18.624  -2.253  11.078  1.00  0.00     0.049 C 
ATOM      7  C   UNL     1      19.487  -0.984  11.260  1.00  0.00     0.131 C 
ATOM      8  C   UNL     1      20.726  -1.877  11.527  1.00  0.00     0.140 C 
ATOM      9  C   UNL     1      21.831  -1.138  10.842  1.00  0.00     0.319 C 
ATOM     10  O   UNL     1      23.063  -1.388  10.951  1.00  0.00    -0.251 OA
ATOM     11  O   UNL     1      21.339  -0.166  10.005  1.00  0.00    -0.456 OA
ENDROOT
BRANCH   7  12
ATOM     12  O   UNL     1      19.169   0.012  12.242  1.00  0.00    -0.338 OA
BRANCH  12  13
ATOM     13  C   UNL     1      17.838  -0.003  12.748  1.00  0.00     0.282 C 
ATOM     14  C   UNL     1      17.845  -0.023  14.290  1.00  0.00     0.202 C 
ATOM     15  O   UNL     1      17.033   1.040  12.203  1.00  0.00    -0.341 OA
ATOM     16  C   UNL     1      18.253   1.337  14.863  1.00  0.00     0.179 C 
ATOM     17  C   UNL     1      17.284   2.345  12.713  1.00  0.00     0.178 C 
ATOM     18  C   UNL     1      17.342   2.414  14.267  1.00  0.00     0.177 C 
BRANCH  14  19
ATOM     19  O   UNL     1      18.715  -1.029  14.752  1.00  0.00    -0.385 OA
ATOM     20  H   UNL     1      18.437  -1.874  14.311  1.00  0.00     0.211 HD
ENDBRANCH  14  19
BRANCH  16  21
ATOM     21  O   UNL     1      19.607   1.619  14.589  1.00  0.00    -0.387 OA
ATOM     22  H   UNL     1      19.968   2.104  15.376  1.00  0.00     0.211 HD
ENDBRANCH  16  21
BRANCH  17  23
ATOM     23  C   UNL     1      18.460   3.012  11.981  1.00  0.00     0.191 C 
BRANCH  23  24
ATOM     24  O   UNL     1      18.293   4.404  11.946  1.00  0.00    -0.394 OA
ATOM     25  H   UNL     1      17.357   4.565  11.657  1.00  0.00     0.210 HD
ENDBRANCH  23  24
ENDBRANCH  17  23
BRANCH  18  26
ATOM     26  O   UNL     1      17.757   3.680  14.713  1.00  0.00    -0.387 OA
ATOM     27  H   UNL     1      16.945   4.263  14.693  1.00  0.00     0.211 HD
ENDBRANCH  18  26
ENDBRANCH  12  13
ENDBRANCH   7  12
BRANCH   4  28
ATOM     28  O   UNL     1      19.407  -3.804   8.522  1.00  0.00    -0.393 OA
ATOM     29  H   UNL     1      19.698  -3.769   7.573  1.00  0.00     0.210 HD
ENDBRANCH   4  28
BRANCH   8  30
ATOM     30  C   UNL     1      21.068  -2.278  12.977  1.00  0.00     0.255 C 
BRANCH  30  31
ATOM     31  O   UNL     1      21.729  -1.198  13.631  1.00  0.00    -0.461 OA
BRANCH  31  32
ATOM     32  C   UNL     1      22.893  -1.367  14.386  1.00  0.00     0.338 C 
ATOM     33  O   UNL     1      23.783  -2.172  14.004  1.00  0.00    -0.246 OA
BRANCH  32  34
ATOM     34  C   UNL     1      23.069  -0.609  15.640  1.00  0.00     0.060 A 
ATOM     35  C   UNL     1      22.295   0.543  15.881  1.00  0.00     0.015 A 
ATOM     36  C   UNL     1      23.992  -1.035  16.615  1.00  0.00     0.015 A 
ATOM     37  C   UNL     1      22.432   1.250  17.082  1.00  0.00     0.001 A 
ATOM     38  C   UNL     1      24.123  -0.328  17.817  1.00  0.00     0.001 A 
ATOM     39  C   UNL     1      23.343   0.813  18.050  1.00  0.00     0.000 A 
ENDBRANCH  32  34
ENDBRANCH  31  32
ENDBRANCH  30  31
ENDBRANCH   8  30
TORSDOF 12
ENDMDL
MODEL 5
REMARK VINA RESULT:    -4.913     12.073     13.980
REMARK INTER + INTRA:          -8.929
REMARK INTER:                  -7.935
REMARK INTRA:                  -0.994
REMARK UNBOUND:                -1.288
REMARK SMILES C[C@]12C[C@H](O)[C@@H]3C[C@@]1(O[C@@H]1O[C@H](CO)[C@H](O)[C@H](O)[C@@H]1O)[C@]3(COC(=O)c1ccccc1)C(=O)O2
REMARK SMILES IDX 1 1 2 2 3 3 4 4 6 5 7 6 8 7 21 8 32 9 33 10 34 11 9 12 10 13
REMARK SMILES IDX 19 14 11 15 17 16 12 17 15 18 20 19 18 21 13 23 14 24 16 26
REMARK SMILES IDX 5 28 22 30 23 31 24 32 25 33 26 34 27 35 31 36 28 37 30 38
REMARK SMILES IDX 29 39
REMARK H PARENT 20 20 18 22 14 25 16 27 5 29
REMARK Flexibility Score: inf
ROOT
ATOM      1  C   UNL     1      19.373   1.010   9.737  1.00  0.00     0.060 C 
ATOM      2  C   UNL     1      20.049  -0.338   9.991  1.00  0.00     0.142 C 
ATOM      3  C   UNL     1      19.744  -1.347   8.830  1.00  0.00     0.083 C 
ATOM      4  C   UNL     1      20.173  -2.805   9.227  1.00  0.00     0.123 C 
ATOM      5  C   UNL     1      20.114  -2.993  10.777  1.00  0.00     0.045 C 
ATOM      6  C   UNL     1      18.850  -2.268  11.282  1.00  0.00     0.049 C 
ATOM      7  C   UNL     1      19.743  -1.013  11.411  1.00  0.00     0.131 C 
ATOM      8  C   UNL     1      20.992  -1.925  11.511  1.00  0.00     0.140 C 
ATOM      9  C   UNL     1      22.025  -1.172  10.734  1.00  0.00     0.319 C 
ATOM     10  O   UNL     1      23.259  -1.436  10.699  1.00  0.00    -0.251 OA
ATOM     11  O   UNL     1      21.457  -0.168   9.988  1.00  0.00    -0.456 OA
ENDROOT
BRANCH   7  12
ATOM     12  O   UNL     1      19.546  -0.049  12.454  1.00  0.00    -0.338 OA
BRANCH  12  13
ATOM     13  C   UNL     1      18.220   0.074  12.957  1.00  0.00     0.282 C 
ATOM     14  C   UNL     1      18.179  -0.261  14.462  1.00  0.00     0.202 C 
ATOM     15  O   UNL     1      17.629   1.335  12.646  1.00  0.00    -0.341 OA
ATOM     16  C   UNL     1      18.806   0.858  15.299  1.00  0.00     0.179 C 
ATOM     17  C   UNL     1      18.094   2.441  13.412  1.00  0.00     0.178 C 
ATOM     18  C   UNL     1      18.120   2.179  14.945  1.00  0.00     0.177 C 
BRANCH  14  19
ATOM     19  O   UNL     1      18.841  -1.480  14.700  1.00  0.00    -0.385 OA
ATOM     20  H   UNL     1      19.007  -1.895  13.813  1.00  0.00     0.211 HD
ENDBRANCH  14  19
BRANCH  16  21
ATOM     21  O   UNL     1      20.195   0.940  15.078  1.00  0.00    -0.387 OA
ATOM     22  H   UNL     1      20.325   1.169  14.121  1.00  0.00     0.211 HD
ENDBRANCH  16  21
BRANCH  17  23
ATOM     23  C   UNL     1      19.392   3.020  12.822  1.00  0.00     0.191 C 
BRANCH  23  24
ATOM     24  O   UNL     1      19.467   4.400  13.057  1.00  0.00    -0.394 OA
ATOM     25  H   UNL     1      18.617   4.787  12.716  1.00  0.00     0.210 HD
ENDBRANCH  23  24
ENDBRANCH  17  23
BRANCH  18  26
ATOM     26  O   UNL     1      18.741   3.232  15.639  1.00  0.00    -0.387 OA
ATOM     27  H   UNL     1      18.089   3.990  15.640  1.00  0.00     0.211 HD
ENDBRANCH  18  26
ENDBRANCH  12  13
ENDBRANCH   7  12
BRANCH   4  28
ATOM     28  O   UNL     1      19.331  -3.737   8.607  1.00  0.00    -0.393 OA
ATOM     29  H   UNL     1      18.836  -3.238   7.904  1.00  0.00     0.210 HD
ENDBRANCH   4  28
BRANCH   8  30
ATOM     30  C   UNL     1      21.486  -2.377  12.901  1.00  0.00     0.255 C 
BRANCH  30  31
ATOM     31  O   UNL     1      22.381  -3.476  12.759  1.00  0.00    -0.461 OA
BRANCH  31  32
ATOM     32  C   UNL     1      22.233  -4.672  13.467  1.00  0.00     0.338 C 
ATOM     33  O   UNL     1      22.245  -4.667  14.727  1.00  0.00    -0.246 OA
BRANCH  32  34
ATOM     34  C   UNL     1      22.074  -5.942  12.734  1.00  0.00     0.060 A 
ATOM     35  C   UNL     1      22.309  -5.988  11.345  1.00  0.00     0.015 A 
ATOM     36  C   UNL     1      21.708  -7.123  13.409  1.00  0.00     0.015 A 
ATOM     37  C   UNL     1      22.192  -7.196  10.647  1.00  0.00     0.001 A 
ATOM     38  C   UNL     1      21.597  -8.330  12.708  1.00  0.00     0.001 A 
ATOM     39  C   UNL     1      21.839  -8.367  11.329  1.00  0.00     0.000 A 
ENDBRANCH  32  34
ENDBRANCH  31  32
ENDBRANCH  30  31
ENDBRANCH   8  30
TORSDOF 12
ENDMDL
MODEL 6
REMARK VINA RESULT:    -4.910      2.097      5.647
REMARK INTER + INTRA:          -8.925
REMARK INTER:                  -7.983
REMARK INTRA:                  -0.942
REMARK UNBOUND:                -1.288
REMARK SMILES C[C@]12C[C@H](O)[C@@H]3C[C@@]1(O[C@@H]1O[C@H](CO)[C@H](O)[C@H](O)[C@@H]1O)[C@]3(COC(=O)c1ccccc1)C(=O)O2
REMARK SMILES IDX 1 1 2 2 3 3 4 4 6 5 7 6 8 7 21 8 32 9 33 10 34 11 9 12 10 13
REMARK SMILES IDX 19 14 11 15 17 16 12 17 15 18 20 19 18 21 13 23 14 24 16 26
REMARK SMILES IDX 5 28 22 30 23 31 24 32 25 33 26 34 27 35 31 36 28 37 30 38
REMARK SMILES IDX 29 39
REMARK H PARENT 20 20 18 22 14 25 16 27 5 29
REMARK Flexibility Score: inf
ROOT
ATOM      1  C   UNL     1       7.681  -6.784  14.439  1.00  0.00     0.060 C 
ATOM      2  C   UNL     1       7.002  -5.502  13.956  1.00  0.00     0.142 C 
ATOM      3  C   UNL     1       6.823  -5.514  12.398  1.00  0.00     0.083 C 
ATOM      4  C   UNL     1       6.412  -4.093  11.870  1.00  0.00     0.123 C 
ATOM      5  C   UNL     1       6.949  -2.975  12.822  1.00  0.00     0.045 C 
ATOM      6  C   UNL     1       8.369  -3.386  13.260  1.00  0.00     0.049 C 
ATOM      7  C   UNL     1       7.685  -4.133  14.428  1.00  0.00     0.131 C 
ATOM      8  C   UNL     1       6.455  -3.198  14.291  1.00  0.00     0.140 C 
ATOM      9  C   UNL     1       5.302  -4.116  14.541  1.00  0.00     0.319 C 
ATOM     10  O   UNL     1       4.104  -3.762  14.721  1.00  0.00    -0.251 OA
ATOM     11  O   UNL     1       5.689  -5.433  14.489  1.00  0.00    -0.456 OA
ENDROOT
BRANCH   7  12
ATOM     12  O   UNL     1       8.294  -4.233  15.722  1.00  0.00    -0.338 OA
BRANCH  12  13
ATOM     13  C   UNL     1       9.716  -4.167  15.756  1.00  0.00     0.282 C 
ATOM     14  C   UNL     1      10.184  -3.075  16.739  1.00  0.00     0.202 C 
ATOM     15  O   UNL     1      10.318  -5.438  15.999  1.00  0.00    -0.341 OA
ATOM     16  C   UNL     1       9.978  -3.509  18.194  1.00  0.00     0.179 C 
ATOM     17  C   UNL     1      10.241  -5.912  17.339  1.00  0.00     0.178 C 
ATOM     18  C   UNL     1      10.664  -4.860  18.405  1.00  0.00     0.177 C 
BRANCH  14  19
ATOM     19  O   UNL     1       9.497  -1.874  16.485  1.00  0.00    -0.385 OA
ATOM     20  H   UNL     1       9.719  -1.252  17.226  1.00  0.00     0.211 HD
ENDBRANCH  14  19
BRANCH  16  21
ATOM     21  O   UNL     1       8.606  -3.588  18.510  1.00  0.00    -0.387 OA
ATOM     22  H   UNL     1       8.289  -2.661  18.666  1.00  0.00     0.211 HD
ENDBRANCH  16  21
BRANCH  17  23
ATOM     23  C   UNL     1       8.898  -6.614  17.604  1.00  0.00     0.191 C 
BRANCH  23  24
ATOM     24  O   UNL     1       9.037  -7.579  18.612  1.00  0.00    -0.394 OA
ATOM     25  H   UNL     1       8.182  -8.084  18.633  1.00  0.00     0.210 HD
ENDBRANCH  23  24
ENDBRANCH  17  23
BRANCH  18  26
ATOM     26  O   UNL     1      10.410  -5.317  19.710  1.00  0.00    -0.387 OA
ATOM     27  H   UNL     1       9.833  -6.128  19.615  1.00  0.00     0.211 HD
ENDBRANCH  18  26
ENDBRANCH  12  13
ENDBRANCH   7  12
BRANCH   4  28
ATOM     28  O   UNL     1       6.920  -3.896  10.579  1.00  0.00    -0.393 OA
ATOM     29  H   UNL     1       6.629  -4.682  10.045  1.00  0.00     0.210 HD
ENDBRANCH   4  28
BRANCH   8  30
ATOM     30  C   UNL     1       6.396  -1.903  15.128  1.00  0.00     0.255 C 
BRANCH  30  31
ATOM     31  O   UNL     1       5.945  -2.202  16.446  1.00  0.00    -0.461 OA
BRANCH  31  32
ATOM     32  C   UNL     1       5.017  -1.411  17.128  1.00  0.00     0.338 C 
ATOM     33  O   UNL     1       3.986  -0.994  16.537  1.00  0.00    -0.246 OA
BRANCH  32  34
ATOM     34  C   UNL     1       5.256  -1.054  18.539  1.00  0.00     0.060 A 
ATOM     35  C   UNL     1       6.153  -1.814  19.316  1.00  0.00     0.015 A 
ATOM     36  C   UNL     1       4.611   0.055  19.121  1.00  0.00     0.015 A 
ATOM     37  C   UNL     1       6.410  -1.463  20.647  1.00  0.00     0.001 A 
ATOM     38  C   UNL     1       4.875   0.406  20.451  1.00  0.00     0.001 A 
ATOM     39  C   UNL     1       5.774  -0.352  21.212  1.00  0.00     0.000 A 
ENDBRANCH  32  34
ENDBRANCH  31  32
ENDBRANCH  30  31
ENDBRANCH   8  30
TORSDOF 12
ENDMDL
MODEL 7
REMARK VINA RESULT:    -4.896      1.911      5.088
REMARK INTER + INTRA:          -8.903
REMARK INTER:                  -7.445
REMARK INTRA:                  -1.458
REMARK UNBOUND:                -1.288
REMARK SMILES C[C@]12C[C@H](O)[C@@H]3C[C@@]1(O[C@@H]1O[C@H](CO)[C@H](O)[C@H](O)[C@@H]1O)[C@]3(COC(=O)c1ccccc1)C(=O)O2
REMARK SMILES IDX 1 1 2 2 3 3 4 4 6 5 7 6 8 7 21 8 32 9 33 10 34 11 9 12 10 13
REMARK SMILES IDX 19 14 11 15 17 16 12 17 15 18 20 19 18 21 13 23 14 24 16 26
REMARK SMILES IDX 5 28 22 30 23 31 24 32 25 33 26 34 27 35 31 36 28 37 30 38
REMARK SMILES IDX 29 39
REMARK H PARENT 20 20 18 22 14 25 16 27 5 29
REMARK Flexibility Score: inf
ROOT
ATOM      1  C   UNL     1       4.460  -5.219  17.155  1.00  0.00     0.060 C 
ATOM      2  C   UNL     1       5.346  -4.391  18.087  1.00  0.00     0.142 C 
ATOM      3  C   UNL     1       4.499  -3.743  19.237  1.00  0.00     0.083 C 
ATOM      4  C   UNL     1       5.336  -2.660  20.007  1.00  0.00     0.123 C 
ATOM      5  C   UNL     1       6.425  -2.040  19.075  1.00  0.00     0.045 C 
ATOM      6  C   UNL     1       5.787  -1.847  17.684  1.00  0.00     0.049 C 
ATOM      7  C   UNL     1       6.261  -3.286  17.377  1.00  0.00     0.131 C 
ATOM      8  C   UNL     1       7.352  -3.148  18.470  1.00  0.00     0.140 C 
ATOM      9  C   UNL     1       7.373  -4.503  19.102  1.00  0.00     0.319 C 
ATOM     10  O   UNL     1       8.240  -4.924  19.917  1.00  0.00    -0.251 OA
ATOM     11  O   UNL     1       6.275  -5.244  18.735  1.00  0.00    -0.456 OA
ENDROOT
BRANCH   7  12
ATOM     12  O   UNL     1       6.689  -3.678  16.066  1.00  0.00    -0.338 OA
BRANCH  12  13
ATOM     13  C   UNL     1       6.092  -2.986  14.974  1.00  0.00     0.282 C 
ATOM     14  C   UNL     1       7.166  -2.250  14.148  1.00  0.00     0.202 C 
ATOM     15  O   UNL     1       5.253  -3.826  14.185  1.00  0.00    -0.341 OA
ATOM     16  C   UNL     1       8.000  -3.231  13.319  1.00  0.00     0.179 C 
ATOM     17  C   UNL     1       5.926  -4.739  13.325  1.00  0.00     0.178 C 
ATOM     18  C   UNL     1       7.054  -4.088  12.474  1.00  0.00     0.177 C 
BRANCH  14  19
ATOM     19  O   UNL     1       7.997  -1.500  15.000  1.00  0.00    -0.385 OA
ATOM     20  H   UNL     1       8.390  -0.771  14.451  1.00  0.00     0.211 HD
ENDBRANCH  14  19
BRANCH  16  21
ATOM     21  O   UNL     1       8.804  -4.041  14.147  1.00  0.00    -0.387 OA
ATOM     22  H   UNL     1       8.234  -4.340  14.903  1.00  0.00     0.211 HD
ENDBRANCH  16  21
BRANCH  17  23
ATOM     23  C   UNL     1       6.326  -6.020  14.077  1.00  0.00     0.191 C 
BRANCH  23  24
ATOM     24  O   UNL     1       6.434  -7.099  13.188  1.00  0.00    -0.394 OA
ATOM     25  H   UNL     1       6.808  -7.856  13.713  1.00  0.00     0.210 HD
ENDBRANCH  23  24
ENDBRANCH  17  23
BRANCH  18  26
ATOM     26  O   UNL     1       7.795  -5.054  11.772  1.00  0.00    -0.387 OA
ATOM     27  H   UNL     1       8.736  -4.717  11.742  1.00  0.00     0.211 HD
ENDBRANCH  18  26
ENDBRANCH  12  13
ENDBRANCH   7  12
BRANCH   4  28
ATOM     28  O   UNL     1       4.491  -1.649  20.482  1.00  0.00    -0.393 OA
ATOM     29  H   UNL     1       3.986  -2.045  21.241  1.00  0.00     0.210 HD
ENDBRANCH   4  28
BRANCH   8  30
ATOM     30  C   UNL     1       8.754  -2.637  18.077  1.00  0.00     0.255 C 
BRANCH  30  31
ATOM     31  O   UNL     1       9.197  -3.309  16.901  1.00  0.00    -0.461 OA
BRANCH  31  32
ATOM     32  C   UNL     1      10.427  -3.969  16.823  1.00  0.00     0.338 C 
ATOM     33  O   UNL     1      11.359  -3.489  16.125  1.00  0.00    -0.246 OA
BRANCH  32  34
ATOM     34  C   UNL     1      10.625  -5.237  17.550  1.00  0.00     0.060 A 
ATOM     35  C   UNL     1      11.346  -5.250  18.761  1.00  0.00     0.015 A 
ATOM     36  C   UNL     1      10.083  -6.442  17.059  1.00  0.00     0.015 A 
ATOM     37  C   UNL     1      11.511  -6.443  19.473  1.00  0.00     0.001 A 
ATOM     38  C   UNL     1      10.246  -7.632  17.778  1.00  0.00     0.001 A 
ATOM     39  C   UNL     1      10.959  -7.633  18.984  1.00  0.00     0.000 A 
ENDBRANCH  32  34
ENDBRANCH  31  32
ENDBRANCH  30  31
ENDBRANCH   8  30
TORSDOF 12
ENDMDL
MODEL 8
REMARK VINA RESULT:    -4.857     11.953     14.569
REMARK INTER + INTRA:          -8.842
REMARK INTER:                  -7.485
REMARK INTRA:                  -1.356
REMARK UNBOUND:                -1.288
REMARK SMILES C[C@]12C[C@H](O)[C@@H]3C[C@@]1(O[C@@H]1O[C@H](CO)[C@H](O)[C@H](O)[C@@H]1O)[C@]3(COC(=O)c1ccccc1)C(=O)O2
REMARK SMILES IDX 1 1 2 2 3 3 4 4 6 5 7 6 8 7 21 8 32 9 33 10 34 11 9 12 10 13
REMARK SMILES IDX 19 14 11 15 17 16 12 17 15 18 20 19 18 21 13 23 14 24 16 26
REMARK SMILES IDX 5 28 22 30 23 31 24 32 25 33 26 34 27 35 31 36 28 37 30 38
REMARK SMILES IDX 29 39
REMARK H PARENT 20 20 18 22 14 25 16 27 5 29
REMARK Flexibility Score: inf
ROOT
ATOM      1  C   UNL     1      18.875   0.734  15.755  1.00  0.00     0.060 C 
ATOM      2  C   UNL     1      18.701   0.335  14.290  1.00  0.00     0.142 C 
ATOM      3  C   UNL     1      19.183  -1.138  14.048  1.00  0.00     0.083 C 
ATOM      4  C   UNL     1      19.292  -1.447  12.512  1.00  0.00     0.123 C 
ATOM      5  C   UNL     1      19.579  -0.139  11.706  1.00  0.00     0.045 C 
ATOM      6  C   UNL     1      20.591   0.692  12.521  1.00  0.00     0.049 C 
ATOM      7  C   UNL     1      19.362   1.322  13.216  1.00  0.00     0.131 C 
ATOM      8  C   UNL     1      18.490   0.950  11.989  1.00  0.00     0.140 C 
ATOM      9  C   UNL     1      17.192   0.539  12.606  1.00  0.00     0.319 C 
ATOM     10  O   UNL     1      16.112   0.335  11.986  1.00  0.00    -0.251 OA
ATOM     11  O   UNL     1      17.321   0.342  13.960  1.00  0.00    -0.456 OA
ENDROOT
BRANCH   7  12
ATOM     12  O   UNL     1      19.352   2.691  13.640  1.00  0.00    -0.338 OA
BRANCH  12  13
ATOM     13  C   UNL     1      20.586   3.210  14.125  1.00  0.00     0.282 C 
ATOM     14  C   UNL     1      20.994   4.467  13.329  1.00  0.00     0.202 C 
ATOM     15  O   UNL     1      20.578   3.417  15.536  1.00  0.00    -0.341 OA
ATOM     16  C   UNL     1      20.122   5.669  13.701  1.00  0.00     0.179 C 
ATOM     17  C   UNL     1      19.846   4.549  15.991  1.00  0.00     0.178 C 
ATOM     18  C   UNL     1      20.170   5.861  15.218  1.00  0.00     0.177 C 
BRANCH  14  19
ATOM     19  O   UNL     1      20.910   4.209  11.949  1.00  0.00    -0.385 OA
ATOM     20  H   UNL     1      21.628   3.558  11.733  1.00  0.00     0.211 HD
ENDBRANCH  14  19
BRANCH  16  21
ATOM     21  O   UNL     1      18.795   5.490  13.261  1.00  0.00    -0.387 OA
ATOM     22  H   UNL     1      18.464   6.377  12.962  1.00  0.00     0.211 HD
ENDBRANCH  16  21
BRANCH  17  23
ATOM     23  C   UNL     1      18.349   4.224  16.134  1.00  0.00     0.191 C 
BRANCH  23  24
ATOM     24  O   UNL     1      17.774   4.990  17.157  1.00  0.00    -0.394 OA
ATOM     25  H   UNL     1      17.113   5.589  16.719  1.00  0.00     0.210 HD
ENDBRANCH  23  24
ENDBRANCH  17  23
BRANCH  18  26
ATOM     26  O   UNL     1      19.305   6.905  15.588  1.00  0.00    -0.387 OA
ATOM     27  H   UNL     1      19.283   7.538  14.814  1.00  0.00     0.211 HD
ENDBRANCH  18  26
ENDBRANCH  12  13
ENDBRANCH   7  12
BRANCH   4  28
ATOM     28  O   UNL     1      20.315  -2.376  12.282  1.00  0.00    -0.393 OA
ATOM     29  H   UNL     1      20.157  -2.741  11.371  1.00  0.00     0.210 HD
ENDBRANCH   4  28
BRANCH   8  30
ATOM     30  C   UNL     1      18.325   1.972  10.845  1.00  0.00     0.255 C 
BRANCH  30  31
ATOM     31  O   UNL     1      17.391   2.977  11.229  1.00  0.00    -0.461 OA
BRANCH  31  32
ATOM     32  C   UNL     1      17.424   4.278  10.720  1.00  0.00     0.338 C 
ATOM     33  O   UNL     1      18.512   4.776  10.327  1.00  0.00    -0.246 OA
BRANCH  32  34
ATOM     34  C   UNL     1      16.182   5.072  10.658  1.00  0.00     0.060 A 
ATOM     35  C   UNL     1      15.212   4.786   9.677  1.00  0.00     0.015 A 
ATOM     36  C   UNL     1      15.941   6.107  11.583  1.00  0.00     0.015 A 
ATOM     37  C   UNL     1      14.016   5.513   9.631  1.00  0.00     0.001 A 
ATOM     38  C   UNL     1      14.741   6.828  11.536  1.00  0.00     0.001 A 
ATOM     39  C   UNL     1      13.780   6.531  10.562  1.00  0.00     0.000 A 
ENDBRANCH  32  34
ENDBRANCH  31  32
ENDBRANCH  30  31
ENDBRANCH   8  30
TORSDOF 12
ENDMDL
MODEL 9
REMARK VINA RESULT:    -4.808     12.237     15.195
REMARK INTER + INTRA:          -8.766
REMARK INTER:                  -7.256
REMARK INTRA:                  -1.511
REMARK UNBOUND:                -1.288
REMARK SMILES C[C@]12C[C@H](O)[C@@H]3C[C@@]1(O[C@@H]1O[C@H](CO)[C@H](O)[C@H](O)[C@@H]1O)[C@]3(COC(=O)c1ccccc1)C(=O)O2
REMARK SMILES IDX 1 1 2 2 3 3 4 4 6 5 7 6 8 7 21 8 32 9 33 10 34 11 9 12 10 13
REMARK SMILES IDX 19 14 11 15 17 16 12 17 15 18 20 19 18 21 13 23 14 24 16 26
REMARK SMILES IDX 5 28 22 30 23 31 24 32 25 33 26 34 27 35 31 36 28 37 30 38
REMARK SMILES IDX 29 39
REMARK H PARENT 20 20 18 22 14 25 16 27 5 29
REMARK Flexibility Score: inf
ROOT
ATOM      1  C   UNL     1      20.806   5.348  13.636  1.00  0.00     0.060 C 
ATOM      2  C   UNL     1      19.325   4.967  13.655  1.00  0.00     0.142 C 
ATOM      3  C   UNL     1      18.454   6.132  14.239  1.00  0.00     0.083 C 
ATOM      4  C   UNL     1      16.993   5.642  14.543  1.00  0.00     0.123 C 
ATOM      5  C   UNL     1      16.979   4.110  14.852  1.00  0.00     0.045 C 
ATOM      6  C   UNL     1      18.219   3.804  15.717  1.00  0.00     0.049 C 
ATOM      7  C   UNL     1      18.971   3.586  14.384  1.00  0.00     0.131 C 
ATOM      8  C   UNL     1      17.621   3.291  13.682  1.00  0.00     0.140 C 
ATOM      9  C   UNL     1      17.785   3.938  12.344  1.00  0.00     0.319 C 
ATOM     10  O   UNL     1      17.012   3.795  11.357  1.00  0.00    -0.251 OA
ATOM     11  O   UNL     1      18.869   4.781  12.325  1.00  0.00    -0.456 OA
ENDROOT
BRANCH   7  12
ATOM     12  O   UNL     1      20.010   2.606  14.253  1.00  0.00    -0.338 OA
BRANCH  12  13
ATOM     13  C   UNL     1      20.730   2.287  15.439  1.00  0.00     0.282 C 
ATOM     14  C   UNL     1      20.619   0.781  15.751  1.00  0.00     0.202 C 
ATOM     15  O   UNL     1      22.076   2.757  15.407  1.00  0.00    -0.341 OA
ATOM     16  C   UNL     1      21.465  -0.052  14.783  1.00  0.00     0.179 C 
ATOM     17  C   UNL     1      22.970   2.015  14.585  1.00  0.00     0.178 C 
ATOM     18  C   UNL     1      22.902   0.476  14.808  1.00  0.00     0.177 C 
BRANCH  14  19
ATOM     19  O   UNL     1      19.272   0.377  15.694  1.00  0.00    -0.385 OA
ATOM     20  H   UNL     1      18.729   1.200  15.578  1.00  0.00     0.211 HD
ENDBRANCH  14  19
BRANCH  16  21
ATOM     21  O   UNL     1      20.937  -0.006  13.477  1.00  0.00    -0.387 OA
ATOM     22  H   UNL     1      20.313  -0.772  13.389  1.00  0.00     0.211 HD
ENDBRANCH  16  21
BRANCH  17  23
ATOM     23  C   UNL     1      22.885   2.471  13.118  1.00  0.00     0.191 C 
BRANCH  23  24
ATOM     24  O   UNL     1      24.118   2.290  12.474  1.00  0.00    -0.394 OA
ATOM     25  H   UNL     1      24.770   2.047  13.183  1.00  0.00     0.210 HD
ENDBRANCH  23  24
ENDBRANCH  17  23
BRANCH  18  26
ATOM     26  O   UNL     1      23.674  -0.218  13.861  1.00  0.00    -0.387 OA
ATOM     27  H   UNL     1      24.200  -0.897  14.373  1.00  0.00     0.211 HD
ENDBRANCH  18  26
ENDBRANCH  12  13
ENDBRANCH   7  12
BRANCH   4  28
ATOM     28  O   UNL     1      16.467   6.347  15.633  1.00  0.00    -0.393 OA
ATOM     29  H   UNL     1      17.165   6.320  16.341  1.00  0.00     0.210 HD
ENDBRANCH   4  28
BRANCH   8  30
ATOM     30  C   UNL     1      17.118   1.834  13.598  1.00  0.00     0.255 C 
BRANCH  30  31
ATOM     31  O   UNL     1      17.459   1.281  12.330  1.00  0.00    -0.461 OA
BRANCH  31  32
ATOM     32  C   UNL     1      17.971  -0.011  12.179  1.00  0.00     0.338 C 
ATOM     33  O   UNL     1      18.132  -0.749  13.187  1.00  0.00    -0.246 OA
BRANCH  32  34
ATOM     34  C   UNL     1      18.336  -0.501  10.836  1.00  0.00     0.060 A 
ATOM     35  C   UNL     1      18.885   0.384   9.887  1.00  0.00     0.015 A 
ATOM     36  C   UNL     1      18.161  -1.857  10.493  1.00  0.00     0.015 A 
ATOM     37  C   UNL     1      19.263  -0.081   8.622  1.00  0.00     0.001 A 
ATOM     38  C   UNL     1      18.546  -2.318   9.228  1.00  0.00     0.001 A 
ATOM     39  C   UNL     1      19.097  -1.431   8.294  1.00  0.00     0.000 A 
ENDBRANCH  32  34
ENDBRANCH  31  32
ENDBRANCH  30  31
ENDBRANCH   8  30
TORSDOF 12
ENDMDL
