MODEL 1
REMARK VINA RESULT:    12.033      0.000      0.000
REMARK INTER + INTRA:          19.730
REMARK INTER:                  20.474
REMARK INTRA:                  -0.744
REMARK UNBOUND:                -0.744
REMARK SMILES CCCCCCCCCCCCCC(=O)[O-]
REMARK SMILES IDX 8 1 9 2 10 3 11 4 12 5 13 6 14 7 15 8 16 9 7 10 6 11 5 12
REMARK SMILES IDX 4 13 3 14 2 15 1 16
REMARK H PARENT
REMARK Flexibility Score: inf
ROOT
ATOM      1  C   UNL     1      -6.366 -17.558  27.231  1.00  0.00     0.000 C 
ENDROOT
BRANCH   1   2
ATOM      2  C   UNL     1      -5.823 -18.782  26.473  1.00  0.00     0.000 C 
BRANCH   2   3
ATOM      3  C   UNL     1      -5.917 -18.617  24.946  1.00  0.00     0.000 C 
BRANCH   3   4
ATOM      4  C   UNL     1      -4.594 -18.945  24.234  1.00  0.00     0.000 C 
BRANCH   4   5
ATOM      5  C   UNL     1      -4.804 -19.485  22.808  1.00  0.00     0.006 C 
BRANCH   5   6
ATOM      6  C   UNL     1      -4.203 -20.884  22.624  1.00  0.00     0.053 C 
BRANCH   6   7
ATOM      7  C   UNL     1      -2.716 -20.831  22.443  1.00  0.00     0.041 C 
ATOM      8  O   UNL     1      -2.208 -20.048  21.597  1.00  0.00    -0.550 OA
ATOM      9  O   UNL     1      -1.891 -21.625  23.228  1.00  0.00    -0.550 OA
ENDBRANCH   6   7
ENDBRANCH   5   6
ENDBRANCH   4   5
ENDBRANCH   3   4
ENDBRANCH   2   3
ENDBRANCH   1   2
BRANCH   1  10
ATOM     10  C   UNL     1      -7.695 -17.046  26.648  1.00  0.00     0.000 C 
BRANCH  10  11
ATOM     11  C   UNL     1      -8.782 -16.849  27.720  1.00  0.00    -0.000 C 
BRANCH  11  12
ATOM     12  C   UNL     1      -9.380 -18.147  28.291  1.00  0.00    -0.000 C 
BRANCH  12  13
ATOM     13  C   UNL     1      -9.490 -18.133  29.824  1.00  0.00    -0.000 C 
BRANCH  13  14
ATOM     14  C   UNL     1      -8.464 -17.174  30.438  1.00  0.00    -0.000 C 
BRANCH  14  15
ATOM     15  C   UNL     1      -8.243 -17.484  31.924  1.00  0.00    -0.003 C 
ATOM     16  C   UNL     1      -7.763 -18.918  32.123  1.00  0.00     0.004 C 
ENDBRANCH  14  15
ENDBRANCH  13  14
ENDBRANCH  12  13
ENDBRANCH  11  12
ENDBRANCH  10  11
ENDBRANCH   1  10
TORSDOF 12
ENDMDL
MODEL 2
REMARK VINA RESULT:    12.557      2.435      4.203
REMARK INTER + INTRA:          20.622
REMARK INTER:                  21.289
REMARK INTRA:                  -0.668
REMARK UNBOUND:                -0.744
REMARK SMILES CCCCCCCCCCCCCC(=O)[O-]
REMARK SMILES IDX 8 1 9 2 10 3 11 4 12 5 13 6 14 7 15 8 16 9 7 10 6 11 5 12
REMARK SMILES IDX 4 13 3 14 2 15 1 16
REMARK H PARENT
REMARK Flexibility Score: inf
ROOT
ATOM      1  C   UNL     1      -5.076 -19.125  23.367  1.00  0.00     0.000 C 
ENDROOT
BRANCH   1   2
ATOM      2  C   UNL     1      -4.427 -20.496  23.112  1.00  0.00     0.000 C 
BRANCH   2   3
ATOM      3  C   UNL     1      -3.245 -20.414  22.130  1.00  0.00     0.000 C 
BRANCH   3   4
ATOM      4  C   UNL     1      -1.903 -20.770  22.789  1.00  0.00     0.000 C 
BRANCH   4   5
ATOM      5  C   UNL     1      -0.992 -19.545  22.985  1.00  0.00     0.006 C 
BRANCH   5   6
ATOM      6  C   UNL     1      -0.641 -19.315  24.461  1.00  0.00     0.053 C 
BRANCH   6   7
ATOM      7  C   UNL     1      -0.854 -17.889  24.867  1.00  0.00     0.041 C 
ATOM      8  O   UNL     1      -0.351 -16.954  24.189  1.00  0.00    -0.550 OA
ATOM      9  O   UNL     1      -1.631 -17.591  25.979  1.00  0.00    -0.550 OA
ENDBRANCH   6   7
ENDBRANCH   5   6
ENDBRANCH   4   5
ENDBRANCH   3   4
ENDBRANCH   2   3
ENDBRANCH   1   2
BRANCH   1  10
ATOM     10  C   UNL     1      -4.874 -18.638  24.813  1.00  0.00     0.000 C 
BRANCH  10  11
ATOM     11  C   UNL     1      -6.124 -18.836  25.691  1.00  0.00    -0.000 C 
BRANCH  11  12
ATOM     12  C   UNL     1      -6.261 -17.851  26.865  1.00  0.00    -0.000 C 
BRANCH  12  13
ATOM     13  C   UNL     1      -7.578 -17.060  26.834  1.00  0.00    -0.000 C 
BRANCH  13  14
ATOM     14  C   UNL     1      -8.476 -17.444  28.015  1.00  0.00    -0.000 C 
BRANCH  14  15
ATOM     15  C   UNL     1      -9.876 -16.837  27.861  1.00  0.00    -0.003 C 
ATOM     16  C   UNL     1      -9.837 -15.569  27.012  1.00  0.00     0.004 C 
ENDBRANCH  14  15
ENDBRANCH  13  14
ENDBRANCH  12  13
ENDBRANCH  11  12
ENDBRANCH  10  11
ENDBRANCH   1  10
TORSDOF 12
ENDMDL
MODEL 3
REMARK VINA RESULT:    12.593      4.106      8.079
REMARK INTER + INTRA:          20.683
REMARK INTER:                  21.280
REMARK INTRA:                  -0.598
REMARK UNBOUND:                -0.744
REMARK SMILES CCCCCCCCCCCCCC(=O)[O-]
REMARK SMILES IDX 8 1 9 2 10 3 11 4 12 5 13 6 14 7 15 8 16 9 7 10 6 11 5 12
REMARK SMILES IDX 4 13 3 14 2 15 1 16
REMARK H PARENT
REMARK Flexibility Score: inf
ROOT
ATOM      1  C   UNL     1      -4.322 -19.064  23.663  1.00  0.00     0.000 C 
ENDROOT
BRANCH   1   2
ATOM      2  C   UNL     1      -5.663 -18.566  24.229  1.00  0.00     0.000 C 
BRANCH   2   3
ATOM      3  C   UNL     1      -5.932 -19.089  25.651  1.00  0.00     0.000 C 
BRANCH   3   4
ATOM      4  C   UNL     1      -5.694 -18.019  26.730  1.00  0.00     0.000 C 
BRANCH   4   5
ATOM      5  C   UNL     1      -6.897 -17.076  26.907  1.00  0.00     0.006 C 
BRANCH   5   6
ATOM      6  C   UNL     1      -8.235 -17.818  26.798  1.00  0.00     0.053 C 
BRANCH   6   7
ATOM      7  C   UNL     1      -9.224 -17.332  27.813  1.00  0.00     0.041 C 
ATOM      8  O   UNL     1      -9.342 -17.925  28.918  1.00  0.00    -0.550 OA
ATOM      9  O   UNL     1      -9.995 -16.208  27.550  1.00  0.00    -0.550 OA
ENDBRANCH   6   7
ENDBRANCH   5   6
ENDBRANCH   4   5
ENDBRANCH   3   4
ENDBRANCH   2   3
ENDBRANCH   1   2
BRANCH   1  10
ATOM     10  C   UNL     1      -4.480 -20.330  22.802  1.00  0.00     0.000 C 
BRANCH  10  11
ATOM     11  C   UNL     1      -3.134 -21.001  22.473  1.00  0.00    -0.000 C 
BRANCH  11  12
ATOM     12  C   UNL     1      -1.937 -20.040  22.352  1.00  0.00    -0.000 C 
BRANCH  12  13
ATOM     13  C   UNL     1      -1.175 -19.861  23.674  1.00  0.00    -0.000 C 
BRANCH  13  14
ATOM     14  C   UNL     1      -0.163 -18.714  23.573  1.00  0.00    -0.000 C 
BRANCH  14  15
ATOM     15  C   UNL     1      -0.647 -17.484  24.350  1.00  0.00    -0.003 C 
ATOM     16  C   UNL     1      -1.286 -17.885  25.677  1.00  0.00     0.004 C 
ENDBRANCH  14  15
ENDBRANCH  13  14
ENDBRANCH  12  13
ENDBRANCH  11  12
ENDBRANCH  10  11
ENDBRANCH   1  10
TORSDOF 12
ENDMDL
MODEL 4
REMARK VINA RESULT:    12.652      2.428      2.861
REMARK INTER + INTRA:          20.784
REMARK INTER:                  21.442
REMARK INTRA:                  -0.658
REMARK UNBOUND:                -0.744
REMARK SMILES CCCCCCCCCCCCCC(=O)[O-]
REMARK SMILES IDX 8 1 9 2 10 3 11 4 12 5 13 6 14 7 15 8 16 9 7 10 6 11 5 12
REMARK SMILES IDX 4 13 3 14 2 15 1 16
REMARK H PARENT
REMARK Flexibility Score: inf
ROOT
ATOM      1  C   UNL     1      -6.895 -18.010  25.966  1.00  0.00     0.000 C 
ENDROOT
BRANCH   1   2
ATOM      2  C   UNL     1      -5.435 -18.454  26.157  1.00  0.00     0.000 C 
BRANCH   2   3
ATOM      3  C   UNL     1      -4.770 -17.784  27.373  1.00  0.00     0.000 C 
BRANCH   3   4
ATOM      4  C   UNL     1      -3.235 -17.873  27.331  1.00  0.00     0.000 C 
BRANCH   4   5
ATOM      5  C   UNL     1      -2.659 -17.566  25.938  1.00  0.00     0.006 C 
BRANCH   5   6
ATOM      6  C   UNL     1      -1.303 -18.246  25.710  1.00  0.00     0.053 C 
BRANCH   6   7
ATOM      7  C   UNL     1      -0.564 -17.639  24.556  1.00  0.00     0.041 C 
ATOM      8  O   UNL     1      -0.472 -16.387  24.449  1.00  0.00    -0.550 OA
ATOM      9  O   UNL     1       0.048 -18.457  23.615  1.00  0.00    -0.550 OA
ENDBRANCH   6   7
ENDBRANCH   5   6
ENDBRANCH   4   5
ENDBRANCH   3   4
ENDBRANCH   2   3
ENDBRANCH   1   2
BRANCH   1  10
ATOM     10  C   UNL     1      -7.400 -17.134  27.126  1.00  0.00     0.000 C 
BRANCH  10  11
ATOM     11  C   UNL     1      -8.934 -17.002  27.151  1.00  0.00    -0.000 C 
BRANCH  11  12
ATOM     12  C   UNL     1      -9.619 -17.559  28.412  1.00  0.00    -0.000 C 
BRANCH  12  13
ATOM     13  C   UNL     1      -8.700 -17.555  29.644  1.00  0.00    -0.000 C 
BRANCH  13  14
ATOM     14  C   UNL     1      -9.507 -17.767  30.930  1.00  0.00    -0.000 C 
BRANCH  14  15
ATOM     15  C   UNL     1      -8.826 -17.086  32.124  1.00  0.00    -0.003 C 
ATOM     16  C   UNL     1      -7.311 -17.257  32.067  1.00  0.00     0.004 C 
ENDBRANCH  14  15
ENDBRANCH  13  14
ENDBRANCH  12  13
ENDBRANCH  11  12
ENDBRANCH  10  11
ENDBRANCH   1  10
TORSDOF 12
ENDMDL
MODEL 5
REMARK VINA RESULT:    12.678      4.085      8.155
REMARK INTER + INTRA:          20.827
REMARK INTER:                  21.740
REMARK INTRA:                  -0.913
REMARK UNBOUND:                -0.744
REMARK SMILES CCCCCCCCCCCCCC(=O)[O-]
REMARK SMILES IDX 8 1 9 2 10 3 11 4 12 5 13 6 14 7 15 8 16 9 7 10 6 11 5 12
REMARK SMILES IDX 4 13 3 14 2 15 1 16
REMARK H PARENT
REMARK Flexibility Score: inf
ROOT
ATOM      1  C   UNL     1      -2.704 -17.564  25.990  1.00  0.00     0.000 C 
ENDROOT
BRANCH   1   2
ATOM      2  C   UNL     1      -3.321 -17.929  27.351  1.00  0.00     0.000 C 
BRANCH   2   3
ATOM      3  C   UNL     1      -4.845 -17.717  27.383  1.00  0.00     0.000 C 
BRANCH   3   4
ATOM      4  C   UNL     1      -5.557 -18.368  26.186  1.00  0.00     0.000 C 
BRANCH   4   5
ATOM      5  C   UNL     1      -7.065 -18.062  26.152  1.00  0.00     0.006 C 
BRANCH   5   6
ATOM      6  C   UNL     1      -7.463 -17.003  27.188  1.00  0.00     0.053 C 
BRANCH   6   7
ATOM      7  C   UNL     1      -8.886 -17.164  27.628  1.00  0.00     0.041 C 
ATOM      8  O   UNL     1      -9.244 -18.196  28.256  1.00  0.00    -0.550 OA
ATOM      9  O   UNL     1      -9.811 -16.161  27.371  1.00  0.00    -0.550 OA
ENDBRANCH   6   7
ENDBRANCH   5   6
ENDBRANCH   4   5
ENDBRANCH   3   4
ENDBRANCH   2   3
ENDBRANCH   1   2
BRANCH   1  10
ATOM     10  C   UNL     1      -1.325 -18.212  25.776  1.00  0.00     0.000 C 
BRANCH  10  11
ATOM     11  C   UNL     1      -0.576 -17.637  24.560  1.00  0.00    -0.000 C 
BRANCH  11  12
ATOM     12  C   UNL     1      -0.455 -18.589  23.356  1.00  0.00    -0.000 C 
BRANCH  12  13
ATOM     13  C   UNL     1      -1.292 -19.867  23.516  1.00  0.00    -0.000 C 
BRANCH  13  14
ATOM     14  C   UNL     1      -1.927 -20.277  22.183  1.00  0.00    -0.000 C 
BRANCH  14  15
ATOM     15  C   UNL     1      -3.309 -20.904  22.402  1.00  0.00    -0.003 C 
ATOM     16  C   UNL     1      -4.281 -19.897  23.010  1.00  0.00     0.004 C 
ENDBRANCH  14  15
ENDBRANCH  13  14
ENDBRANCH  12  13
ENDBRANCH  11  12
ENDBRANCH  10  11
ENDBRANCH   1  10
TORSDOF 12
ENDMDL
MODEL 6
REMARK VINA RESULT:    13.155      1.905      2.834
REMARK INTER + INTRA:          21.639
REMARK INTER:                  22.157
REMARK INTRA:                  -0.518
REMARK UNBOUND:                -0.744
REMARK SMILES CCCCCCCCCCCCCC(=O)[O-]
REMARK SMILES IDX 8 1 9 2 10 3 11 4 12 5 13 6 14 7 15 8 16 9 7 10 6 11 5 12
REMARK SMILES IDX 4 13 3 14 2 15 1 16
REMARK H PARENT
REMARK Flexibility Score: inf
ROOT
ATOM      1  C   UNL     1      -5.689 -19.325  25.162  1.00  0.00     0.000 C 
ENDROOT
BRANCH   1   2
ATOM      2  C   UNL     1      -4.558 -19.027  24.163  1.00  0.00     0.000 C 
BRANCH   2   3
ATOM      3  C   UNL     1      -4.542 -20.011  22.981  1.00  0.00     0.000 C 
BRANCH   3   4
ATOM      4  C   UNL     1      -3.200 -20.749  22.843  1.00  0.00     0.000 C 
BRANCH   4   5
ATOM      5  C   UNL     1      -2.016 -19.792  22.618  1.00  0.00     0.006 C 
BRANCH   5   6
ATOM      6  C   UNL     1      -1.034 -19.799  23.796  1.00  0.00     0.053 C 
BRANCH   6   7
ATOM      7  C   UNL     1      -0.693 -18.411  24.244  1.00  0.00     0.041 C 
ATOM      8  O   UNL     1      -1.067 -17.999  25.375  1.00  0.00    -0.550 OA
ATOM      9  O   UNL     1       0.063 -17.582  23.426  1.00  0.00    -0.550 OA
ENDBRANCH   6   7
ENDBRANCH   5   6
ENDBRANCH   4   5
ENDBRANCH   3   4
ENDBRANCH   2   3
ENDBRANCH   1   2
BRANCH   1  10
ATOM     10  C   UNL     1      -5.853 -18.214  26.214  1.00  0.00     0.000 C 
BRANCH  10  11
ATOM     11  C   UNL     1      -7.277 -17.628  26.248  1.00  0.00    -0.000 C 
BRANCH  11  12
ATOM     12  C   UNL     1      -7.755 -17.150  27.632  1.00  0.00    -0.000 C 
BRANCH  12  13
ATOM     13  C   UNL     1      -9.133 -17.710  28.016  1.00  0.00    -0.000 C 
BRANCH  13  14
ATOM     14  C   UNL     1      -9.393 -17.543  29.517  1.00  0.00    -0.000 C 
BRANCH  14  15
ATOM     15  C   UNL     1      -8.075 -17.453  30.297  1.00  0.00    -0.003 C 
ATOM     16  C   UNL     1      -8.329 -17.322  31.796  1.00  0.00     0.004 C 
ENDBRANCH  14  15
ENDBRANCH  13  14
ENDBRANCH  12  13
ENDBRANCH  11  12
ENDBRANCH  10  11
ENDBRANCH   1  10
TORSDOF 12
ENDMDL
MODEL 7
REMARK VINA RESULT:    13.285      4.375      8.581
REMARK INTER + INTRA:          21.861
REMARK INTER:                  22.360
REMARK INTRA:                  -0.499
REMARK UNBOUND:                -0.744
REMARK SMILES CCCCCCCCCCCCCC(=O)[O-]
REMARK SMILES IDX 8 1 9 2 10 3 11 4 12 5 13 6 14 7 15 8 16 9 7 10 6 11 5 12
REMARK SMILES IDX 4 13 3 14 2 15 1 16
REMARK H PARENT
REMARK Flexibility Score: inf
ROOT
ATOM      1  C   UNL     1      -5.895 -18.107  25.514  1.00  0.00     0.000 C 
ENDROOT
BRANCH   1   2
ATOM      2  C   UNL     1      -7.044 -18.350  26.506  1.00  0.00     0.000 C 
BRANCH   2   3
ATOM      3  C   UNL     1      -7.645 -17.039  27.044  1.00  0.00     0.000 C 
BRANCH   3   4
ATOM      4  C   UNL     1      -9.022 -17.243  27.696  1.00  0.00     0.000 C 
BRANCH   4   5
ATOM      5  C   UNL     1      -8.943 -18.021  29.021  1.00  0.00     0.006 C 
BRANCH   5   6
ATOM      6  C   UNL     1      -7.979 -17.367  30.020  1.00  0.00     0.053 C 
BRANCH   6   7
ATOM      7  C   UNL     1      -8.406 -17.598  31.437  1.00  0.00     0.041 C 
ATOM      8  O   UNL     1      -8.116 -18.678  32.019  1.00  0.00    -0.550 OA
ATOM      9  O   UNL     1      -9.098 -16.610  32.125  1.00  0.00    -0.550 OA
ENDBRANCH   6   7
ENDBRANCH   5   6
ENDBRANCH   4   5
ENDBRANCH   3   4
ENDBRANCH   2   3
ENDBRANCH   1   2
BRANCH   1  10
ATOM     10  C   UNL     1      -5.341 -19.416  24.922  1.00  0.00     0.000 C 
BRANCH  10  11
ATOM     11  C   UNL     1      -4.606 -19.204  23.585  1.00  0.00    -0.000 C 
BRANCH  11  12
ATOM     12  C   UNL     1      -4.376 -20.480  22.756  1.00  0.00    -0.000 C 
BRANCH  12  13
ATOM     13  C   UNL     1      -2.978 -20.539  22.122  1.00  0.00    -0.000 C 
BRANCH  13  14
ATOM     14  C   UNL     1      -1.895 -20.691  23.196  1.00  0.00    -0.000 C 
BRANCH  14  15
ATOM     15  C   UNL     1      -1.084 -19.398  23.346  1.00  0.00    -0.003 C 
ATOM     16  C   UNL     1      -0.628 -19.196  24.788  1.00  0.00     0.004 C 
ENDBRANCH  14  15
ENDBRANCH  13  14
ENDBRANCH  12  13
ENDBRANCH  11  12
ENDBRANCH  10  11
ENDBRANCH   1  10
TORSDOF 12
ENDMDL
MODEL 8
REMARK VINA RESULT:    13.319      1.957      3.434
REMARK INTER + INTRA:          21.918
REMARK INTER:                  22.281
REMARK INTRA:                  -0.364
REMARK UNBOUND:                -0.744
REMARK SMILES CCCCCCCCCCCCCC(=O)[O-]
REMARK SMILES IDX 8 1 9 2 10 3 11 4 12 5 13 6 14 7 15 8 16 9 7 10 6 11 5 12
REMARK SMILES IDX 4 13 3 14 2 15 1 16
REMARK H PARENT
REMARK Flexibility Score: inf
ROOT
ATOM      1  C   UNL     1      -7.143 -17.240  26.877  1.00  0.00     0.000 C 
ENDROOT
BRANCH   1   2
ATOM      2  C   UNL     1      -5.795 -17.967  26.732  1.00  0.00     0.000 C 
BRANCH   2   3
ATOM      3  C   UNL     1      -5.855 -19.120  25.716  1.00  0.00     0.000 C 
BRANCH   3   4
ATOM      4  C   UNL     1      -5.651 -18.644  24.268  1.00  0.00     0.000 C 
BRANCH   4   5
ATOM      5  C   UNL     1      -4.257 -18.991  23.718  1.00  0.00     0.006 C 
BRANCH   5   6
ATOM      6  C   UNL     1      -4.284 -20.233  22.818  1.00  0.00     0.053 C 
BRANCH   6   7
ATOM      7  C   UNL     1      -2.903 -20.736  22.523  1.00  0.00     0.041 C 
ATOM      8  O   UNL     1      -2.459 -21.755  23.116  1.00  0.00    -0.550 OA
ATOM      9  O   UNL     1      -2.119 -20.097  21.572  1.00  0.00    -0.550 OA
ENDBRANCH   6   7
ENDBRANCH   5   6
ENDBRANCH   4   5
ENDBRANCH   3   4
ENDBRANCH   2   3
ENDBRANCH   1   2
BRANCH   1  10
ATOM     10  C   UNL     1      -8.338 -18.209  26.877  1.00  0.00     0.000 C 
BRANCH  10  11
ATOM     11  C   UNL     1      -9.261 -18.021  28.094  1.00  0.00    -0.000 C 
BRANCH  11  12
ATOM     12  C   UNL     1      -9.952 -16.649  28.186  1.00  0.00    -0.000 C 
BRANCH  12  13
ATOM     13  C   UNL     1     -10.159 -15.989  26.814  1.00  0.00    -0.000 C 
BRANCH  13  14
ATOM     14  C   UNL     1      -9.898 -14.480  26.886  1.00  0.00    -0.000 C 
BRANCH  14  15
ATOM     15  C   UNL     1     -11.131 -13.687  26.434  1.00  0.00    -0.003 C 
ATOM     16  C   UNL     1     -11.354 -12.463  27.316  1.00  0.00     0.004 C 
ENDBRANCH  14  15
ENDBRANCH  13  14
ENDBRANCH  12  13
ENDBRANCH  11  12
ENDBRANCH  10  11
ENDBRANCH   1  10
TORSDOF 12
ENDMDL
