MODEL 1
REMARK VINA RESULT:    -5.700      0.000      0.000
REMARK INTER + INTRA:          -8.768
REMARK INTER:                  -7.699
REMARK INTRA:                  -1.068
REMARK UNBOUND:                -1.068
REMARK SMILES CC(=O)OCC=C(C)CCC=C(C)C
REMARK SMILES IDX 7 1 6 2 8 3 9 4 10 5 11 6 13 7 12 8 14 9 5 10 4 11 2 12 3 13
REMARK SMILES IDX 1 14
REMARK H PARENT
REMARK Flexibility Score: inf
ROOT
ATOM      1  C   UNL     1      35.545   1.334  15.970  1.00  0.00    -0.074 C 
ATOM      2  C   UNL     1      36.464   1.679  16.898  1.00  0.00     0.013 C 
ATOM      3  C   UNL     1      35.779   0.194  15.008  1.00  0.00     0.039 C 
ENDROOT
BRANCH   1   4
ATOM      4  C   UNL     1      34.250   2.113  15.891  1.00  0.00     0.034 C 
BRANCH   4   5
ATOM      5  C   UNL     1      33.416   1.915  17.161  1.00  0.00     0.032 C 
BRANCH   5   6
ATOM      6  C   UNL     1      32.678   0.600  17.117  1.00  0.00    -0.028 C 
ATOM      7  C   UNL     1      32.088  -1.686  17.797  1.00  0.00     0.039 C 
ATOM      8  C   UNL     1      32.935  -0.447  17.931  1.00  0.00    -0.080 C 
ATOM      9  C   UNL     1      34.049  -0.414  18.951  1.00  0.00     0.039 C 
ENDBRANCH   5   6
ENDBRANCH   4   5
ENDBRANCH   1   4
BRANCH   2  10
ATOM     10  C   UNL     1      37.787   0.976  17.073  1.00  0.00     0.260 C 
BRANCH  10  11
ATOM     11  O   UNL     1      38.863   1.798  16.624  1.00  0.00    -0.462 OA
BRANCH  11  12
ATOM     12  C   UNL     1      39.100   2.085  15.277  1.00  0.00     0.302 C 
ATOM     13  O   UNL     1      39.101   3.276  14.859  1.00  0.00    -0.253 OA
ATOM     14  C   UNL     1      39.404   0.973  14.332  1.00  0.00     0.139 C 
ENDBRANCH  11  12
ENDBRANCH  10  11
ENDBRANCH   2  10
TORSDOF 6
ENDMDL
MODEL 2
REMARK VINA RESULT:    -5.605      1.981      2.736
REMARK INTER + INTRA:          -8.639
REMARK INTER:                  -7.549
REMARK INTRA:                  -1.090
REMARK UNBOUND:                -1.068
REMARK SMILES CC(=O)OCC=C(C)CCC=C(C)C
REMARK SMILES IDX 7 1 6 2 8 3 9 4 10 5 11 6 13 7 12 8 14 9 5 10 4 11 2 12 3 13
REMARK SMILES IDX 1 14
REMARK H PARENT
REMARK Flexibility Score: inf
ROOT
ATOM      1  C   UNL     1      36.673   1.829  16.274  1.00  0.00    -0.074 C 
ATOM      2  C   UNL     1      37.652   1.964  15.353  1.00  0.00     0.013 C 
ATOM      3  C   UNL     1      36.983   1.557  17.727  1.00  0.00     0.039 C 
ENDROOT
BRANCH   1   4
ATOM      4  C   UNL     1      35.229   1.949  15.837  1.00  0.00     0.034 C 
BRANCH   4   5
ATOM      5  C   UNL     1      34.745   0.646  15.190  1.00  0.00     0.032 C 
BRANCH   5   6
ATOM      6  C   UNL     1      34.122  -0.263  16.220  1.00  0.00    -0.028 C 
ATOM      7  C   UNL     1      33.983  -2.166  17.768  1.00  0.00     0.039 C 
ATOM      8  C   UNL     1      34.710  -1.376  16.711  1.00  0.00    -0.080 C 
ATOM      9  C   UNL     1      36.057  -1.854  16.219  1.00  0.00     0.039 C 
ENDBRANCH   5   6
ENDBRANCH   4   5
ENDBRANCH   1   4
BRANCH   2  10
ATOM     10  C   UNL     1      39.123   1.867  15.670  1.00  0.00     0.260 C 
BRANCH  10  11
ATOM     11  O   UNL     1      39.657   0.618  15.232  1.00  0.00    -0.462 OA
BRANCH  11  12
ATOM     12  C   UNL     1      39.846  -0.476  16.082  1.00  0.00     0.302 C 
ATOM     13  O   UNL     1      39.706  -1.655  15.658  1.00  0.00    -0.253 OA
ATOM     14  C   UNL     1      40.268  -0.244  17.493  1.00  0.00     0.139 C 
ENDBRANCH  11  12
ENDBRANCH  10  11
ENDBRANCH   2  10
TORSDOF 6
ENDMDL
MODEL 3
REMARK VINA RESULT:    -5.584      1.285      2.067
REMARK INTER + INTRA:          -8.611
REMARK INTER:                  -7.589
REMARK INTRA:                  -1.021
REMARK UNBOUND:                -1.068
REMARK SMILES CC(=O)OCC=C(C)CCC=C(C)C
REMARK SMILES IDX 7 1 6 2 8 3 9 4 10 5 11 6 13 7 12 8 14 9 5 10 4 11 2 12 3 13
REMARK SMILES IDX 1 14
REMARK H PARENT
REMARK Flexibility Score: inf
ROOT
ATOM      1  C   UNL     1      36.377  -0.507  16.788  1.00  0.00    -0.074 C 
ATOM      2  C   UNL     1      36.868   0.497  17.548  1.00  0.00     0.013 C 
ATOM      3  C   UNL     1      36.105  -0.325  15.314  1.00  0.00     0.039 C 
ENDROOT
BRANCH   1   4
ATOM      4  C   UNL     1      36.090  -1.846  17.432  1.00  0.00     0.034 C 
BRANCH   4   5
ATOM      5  C   UNL     1      34.959  -1.724  18.461  1.00  0.00     0.032 C 
BRANCH   5   6
ATOM      6  C   UNL     1      33.613  -1.877  17.796  1.00  0.00    -0.028 C 
ATOM      7  C   UNL     1      31.482  -1.152  16.812  1.00  0.00     0.039 C 
ATOM      8  C   UNL     1      32.780  -0.851  17.516  1.00  0.00    -0.080 C 
ATOM      9  C   UNL     1      33.105   0.573  17.902  1.00  0.00     0.039 C 
ENDBRANCH   5   6
ENDBRANCH   4   5
ENDBRANCH   1   4
BRANCH   2  10
ATOM     10  C   UNL     1      37.194   1.870  17.018  1.00  0.00     0.260 C 
BRANCH  10  11
ATOM     11  O   UNL     1      38.548   1.938  16.577  1.00  0.00    -0.462 OA
BRANCH  11  12
ATOM     12  C   UNL     1      38.911   2.159  15.245  1.00  0.00     0.302 C 
ATOM     13  O   UNL     1      38.816   3.306  14.730  1.00  0.00    -0.253 OA
ATOM     14  C   UNL     1      39.465   1.033  14.439  1.00  0.00     0.139 C 
ENDBRANCH  11  12
ENDBRANCH  10  11
ENDBRANCH   2  10
TORSDOF 6
ENDMDL
MODEL 4
REMARK VINA RESULT:    -5.497      1.657      2.470
REMARK INTER + INTRA:          -8.494
REMARK INTER:                  -7.515
REMARK INTRA:                  -0.978
REMARK UNBOUND:                -1.068
REMARK SMILES CC(=O)OCC=C(C)CCC=C(C)C
REMARK SMILES IDX 7 1 6 2 8 3 9 4 10 5 11 6 13 7 12 8 14 9 5 10 4 11 2 12 3 13
REMARK SMILES IDX 1 14
REMARK H PARENT
REMARK Flexibility Score: inf
ROOT
ATOM      1  C   UNL     1      35.845  -0.929  16.335  1.00  0.00    -0.074 C 
ATOM      2  C   UNL     1      36.550  -0.270  17.281  1.00  0.00     0.013 C 
ATOM      3  C   UNL     1      35.822  -0.468  14.898  1.00  0.00     0.039 C 
ENDROOT
BRANCH   1   4
ATOM      4  C   UNL     1      35.055  -2.159  16.729  1.00  0.00     0.034 C 
BRANCH   4   5
ATOM      5  C   UNL     1      34.241  -1.899  18.001  1.00  0.00     0.032 C 
BRANCH   5   6
ATOM      6  C   UNL     1      32.786  -1.677  17.668  1.00  0.00    -0.028 C 
ATOM      7  C   UNL     1      30.757  -0.397  17.137  1.00  0.00     0.039 C 
ATOM      8  C   UNL     1      32.216  -0.463  17.509  1.00  0.00    -0.080 C 
ATOM      9  C   UNL     1      32.992   0.818  17.707  1.00  0.00     0.039 C 
ENDBRANCH   5   6
ENDBRANCH   4   5
ENDBRANCH   1   4
BRANCH   2  10
ATOM     10  C   UNL     1      37.374   0.963  17.007  1.00  0.00     0.260 C 
BRANCH  10  11
ATOM     11  O   UNL     1      38.762   0.643  16.935  1.00  0.00    -0.462 OA
BRANCH  11  12
ATOM     12  C   UNL     1      39.371   0.122  15.790  1.00  0.00     0.302 C 
ATOM     13  O   UNL     1      39.883  -1.031  15.797  1.00  0.00    -0.253 OA
ATOM     14  C   UNL     1      39.371   0.920  14.531  1.00  0.00     0.139 C 
ENDBRANCH  11  12
ENDBRANCH  10  11
ENDBRANCH   2  10
TORSDOF 6
ENDMDL
MODEL 5
REMARK VINA RESULT:    -5.395      2.632      5.480
REMARK INTER + INTRA:          -8.355
REMARK INTER:                  -7.530
REMARK INTRA:                  -0.825
REMARK UNBOUND:                -1.068
REMARK SMILES CC(=O)OCC=C(C)CCC=C(C)C
REMARK SMILES IDX 7 1 6 2 8 3 9 4 10 5 11 6 13 7 12 8 14 9 5 10 4 11 2 12 3 13
REMARK SMILES IDX 1 14
REMARK H PARENT
REMARK Flexibility Score: inf
ROOT
ATOM      1  C   UNL     1      35.874  -1.375  16.655  1.00  0.00    -0.074 C 
ATOM      2  C   UNL     1      34.781  -0.915  16.008  1.00  0.00     0.013 C 
ATOM      3  C   UNL     1      35.833  -1.741  18.120  1.00  0.00     0.039 C 
ENDROOT
BRANCH   1   4
ATOM      4  C   UNL     1      37.173  -1.524  15.893  1.00  0.00     0.034 C 
BRANCH   4   5
ATOM      5  C   UNL     1      38.251  -0.598  16.468  1.00  0.00     0.032 C 
BRANCH   5   6
ATOM      6  C   UNL     1      38.397   0.643  15.623  1.00  0.00    -0.028 C 
ATOM      7  C   UNL     1      39.035   2.955  15.092  1.00  0.00     0.039 C 
ATOM      8  C   UNL     1      38.915   1.810  16.064  1.00  0.00    -0.080 C 
ATOM      9  C   UNL     1      39.358   2.000  17.496  1.00  0.00     0.039 C 
ENDBRANCH   5   6
ENDBRANCH   4   5
ENDBRANCH   1   4
BRANCH   2  10
ATOM     10  C   UNL     1      33.435  -0.727  16.662  1.00  0.00     0.260 C 
BRANCH  10  11
ATOM     11  O   UNL     1      33.324   0.573  17.237  1.00  0.00    -0.462 OA
BRANCH  11  12
ATOM     12  C   UNL     1      33.994   1.694  16.735  1.00  0.00     0.302 C 
ATOM     13  O   UNL     1      33.567   2.298  15.713  1.00  0.00    -0.253 OA
ATOM     14  C   UNL     1      35.198   2.208  17.446  1.00  0.00     0.139 C 
ENDBRANCH  11  12
ENDBRANCH  10  11
ENDBRANCH   2  10
TORSDOF 6
ENDMDL
MODEL 6
REMARK VINA RESULT:    -5.373      2.749      5.902
REMARK INTER + INTRA:          -8.326
REMARK INTER:                  -7.436
REMARK INTRA:                  -0.891
REMARK UNBOUND:                -1.068
REMARK SMILES CC(=O)OCC=C(C)CCC=C(C)C
REMARK SMILES IDX 7 1 6 2 8 3 9 4 10 5 11 6 13 7 12 8 14 9 5 10 4 11 2 12 3 13
REMARK SMILES IDX 1 14
REMARK H PARENT
REMARK Flexibility Score: inf
ROOT
ATOM      1  C   UNL     1      36.236  -0.292  16.352  1.00  0.00    -0.074 C 
ATOM      2  C   UNL     1      36.021   0.268  17.563  1.00  0.00     0.013 C 
ATOM      3  C   UNL     1      35.324  -0.019  15.180  1.00  0.00     0.039 C 
ENDROOT
BRANCH   1   4
ATOM      4  C   UNL     1      37.417  -1.219  16.168  1.00  0.00     0.034 C 
BRANCH   4   5
ATOM      5  C   UNL     1      38.736  -0.475  16.404  1.00  0.00     0.032 C 
BRANCH   5   6
ATOM      6  C   UNL     1      38.811   0.764  15.546  1.00  0.00    -0.028 C 
ATOM      7  C   UNL     1      39.180   3.138  15.030  1.00  0.00     0.039 C 
ATOM      8  C   UNL     1      39.101   1.999  16.013  1.00  0.00    -0.080 C 
ATOM      9  C   UNL     1      39.329   2.267  17.482  1.00  0.00     0.039 C 
ENDBRANCH   5   6
ENDBRANCH   4   5
ENDBRANCH   1   4
BRANCH   2  10
ATOM     10  C   UNL     1      34.880   1.207  17.864  1.00  0.00     0.260 C 
BRANCH  10  11
ATOM     11  O   UNL     1      33.814   0.520  18.516  1.00  0.00    -0.462 OA
BRANCH  11  12
ATOM     12  C   UNL     1      32.781  -0.124  17.827  1.00  0.00     0.302 C 
ATOM     13  O   UNL     1      31.977   0.530  17.109  1.00  0.00    -0.253 OA
ATOM     14  C   UNL     1      32.662  -1.608  17.904  1.00  0.00     0.139 C 
ENDBRANCH  11  12
ENDBRANCH  10  11
ENDBRANCH   2  10
TORSDOF 6
ENDMDL
MODEL 7
REMARK VINA RESULT:    -5.288      2.898      5.498
REMARK INTER + INTRA:          -8.211
REMARK INTER:                  -7.559
REMARK INTRA:                  -0.652
REMARK UNBOUND:                -1.068
REMARK SMILES CC(=O)OCC=C(C)CCC=C(C)C
REMARK SMILES IDX 7 1 6 2 8 3 9 4 10 5 11 6 13 7 12 8 14 9 5 10 4 11 2 12 3 13
REMARK SMILES IDX 1 14
REMARK H PARENT
REMARK Flexibility Score: inf
ROOT
ATOM      1  C   UNL     1      34.697   1.449  17.005  1.00  0.00    -0.074 C 
ATOM      2  C   UNL     1      34.033   0.725  17.932  1.00  0.00     0.013 C 
ATOM      3  C   UNL     1      34.264   1.475  15.558  1.00  0.00     0.039 C 
ENDROOT
BRANCH   1   4
ATOM      4  C   UNL     1      35.909   2.252  17.426  1.00  0.00     0.034 C 
BRANCH   4   5
ATOM      5  C   UNL     1      37.096   1.330  17.726  1.00  0.00     0.032 C 
BRANCH   5   6
ATOM      6  C   UNL     1      37.757   0.877  16.448  1.00  0.00    -0.028 C 
ATOM      7  C   UNL     1      39.317   0.971  14.552  1.00  0.00     0.039 C 
ATOM      8  C   UNL     1      38.720   1.568  15.800  1.00  0.00    -0.080 C 
ATOM      9  C   UNL     1      39.198   2.919  16.281  1.00  0.00     0.039 C 
ENDBRANCH   5   6
ENDBRANCH   4   5
ENDBRANCH   1   4
BRANCH   2  10
ATOM     10  C   UNL     1      32.815  -0.111  17.630  1.00  0.00     0.260 C 
BRANCH  10  11
ATOM     11  O   UNL     1      33.180  -1.459  17.341  1.00  0.00    -0.462 OA
BRANCH  11  12
ATOM     12  C   UNL     1      34.466  -1.967  17.549  1.00  0.00     0.302 C 
ATOM     13  O   UNL     1      34.856  -2.287  18.705  1.00  0.00    -0.253 OA
ATOM     14  C   UNL     1      35.369  -2.179  16.382  1.00  0.00     0.139 C 
ENDBRANCH  11  12
ENDBRANCH  10  11
ENDBRANCH   2  10
TORSDOF 6
ENDMDL
MODEL 8
REMARK VINA RESULT:    -5.249      3.105      5.952
REMARK INTER + INTRA:          -8.158
REMARK INTER:                  -7.147
REMARK INTRA:                  -1.011
REMARK UNBOUND:                -1.068
REMARK SMILES CC(=O)OCC=C(C)CCC=C(C)C
REMARK SMILES IDX 7 1 6 2 8 3 9 4 10 5 11 6 13 7 12 8 14 9 5 10 4 11 2 12 3 13
REMARK SMILES IDX 1 14
REMARK H PARENT
REMARK Flexibility Score: inf
ROOT
ATOM      1  C   UNL     1      35.890   0.472  16.587  1.00  0.00    -0.074 C 
ATOM      2  C   UNL     1      35.631   0.321  17.904  1.00  0.00     0.013 C 
ATOM      3  C   UNL     1      35.591  -0.622  15.590  1.00  0.00     0.039 C 
ENDROOT
BRANCH   1   4
ATOM      4  C   UNL     1      36.499   1.768  16.099  1.00  0.00     0.034 C 
BRANCH   4   5
ATOM      5  C   UNL     1      37.886   1.525  15.493  1.00  0.00     0.032 C 
BRANCH   5   6
ATOM      6  C   UNL     1      38.905   1.270  16.576  1.00  0.00    -0.028 C 
ATOM      7  C   UNL     1      40.610   0.019  17.827  1.00  0.00     0.039 C 
ATOM      8  C   UNL     1      39.593   0.116  16.720  1.00  0.00    -0.080 C 
ATOM      9  C   UNL     1      39.358  -1.074  15.818  1.00  0.00     0.039 C 
ENDBRANCH   5   6
ENDBRANCH   4   5
ENDBRANCH   1   4
BRANCH   2  10
ATOM     10  C   UNL     1      35.025  -0.922  18.505  1.00  0.00     0.260 C 
BRANCH  10  11
ATOM     11  O   UNL     1      33.661  -0.703  18.861  1.00  0.00    -0.462 OA
BRANCH  11  12
ATOM     12  C   UNL     1      32.590  -0.995  18.012  1.00  0.00     0.302 C 
ATOM     13  O   UNL     1      32.014  -2.116  18.059  1.00  0.00    -0.253 OA
ATOM     14  C   UNL     1      32.091   0.051  17.075  1.00  0.00     0.139 C 
ENDBRANCH  11  12
ENDBRANCH  10  11
ENDBRANCH   2  10
TORSDOF 6
ENDMDL
MODEL 9
REMARK VINA RESULT:    -5.223      3.382      6.306
REMARK INTER + INTRA:          -8.123
REMARK INTER:                  -7.270
REMARK INTRA:                  -0.853
REMARK UNBOUND:                -1.068
REMARK SMILES CC(=O)OCC=C(C)CCC=C(C)C
REMARK SMILES IDX 7 1 6 2 8 3 9 4 10 5 11 6 13 7 12 8 14 9 5 10 4 11 2 12 3 13
REMARK SMILES IDX 1 14
REMARK H PARENT
REMARK Flexibility Score: inf
ROOT
ATOM      1  C   UNL     1      34.334   0.746  15.704  1.00  0.00    -0.074 C 
ATOM      2  C   UNL     1      33.730  -0.145  16.521  1.00  0.00     0.013 C 
ATOM      3  C   UNL     1      34.036   2.224  15.785  1.00  0.00     0.039 C 
ENDROOT
BRANCH   1   4
ATOM      4  C   UNL     1      35.331   0.249  14.680  1.00  0.00     0.034 C 
BRANCH   4   5
ATOM      5  C   UNL     1      36.609  -0.252  15.362  1.00  0.00     0.032 C 
BRANCH   5   6
ATOM      6  C   UNL     1      37.642   0.846  15.435  1.00  0.00    -0.028 C 
ATOM      7  C   UNL     1      39.000   2.606  16.479  1.00  0.00     0.039 C 
ATOM      8  C   UNL     1      37.912   1.566  16.545  1.00  0.00    -0.080 C 
ATOM      9  C   UNL     1      37.147   1.370  17.833  1.00  0.00     0.039 C 
ENDBRANCH   5   6
ENDBRANCH   4   5
ENDBRANCH   1   4
BRANCH   2  10
ATOM     10  C   UNL     1      32.723   0.232  17.578  1.00  0.00     0.260 C 
BRANCH  10  11
ATOM     11  O   UNL     1      31.396  -0.058  17.143  1.00  0.00    -0.462 OA
BRANCH  11  12
ATOM     12  C   UNL     1      30.863  -1.350  17.114  1.00  0.00     0.302 C 
ATOM     13  O   UNL     1      31.023  -2.139  18.085  1.00  0.00    -0.253 OA
ATOM     14  C   UNL     1      30.052  -1.783  15.940  1.00  0.00     0.139 C 
ENDBRANCH  11  12
ENDBRANCH  10  11
ENDBRANCH   2  10
TORSDOF 6
ENDMDL
