MODEL 1
REMARK VINA RESULT:    -4.878      0.000      0.000
REMARK INTER + INTRA:          -5.163
REMARK INTER:                  -5.163
REMARK INTRA:                   0.000
REMARK UNBOUND:                 0.000
REMARK SMILES O=c1ccc2cc(O)c(O)cc2o1
REMARK SMILES IDX 4 1 3 2 2 3 1 4 13 5 12 6 11 7 9 8 7 9 6 10 5 11 8 12 10 14
REMARK H PARENT 8 13 10 15
REMARK Flexibility Score: inf
ROOT
ATOM      1  C   UNL     1      32.672  29.896  27.400  1.00  0.00     0.019 A 
ATOM      2  C   UNL     1      32.219  28.932  28.301  1.00  0.00     0.094 A 
ATOM      3  C   UNL     1      30.852  28.641  28.353  1.00  0.00     0.336 A 
ATOM      4  O   UNL     1      30.425  27.774  29.160  1.00  0.00    -0.246 OA
ATOM      5  O   UNL     1      29.997  29.275  27.554  1.00  0.00    -0.423 OA
ATOM      6  C   UNL     1      30.386  30.201  26.680  1.00  0.00     0.142 A 
ATOM      7  C   UNL     1      29.442  30.833  25.866  1.00  0.00     0.098 A 
ATOM      8  C   UNL     1      29.846  31.810  24.943  1.00  0.00     0.161 A 
ATOM      9  C   UNL     1      31.202  32.154  24.835  1.00  0.00     0.158 A 
ATOM     10  C   UNL     1      32.153  31.522  25.649  1.00  0.00     0.062 A 
ATOM     11  C   UNL     1      31.751  30.547  26.571  1.00  0.00     0.022 A 
ENDROOT
BRANCH   9  12
ATOM     12  O   UNL     1      31.596  33.125  23.916  1.00  0.00    -0.504 OA
ATOM     13  H   UNL     1      31.573  32.952  22.918  1.00  0.00     0.293 HD
ENDBRANCH   9  12
BRANCH   8  14
ATOM     14  O   UNL     1      28.907  32.442  24.130  1.00  0.00    -0.504 OA
ATOM     15  H   UNL     1      28.517  31.983  23.315  1.00  0.00     0.293 HD
ENDBRANCH   8  14
TORSDOF 2
ENDMDL
MODEL 2
REMARK VINA RESULT:    -4.470     13.945     15.867
REMARK INTER + INTRA:          -4.731
REMARK INTER:                  -4.731
REMARK INTRA:                   0.000
REMARK UNBOUND:                 0.000
REMARK SMILES O=c1ccc2cc(O)c(O)cc2o1
REMARK SMILES IDX 4 1 3 2 2 3 1 4 13 5 12 6 11 7 9 8 7 9 6 10 5 11 8 12 10 14
REMARK H PARENT 8 13 10 15
REMARK Flexibility Score: inf
ROOT
ATOM      1  C   UNL     1      44.119  30.241  26.436  1.00  0.00     0.019 A 
ATOM      2  C   UNL     1      44.644  31.068  25.443  1.00  0.00     0.094 A 
ATOM      3  C   UNL     1      46.033  31.175  25.314  1.00  0.00     0.336 A 
ATOM      4  O   UNL     1      46.525  31.916  24.423  1.00  0.00    -0.246 OA
ATOM      5  O   UNL     1      46.839  30.498  26.127  1.00  0.00    -0.423 OA
ATOM      6  C   UNL     1      46.381  29.699  27.088  1.00  0.00     0.142 A 
ATOM      7  C   UNL     1      47.276  29.011  27.913  1.00  0.00     0.098 A 
ATOM      8  C   UNL     1      46.798  28.168  28.926  1.00  0.00     0.161 A 
ATOM      9  C   UNL     1      45.417  28.012  29.115  1.00  0.00     0.158 A 
ATOM     10  C   UNL     1      44.514  28.698  28.290  1.00  0.00     0.062 A 
ATOM     11  C   UNL     1      44.990  29.541  27.277  1.00  0.00     0.022 A 
ENDROOT
BRANCH   9  12
ATOM     12  O   UNL     1      44.950  27.172  30.125  1.00  0.00    -0.504 OA
ATOM     13  H   UNL     1      44.320  27.506  30.844  1.00  0.00     0.293 HD
ENDBRANCH   9  12
BRANCH   8  14
ATOM     14  O   UNL     1      47.689  27.482  29.751  1.00  0.00    -0.504 OA
ATOM     15  H   UNL     1      48.244  27.964  30.448  1.00  0.00     0.293 HD
ENDBRANCH   8  14
TORSDOF 2
ENDMDL
MODEL 3
REMARK VINA RESULT:    -4.349     13.624     14.961
REMARK INTER + INTRA:          -4.603
REMARK INTER:                  -4.603
REMARK INTRA:                   0.000
REMARK UNBOUND:                 0.000
REMARK SMILES O=c1ccc2cc(O)c(O)cc2o1
REMARK SMILES IDX 4 1 3 2 2 3 1 4 13 5 12 6 11 7 9 8 7 9 6 10 5 11 8 12 10 14
REMARK H PARENT 8 13 10 15
REMARK Flexibility Score: inf
ROOT
ATOM      1  C   UNL     1      43.060  26.424  29.798  1.00  0.00     0.019 A 
ATOM      2  C   UNL     1      43.443  25.094  29.977  1.00  0.00     0.094 A 
ATOM      3  C   UNL     1      44.804  24.773  29.962  1.00  0.00     0.336 A 
ATOM      4  O   UNL     1      45.169  23.579  30.121  1.00  0.00    -0.246 OA
ATOM      5  O   UNL     1      45.718  25.722  29.780  1.00  0.00    -0.423 OA
ATOM      6  C   UNL     1      45.397  27.002  29.605  1.00  0.00     0.142 A 
ATOM      7  C   UNL     1      46.401  27.956  29.419  1.00  0.00     0.098 A 
ATOM      8  C   UNL     1      46.068  29.306  29.235  1.00  0.00     0.161 A 
ATOM      9  C   UNL     1      44.723  29.702  29.237  1.00  0.00     0.158 A 
ATOM     10  C   UNL     1      43.711  28.750  29.425  1.00  0.00     0.062 A 
ATOM     11  C   UNL     1      44.042  27.401  29.608  1.00  0.00     0.022 A 
ENDROOT
BRANCH   9  12
ATOM     12  O   UNL     1      44.399  31.046  29.054  1.00  0.00    -0.504 OA
ATOM     13  H   UNL     1      43.856  31.357  28.257  1.00  0.00     0.293 HD
ENDBRANCH   9  12
BRANCH   8  14
ATOM     14  O   UNL     1      47.068  30.260  29.048  1.00  0.00    -0.504 OA
ATOM     15  H   UNL     1      47.124  31.089  29.628  1.00  0.00     0.293 HD
ENDBRANCH   8  14
TORSDOF 2
ENDMDL
MODEL 4
REMARK VINA RESULT:    -4.315      2.303      4.558
REMARK INTER + INTRA:          -4.567
REMARK INTER:                  -4.567
REMARK INTRA:                   0.000
REMARK UNBOUND:                 0.000
REMARK SMILES O=c1ccc2cc(O)c(O)cc2o1
REMARK SMILES IDX 4 1 3 2 2 3 1 4 13 5 12 6 11 7 9 8 7 9 6 10 5 11 8 12 10 14
REMARK H PARENT 8 13 10 15
REMARK Flexibility Score: inf
ROOT
ATOM      1  C   UNL     1      34.184  32.451  26.490  1.00  0.00     0.019 A 
ATOM      2  C   UNL     1      35.157  32.720  25.528  1.00  0.00     0.094 A 
ATOM      3  C   UNL     1      34.772  32.836  24.188  1.00  0.00     0.336 A 
ATOM      4  O   UNL     1      35.636  33.078  23.305  1.00  0.00    -0.246 OA
ATOM      5  O   UNL     1      33.496  32.692  23.839  1.00  0.00    -0.423 OA
ATOM      6  C   UNL     1      32.536  32.435  24.724  1.00  0.00     0.142 A 
ATOM      7  C   UNL     1      31.212  32.294  24.299  1.00  0.00     0.098 A 
ATOM      8  C   UNL     1      30.197  32.023  25.228  1.00  0.00     0.161 A 
ATOM      9  C   UNL     1      30.508  31.893  26.589  1.00  0.00     0.158 A 
ATOM     10  C   UNL     1      31.835  32.034  27.022  1.00  0.00     0.062 A 
ATOM     11  C   UNL     1      32.850  32.304  26.095  1.00  0.00     0.022 A 
ENDROOT
BRANCH   9  12
ATOM     12  O   UNL     1      29.494  31.624  27.506  1.00  0.00    -0.504 OA
ATOM     13  H   UNL     1      29.260  30.676  27.777  1.00  0.00     0.293 HD
ENDBRANCH   9  12
BRANCH   8  14
ATOM     14  O   UNL     1      28.875  31.882  24.806  1.00  0.00    -0.504 OA
ATOM     15  H   UNL     1      28.101  31.968  25.454  1.00  0.00     0.293 HD
ENDBRANCH   8  14
TORSDOF 2
ENDMDL
MODEL 5
REMARK VINA RESULT:    -4.257     13.648     15.241
REMARK INTER + INTRA:          -4.505
REMARK INTER:                  -4.505
REMARK INTRA:                   0.000
REMARK UNBOUND:                 0.000
REMARK SMILES O=c1ccc2cc(O)c(O)cc2o1
REMARK SMILES IDX 4 1 3 2 2 3 1 4 13 5 12 6 11 7 9 8 7 9 6 10 5 11 8 12 10 14
REMARK H PARENT 8 13 10 15
REMARK Flexibility Score: inf
ROOT
ATOM      1  C   UNL     1      44.892  30.276  26.671  1.00  0.00     0.019 A 
ATOM      2  C   UNL     1      43.516  30.171  26.469  1.00  0.00     0.094 A 
ATOM      3  C   UNL     1      42.816  29.135  27.096  1.00  0.00     0.336 A 
ATOM      4  O   UNL     1      41.574  29.023  26.925  1.00  0.00    -0.246 OA
ATOM      5  O   UNL     1      43.454  28.264  27.874  1.00  0.00    -0.423 OA
ATOM      6  C   UNL     1      44.765  28.328  28.094  1.00  0.00     0.142 A 
ATOM      7  C   UNL     1      45.383  27.385  28.921  1.00  0.00     0.098 A 
ATOM      8  C   UNL     1      46.764  27.448  29.157  1.00  0.00     0.161 A 
ATOM      9  C   UNL     1      47.531  28.460  28.561  1.00  0.00     0.158 A 
ATOM     10  C   UNL     1      46.918  29.409  27.731  1.00  0.00     0.062 A 
ATOM     11  C   UNL     1      45.538  29.347  27.494  1.00  0.00     0.022 A 
ENDROOT
BRANCH   9  12
ATOM     12  O   UNL     1      48.903  28.515  28.800  1.00  0.00    -0.504 OA
ATOM     13  H   UNL     1      49.461  29.311  28.511  1.00  0.00     0.293 HD
ENDBRANCH   9  12
BRANCH   8  14
ATOM     14  O   UNL     1      47.382  26.508  29.981  1.00  0.00    -0.504 OA
ATOM     15  H   UNL     1      48.239  26.044  29.705  1.00  0.00     0.293 HD
ENDBRANCH   8  14
TORSDOF 2
ENDMDL
MODEL 6
REMARK VINA RESULT:    -4.220      2.560      4.385
REMARK INTER + INTRA:          -4.466
REMARK INTER:                  -4.466
REMARK INTRA:                   0.000
REMARK UNBOUND:                 0.000
REMARK SMILES O=c1ccc2cc(O)c(O)cc2o1
REMARK SMILES IDX 4 1 3 2 2 3 1 4 13 5 12 6 11 7 9 8 7 9 6 10 5 11 8 12 10 14
REMARK H PARENT 8 13 10 15
REMARK Flexibility Score: inf
ROOT
ATOM      1  C   UNL     1      33.634  32.702  23.972  1.00  0.00     0.019 A 
ATOM      2  C   UNL     1      34.916  32.856  24.501  1.00  0.00     0.094 A 
ATOM      3  C   UNL     1      35.097  32.749  25.883  1.00  0.00     0.336 A 
ATOM      4  O   UNL     1      36.246  32.886  26.379  1.00  0.00    -0.246 OA
ATOM      5  O   UNL     1      34.061  32.505  26.682  1.00  0.00    -0.423 OA
ATOM      6  C   UNL     1      32.822  32.351  26.220  1.00  0.00     0.142 A 
ATOM      7  C   UNL     1      31.772  32.095  27.107  1.00  0.00     0.098 A 
ATOM      8  C   UNL     1      30.465  31.933  26.626  1.00  0.00     0.161 A 
ATOM      9  C   UNL     1      30.207  32.026  25.250  1.00  0.00     0.158 A 
ATOM     10  C   UNL     1      31.256  32.282  24.356  1.00  0.00     0.062 A 
ATOM     11  C   UNL     1      32.563  32.445  24.835  1.00  0.00     0.022 A 
ENDROOT
BRANCH   9  12
ATOM     12  O   UNL     1      28.905  31.863  24.779  1.00  0.00    -0.504 OA
ATOM     13  H   UNL     1      28.691  31.228  24.020  1.00  0.00     0.293 HD
ENDBRANCH   9  12
BRANCH   8  14
ATOM     14  O   UNL     1      29.415  31.678  27.508  1.00  0.00    -0.504 OA
ATOM     15  H   UNL     1      28.563  31.223  27.200  1.00  0.00     0.293 HD
ENDBRANCH   8  14
TORSDOF 2
ENDMDL
MODEL 7
REMARK VINA RESULT:    -4.056     13.516     15.033
REMARK INTER + INTRA:          -4.294
REMARK INTER:                  -4.294
REMARK INTRA:                   0.000
REMARK UNBOUND:                 0.000
REMARK SMILES O=c1ccc2cc(O)c(O)cc2o1
REMARK SMILES IDX 4 1 3 2 2 3 1 4 13 5 12 6 11 7 9 8 7 9 6 10 5 11 8 12 10 14
REMARK H PARENT 8 13 10 15
REMARK Flexibility Score: inf
ROOT
ATOM      1  C   UNL     1      43.025  28.181  28.626  1.00  0.00     0.019 A 
ATOM      2  C   UNL     1      42.347  27.064  29.114  1.00  0.00     0.094 A 
ATOM      3  C   UNL     1      43.082  26.018  29.679  1.00  0.00     0.336 A 
ATOM      4  O   UNL     1      42.487  25.001  30.125  1.00  0.00    -0.246 OA
ATOM      5  O   UNL     1      44.409  26.087  29.750  1.00  0.00    -0.423 OA
ATOM      6  C   UNL     1      45.096  27.134  29.297  1.00  0.00     0.142 A 
ATOM      7  C   UNL     1      46.490  27.152  29.399  1.00  0.00     0.098 A 
ATOM      8  C   UNL     1      47.219  28.252  28.923  1.00  0.00     0.161 A 
ATOM      9  C   UNL     1      46.548  29.339  28.343  1.00  0.00     0.158 A 
ATOM     10  C   UNL     1      45.150  29.327  28.239  1.00  0.00     0.062 A 
ATOM     11  C   UNL     1      44.421  28.228  28.713  1.00  0.00     0.022 A 
ENDROOT
BRANCH   9  12
ATOM     12  O   UNL     1      47.279  30.429  27.872  1.00  0.00    -0.504 OA
ATOM     13  H   UNL     1      47.950  30.911  28.458  1.00  0.00     0.293 HD
ENDBRANCH   9  12
BRANCH   8  14
ATOM     14  O   UNL     1      48.609  28.273  29.023  1.00  0.00    -0.504 OA
ATOM     15  H   UNL     1      49.156  27.420  28.987  1.00  0.00     0.293 HD
ENDBRANCH   8  14
TORSDOF 2
ENDMDL
