MODEL 1
REMARK VINA RESULT:    -7.249      0.000      0.000
REMARK INTER + INTRA:          -9.008
REMARK INTER:                  -8.732
REMARK INTRA:                  -0.276
REMARK UNBOUND:                -0.276
REMARK SMILES O=c1c(O)c(-c2ccc(O)c(O)c2)oc2cc(O)cc(O)c12
REMARK SMILES IDX 5 1 3 2 2 3 1 4 22 5 20 6 19 7 17 8 16 9 15 10 14 11 6 12
REMARK SMILES IDX 7 13 8 14 9 15 13 16 11 17 10 18 12 20 4 22 21 24 18 26
REMARK H PARENT 10 19 12 21 4 23 21 25 18 27
REMARK Flexibility Score: inf
ROOT
ATOM      1  C   UNL     1      13.162   8.459  56.418  1.00  0.00     0.180 A 
ATOM      2  C   UNL     1      11.881   7.904  56.238  1.00  0.00     0.208 A 
ATOM      3  C   UNL     1      11.161   7.477  57.364  1.00  0.00     0.238 A 
ATOM      4  O   UNL     1      10.017   6.969  57.213  1.00  0.00    -0.285 OA
ATOM      5  C   UNL     1      11.723   7.629  58.648  1.00  0.00     0.111 A 
ATOM      6  C   UNL     1      11.062   7.228  59.835  1.00  0.00     0.134 A 
ATOM      7  C   UNL     1      11.684   7.421  61.077  1.00  0.00     0.093 A 
ATOM      8  C   UNL     1      12.950   8.007  61.157  1.00  0.00     0.123 A 
ATOM      9  C   UNL     1      13.608   8.404  59.988  1.00  0.00     0.094 A 
ATOM     10  C   UNL     1      13.005   8.218  58.740  1.00  0.00     0.146 A 
ATOM     11  O   UNL     1      13.654   8.599  57.646  1.00  0.00    -0.452 OA
ENDROOT
BRANCH   1  12
ATOM     12  C   UNL     1      13.991   8.914  55.279  1.00  0.00     0.025 A 
ATOM     13  C   UNL     1      14.649   7.967  54.480  1.00  0.00     0.016 A 
ATOM     14  C   UNL     1      15.420   8.373  53.388  1.00  0.00     0.051 A 
ATOM     15  C   UNL     1      15.532   9.732  53.070  1.00  0.00     0.157 A 
ATOM     16  C   UNL     1      14.089  10.278  54.944  1.00  0.00     0.062 A 
ATOM     17  C   UNL     1      14.861  10.686  53.847  1.00  0.00     0.158 A 
BRANCH  15  18
ATOM     18  O   UNL     1      16.301  10.143  51.983  1.00  0.00    -0.504 OA
ATOM     19  H   UNL     1      17.095  10.761  52.099  1.00  0.00     0.293 HD
ENDBRANCH  15  18
BRANCH  17  20
ATOM     20  O   UNL     1      14.962  12.037  53.519  1.00  0.00    -0.504 OA
ATOM     21  H   UNL     1      15.712  12.385  52.933  1.00  0.00     0.293 HD
ENDBRANCH  17  20
ENDBRANCH   1  12
BRANCH   2  22
ATOM     22  O   UNL     1      11.326   7.810  54.958  1.00  0.00    -0.502 OA
ATOM     23  H   UNL     1      10.684   7.072  54.698  1.00  0.00     0.293 HD
ENDBRANCH   2  22
BRANCH   6  24
ATOM     24  O   UNL     1       9.796   6.642  59.789  1.00  0.00    -0.507 OA
ATOM     25  H   UNL     1       9.200   6.723  58.975  1.00  0.00     0.293 HD
ENDBRANCH   6  24
BRANCH   8  26
ATOM     26  O   UNL     1      13.545   8.188  62.403  1.00  0.00    -0.508 OA
ATOM     27  H   UNL     1      14.310   7.601  62.715  1.00  0.00     0.293 HD
ENDBRANCH   8  26
TORSDOF 6
ENDMDL
MODEL 2
REMARK VINA RESULT:    -7.067      1.623      7.070
REMARK INTER + INTRA:          -8.788
REMARK INTER:                  -8.561
REMARK INTRA:                  -0.227
REMARK UNBOUND:                -0.276
REMARK SMILES O=c1c(O)c(-c2ccc(O)c(O)c2)oc2cc(O)cc(O)c12
REMARK SMILES IDX 5 1 3 2 2 3 1 4 22 5 20 6 19 7 17 8 16 9 15 10 14 11 6 12
REMARK SMILES IDX 7 13 8 14 9 15 13 16 11 17 10 18 12 20 4 22 21 24 18 26
REMARK H PARENT 10 19 12 21 4 23 21 25 18 27
REMARK Flexibility Score: inf
ROOT
ATOM      1  C   UNL     1      13.882   8.282  57.147  1.00  0.00     0.180 A 
ATOM      2  C   UNL     1      14.777   7.284  56.719  1.00  0.00     0.208 A 
ATOM      3  C   UNL     1      15.458   7.458  55.504  1.00  0.00     0.238 A 
ATOM      4  O   UNL     1      16.254   6.565  55.106  1.00  0.00    -0.285 OA
ATOM      5  C   UNL     1      15.250   8.631  54.751  1.00  0.00     0.111 A 
ATOM      6  C   UNL     1      15.900   8.887  53.519  1.00  0.00     0.134 A 
ATOM      7  C   UNL     1      15.646  10.083  52.834  1.00  0.00     0.093 A 
ATOM      8  C   UNL     1      14.759  11.029  53.353  1.00  0.00     0.123 A 
ATOM      9  C   UNL     1      14.113  10.782  54.570  1.00  0.00     0.094 A 
ATOM     10  C   UNL     1      14.351   9.594  55.267  1.00  0.00     0.146 A 
ATOM     11  O   UNL     1      13.721   9.382  56.417  1.00  0.00    -0.452 OA
ENDROOT
BRANCH   1  12
ATOM     12  C   UNL     1      13.111   8.163  58.406  1.00  0.00     0.025 A 
ATOM     13  C   UNL     1      11.736   7.888  58.351  1.00  0.00     0.016 A 
ATOM     14  C   UNL     1      10.993   7.751  59.527  1.00  0.00     0.051 A 
ATOM     15  C   UNL     1      11.619   7.871  60.774  1.00  0.00     0.157 A 
ATOM     16  C   UNL     1      13.740   8.262  59.661  1.00  0.00     0.062 A 
ATOM     17  C   UNL     1      12.996   8.123  60.841  1.00  0.00     0.158 A 
BRANCH  15  18
ATOM     18  O   UNL     1      10.882   7.737  61.949  1.00  0.00    -0.504 OA
ATOM     19  H   UNL     1      10.297   8.487  62.296  1.00  0.00     0.293 HD
ENDBRANCH  15  18
BRANCH  17  20
ATOM     20  O   UNL     1      13.618   8.227  62.084  1.00  0.00    -0.504 OA
ATOM     21  H   UNL     1      14.409   7.644  62.331  1.00  0.00     0.293 HD
ENDBRANCH  17  20
ENDBRANCH   1  12
BRANCH   2  22
ATOM     22  O   UNL     1      15.003   6.153  57.508  1.00  0.00    -0.502 OA
ATOM     23  H   UNL     1      14.520   5.996  58.383  1.00  0.00     0.293 HD
ENDBRANCH   2  22
BRANCH   6  24
ATOM     24  O   UNL     1      16.793   7.963  52.973  1.00  0.00    -0.507 OA
ATOM     25  H   UNL     1      16.653   7.566  52.052  1.00  0.00     0.293 HD
ENDBRANCH   6  24
BRANCH   8  26
ATOM     26  O   UNL     1      14.525  12.210  52.652  1.00  0.00    -0.508 OA
ATOM     27  H   UNL     1      13.816  12.870  52.949  1.00  0.00     0.293 HD
ENDBRANCH   8  26
TORSDOF 6
ENDMDL
MODEL 3
REMARK VINA RESULT:    -7.013      1.555      2.399
REMARK INTER + INTRA:          -8.724
REMARK INTER:                  -8.751
REMARK INTRA:                   0.027
REMARK UNBOUND:                -0.276
REMARK SMILES O=c1c(O)c(-c2ccc(O)c(O)c2)oc2cc(O)cc(O)c12
REMARK SMILES IDX 5 1 3 2 2 3 1 4 22 5 20 6 19 7 17 8 16 9 15 10 14 11 6 12
REMARK SMILES IDX 7 13 8 14 9 15 13 16 11 17 10 18 12 20 4 22 21 24 18 26
REMARK H PARENT 10 19 12 21 4 23 21 25 18 27
REMARK Flexibility Score: inf
ROOT
ATOM      1  C   UNL     1      13.576   8.542  56.377  1.00  0.00     0.180 A 
ATOM      2  C   UNL     1      14.162   7.504  57.126  1.00  0.00     0.208 A 
ATOM      3  C   UNL     1      13.555   7.107  58.327  1.00  0.00     0.238 A 
ATOM      4  O   UNL     1      14.078   6.186  59.011  1.00  0.00    -0.285 OA
ATOM      5  C   UNL     1      12.366   7.736  58.748  1.00  0.00     0.111 A 
ATOM      6  C   UNL     1      11.689   7.392  59.943  1.00  0.00     0.134 A 
ATOM      7  C   UNL     1      10.505   8.060  60.288  1.00  0.00     0.093 A 
ATOM      8  C   UNL     1       9.984   9.061  59.465  1.00  0.00     0.123 A 
ATOM      9  C   UNL     1      10.650   9.406  58.283  1.00  0.00     0.094 A 
ATOM     10  C   UNL     1      11.832   8.753  57.923  1.00  0.00     0.146 A 
ATOM     11  O   UNL     1      12.446   9.103  56.798  1.00  0.00    -0.452 OA
ENDROOT
BRANCH   1  12
ATOM     12  C   UNL     1      14.167   9.031  55.110  1.00  0.00     0.025 A 
ATOM     13  C   UNL     1      14.494   8.113  54.101  1.00  0.00     0.016 A 
ATOM     14  C   UNL     1      15.034   8.553  52.889  1.00  0.00     0.051 A 
ATOM     15  C   UNL     1      15.240   9.920  52.665  1.00  0.00     0.157 A 
ATOM     16  C   UNL     1      14.357  10.405  54.873  1.00  0.00     0.062 A 
ATOM     17  C   UNL     1      14.897  10.848  53.657  1.00  0.00     0.158 A 
BRANCH  15  18
ATOM     18  O   UNL     1      15.780  10.364  51.460  1.00  0.00    -0.504 OA
ATOM     19  H   UNL     1      15.430  10.033  50.568  1.00  0.00     0.293 HD
ENDBRANCH  15  18
BRANCH  17  20
ATOM     20  O   UNL     1      15.091  12.209  53.425  1.00  0.00    -0.504 OA
ATOM     21  H   UNL     1      15.509  12.545  52.565  1.00  0.00     0.293 HD
ENDBRANCH  17  20
ENDBRANCH   1  12
BRANCH   2  22
ATOM     22  O   UNL     1      15.314   6.863  56.662  1.00  0.00    -0.502 OA
ATOM     23  H   UNL     1      16.208   7.334  56.592  1.00  0.00     0.293 HD
ENDBRANCH   2  22
BRANCH   6  24
ATOM     24  O   UNL     1      12.182   6.396  60.787  1.00  0.00    -0.507 OA
ATOM     25  H   UNL     1      13.145   6.087  60.741  1.00  0.00     0.293 HD
ENDBRANCH   6  24
BRANCH   8  26
ATOM     26  O   UNL     1       8.806   9.708  59.830  1.00  0.00    -0.508 OA
ATOM     27  H   UNL     1       7.988   9.696  59.232  1.00  0.00     0.293 HD
ENDBRANCH   8  26
TORSDOF 6
ENDMDL
MODEL 4
REMARK VINA RESULT:    -6.863      1.742      7.302
REMARK INTER + INTRA:          -8.542
REMARK INTER:                  -8.251
REMARK INTRA:                  -0.291
REMARK UNBOUND:                -0.276
REMARK SMILES O=c1c(O)c(-c2ccc(O)c(O)c2)oc2cc(O)cc(O)c12
REMARK SMILES IDX 5 1 3 2 2 3 1 4 22 5 20 6 19 7 17 8 16 9 15 10 14 11 6 12
REMARK SMILES IDX 7 13 8 14 9 15 13 16 11 17 10 18 12 20 4 22 21 24 18 26
REMARK H PARENT 10 19 12 21 4 23 21 25 18 27
REMARK Flexibility Score: inf
ROOT
ATOM      1  C   UNL     1      13.813   8.236  55.768  1.00  0.00     0.180 A 
ATOM      2  C   UNL     1      13.810   9.642  55.690  1.00  0.00     0.208 A 
ATOM      3  C   UNL     1      14.348  10.260  54.551  1.00  0.00     0.238 A 
ATOM      4  O   UNL     1      14.360  11.518  54.475  1.00  0.00    -0.285 OA
ATOM      5  C   UNL     1      14.860   9.466  53.504  1.00  0.00     0.111 A 
ATOM      6  C   UNL     1      15.416  10.010  52.320  1.00  0.00     0.134 A 
ATOM      7  C   UNL     1      15.896   9.153  51.320  1.00  0.00     0.093 A 
ATOM      8  C   UNL     1      15.832   7.766  51.477  1.00  0.00     0.123 A 
ATOM      9  C   UNL     1      15.284   7.223  52.645  1.00  0.00     0.094 A 
ATOM     10  C   UNL     1      14.802   8.061  53.654  1.00  0.00     0.146 A 
ATOM     11  O   UNL     1      14.291   7.520  54.755  1.00  0.00    -0.452 OA
ENDROOT
BRANCH   1  12
ATOM     12  C   UNL     1      13.281   7.511  56.944  1.00  0.00     0.025 A 
ATOM     13  C   UNL     1      14.166   7.057  57.934  1.00  0.00     0.016 A 
ATOM     14  C   UNL     1      13.685   6.388  59.063  1.00  0.00     0.051 A 
ATOM     15  C   UNL     1      12.310   6.178  59.225  1.00  0.00     0.157 A 
ATOM     16  C   UNL     1      11.899   7.316  57.121  1.00  0.00     0.062 A 
ATOM     17  C   UNL     1      11.415   6.646  58.254  1.00  0.00     0.158 A 
BRANCH  15  18
ATOM     18  O   UNL     1      11.825   5.510  60.348  1.00  0.00    -0.504 OA
ATOM     19  H   UNL     1      11.032   5.861  60.871  1.00  0.00     0.293 HD
ENDBRANCH  15  18
BRANCH  17  20
ATOM     20  O   UNL     1      10.046   6.448  58.426  1.00  0.00    -0.504 OA
ATOM     21  H   UNL     1       9.630   6.395  59.349  1.00  0.00     0.293 HD
ENDBRANCH  17  20
ENDBRANCH   1  12
BRANCH   2  22
ATOM     22  O   UNL     1      13.252  10.404  56.719  1.00  0.00    -0.502 OA
ATOM     23  H   UNL     1      12.379  10.156  57.169  1.00  0.00     0.293 HD
ENDBRANCH   2  22
BRANCH   6  24
ATOM     24  O   UNL     1      15.494  11.390  52.132  1.00  0.00    -0.507 OA
ATOM     25  H   UNL     1      14.867  11.880  51.504  1.00  0.00     0.293 HD
ENDBRANCH   6  24
BRANCH   8  26
ATOM     26  O   UNL     1      16.315   6.937  50.468  1.00  0.00    -0.508 OA
ATOM     27  H   UNL     1      15.962   5.996  50.341  1.00  0.00     0.293 HD
ENDBRANCH   8  26
TORSDOF 6
ENDMDL
MODEL 5
REMARK VINA RESULT:    -6.816      2.136      6.966
REMARK INTER + INTRA:          -8.487
REMARK INTER:                  -8.240
REMARK INTRA:                  -0.246
REMARK UNBOUND:                -0.276
REMARK SMILES O=c1c(O)c(-c2ccc(O)c(O)c2)oc2cc(O)cc(O)c12
REMARK SMILES IDX 5 1 3 2 2 3 1 4 22 5 20 6 19 7 17 8 16 9 15 10 14 11 6 12
REMARK SMILES IDX 7 13 8 14 9 15 13 16 11 17 10 18 12 20 4 22 21 24 18 26
REMARK H PARENT 10 19 12 21 4 23 21 25 18 27
REMARK Flexibility Score: inf
ROOT
ATOM      1  C   UNL     1      12.822   8.507  58.493  1.00  0.00     0.180 A 
ATOM      2  C   UNL     1      13.552   7.304  58.516  1.00  0.00     0.208 A 
ATOM      3  C   UNL     1      14.447   7.032  57.470  1.00  0.00     0.238 A 
ATOM      4  O   UNL     1      15.097   5.952  57.475  1.00  0.00    -0.285 OA
ATOM      5  C   UNL     1      14.611   7.973  56.433  1.00  0.00     0.111 A 
ATOM      6  C   UNL     1      15.496   7.778  55.344  1.00  0.00     0.134 A 
ATOM      7  C   UNL     1      15.610   8.766  54.356  1.00  0.00     0.093 A 
ATOM      8  C   UNL     1      14.862   9.943  54.434  1.00  0.00     0.123 A 
ATOM      9  C   UNL     1      13.986  10.141  55.507  1.00  0.00     0.094 A 
ATOM     10  C   UNL     1      13.856   9.167  56.501  1.00  0.00     0.146 A 
ATOM     11  O   UNL     1      13.014   9.377  57.506  1.00  0.00    -0.452 OA
ENDROOT
BRANCH   1  12
ATOM     12  C   UNL     1      11.845   8.857  59.550  1.00  0.00     0.025 A 
ATOM     13  C   UNL     1      10.472   8.750  59.285  1.00  0.00     0.016 A 
ATOM     14  C   UNL     1       9.532   9.055  60.273  1.00  0.00     0.051 A 
ATOM     15  C   UNL     1       9.954   9.457  61.547  1.00  0.00     0.157 A 
ATOM     16  C   UNL     1      12.265   9.241  60.837  1.00  0.00     0.062 A 
ATOM     17  C   UNL     1      11.324   9.546  61.831  1.00  0.00     0.158 A 
BRANCH  15  18
ATOM     18  O   UNL     1       9.022   9.764  62.536  1.00  0.00    -0.504 OA
ATOM     19  H   UNL     1       8.322  10.483  62.399  1.00  0.00     0.293 HD
ENDBRANCH  15  18
BRANCH  17  20
ATOM     20  O   UNL     1      11.740   9.932  63.104  1.00  0.00    -0.504 OA
ATOM     21  H   UNL     1      12.716  10.107  63.311  1.00  0.00     0.293 HD
ENDBRANCH  17  20
ENDBRANCH   1  12
BRANCH   2  22
ATOM     22  O   UNL     1      13.407   6.410  59.581  1.00  0.00    -0.502 OA
ATOM     23  H   UNL     1      13.574   5.416  59.483  1.00  0.00     0.293 HD
ENDBRANCH   2  22
BRANCH   6  24
ATOM     24  O   UNL     1      16.258   6.614  55.237  1.00  0.00    -0.507 OA
ATOM     25  H   UNL     1      17.229   6.637  54.949  1.00  0.00     0.293 HD
ENDBRANCH   6  24
BRANCH   8  26
ATOM     26  O   UNL     1      14.995  10.909  53.439  1.00  0.00    -0.508 OA
ATOM     27  H   UNL     1      14.916  11.898  53.648  1.00  0.00     0.293 HD
ENDBRANCH   8  26
TORSDOF 6
ENDMDL
MODEL 6
REMARK VINA RESULT:    -6.622      1.309      1.838
REMARK INTER + INTRA:          -8.252
REMARK INTER:                  -8.119
REMARK INTRA:                  -0.133
REMARK UNBOUND:                -0.276
REMARK SMILES O=c1c(O)c(-c2ccc(O)c(O)c2)oc2cc(O)cc(O)c12
REMARK SMILES IDX 5 1 3 2 2 3 1 4 22 5 20 6 19 7 17 8 16 9 15 10 14 11 6 12
REMARK SMILES IDX 7 13 8 14 9 15 13 16 11 17 10 18 12 20 4 22 21 24 18 26
REMARK H PARENT 10 19 12 21 4 23 21 25 18 27
REMARK Flexibility Score: inf
ROOT
ATOM      1  C   UNL     1      13.058   8.293  57.184  1.00  0.00     0.180 A 
ATOM      2  C   UNL     1      11.671   8.131  57.008  1.00  0.00     0.208 A 
ATOM      3  C   UNL     1      10.860   7.947  58.138  1.00  0.00     0.238 A 
ATOM      4  O   UNL     1       9.618   7.789  57.991  1.00  0.00    -0.285 OA
ATOM      5  C   UNL     1      11.443   7.950  59.421  1.00  0.00     0.111 A 
ATOM      6  C   UNL     1      10.696   7.776  60.612  1.00  0.00     0.134 A 
ATOM      7  C   UNL     1      11.349   7.800  61.853  1.00  0.00     0.093 A 
ATOM      8  C   UNL     1      12.731   7.995  61.928  1.00  0.00     0.123 A 
ATOM      9  C   UNL     1      13.474   8.167  60.755  1.00  0.00     0.094 A 
ATOM     10  C   UNL     1      12.841   8.144  59.509  1.00  0.00     0.146 A 
ATOM     11  O   UNL     1      13.571   8.305  58.411  1.00  0.00    -0.452 OA
ENDROOT
BRANCH   1  12
ATOM     12  C   UNL     1      13.982   8.473  56.040  1.00  0.00     0.025 A 
ATOM     13  C   UNL     1      13.862   9.609  55.226  1.00  0.00     0.016 A 
ATOM     14  C   UNL     1      14.736   9.809  54.154  1.00  0.00     0.051 A 
ATOM     15  C   UNL     1      15.752   8.882  53.891  1.00  0.00     0.157 A 
ATOM     16  C   UNL     1      15.018   7.554  55.785  1.00  0.00     0.062 A 
ATOM     17  C   UNL     1      15.896   7.755  54.710  1.00  0.00     0.158 A 
BRANCH  15  18
ATOM     18  O   UNL     1      16.625   9.076  52.822  1.00  0.00    -0.504 OA
ATOM     19  H   UNL     1      16.298   9.066  51.863  1.00  0.00     0.293 HD
ENDBRANCH  15  18
BRANCH  17  20
ATOM     20  O   UNL     1      16.918   6.842  54.454  1.00  0.00    -0.504 OA
ATOM     21  H   UNL     1      16.743   5.976  53.958  1.00  0.00     0.293 HD
ENDBRANCH  17  20
ENDBRANCH   1  12
BRANCH   2  22
ATOM     22  O   UNL     1      11.111   8.181  55.728  1.00  0.00    -0.502 OA
ATOM     23  H   UNL     1      11.624   7.905  54.899  1.00  0.00     0.293 HD
ENDBRANCH   2  22
BRANCH   6  24
ATOM     24  O   UNL     1       9.315   7.580  60.571  1.00  0.00    -0.507 OA
ATOM     25  H   UNL     1       8.836   7.336  59.713  1.00  0.00     0.293 HD
ENDBRANCH   6  24
BRANCH   8  26
ATOM     26  O   UNL     1      13.355   8.016  63.173  1.00  0.00    -0.508 OA
ATOM     27  H   UNL     1      14.165   8.599  63.350  1.00  0.00     0.293 HD
ENDBRANCH   8  26
TORSDOF 6
ENDMDL
MODEL 7
REMARK VINA RESULT:    -6.392     12.411     15.645
REMARK INTER + INTRA:          -7.976
REMARK INTER:                  -7.666
REMARK INTRA:                  -0.310
REMARK UNBOUND:                -0.276
REMARK SMILES O=c1c(O)c(-c2ccc(O)c(O)c2)oc2cc(O)cc(O)c12
REMARK SMILES IDX 5 1 3 2 2 3 1 4 22 5 20 6 19 7 17 8 16 9 15 10 14 11 6 12
REMARK SMILES IDX 7 13 8 14 9 15 13 16 11 17 10 18 12 20 4 22 21 24 18 26
REMARK H PARENT 10 19 12 21 4 23 21 25 18 27
REMARK Flexibility Score: inf
ROOT
ATOM      1  C   UNL     1      17.430  21.276  52.480  1.00  0.00     0.180 A 
ATOM      2  C   UNL     1      18.115  21.723  53.625  1.00  0.00     0.208 A 
ATOM      3  C   UNL     1      19.518  21.754  53.609  1.00  0.00     0.238 A 
ATOM      4  O   UNL     1      20.142  22.143  54.633  1.00  0.00    -0.285 OA
ATOM      5  C   UNL     1      20.210  21.360  52.445  1.00  0.00     0.111 A 
ATOM      6  C   UNL     1      21.622  21.367  52.344  1.00  0.00     0.134 A 
ATOM      7  C   UNL     1      22.236  20.968  51.148  1.00  0.00     0.093 A 
ATOM      8  C   UNL     1      21.468  20.565  50.052  1.00  0.00     0.123 A 
ATOM      9  C   UNL     1      20.072  20.556  50.147  1.00  0.00     0.094 A 
ATOM     10  C   UNL     1      19.442  20.948  51.331  1.00  0.00     0.146 A 
ATOM     11  O   UNL     1      18.116  20.925  51.395  1.00  0.00    -0.452 OA
ENDROOT
BRANCH   1  12
ATOM     12  C   UNL     1      15.953  21.195  52.427  1.00  0.00     0.025 A 
ATOM     13  C   UNL     1      15.231  22.182  51.738  1.00  0.00     0.016 A 
ATOM     14  C   UNL     1      13.837  22.115  51.657  1.00  0.00     0.051 A 
ATOM     15  C   UNL     1      13.147  21.052  52.252  1.00  0.00     0.157 A 
ATOM     16  C   UNL     1      15.257  20.117  53.005  1.00  0.00     0.062 A 
ATOM     17  C   UNL     1      13.859  20.048  52.924  1.00  0.00     0.158 A 
BRANCH  15  18
ATOM     18  O   UNL     1      11.757  20.981  52.176  1.00  0.00    -0.504 OA
ATOM     19  H   UNL     1      11.168  21.311  52.932  1.00  0.00     0.293 HD
ENDBRANCH  15  18
BRANCH  17  20
ATOM     20  O   UNL     1      13.169  18.983  53.501  1.00  0.00    -0.504 OA
ATOM     21  H   UNL     1      12.695  18.290  52.935  1.00  0.00     0.293 HD
ENDBRANCH  17  20
ENDBRANCH   1  12
BRANCH   2  22
ATOM     22  O   UNL     1      17.405  22.155  54.749  1.00  0.00    -0.502 OA
ATOM     23  H   UNL     1      17.832  22.709  55.482  1.00  0.00     0.293 HD
ENDBRANCH   2  22
BRANCH   6  24
ATOM     24  O   UNL     1      22.417  21.765  53.419  1.00  0.00    -0.507 OA
ATOM     25  H   UNL     1      23.114  21.150  53.824  1.00  0.00     0.293 HD
ENDBRANCH   6  24
BRANCH   8  26
ATOM     26  O   UNL     1      22.103  20.175  48.875  1.00  0.00    -0.508 OA
ATOM     27  H   UNL     1      22.904  19.555  48.886  1.00  0.00     0.293 HD
ENDBRANCH   8  26
TORSDOF 6
ENDMDL
MODEL 8
REMARK VINA RESULT:    -6.283     13.091     15.076
REMARK INTER + INTRA:          -7.844
REMARK INTER:                  -7.523
REMARK INTRA:                  -0.321
REMARK UNBOUND:                -0.276
REMARK SMILES O=c1c(O)c(-c2ccc(O)c(O)c2)oc2cc(O)cc(O)c12
REMARK SMILES IDX 5 1 3 2 2 3 1 4 22 5 20 6 19 7 17 8 16 9 15 10 14 11 6 12
REMARK SMILES IDX 7 13 8 14 9 15 13 16 11 17 10 18 12 20 4 22 21 24 18 26
REMARK H PARENT 10 19 12 21 4 23 21 25 18 27
REMARK Flexibility Score: inf
ROOT
ATOM      1  C   UNL     1      18.509  20.994  51.378  1.00  0.00     0.180 A 
ATOM      2  C   UNL     1      18.092  21.883  50.370  1.00  0.00     0.208 A 
ATOM      3  C   UNL     1      16.757  22.317  50.357  1.00  0.00     0.238 A 
ATOM      4  O   UNL     1      16.369  23.104  49.453  1.00  0.00    -0.285 OA
ATOM      5  C   UNL     1      15.871  21.873  51.360  1.00  0.00     0.111 A 
ATOM      6  C   UNL     1      14.512  22.266  51.422  1.00  0.00     0.134 A 
ATOM      7  C   UNL     1      13.697  21.788  52.458  1.00  0.00     0.093 A 
ATOM      8  C   UNL     1      14.211  20.927  53.432  1.00  0.00     0.123 A 
ATOM      9  C   UNL     1      15.553  20.535  53.375  1.00  0.00     0.094 A 
ATOM     10  C   UNL     1      16.381  21.000  52.349  1.00  0.00     0.146 A 
ATOM     11  O   UNL     1      17.650  20.608  52.316  1.00  0.00    -0.452 OA
ENDROOT
BRANCH   1  12
ATOM     12  C   UNL     1      19.895  20.476  51.447  1.00  0.00     0.025 A 
ATOM     13  C   UNL     1      20.250  19.348  50.691  1.00  0.00     0.016 A 
ATOM     14  C   UNL     1      21.557  18.854  50.724  1.00  0.00     0.051 A 
ATOM     15  C   UNL     1      22.531  19.490  51.503  1.00  0.00     0.157 A 
ATOM     16  C   UNL     1      20.882  21.125  52.211  1.00  0.00     0.062 A 
ATOM     17  C   UNL     1      22.194  20.631  52.245  1.00  0.00     0.158 A 
BRANCH  15  18
ATOM     18  O   UNL     1      23.835  19.001  51.542  1.00  0.00    -0.504 OA
ATOM     19  H   UNL     1      24.203  18.538  52.365  1.00  0.00     0.293 HD
ENDBRANCH  15  18
BRANCH  17  20
ATOM     20  O   UNL     1      23.170  21.271  53.007  1.00  0.00    -0.504 OA
ATOM     21  H   UNL     1      23.096  22.253  53.246  1.00  0.00     0.293 HD
ENDBRANCH  17  20
ENDBRANCH   1  12
BRANCH   2  22
ATOM     22  O   UNL     1      19.001  22.346  49.415  1.00  0.00    -0.502 OA
ATOM     23  H   UNL     1      19.316  21.774  48.642  1.00  0.00     0.293 HD
ENDBRANCH   2  22
BRANCH   6  24
ATOM     24  O   UNL     1      13.968  23.125  50.467  1.00  0.00    -0.507 OA
ATOM     25  H   UNL     1      13.180  22.853  49.891  1.00  0.00     0.293 HD
ENDBRANCH   6  24
BRANCH   8  26
ATOM     26  O   UNL     1      13.379  20.468  54.450  1.00  0.00    -0.508 OA
ATOM     27  H   UNL     1      13.130  21.057  55.237  1.00  0.00     0.293 HD
ENDBRANCH   8  26
TORSDOF 6
ENDMDL
MODEL 9
REMARK VINA RESULT:    -6.189      2.406      3.215
REMARK INTER + INTRA:          -7.731
REMARK INTER:                  -7.654
REMARK INTRA:                  -0.078
REMARK UNBOUND:                -0.276
REMARK SMILES O=c1c(O)c(-c2ccc(O)c(O)c2)oc2cc(O)cc(O)c12
REMARK SMILES IDX 5 1 3 2 2 3 1 4 22 5 20 6 19 7 17 8 16 9 15 10 14 11 6 12
REMARK SMILES IDX 7 13 8 14 9 15 13 16 11 17 10 18 12 20 4 22 21 24 18 26
REMARK H PARENT 10 19 12 21 4 23 21 25 18 27
REMARK Flexibility Score: inf
ROOT
ATOM      1  C   UNL     1      12.176   8.780  59.100  1.00  0.00     0.180 A 
ATOM      2  C   UNL     1      10.839   9.124  58.825  1.00  0.00     0.208 A 
ATOM      3  C   UNL     1       9.939   9.263  59.893  1.00  0.00     0.238 A 
ATOM      4  O   UNL     1       8.737   9.560  59.658  1.00  0.00    -0.285 OA
ATOM      5  C   UNL     1      10.394   9.076  61.214  1.00  0.00     0.111 A 
ATOM      6  C   UNL     1       9.553   9.201  62.348  1.00  0.00     0.134 A 
ATOM      7  C   UNL     1      10.084   9.009  63.631  1.00  0.00     0.093 A 
ATOM      8  C   UNL     1      11.434   8.696  63.806  1.00  0.00     0.123 A 
ATOM      9  C   UNL     1      12.269   8.570  62.690  1.00  0.00     0.094 A 
ATOM     10  C   UNL     1      11.759   8.756  61.402  1.00  0.00     0.146 A 
ATOM     11  O   UNL     1      12.572   8.626  60.360  1.00  0.00    -0.452 OA
ENDROOT
BRANCH   1  12
ATOM     12  C   UNL     1      13.179   8.597  58.027  1.00  0.00     0.025 A 
ATOM     13  C   UNL     1      13.824   7.358  57.887  1.00  0.00     0.016 A 
ATOM     14  C   UNL     1      14.759   7.156  56.869  1.00  0.00     0.051 A 
ATOM     15  C   UNL     1      15.052   8.185  55.966  1.00  0.00     0.157 A 
ATOM     16  C   UNL     1      13.461   9.622  57.105  1.00  0.00     0.062 A 
ATOM     17  C   UNL     1      14.398   9.420  56.081  1.00  0.00     0.158 A 
BRANCH  15  18
ATOM     18  O   UNL     1      15.985   7.990  54.950  1.00  0.00    -0.504 OA
ATOM     19  H   UNL     1      16.977   7.928  55.146  1.00  0.00     0.293 HD
ENDBRANCH  15  18
BRANCH  17  20
ATOM     20  O   UNL     1      14.681  10.437  55.172  1.00  0.00    -0.504 OA
ATOM     21  H   UNL     1      15.258  10.272  54.355  1.00  0.00     0.293 HD
ENDBRANCH  17  20
ENDBRANCH   1  12
BRANCH   2  22
ATOM     22  O   UNL     1      10.425   9.352  57.510  1.00  0.00    -0.502 OA
ATOM     23  H   UNL     1      10.245  10.281  57.149  1.00  0.00     0.293 HD
ENDBRANCH   2  22
BRANCH   6  24
ATOM     24  O   UNL     1       8.201   9.514  62.208  1.00  0.00    -0.507 OA
ATOM     25  H   UNL     1       7.763   9.592  61.298  1.00  0.00     0.293 HD
ENDBRANCH   6  24
BRANCH   8  26
ATOM     26  O   UNL     1      11.936   8.511  65.092  1.00  0.00    -0.508 OA
ATOM     27  H   UNL     1      12.133   7.586  65.456  1.00  0.00     0.293 HD
ENDBRANCH   8  26
TORSDOF 6
ENDMDL
