MODEL 1
REMARK VINA RESULT:    -4.459      0.000      0.000
REMARK INTER + INTRA:          -5.510
REMARK INTER:                  -5.371
REMARK INTRA:                  -0.138
REMARK UNBOUND:                -0.138
REMARK SMILES CC[C@H](C)[C@@H]([NH3+])C(=O)[O-]
REMARK SMILES IDX 3 1 4 2 5 3 6 4 7 8 8 9 9 10 2 11 1 12
REMARK H PARENT 6 5 6 6 6 7
REMARK Flexibility Score: inf
ROOT
ATOM      1  C   UNL     1      -9.304 -40.227  -7.961  1.00  0.00     0.050 C 
ATOM      2  C   UNL     1      -9.709 -39.061  -7.038  1.00  0.00     0.014 C 
ENDROOT
BRANCH   1   3
ATOM      3  C   UNL     1      -8.667 -39.682  -9.278  1.00  0.00     0.230 C 
BRANCH   3   4
ATOM      4  N   UNL     1      -8.844 -38.228  -9.415  1.00  0.00    -0.350 N 
ATOM      5  H   UNL     1      -8.731 -37.736  -8.501  1.00  0.00     0.345 HD
ATOM      6  H   UNL     1      -8.129 -37.853 -10.081  1.00  0.00     0.345 HD
ATOM      7  H   UNL     1      -9.791 -38.016  -9.804  1.00  0.00     0.345 HD
ENDBRANCH   3   4
BRANCH   3   8
ATOM      8  C   UNL     1      -7.211 -40.058  -9.416  1.00  0.00     0.099 C 
ATOM      9  O   UNL     1      -6.462 -39.404 -10.189  1.00  0.00    -0.544 OA
ATOM     10  O   UNL     1      -6.692 -41.146  -8.723  1.00  0.00    -0.544 OA
ENDBRANCH   3   8
ENDBRANCH   1   3
BRANCH   1  11
ATOM     11  C   UNL     1     -10.500 -41.182  -8.213  1.00  0.00     0.006 C 
ATOM     12  C   UNL     1     -10.630 -41.597  -9.680  1.00  0.00     0.004 C 
ENDBRANCH   1  11
TORSDOF 4
ENDMDL
MODEL 2
REMARK VINA RESULT:    -4.398      2.591      3.509
REMARK INTER + INTRA:          -5.436
REMARK INTER:                  -5.330
REMARK INTRA:                  -0.106
REMARK UNBOUND:                -0.138
REMARK SMILES CC[C@H](C)[C@@H]([NH3+])C(=O)[O-]
REMARK SMILES IDX 3 1 4 2 5 3 6 4 7 8 8 9 9 10 2 11 1 12
REMARK H PARENT 6 5 6 6 6 7
REMARK Flexibility Score: inf
ROOT
ATOM      1  C   UNL     1      -9.332 -39.581  -8.793  1.00  0.00     0.050 C 
ATOM      2  C   UNL     1      -9.920 -39.119  -7.446  1.00  0.00     0.014 C 
ENDROOT
BRANCH   1   3
ATOM      3  C   UNL     1      -8.950 -41.093  -8.730  1.00  0.00     0.230 C 
BRANCH   3   4
ATOM      4  N   UNL     1      -8.544 -41.504  -7.377  1.00  0.00    -0.350 N 
ATOM      5  H   UNL     1      -7.719 -40.960  -7.038  1.00  0.00     0.345 HD
ATOM      6  H   UNL     1      -9.337 -41.345  -6.714  1.00  0.00     0.345 HD
ATOM      7  H   UNL     1      -8.312 -42.523  -7.365  1.00  0.00     0.345 HD
ENDBRANCH   3   4
BRANCH   3   8
ATOM      8  C   UNL     1     -10.048 -41.990  -9.253  1.00  0.00     0.099 C 
ATOM      9  O   UNL     1     -10.628 -42.794  -8.476  1.00  0.00    -0.544 OA
ATOM     10  O   UNL     1     -10.403 -41.963 -10.597  1.00  0.00    -0.544 OA
ENDBRANCH   3   8
ENDBRANCH   1   3
BRANCH   1  11
ATOM     11  C   UNL     1      -8.151 -38.673  -9.227  1.00  0.00     0.006 C 
ATOM     12  C   UNL     1      -7.004 -39.456  -9.868  1.00  0.00     0.004 C 
ENDBRANCH   1  11
TORSDOF 4
ENDMDL
MODEL 3
REMARK VINA RESULT:    -4.292      2.443      3.552
REMARK INTER + INTRA:          -5.309
REMARK INTER:                  -5.177
REMARK INTRA:                  -0.132
REMARK UNBOUND:                -0.138
REMARK SMILES CC[C@H](C)[C@@H]([NH3+])C(=O)[O-]
REMARK SMILES IDX 3 1 4 2 5 3 6 4 7 8 8 9 9 10 2 11 1 12
REMARK H PARENT 6 5 6 6 6 7
REMARK Flexibility Score: inf
ROOT
ATOM      1  C   UNL     1      -8.425 -39.533  -9.230  1.00  0.00     0.050 C 
ATOM      2  C   UNL     1      -8.502 -38.011  -9.455  1.00  0.00     0.014 C 
ENDROOT
BRANCH   1   3
ATOM      3  C   UNL     1      -9.073 -39.914  -7.862  1.00  0.00     0.230 C 
BRANCH   3   4
ATOM      4  N   UNL     1      -9.124 -38.771  -6.938  1.00  0.00    -0.350 N 
ATOM      5  H   UNL     1      -9.601 -39.017  -6.043  1.00  0.00     0.345 HD
ATOM      6  H   UNL     1      -8.150 -38.460  -6.718  1.00  0.00     0.345 HD
ATOM      7  H   UNL     1      -9.626 -37.970  -7.385  1.00  0.00     0.345 HD
ENDBRANCH   3   4
BRANCH   3   8
ATOM      8  C   UNL     1     -10.442 -40.532  -8.022  1.00  0.00     0.099 C 
ATOM      9  O   UNL     1     -11.352 -40.272  -7.191  1.00  0.00    -0.544 OA
ATOM     10  O   UNL     1     -10.702 -41.417  -9.062  1.00  0.00    -0.544 OA
ENDBRANCH   3   8
ENDBRANCH   1   3
BRANCH   1  11
ATOM     11  C   UNL     1      -6.968 -40.046  -9.377  1.00  0.00     0.006 C 
ATOM     12  C   UNL     1      -6.757 -41.424  -8.745  1.00  0.00     0.004 C 
ENDBRANCH   1  11
TORSDOF 4
ENDMDL
MODEL 4
REMARK VINA RESULT:    -4.242      1.549      1.958
REMARK INTER + INTRA:          -5.248
REMARK INTER:                  -5.184
REMARK INTRA:                  -0.064
REMARK UNBOUND:                -0.138
REMARK SMILES CC[C@H](C)[C@@H]([NH3+])C(=O)[O-]
REMARK SMILES IDX 3 1 4 2 5 3 6 4 7 8 8 9 9 10 2 11 1 12
REMARK H PARENT 6 5 6 6 6 7
REMARK Flexibility Score: inf
ROOT
ATOM      1  C   UNL     1      -9.349 -41.451  -9.065  1.00  0.00     0.050 C 
ATOM      2  C   UNL     1      -9.261 -42.360  -7.825  1.00  0.00     0.014 C 
ENDROOT
BRANCH   1   3
ATOM      3  C   UNL     1      -9.162 -39.955  -8.659  1.00  0.00     0.230 C 
BRANCH   3   4
ATOM      4  N   UNL     1      -9.213 -39.770  -7.200  1.00  0.00    -0.350 N 
ATOM      5  H   UNL     1      -8.329 -39.353  -6.832  1.00  0.00     0.345 HD
ATOM      6  H   UNL     1     -10.004 -39.130  -6.959  1.00  0.00     0.345 HD
ATOM      7  H   UNL     1      -9.383 -40.687  -6.728  1.00  0.00     0.345 HD
ENDBRANCH   3   4
BRANCH   3   8
ATOM      8  C   UNL     1      -7.899 -39.354  -9.230  1.00  0.00     0.099 C 
ATOM      9  O   UNL     1      -7.889 -38.153  -9.607  1.00  0.00    -0.544 OA
ATOM     10  O   UNL     1      -6.752 -40.125  -9.376  1.00  0.00    -0.544 OA
ENDBRANCH   3   8
ENDBRANCH   1   3
BRANCH   1  11
ATOM     11  C   UNL     1     -10.661 -41.707  -9.854  1.00  0.00     0.006 C 
ATOM     12  C   UNL     1     -11.396 -42.967  -9.392  1.00  0.00     0.004 C 
ENDBRANCH   1  11
TORSDOF 4
ENDMDL
MODEL 5
REMARK VINA RESULT:    -4.182      2.473      3.140
REMARK INTER + INTRA:          -5.176
REMARK INTER:                  -5.206
REMARK INTRA:                   0.030
REMARK UNBOUND:                -0.138
REMARK SMILES CC[C@H](C)[C@@H]([NH3+])C(=O)[O-]
REMARK SMILES IDX 3 1 4 2 5 3 6 4 7 8 8 9 9 10 2 11 1 12
REMARK H PARENT 6 5 6 6 6 7
REMARK Flexibility Score: inf
ROOT
ATOM      1  C   UNL     1      -8.220 -39.481  -8.574  1.00  0.00     0.050 C 
ATOM      2  C   UNL     1      -7.786 -38.420  -9.604  1.00  0.00     0.014 C 
ENDROOT
BRANCH   1   3
ATOM      3  C   UNL     1      -7.749 -40.899  -9.022  1.00  0.00     0.230 C 
BRANCH   3   4
ATOM      4  N   UNL     1      -6.346 -41.155  -8.659  1.00  0.00    -0.350 N 
ATOM      5  H   UNL     1      -5.901 -41.849  -9.299  1.00  0.00     0.345 HD
ATOM      6  H   UNL     1      -5.805 -40.262  -8.715  1.00  0.00     0.345 HD
ATOM      7  H   UNL     1      -6.288 -41.508  -7.677  1.00  0.00     0.345 HD
ENDBRANCH   3   4
BRANCH   3   8
ATOM      8  C   UNL     1      -8.644 -41.999  -8.500  1.00  0.00     0.099 C 
ATOM      9  O   UNL     1      -8.391 -42.545  -7.395  1.00  0.00    -0.544 OA
ATOM     10  O   UNL     1      -9.730 -42.441  -9.247  1.00  0.00    -0.544 OA
ENDBRANCH   3   8
ENDBRANCH   1   3
BRANCH   1  11
ATOM     11  C   UNL     1      -9.746 -39.404  -8.302  1.00  0.00     0.006 C 
ATOM     12  C   UNL     1     -10.074 -38.941  -6.881  1.00  0.00     0.004 C 
ENDBRANCH   1  11
TORSDOF 4
ENDMDL
MODEL 6
REMARK VINA RESULT:    -4.167      3.024      3.962
REMARK INTER + INTRA:          -5.158
REMARK INTER:                  -5.046
REMARK INTRA:                  -0.112
REMARK UNBOUND:                -0.138
REMARK SMILES CC[C@H](C)[C@@H]([NH3+])C(=O)[O-]
REMARK SMILES IDX 3 1 4 2 5 3 6 4 7 8 8 9 9 10 2 11 1 12
REMARK H PARENT 6 5 6 6 6 7
REMARK Flexibility Score: inf
ROOT
ATOM      1  C   UNL     1      -8.423 -40.758  -8.541  1.00  0.00     0.050 C 
ATOM      2  C   UNL     1      -7.867 -42.193  -8.611  1.00  0.00     0.014 C 
ENDROOT
BRANCH   1   3
ATOM      3  C   UNL     1      -9.902 -40.723  -9.036  1.00  0.00     0.230 C 
BRANCH   3   4
ATOM      4  N   UNL     1     -10.106 -41.567 -10.224  1.00  0.00    -0.350 N 
ATOM      5  H   UNL     1     -10.935 -41.260 -10.780  1.00  0.00     0.345 HD
ATOM      6  H   UNL     1      -9.260 -41.514 -10.836  1.00  0.00     0.345 HD
ATOM      7  H   UNL     1     -10.236 -42.565  -9.938  1.00  0.00     0.345 HD
ENDBRANCH   3   4
BRANCH   3   8
ATOM      8  C   UNL     1     -10.886 -41.087  -7.948  1.00  0.00     0.099 C 
ATOM      9  O   UNL     1     -11.366 -42.250  -7.896  1.00  0.00    -0.544 OA
ATOM     10  O   UNL     1     -11.297 -40.137  -7.020  1.00  0.00    -0.544 OA
ENDBRANCH   3   8
ENDBRANCH   1   3
BRANCH   1  11
ATOM     11  C   UNL     1      -7.504 -39.765  -9.300  1.00  0.00     0.006 C 
ATOM     12  C   UNL     1      -8.122 -38.373  -9.442  1.00  0.00     0.004 C 
ENDBRANCH   1  11
TORSDOF 4
ENDMDL
MODEL 7
REMARK VINA RESULT:    -4.149      2.152      2.459
REMARK INTER + INTRA:          -5.136
REMARK INTER:                  -5.092
REMARK INTRA:                  -0.044
REMARK UNBOUND:                -0.138
REMARK SMILES CC[C@H](C)[C@@H]([NH3+])C(=O)[O-]
REMARK SMILES IDX 3 1 4 2 5 3 6 4 7 8 8 9 9 10 2 11 1 12
REMARK H PARENT 6 5 6 6 6 7
REMARK Flexibility Score: inf
ROOT
ATOM      1  C   UNL     1      -8.255 -41.848  -8.852  1.00  0.00     0.050 C 
ATOM      2  C   UNL     1      -8.534 -42.581  -7.527  1.00  0.00     0.014 C 
ENDROOT
BRANCH   1   3
ATOM      3  C   UNL     1      -7.358 -40.595  -8.603  1.00  0.00     0.230 C 
BRANCH   3   4
ATOM      4  N   UNL     1      -6.250 -40.509  -9.567  1.00  0.00    -0.350 N 
ATOM      5  H   UNL     1      -6.359 -41.196 -10.344  1.00  0.00     0.345 HD
ATOM      6  H   UNL     1      -6.223 -39.548  -9.979  1.00  0.00     0.345 HD
ATOM      7  H   UNL     1      -5.339 -40.679  -9.083  1.00  0.00     0.345 HD
ENDBRANCH   3   4
BRANCH   3   8
ATOM      8  C   UNL     1      -8.152 -39.309  -8.585  1.00  0.00     0.099 C 
ATOM      9  O   UNL     1      -7.990 -38.457  -9.499  1.00  0.00    -0.544 OA
ATOM     10  O   UNL     1      -9.037 -39.038  -7.549  1.00  0.00    -0.544 OA
ENDBRANCH   3   8
ENDBRANCH   1   3
BRANCH   1  11
ATOM     11  C   UNL     1      -9.576 -41.512  -9.593  1.00  0.00     0.006 C 
ATOM     12  C   UNL     1     -10.812 -42.084  -8.895  1.00  0.00     0.004 C 
ENDBRANCH   1  11
TORSDOF 4
ENDMDL
MODEL 8
REMARK VINA RESULT:    -4.038      1.962      2.645
REMARK INTER + INTRA:          -5.003
REMARK INTER:                  -4.925
REMARK INTRA:                  -0.077
REMARK UNBOUND:                -0.138
REMARK SMILES CC[C@H](C)[C@@H]([NH3+])C(=O)[O-]
REMARK SMILES IDX 3 1 4 2 5 3 6 4 7 8 8 9 9 10 2 11 1 12
REMARK H PARENT 6 5 6 6 6 7
REMARK Flexibility Score: inf
ROOT
ATOM      1  C   UNL     1     -10.496 -42.366  -8.476  1.00  0.00     0.050 C 
ATOM      2  C   UNL     1     -11.144 -41.284  -7.591  1.00  0.00     0.014 C 
ENDROOT
BRANCH   1   3
ATOM      3  C   UNL     1      -9.285 -41.774  -9.261  1.00  0.00     0.230 C 
BRANCH   3   4
ATOM      4  N   UNL     1      -9.423 -40.325  -9.478  1.00  0.00    -0.350 N 
ATOM      5  H   UNL     1      -9.975 -40.114 -10.339  1.00  0.00     0.345 HD
ATOM      6  H   UNL     1      -9.914 -39.897  -8.659  1.00  0.00     0.345 HD
ATOM      7  H   UNL     1      -8.480 -39.882  -9.557  1.00  0.00     0.345 HD
ENDBRANCH   3   4
BRANCH   3   8
ATOM      8  C   UNL     1      -7.960 -42.091  -8.608  1.00  0.00     0.099 C 
ATOM      9  O   UNL     1      -7.864 -43.069  -7.821  1.00  0.00    -0.544 OA
ATOM     10  O   UNL     1      -6.847 -41.291  -8.840  1.00  0.00    -0.544 OA
ENDBRANCH   3   8
ENDBRANCH   1   3
BRANCH   1  11
ATOM     11  C   UNL     1     -11.548 -43.038  -9.397  1.00  0.00     0.006 C 
ATOM     12  C   UNL     1     -12.986 -42.793  -8.936  1.00  0.00     0.004 C 
ENDBRANCH   1  11
TORSDOF 4
ENDMDL
MODEL 9
REMARK VINA RESULT:    -3.816      2.369      2.952
REMARK INTER + INTRA:          -4.735
REMARK INTER:                  -4.693
REMARK INTRA:                  -0.042
REMARK UNBOUND:                -0.138
REMARK SMILES CC[C@H](C)[C@@H]([NH3+])C(=O)[O-]
REMARK SMILES IDX 3 1 4 2 5 3 6 4 7 8 8 9 9 10 2 11 1 12
REMARK H PARENT 6 5 6 6 6 7
REMARK Flexibility Score: inf
ROOT
ATOM      1  C   UNL     1     -10.729 -42.405  -8.226  1.00  0.00     0.050 C 
ATOM      2  C   UNL     1     -11.718 -41.885  -7.166  1.00  0.00     0.014 C 
ENDROOT
BRANCH   1   3
ATOM      3  C   UNL     1      -9.270 -41.988  -7.860  1.00  0.00     0.230 C 
BRANCH   3   4
ATOM      4  N   UNL     1      -8.288 -43.004  -8.267  1.00  0.00    -0.350 N 
ATOM      5  H   UNL     1      -8.155 -43.731  -7.529  1.00  0.00     0.345 HD
ATOM      6  H   UNL     1      -8.619 -43.477  -9.139  1.00  0.00     0.345 HD
ATOM      7  H   UNL     1      -7.368 -42.552  -8.473  1.00  0.00     0.345 HD
ENDBRANCH   3   4
BRANCH   3   8
ATOM      8  C   UNL     1      -8.898 -40.633  -8.416  1.00  0.00     0.099 C 
ATOM      9  O   UNL     1      -8.064 -40.546  -9.355  1.00  0.00    -0.544 OA
ATOM     10  O   UNL     1      -9.442 -39.473  -7.876  1.00  0.00    -0.544 OA
ENDBRANCH   3   8
ENDBRANCH   1   3
BRANCH   1  11
ATOM     11  C   UNL     1     -11.150 -41.956  -9.650  1.00  0.00     0.006 C 
ATOM     12  C   UNL     1     -12.582 -42.363 -10.003  1.00  0.00     0.004 C 
ENDBRANCH   1  11
TORSDOF 4
ENDMDL
