MODEL 1
REMARK VINA RESULT:     7.744      0.000      0.000
REMARK INTER + INTRA:           7.970
REMARK INTER:                   7.970
REMARK INTRA:                   0.000
REMARK UNBOUND:                 0.000
REMARK SMILES C=C1[C@H]2C[C@@]3(C[C@@H]1O)[C@H](CC[C@@H]3C)C2(C)C
REMARK SMILES IDX 13 1 12 2 11 3 10 4 9 5 5 6 4 7 3 8 14 9 15 10 16 11 2 12
REMARK SMILES IDX 1 13 7 14 6 15 8 16
REMARK H PARENT 8 17
REMARK Flexibility Score: inf
ROOT
ATOM      1  C   UNL     1     -36.272  25.231   7.576  1.00  0.00     0.008 C 
ATOM      2  C   UNL     1     -37.493  25.125   6.651  1.00  0.00    -0.008 C 
ATOM      3  C   UNL     1     -37.139  24.463   5.321  1.00  0.00     0.004 C 
ATOM      4  C   UNL     1     -38.469  23.992   4.763  1.00  0.00     0.005 C 
ATOM      5  C   UNL     1     -39.249  23.505   5.993  1.00  0.00     0.002 C 
ATOM      6  C   UNL     1     -38.714  24.321   7.196  1.00  0.00    -0.020 C 
ATOM      7  C   UNL     1     -39.886  25.215   7.612  1.00  0.00     0.016 C 
ATOM      8  C   UNL     1     -41.066  24.274   7.422  1.00  0.00     0.023 C 
ATOM      9  C   UNL     1     -40.809  23.655   6.016  1.00  0.00    -0.025 C 
ATOM     10  C   UNL     1     -41.379  24.604   4.928  1.00  0.00     0.012 C 
ATOM     11  C   UNL     1     -41.508  22.286   5.821  1.00  0.00     0.012 C 
ATOM     12  C   UNL     1     -40.995  23.234   8.540  1.00  0.00    -0.045 C 
ATOM     13  C   UNL     1     -42.125  22.806   9.125  1.00  0.00     0.011 C 
ATOM     14  C   UNL     1     -39.657  22.617   8.950  1.00  0.00     0.140 C 
ATOM     15  C   UNL     1     -38.407  23.376   8.400  1.00  0.00     0.044 C 
ENDROOT
BRANCH  14  16
ATOM     16  O   UNL     1     -39.625  21.276   8.534  1.00  0.00    -0.389 OA
ATOM     17  H   UNL     1     -39.134  20.769   9.232  1.00  0.00     0.211 HD
ENDBRANCH  14  16
TORSDOF 1
ENDMDL
MODEL 2
REMARK VINA RESULT:     9.854     15.507     17.266
REMARK INTER + INTRA:          10.142
REMARK INTER:                  10.142
REMARK INTRA:                   0.000
REMARK UNBOUND:                 0.000
REMARK SMILES C=C1[C@H]2C[C@@]3(C[C@@H]1O)[C@H](CC[C@@H]3C)C2(C)C
REMARK SMILES IDX 13 1 12 2 11 3 10 4 9 5 5 6 4 7 3 8 14 9 15 10 16 11 2 12
REMARK SMILES IDX 1 13 7 14 6 15 8 16
REMARK H PARENT 8 17
REMARK Flexibility Score: inf
ROOT
ATOM      1  C   UNL     1     -23.627  27.685   8.974  1.00  0.00     0.008 C 
ATOM      2  C   UNL     1     -23.327  29.185   9.117  1.00  0.00    -0.008 C 
ATOM      3  C   UNL     1     -21.877  29.507   8.764  1.00  0.00     0.004 C 
ATOM      4  C   UNL     1     -21.877  30.996   8.471  1.00  0.00     0.005 C 
ATOM      5  C   UNL     1     -23.205  31.242   7.740  1.00  0.00     0.002 C 
ATOM      6  C   UNL     1     -24.185  30.154   8.245  1.00  0.00    -0.020 C 
ATOM      7  C   UNL     1     -25.235  30.922   9.055  1.00  0.00     0.016 C 
ATOM      8  C   UNL     1     -25.403  32.180   8.218  1.00  0.00     0.023 C 
ATOM      9  C   UNL     1     -23.936  32.616   7.926  1.00  0.00    -0.025 C 
ATOM     10  C   UNL     1     -23.411  33.466   9.114  1.00  0.00     0.012 C 
ATOM     11  C   UNL     1     -23.807  33.497   6.659  1.00  0.00     0.012 C 
ATOM     12  C   UNL     1     -26.154  31.777   6.949  1.00  0.00    -0.045 C 
ATOM     13  C   UNL     1     -27.080  32.601   6.433  1.00  0.00     0.011 C 
ATOM     14  C   UNL     1     -25.811  30.479   6.216  1.00  0.00     0.140 C 
ATOM     15  C   UNL     1     -24.929  29.491   7.044  1.00  0.00     0.044 C 
ENDROOT
BRANCH  14  16
ATOM     16  O   UNL     1     -25.175  30.792   5.004  1.00  0.00    -0.389 OA
ATOM     17  H   UNL     1     -24.315  31.231   5.234  1.00  0.00     0.211 HD
ENDBRANCH  14  16
TORSDOF 1
ENDMDL
