MODEL 1
REMARK VINA RESULT:    -3.003      0.000      0.000
REMARK INTER + INTRA:          -3.645
REMARK INTER:                  -3.529
REMARK INTRA:                  -0.116
REMARK UNBOUND:                -0.116
REMARK SMILES O=C([O-])CCC(=O)[O-]
REMARK SMILES IDX 4 1 2 2 1 3 3 4 5 5 6 6 7 7 8 8
REMARK H PARENT
REMARK Flexibility Score: inf
ROOT
ATOM      1  C   UNL     1      24.168  10.125  27.937  1.00  0.00     0.059 C 
ENDROOT
BRANCH   1   2
ATOM      2  C   UNL     1      24.506   9.272  26.755  1.00  0.00     0.042 C 
ATOM      3  O   UNL     1      23.962   8.146  26.610  1.00  0.00    -0.550 OA
ATOM      4  O   UNL     1      25.459   9.699  25.839  1.00  0.00    -0.550 OA
ENDBRANCH   1   2
BRANCH   1   5
ATOM      5  C   UNL     1      25.193   9.921  29.054  1.00  0.00     0.059 C 
BRANCH   5   6
ATOM      6  C   UNL     1      24.739   8.845  29.989  1.00  0.00     0.042 C 
ATOM      7  O   UNL     1      23.751   9.037  30.745  1.00  0.00    -0.550 OA
ATOM      8  O   UNL     1      25.438   7.647  30.061  1.00  0.00    -0.550 OA
ENDBRANCH   5   6
ENDBRANCH   1   5
TORSDOF 3
ENDMDL
MODEL 2
REMARK VINA RESULT:    -2.928      1.126      3.833
REMARK INTER + INTRA:          -3.558
REMARK INTER:                  -3.470
REMARK INTRA:                  -0.088
REMARK UNBOUND:                -0.116
REMARK SMILES O=C([O-])CCC(=O)[O-]
REMARK SMILES IDX 4 1 2 2 1 3 3 4 5 5 6 6 7 7 8 8
REMARK H PARENT
REMARK Flexibility Score: inf
ROOT
ATOM      1  C   UNL     1      25.122  10.059  29.243  1.00  0.00     0.059 C 
ENDROOT
BRANCH   1   2
ATOM      2  C   UNL     1      24.440   9.436  30.421  1.00  0.00     0.042 C 
ATOM      3  O   UNL     1      24.188  10.124  31.444  1.00  0.00    -0.550 OA
ATOM      4  O   UNL     1      24.128   8.083  30.407  1.00  0.00    -0.550 OA
ENDBRANCH   1   2
BRANCH   1   5
ATOM      5  C   UNL     1      25.367   9.015  28.152  1.00  0.00     0.059 C 
BRANCH   5   6
ATOM      6  C   UNL     1      24.701   9.425  26.877  1.00  0.00     0.042 C 
ATOM      7  O   UNL     1      23.654  10.124  26.905  1.00  0.00    -0.550 OA
ATOM      8  O   UNL     1      25.209   8.995  25.658  1.00  0.00    -0.550 OA
ENDBRANCH   5   6
ENDBRANCH   1   5
TORSDOF 3
ENDMDL
MODEL 3
REMARK VINA RESULT:    -2.887      2.071      4.046
REMARK INTER + INTRA:          -3.509
REMARK INTER:                  -3.399
REMARK INTRA:                  -0.110
REMARK UNBOUND:                -0.116
REMARK SMILES O=C([O-])CCC(=O)[O-]
REMARK SMILES IDX 4 1 2 2 1 3 3 4 5 5 6 6 7 7 8 8
REMARK H PARENT
REMARK Flexibility Score: inf
ROOT
ATOM      1  C   UNL     1      24.048   6.911  29.537  1.00  0.00     0.059 C 
ENDROOT
BRANCH   1   2
ATOM      2  C   UNL     1      23.359   7.051  30.858  1.00  0.00     0.042 C 
ATOM      3  O   UNL     1      22.991   6.027  31.490  1.00  0.00    -0.550 OA
ATOM      4  O   UNL     1      23.081   8.312  31.367  1.00  0.00    -0.550 OA
ENDBRANCH   1   2
BRANCH   1   5
ATOM      5  C   UNL     1      25.419   7.591  29.573  1.00  0.00     0.059 C 
BRANCH   5   6
ATOM      6  C   UNL     1      25.400   8.849  28.764  1.00  0.00     0.042 C 
ATOM      7  O   UNL     1      25.484   8.796  27.509  1.00  0.00    -0.550 OA
ATOM      8  O   UNL     1      25.341  10.082  29.399  1.00  0.00    -0.550 OA
ENDBRANCH   5   6
ENDBRANCH   1   5
TORSDOF 3
ENDMDL
MODEL 4
REMARK VINA RESULT:    -2.864      2.103      2.880
REMARK INTER + INTRA:          -3.482
REMARK INTER:                  -3.383
REMARK INTRA:                  -0.099
REMARK UNBOUND:                -0.116
REMARK SMILES O=C([O-])CCC(=O)[O-]
REMARK SMILES IDX 4 1 2 2 1 3 3 4 5 5 6 6 7 7 8 8
REMARK H PARENT
REMARK Flexibility Score: inf
ROOT
ATOM      1  C   UNL     1      25.389   7.635  29.570  1.00  0.00     0.059 C 
ENDROOT
BRANCH   1   2
ATOM      2  C   UNL     1      25.338   8.877  28.736  1.00  0.00     0.042 C 
ATOM      3  O   UNL     1      25.321   8.796  27.480  1.00  0.00    -0.550 OA
ATOM      4  O   UNL     1      25.359  10.125  29.346  1.00  0.00    -0.550 OA
ENDBRANCH   1   2
BRANCH   1   5
ATOM      5  C   UNL     1      24.077   6.858  29.452  1.00  0.00     0.059 C 
BRANCH   5   6
ATOM      6  C   UNL     1      23.300   6.947  30.727  1.00  0.00     0.042 C 
ATOM      7  O   UNL     1      22.911   5.899  31.307  1.00  0.00    -0.550 OA
ATOM      8  O   UNL     1      22.964   8.188  31.251  1.00  0.00    -0.550 OA
ENDBRANCH   5   6
ENDBRANCH   1   5
TORSDOF 3
ENDMDL
MODEL 5
REMARK VINA RESULT:    -2.844      1.570      3.501
REMARK INTER + INTRA:          -3.458
REMARK INTER:                  -3.333
REMARK INTRA:                  -0.125
REMARK UNBOUND:                -0.116
REMARK SMILES O=C([O-])CCC(=O)[O-]
REMARK SMILES IDX 4 1 2 2 1 3 3 4 5 5 6 6 7 7 8 8
REMARK H PARENT
REMARK Flexibility Score: inf
ROOT
ATOM      1  C   UNL     1      25.504   7.989  29.227  1.00  0.00     0.059 C 
ENDROOT
BRANCH   1   2
ATOM      2  C   UNL     1      24.294   7.170  29.551  1.00  0.00     0.042 C 
ATOM      3  O   UNL     1      23.884   6.297  28.741  1.00  0.00    -0.550 OA
ATOM      4  O   UNL     1      23.590   7.403  30.725  1.00  0.00    -0.550 OA
ENDBRANCH   1   2
BRANCH   1   5
ATOM      5  C   UNL     1      25.101   9.422  28.874  1.00  0.00     0.059 C 
BRANCH   5   6
ATOM      6  C   UNL     1      24.823   9.540  27.409  1.00  0.00     0.042 C 
ATOM      7  O   UNL     1      23.776  10.115  27.007  1.00  0.00    -0.550 OA
ATOM      8  O   UNL     1      25.694   8.974  26.488  1.00  0.00    -0.550 OA
ENDBRANCH   5   6
ENDBRANCH   1   5
TORSDOF 3
ENDMDL
MODEL 6
REMARK VINA RESULT:    -2.697     15.558     16.184
REMARK INTER + INTRA:          -3.286
REMARK INTER:                  -3.184
REMARK INTRA:                  -0.102
REMARK UNBOUND:                -0.116
REMARK SMILES O=C([O-])CCC(=O)[O-]
REMARK SMILES IDX 4 1 2 2 1 3 3 4 5 5 6 6 7 7 8 8
REMARK H PARENT
REMARK Flexibility Score: inf
ROOT
ATOM      1  C   UNL     1       7.900   6.749  30.978  1.00  0.00     0.059 C 
ENDROOT
BRANCH   1   2
ATOM      2  C   UNL     1       8.032   6.436  29.521  1.00  0.00     0.042 C 
ATOM      3  O   UNL     1       8.233   5.252  29.144  1.00  0.00    -0.550 OA
ATOM      4  O   UNL     1       7.980   7.458  28.582  1.00  0.00    -0.550 OA
ENDBRANCH   1   2
BRANCH   1   5
ATOM      5  C   UNL     1       8.345   8.186  31.258  1.00  0.00     0.059 C 
BRANCH   5   6
ATOM      6  C   UNL     1       9.730   8.204  31.823  1.00  0.00     0.042 C 
ATOM      7  O   UNL     1      10.723   8.020  31.071  1.00  0.00    -0.550 OA
ATOM      8  O   UNL     1       9.922   8.375  33.187  1.00  0.00    -0.550 OA
ENDBRANCH   5   6
ENDBRANCH   1   5
TORSDOF 3
ENDMDL
MODEL 7
REMARK VINA RESULT:    -2.635      2.418      3.846
REMARK INTER + INTRA:          -3.214
REMARK INTER:                  -3.148
REMARK INTRA:                  -0.065
REMARK UNBOUND:                -0.116
REMARK SMILES O=C([O-])CCC(=O)[O-]
REMARK SMILES IDX 4 1 2 2 1 3 3 4 5 5 6 6 7 7 8 8
REMARK H PARENT
REMARK Flexibility Score: inf
ROOT
ATOM      1  C   UNL     1      25.024   7.764  30.248  1.00  0.00     0.059 C 
ENDROOT
BRANCH   1   2
ATOM      2  C   UNL     1      24.892   9.255  30.238  1.00  0.00     0.042 C 
ATOM      3  O   UNL     1      25.350   9.924  29.276  1.00  0.00    -0.550 OA
ATOM      4  O   UNL     1      24.305   9.908  31.314  1.00  0.00    -0.550 OA
ENDBRANCH   1   2
BRANCH   1   5
ATOM      5  C   UNL     1      23.692   7.111  30.623  1.00  0.00     0.059 C 
BRANCH   5   6
ATOM      6  C   UNL     1      23.288   6.113  29.586  1.00  0.00     0.042 C 
ATOM      7  O   UNL     1      23.577   6.305  28.375  1.00  0.00    -0.550 OA
ATOM      8  O   UNL     1      22.551   4.993  29.947  1.00  0.00    -0.550 OA
ENDBRANCH   5   6
ENDBRANCH   1   5
TORSDOF 3
ENDMDL
MODEL 8
REMARK VINA RESULT:    -2.587      2.451      3.734
REMARK INTER + INTRA:          -3.156
REMARK INTER:                  -3.097
REMARK INTRA:                  -0.059
REMARK UNBOUND:                -0.116
REMARK SMILES O=C([O-])CCC(=O)[O-]
REMARK SMILES IDX 4 1 2 2 1 3 3 4 5 5 6 6 7 7 8 8
REMARK H PARENT
REMARK Flexibility Score: inf
ROOT
ATOM      1  C   UNL     1      23.642   7.118  30.671  1.00  0.00     0.059 C 
ENDROOT
BRANCH   1   2
ATOM      2  C   UNL     1      23.175   6.017  29.772  1.00  0.00     0.042 C 
ATOM      3  O   UNL     1      23.434   6.051  28.541  1.00  0.00    -0.550 OA
ATOM      4  O   UNL     1      22.412   4.976  30.286  1.00  0.00    -0.550 OA
ENDBRANCH   1   2
BRANCH   1   5
ATOM      5  C   UNL     1      24.870   7.810  30.076  1.00  0.00     0.059 C 
BRANCH   5   6
ATOM      6  C   UNL     1      24.743   9.295  30.198  1.00  0.00     0.042 C 
ATOM      7  O   UNL     1      24.067   9.799  31.134  1.00  0.00    -0.550 OA
ATOM      8  O   UNL     1      25.331  10.123  29.251  1.00  0.00    -0.550 OA
ENDBRANCH   5   6
ENDBRANCH   1   5
TORSDOF 3
ENDMDL
