MODEL 1
REMARK VINA RESULT:    -7.109      0.000      0.000
REMARK INTER + INTRA:          -8.664
REMARK INTER:                  -8.356
REMARK INTRA:                  -0.308
REMARK UNBOUND:                -0.308
REMARK SMILES O=c1c(O)c(-c2ccc(O)c(O)c2)oc2cc(O)ccc12
REMARK SMILES IDX 5 1 3 2 2 3 1 4 21 5 15 6 14 7 16 8 17 9 19 10 20 11 6 12
REMARK SMILES IDX 7 13 8 14 9 15 13 16 11 17 10 18 12 20 4 22 18 24
REMARK H PARENT 10 19 12 21 4 23 18 25
REMARK Flexibility Score: inf
ROOT
ATOM      1  C   UNL     1      -1.021  -7.636  13.775  1.00  0.00     0.180 A 
ATOM      2  C   UNL     1      -0.069  -7.439  12.752  1.00  0.00     0.208 A 
ATOM      3  C   UNL     1       1.274  -7.239  13.108  1.00  0.00     0.235 A 
ATOM      4  O   UNL     1       2.143  -7.049  12.213  1.00  0.00    -0.285 OA
ATOM      5  C   UNL     1       1.640  -7.259  14.464  1.00  0.00     0.069 A 
ATOM      6  C   UNL     1       0.632  -7.486  15.426  1.00  0.00     0.142 A 
ATOM      7  O   UNL     1      -0.629  -7.662  15.048  1.00  0.00    -0.452 OA
ATOM      8  C   UNL     1       0.958  -7.523  16.786  1.00  0.00     0.094 A 
ATOM      9  C   UNL     1       2.280  -7.334  17.199  1.00  0.00     0.119 A 
ATOM     10  C   UNL     1       3.284  -7.107  16.248  1.00  0.00     0.047 A 
ATOM     11  C   UNL     1       2.969  -7.070  14.886  1.00  0.00     0.020 A 
ENDROOT
BRANCH   1  12
ATOM     12  C   UNL     1      -2.457  -7.836  13.482  1.00  0.00     0.025 A 
ATOM     13  C   UNL     1      -2.969  -9.104  13.154  1.00  0.00     0.016 A 
ATOM     14  C   UNL     1      -4.325  -9.264  12.857  1.00  0.00     0.051 A 
ATOM     15  C   UNL     1      -5.186  -8.160  12.871  1.00  0.00     0.157 A 
ATOM     16  C   UNL     1      -3.322  -6.729  13.474  1.00  0.00     0.062 A 
ATOM     17  C   UNL     1      -4.681  -6.886  13.178  1.00  0.00     0.158 A 
BRANCH  15  18
ATOM     18  O   UNL     1      -6.539  -8.323  12.576  1.00  0.00    -0.504 OA
ATOM     19  H   UNL     1      -6.849  -8.649  11.668  1.00  0.00     0.293 HD
ENDBRANCH  15  18
BRANCH  17  20
ATOM     20  O   UNL     1      -5.511  -5.766  13.193  1.00  0.00    -0.504 OA
ATOM     21  H   UNL     1      -6.342  -5.703  12.617  1.00  0.00     0.293 HD
ENDBRANCH  17  20
ENDBRANCH   1  12
BRANCH   2  22
ATOM     22  O   UNL     1      -0.455  -7.472  11.410  1.00  0.00    -0.502 OA
ATOM     23  H   UNL     1      -0.866  -8.295  10.986  1.00  0.00     0.293 HD
ENDBRANCH   2  22
BRANCH   9  24
ATOM     24  O   UNL     1       2.588  -7.375  18.558  1.00  0.00    -0.508 OA
ATOM     25  H   UNL     1       2.376  -8.188  19.125  1.00  0.00     0.293 HD
ENDBRANCH   9  24
TORSDOF 5
ENDMDL
MODEL 2
REMARK VINA RESULT:    -7.023      1.827      2.642
REMARK INTER + INTRA:          -8.563
REMARK INTER:                  -8.271
REMARK INTRA:                  -0.291
REMARK UNBOUND:                -0.308
REMARK SMILES O=c1c(O)c(-c2ccc(O)c(O)c2)oc2cc(O)ccc12
REMARK SMILES IDX 5 1 3 2 2 3 1 4 21 5 15 6 14 7 16 8 17 9 19 10 20 11 6 12
REMARK SMILES IDX 7 13 8 14 9 15 13 16 11 17 10 18 12 20 4 22 18 24
REMARK H PARENT 10 19 12 21 4 23 18 25
REMARK Flexibility Score: inf
ROOT
ATOM      1  C   UNL     1       0.255  -7.889  14.737  1.00  0.00     0.180 A 
ATOM      2  C   UNL     1       1.135  -6.852  14.361  1.00  0.00     0.208 A 
ATOM      3  C   UNL     1       2.332  -6.688  15.076  1.00  0.00     0.235 A 
ATOM      4  O   UNL     1       3.130  -5.760  14.766  1.00  0.00    -0.285 OA
ATOM      5  C   UNL     1       2.634  -7.567  16.128  1.00  0.00     0.069 A 
ATOM      6  C   UNL     1       1.712  -8.594  16.427  1.00  0.00     0.142 A 
ATOM      7  O   UNL     1       0.587  -8.710  15.732  1.00  0.00    -0.452 OA
ATOM      8  C   UNL     1       1.982  -9.496  17.462  1.00  0.00     0.094 A 
ATOM      9  C   UNL     1       3.161  -9.384  18.206  1.00  0.00     0.119 A 
ATOM     10  C   UNL     1       4.077  -8.364  17.914  1.00  0.00     0.047 A 
ATOM     11  C   UNL     1       3.818  -7.459  16.880  1.00  0.00     0.020 A 
ENDROOT
BRANCH   1  12
ATOM     12  C   UNL     1      -1.033  -8.116  14.045  1.00  0.00     0.025 A 
ATOM     13  C   UNL     1      -2.158  -7.314  14.309  1.00  0.00     0.016 A 
ATOM     14  C   UNL     1      -3.371  -7.563  13.662  1.00  0.00     0.051 A 
ATOM     15  C   UNL     1      -3.482  -8.623  12.753  1.00  0.00     0.157 A 
ATOM     16  C   UNL     1      -1.156  -9.190  13.148  1.00  0.00     0.062 A 
ATOM     17  C   UNL     1      -2.369  -9.442  12.497  1.00  0.00     0.158 A 
BRANCH  15  18
ATOM     18  O   UNL     1      -4.693  -8.868  12.106  1.00  0.00    -0.504 OA
ATOM     19  H   UNL     1      -5.501  -9.219  12.608  1.00  0.00     0.293 HD
ENDBRANCH  15  18
BRANCH  17  20
ATOM     20  O   UNL     1      -2.450 -10.509  11.603  1.00  0.00    -0.504 OA
ATOM     21  H   UNL     1      -2.814 -11.414  11.876  1.00  0.00     0.293 HD
ENDBRANCH  17  20
ENDBRANCH   1  12
BRANCH   2  22
ATOM     22  O   UNL     1       0.830  -6.024  13.278  1.00  0.00    -0.502 OA
ATOM     23  H   UNL     1      -0.082  -6.021  12.838  1.00  0.00     0.293 HD
ENDBRANCH   2  22
BRANCH   9  24
ATOM     24  O   UNL     1       3.414 -10.291  19.234  1.00  0.00    -0.508 OA
ATOM     25  H   UNL     1       4.176 -10.152  19.887  1.00  0.00     0.293 HD
ENDBRANCH   9  24
TORSDOF 5
ENDMDL
MODEL 3
REMARK VINA RESULT:    -6.992      3.803      7.762
REMARK INTER + INTRA:          -8.526
REMARK INTER:                  -8.593
REMARK INTRA:                   0.067
REMARK UNBOUND:                -0.308
REMARK SMILES O=c1c(O)c(-c2ccc(O)c(O)c2)oc2cc(O)ccc12
REMARK SMILES IDX 5 1 3 2 2 3 1 4 21 5 15 6 14 7 16 8 17 9 19 10 20 11 6 12
REMARK SMILES IDX 7 13 8 14 9 15 13 16 11 17 10 18 12 20 4 22 18 24
REMARK H PARENT 10 19 12 21 4 23 18 25
REMARK Flexibility Score: inf
ROOT
ATOM      1  C   UNL     1      -4.459 -10.033  13.652  1.00  0.00     0.180 A 
ATOM      2  C   UNL     1      -5.314  -9.075  13.067  1.00  0.00     0.208 A 
ATOM      3  C   UNL     1      -6.635  -8.974  13.532  1.00  0.00     0.235 A 
ATOM      4  O   UNL     1      -7.423  -8.133  13.018  1.00  0.00    -0.285 OA
ATOM      5  C   UNL     1      -7.065  -9.808  14.577  1.00  0.00     0.069 A 
ATOM      6  C   UNL     1      -6.142 -10.725  15.125  1.00  0.00     0.142 A 
ATOM      7  O   UNL     1      -4.904 -10.795  14.650  1.00  0.00    -0.452 OA
ATOM      8  C   UNL     1      -6.530 -11.566  16.173  1.00  0.00     0.094 A 
ATOM      9  C   UNL     1      -7.832 -11.507  16.681  1.00  0.00     0.119 A 
ATOM     10  C   UNL     1      -8.752 -10.600  16.137  1.00  0.00     0.047 A 
ATOM     11  C   UNL     1      -8.374  -9.753  15.091  1.00  0.00     0.020 A 
ENDROOT
BRANCH   1  12
ATOM     12  C   UNL     1      -3.060 -10.214  13.205  1.00  0.00     0.025 A 
ATOM     13  C   UNL     1      -2.209  -9.114  12.999  1.00  0.00     0.016 A 
ATOM     14  C   UNL     1      -0.899  -9.307  12.553  1.00  0.00     0.051 A 
ATOM     15  C   UNL     1      -0.425 -10.600  12.294  1.00  0.00     0.157 A 
ATOM     16  C   UNL     1      -2.586 -11.506  12.924  1.00  0.00     0.062 A 
ATOM     17  C   UNL     1      -1.274 -11.704  12.478  1.00  0.00     0.158 A 
BRANCH  15  18
ATOM     18  O   UNL     1       0.884 -10.790  11.851  1.00  0.00    -0.504 OA
ATOM     19  H   UNL     1       1.525 -11.404  12.340  1.00  0.00     0.293 HD
ENDBRANCH  15  18
BRANCH  17  20
ATOM     20  O   UNL     1      -0.834 -13.002  12.222  1.00  0.00    -0.504 OA
ATOM     21  H   UNL     1      -0.215 -13.495  12.853  1.00  0.00     0.293 HD
ENDBRANCH  17  20
ENDBRANCH   1  12
BRANCH   2  22
ATOM     22  O   UNL     1      -4.844  -8.226  12.063  1.00  0.00    -0.502 OA
ATOM     23  H   UNL     1      -3.857  -8.115  11.867  1.00  0.00     0.293 HD
ENDBRANCH   2  22
BRANCH   9  24
ATOM     24  O   UNL     1      -8.201 -12.352  17.725  1.00  0.00    -0.508 OA
ATOM     25  H   UNL     1      -8.812 -12.038  18.470  1.00  0.00     0.293 HD
ENDBRANCH   9  24
TORSDOF 5
ENDMDL
MODEL 4
REMARK VINA RESULT:    -6.959      2.858      6.956
REMARK INTER + INTRA:          -8.487
REMARK INTER:                  -8.264
REMARK INTRA:                  -0.223
REMARK UNBOUND:                -0.308
REMARK SMILES O=c1c(O)c(-c2ccc(O)c(O)c2)oc2cc(O)ccc12
REMARK SMILES IDX 5 1 3 2 2 3 1 4 21 5 15 6 14 7 16 8 17 9 19 10 20 11 6 12
REMARK SMILES IDX 7 13 8 14 9 15 13 16 11 17 10 18 12 20 4 22 18 24
REMARK H PARENT 10 19 12 21 4 23 18 25
REMARK Flexibility Score: inf
ROOT
ATOM      1  C   UNL     1      -1.235  -9.410  12.713  1.00  0.00     0.180 A 
ATOM      2  C   UNL     1      -2.184  -8.391  12.489  1.00  0.00     0.208 A 
ATOM      3  C   UNL     1      -3.530  -8.639  12.802  1.00  0.00     0.235 A 
ATOM      4  O   UNL     1      -4.400  -7.748  12.600  1.00  0.00    -0.285 OA
ATOM      5  C   UNL     1      -3.894  -9.881  13.347  1.00  0.00     0.069 A 
ATOM      6  C   UNL     1      -2.881 -10.840  13.563  1.00  0.00     0.142 A 
ATOM      7  O   UNL     1      -1.621 -10.569  13.245  1.00  0.00    -0.452 OA
ATOM      8  C   UNL     1      -3.203 -12.086  14.114  1.00  0.00     0.094 A 
ATOM      9  C   UNL     1      -4.526 -12.388  14.450  1.00  0.00     0.119 A 
ATOM     10  C   UNL     1      -5.535 -11.439  14.234  1.00  0.00     0.047 A 
ATOM     11  C   UNL     1      -5.224 -10.190  13.687  1.00  0.00     0.020 A 
ENDROOT
BRANCH   1  12
ATOM     12  C   UNL     1       0.199  -9.232  12.393  1.00  0.00     0.025 A 
ATOM     13  C   UNL     1       1.019  -8.378  13.151  1.00  0.00     0.016 A 
ATOM     14  C   UNL     1       2.364  -8.206  12.814  1.00  0.00     0.051 A 
ATOM     15  C   UNL     1       2.906  -8.874  11.709  1.00  0.00     0.157 A 
ATOM     16  C   UNL     1       0.743  -9.883  11.273  1.00  0.00     0.062 A 
ATOM     17  C   UNL     1       2.090  -9.715  10.934  1.00  0.00     0.158 A 
BRANCH  15  18
ATOM     18  O   UNL     1       4.250  -8.703  11.377  1.00  0.00    -0.504 OA
ATOM     19  H   UNL     1       4.964  -9.343  11.708  1.00  0.00     0.293 HD
ENDBRANCH  15  18
BRANCH  17  20
ATOM     20  O   UNL     1       2.599 -10.389   9.823  1.00  0.00    -0.504 OA
ATOM     21  H   UNL     1       3.593 -10.465   9.649  1.00  0.00     0.293 HD
ENDBRANCH  17  20
ENDBRANCH   1  12
BRANCH   2  22
ATOM     22  O   UNL     1      -1.784  -7.149  11.991  1.00  0.00    -0.502 OA
ATOM     23  H   UNL     1      -2.275  -6.292  12.216  1.00  0.00     0.293 HD
ENDBRANCH   2  22
BRANCH   9  24
ATOM     24  O   UNL     1      -4.829 -13.633  14.997  1.00  0.00    -0.508 OA
ATOM     25  H   UNL     1      -5.045 -13.741  15.981  1.00  0.00     0.293 HD
ENDBRANCH   9  24
TORSDOF 5
ENDMDL
MODEL 5
REMARK VINA RESULT:    -6.945      9.803     11.689
REMARK INTER + INTRA:          -8.471
REMARK INTER:                  -8.164
REMARK INTRA:                  -0.308
REMARK UNBOUND:                -0.308
REMARK SMILES O=c1c(O)c(-c2ccc(O)c(O)c2)oc2cc(O)ccc12
REMARK SMILES IDX 5 1 3 2 2 3 1 4 21 5 15 6 14 7 16 8 17 9 19 10 20 11 6 12
REMARK SMILES IDX 7 13 8 14 9 15 13 16 11 17 10 18 12 20 4 22 18 24
REMARK H PARENT 10 19 12 21 4 23 18 25
REMARK Flexibility Score: inf
ROOT
ATOM      1  C   UNL     1     -11.239  -5.945  11.533  1.00  0.00     0.180 A 
ATOM      2  C   UNL     1     -10.259  -6.929  11.785  1.00  0.00     0.208 A 
ATOM      3  C   UNL     1     -10.206  -7.520  13.058  1.00  0.00     0.235 A 
ATOM      4  O   UNL     1      -9.331  -8.393  13.312  1.00  0.00    -0.285 OA
ATOM      5  C   UNL     1     -11.136  -7.136  14.037  1.00  0.00     0.069 A 
ATOM      6  C   UNL     1     -12.101  -6.162  13.699  1.00  0.00     0.142 A 
ATOM      7  O   UNL     1     -12.111  -5.621  12.486  1.00  0.00    -0.452 OA
ATOM      8  C   UNL     1     -13.051  -5.760  14.644  1.00  0.00     0.094 A 
ATOM      9  C   UNL     1     -13.049  -6.317  15.927  1.00  0.00     0.119 A 
ATOM     10  C   UNL     1     -12.091  -7.283  16.267  1.00  0.00     0.047 A 
ATOM     11  C   UNL     1     -11.139  -7.693  15.329  1.00  0.00     0.020 A 
ENDROOT
BRANCH   1  12
ATOM     12  C   UNL     1     -11.349  -5.263  10.225  1.00  0.00     0.025 A 
ATOM     13  C   UNL     1     -12.056  -5.840   9.155  1.00  0.00     0.016 A 
ATOM     14  C   UNL     1     -12.125  -5.190   7.920  1.00  0.00     0.051 A 
ATOM     15  C   UNL     1     -11.479  -3.961   7.732  1.00  0.00     0.157 A 
ATOM     16  C   UNL     1     -10.685  -4.042  10.024  1.00  0.00     0.062 A 
ATOM     17  C   UNL     1     -10.753  -3.386   8.789  1.00  0.00     0.158 A 
BRANCH  15  18
ATOM     18  O   UNL     1     -11.551  -3.313   6.500  1.00  0.00    -0.504 OA
ATOM     19  H   UNL     1     -10.717  -3.072   5.977  1.00  0.00     0.293 HD
ENDBRANCH  15  18
BRANCH  17  20
ATOM     20  O   UNL     1     -10.093  -2.168   8.631  1.00  0.00    -0.504 OA
ATOM     21  H   UNL     1      -9.083  -2.097   8.645  1.00  0.00     0.293 HD
ENDBRANCH  17  20
ENDBRANCH   1  12
BRANCH   2  22
ATOM     22  O   UNL     1      -9.379  -7.325  10.776  1.00  0.00    -0.502 OA
ATOM     23  H   UNL     1      -9.698  -7.766   9.922  1.00  0.00     0.293 HD
ENDBRANCH   2  22
BRANCH   9  24
ATOM     24  O   UNL     1     -14.002  -5.906  16.856  1.00  0.00    -0.508 OA
ATOM     25  H   UNL     1     -13.905  -5.034  17.364  1.00  0.00     0.293 HD
ENDBRANCH   9  24
TORSDOF 5
ENDMDL
MODEL 6
REMARK VINA RESULT:    -6.940      2.581      3.712
REMARK INTER + INTRA:          -8.465
REMARK INTER:                  -8.149
REMARK INTRA:                  -0.317
REMARK UNBOUND:                -0.308
REMARK SMILES O=c1c(O)c(-c2ccc(O)c(O)c2)oc2cc(O)ccc12
REMARK SMILES IDX 5 1 3 2 2 3 1 4 21 5 15 6 14 7 16 8 17 9 19 10 20 11 6 12
REMARK SMILES IDX 7 13 8 14 9 15 13 16 11 17 10 18 12 20 4 22 18 24
REMARK H PARENT 10 19 12 21 4 23 18 25
REMARK Flexibility Score: inf
ROOT
ATOM      1  C   UNL     1      -2.160  -8.291  13.271  1.00  0.00     0.180 A 
ATOM      2  C   UNL     1      -1.607  -7.082  13.743  1.00  0.00     0.208 A 
ATOM      3  C   UNL     1      -0.277  -6.773  13.416  1.00  0.00     0.235 A 
ATOM      4  O   UNL     1       0.244  -5.703  13.836  1.00  0.00    -0.285 OA
ATOM      5  C   UNL     1       0.460  -7.659  12.614  1.00  0.00     0.069 A 
ATOM      6  C   UNL     1      -0.173  -8.837  12.161  1.00  0.00     0.142 A 
ATOM      7  O   UNL     1      -1.430  -9.096  12.501  1.00  0.00    -0.452 OA
ATOM      8  C   UNL     1       0.526  -9.740  11.352  1.00  0.00     0.094 A 
ATOM      9  C   UNL     1       1.852  -9.482  10.991  1.00  0.00     0.119 A 
ATOM     10  C   UNL     1       2.485  -8.315  11.440  1.00  0.00     0.047 A 
ATOM     11  C   UNL     1       1.795  -7.405  12.247  1.00  0.00     0.020 A 
ENDROOT
BRANCH   1  12
ATOM     12  C   UNL     1      -3.548  -8.696  13.587  1.00  0.00     0.025 A 
ATOM     13  C   UNL     1      -3.835  -9.538  14.676  1.00  0.00     0.016 A 
ATOM     14  C   UNL     1      -5.151  -9.928  14.940  1.00  0.00     0.051 A 
ATOM     15  C   UNL     1      -6.195  -9.494  14.114  1.00  0.00     0.157 A 
ATOM     16  C   UNL     1      -4.596  -8.281  12.749  1.00  0.00     0.062 A 
ATOM     17  C   UNL     1      -5.916  -8.669  13.011  1.00  0.00     0.158 A 
BRANCH  15  18
ATOM     18  O   UNL     1      -7.508  -9.883  14.381  1.00  0.00    -0.504 OA
ATOM     19  H   UNL     1      -8.241  -9.201  14.539  1.00  0.00     0.293 HD
ENDBRANCH  15  18
BRANCH  17  20
ATOM     20  O   UNL     1      -6.933  -8.226  12.166  1.00  0.00    -0.504 OA
ATOM     21  H   UNL     1      -6.932  -8.425  11.173  1.00  0.00     0.293 HD
ENDBRANCH  17  20
ENDBRANCH   1  12
BRANCH   2  22
ATOM     22  O   UNL     1      -2.380  -6.197  14.498  1.00  0.00    -0.502 OA
ATOM     23  H   UNL     1      -2.593  -6.362  15.474  1.00  0.00     0.293 HD
ENDBRANCH   2  22
BRANCH   9  24
ATOM     24  O   UNL     1       2.533 -10.392  10.184  1.00  0.00    -0.508 OA
ATOM     25  H   UNL     1       2.274 -11.372  10.155  1.00  0.00     0.293 HD
ENDBRANCH   9  24
TORSDOF 5
ENDMDL
MODEL 7
REMARK VINA RESULT:    -6.857      2.430      6.716
REMARK INTER + INTRA:          -8.367
REMARK INTER:                  -8.083
REMARK INTRA:                  -0.284
REMARK UNBOUND:                -0.308
REMARK SMILES O=c1c(O)c(-c2ccc(O)c(O)c2)oc2cc(O)ccc12
REMARK SMILES IDX 5 1 3 2 2 3 1 4 21 5 15 6 14 7 16 8 17 9 19 10 20 11 6 12
REMARK SMILES IDX 7 13 8 14 9 15 13 16 11 17 10 18 12 20 4 22 18 24
REMARK H PARENT 10 19 12 21 4 23 18 25
REMARK Flexibility Score: inf
ROOT
ATOM      1  C   UNL     1      -0.139  -7.772  13.012  1.00  0.00     0.180 A 
ATOM      2  C   UNL     1      -0.317  -6.723  13.938  1.00  0.00     0.208 A 
ATOM      3  C   UNL     1      -1.615  -6.428  14.385  1.00  0.00     0.235 A 
ATOM      4  O   UNL     1      -1.802  -5.487  15.205  1.00  0.00    -0.285 OA
ATOM      5  C   UNL     1      -2.696  -7.194  13.920  1.00  0.00     0.069 A 
ATOM      6  C   UNL     1      -2.432  -8.243  13.012  1.00  0.00     0.142 A 
ATOM      7  O   UNL     1      -1.191  -8.483  12.607  1.00  0.00    -0.452 OA
ATOM      8  C   UNL     1      -3.482  -9.034  12.533  1.00  0.00     0.094 A 
ATOM      9  C   UNL     1      -4.795  -8.790  12.947  1.00  0.00     0.119 A 
ATOM     10  C   UNL     1      -5.062  -7.748  13.846  1.00  0.00     0.047 A 
ATOM     11  C   UNL     1      -4.019  -6.953  14.333  1.00  0.00     0.020 A 
ENDROOT
BRANCH   1  12
ATOM     12  C   UNL     1       1.193  -8.133  12.480  1.00  0.00     0.025 A 
ATOM     13  C   UNL     1       1.930  -9.205  13.014  1.00  0.00     0.016 A 
ATOM     14  C   UNL     1       3.198  -9.511  12.512  1.00  0.00     0.051 A 
ATOM     15  C   UNL     1       3.753  -8.743  11.480  1.00  0.00     0.157 A 
ATOM     16  C   UNL     1       1.764  -7.353  11.460  1.00  0.00     0.062 A 
ATOM     17  C   UNL     1       3.033  -7.657  10.954  1.00  0.00     0.158 A 
BRANCH  15  18
ATOM     18  O   UNL     1       5.017  -9.052  10.979  1.00  0.00    -0.504 OA
ATOM     19  H   UNL     1       5.149  -9.355  10.021  1.00  0.00     0.293 HD
ENDBRANCH  15  18
BRANCH  17  20
ATOM     20  O   UNL     1       3.561  -6.870   9.932  1.00  0.00    -0.504 OA
ATOM     21  H   UNL     1       3.907  -5.932  10.098  1.00  0.00     0.293 HD
ENDBRANCH  17  20
ENDBRANCH   1  12
BRANCH   2  22
ATOM     22  O   UNL     1       0.783  -6.011  14.421  1.00  0.00    -0.502 OA
ATOM     23  H   UNL     1       1.687  -6.443  14.562  1.00  0.00     0.293 HD
ENDBRANCH   2  22
BRANCH   9  24
ATOM     24  O   UNL     1      -5.829  -9.588  12.460  1.00  0.00    -0.508 OA
ATOM     25  H   UNL     1      -5.846 -10.589  12.621  1.00  0.00     0.293 HD
ENDBRANCH   9  24
TORSDOF 5
ENDMDL
MODEL 8
REMARK VINA RESULT:    -6.856      3.482      8.338
REMARK INTER + INTRA:          -8.366
REMARK INTER:                  -8.051
REMARK INTRA:                  -0.315
REMARK UNBOUND:                -0.308
REMARK SMILES O=c1c(O)c(-c2ccc(O)c(O)c2)oc2cc(O)ccc12
REMARK SMILES IDX 5 1 3 2 2 3 1 4 21 5 15 6 14 7 16 8 17 9 19 10 20 11 6 12
REMARK SMILES IDX 7 13 8 14 9 15 13 16 11 17 10 18 12 20 4 22 18 24
REMARK H PARENT 10 19 12 21 4 23 18 25
REMARK Flexibility Score: inf
ROOT
ATOM      1  C   UNL     1      -6.380  -7.806  13.566  1.00  0.00     0.180 A 
ATOM      2  C   UNL     1      -7.258  -7.217  12.633  1.00  0.00     0.208 A 
ATOM      3  C   UNL     1      -8.635  -7.216  12.907  1.00  0.00     0.235 A 
ATOM      4  O   UNL     1      -9.442  -6.705  12.082  1.00  0.00    -0.285 OA
ATOM      5  C   UNL     1      -9.101  -7.781  14.105  1.00  0.00     0.069 A 
ATOM      6  C   UNL     1      -8.156  -8.330  14.998  1.00  0.00     0.142 A 
ATOM      7  O   UNL     1      -6.862  -8.318  14.698  1.00  0.00    -0.452 OA
ATOM      8  C   UNL     1      -8.580  -8.893  16.207  1.00  0.00     0.094 A 
ATOM      9  C   UNL     1      -9.939  -8.917  16.535  1.00  0.00     0.119 A 
ATOM     10  C   UNL     1     -10.881  -8.374  15.650  1.00  0.00     0.047 A 
ATOM     11  C   UNL     1     -10.467  -7.808  14.440  1.00  0.00     0.020 A 
ENDROOT
BRANCH   1  12
ATOM     12  C   UNL     1      -4.918  -7.862  13.343  1.00  0.00     0.025 A 
ATOM     13  C   UNL     1      -4.307  -8.993  12.772  1.00  0.00     0.016 A 
ATOM     14  C   UNL     1      -2.922  -9.034  12.594  1.00  0.00     0.051 A 
ATOM     15  C   UNL     1      -2.126  -7.952  12.994  1.00  0.00     0.157 A 
ATOM     16  C   UNL     1      -4.113  -6.790  13.762  1.00  0.00     0.062 A 
ATOM     17  C   UNL     1      -2.725  -6.827  13.583  1.00  0.00     0.158 A 
BRANCH  15  18
ATOM     18  O   UNL     1      -0.744  -7.994  12.812  1.00  0.00    -0.504 OA
ATOM     19  H   UNL     1      -0.168  -8.684  13.282  1.00  0.00     0.293 HD
ENDBRANCH  15  18
BRANCH  17  20
ATOM     20  O   UNL     1      -1.960  -5.738  13.999  1.00  0.00    -0.504 OA
ATOM     21  H   UNL     1      -2.364  -4.954  14.498  1.00  0.00     0.293 HD
ENDBRANCH  17  20
ENDBRANCH   1  12
BRANCH   2  22
ATOM     22  O   UNL     1      -6.760  -6.619  11.473  1.00  0.00    -0.502 OA
ATOM     23  H   UNL     1      -6.892  -7.027  10.555  1.00  0.00     0.293 HD
ENDBRANCH   2  22
BRANCH   9  24
ATOM     24  O   UNL     1     -10.345  -9.481  17.743  1.00  0.00    -0.508 OA
ATOM     25  H   UNL     1     -10.477  -8.916  18.573  1.00  0.00     0.293 HD
ENDBRANCH   9  24
TORSDOF 5
ENDMDL
MODEL 9
REMARK VINA RESULT:    -6.846      7.545      9.489
REMARK INTER + INTRA:          -8.355
REMARK INTER:                  -8.040
REMARK INTRA:                  -0.314
REMARK UNBOUND:                -0.308
REMARK SMILES O=c1c(O)c(-c2ccc(O)c(O)c2)oc2cc(O)ccc12
REMARK SMILES IDX 5 1 3 2 2 3 1 4 21 5 15 6 14 7 16 8 17 9 19 10 20 11 6 12
REMARK SMILES IDX 7 13 8 14 9 15 13 16 11 17 10 18 12 20 4 22 18 24
REMARK H PARENT 10 19 12 21 4 23 18 25
REMARK Flexibility Score: inf
ROOT
ATOM      1  C   UNL     1      -9.084  -6.272  13.050  1.00  0.00     0.180 A 
ATOM      2  C   UNL     1      -7.951  -7.067  12.776  1.00  0.00     0.208 A 
ATOM      3  C   UNL     1      -7.728  -8.217  13.550  1.00  0.00     0.235 A 
ATOM      4  O   UNL     1      -6.716  -8.938  13.332  1.00  0.00    -0.285 OA
ATOM      5  C   UNL     1      -8.644  -8.558  14.558  1.00  0.00     0.069 A 
ATOM      6  C   UNL     1      -9.766  -7.724  14.754  1.00  0.00     0.142 A 
ATOM      7  O   UNL     1      -9.935  -6.640  14.007  1.00  0.00    -0.452 OA
ATOM      8  C   UNL     1     -10.706  -8.037  15.743  1.00  0.00     0.094 A 
ATOM      9  C   UNL     1     -10.538  -9.172  16.541  1.00  0.00     0.119 A 
ATOM     10  C   UNL     1      -9.424 -10.002  16.351  1.00  0.00     0.047 A 
ATOM     11  C   UNL     1      -8.480  -9.700  15.365  1.00  0.00     0.020 A 
ENDROOT
BRANCH   1  12
ATOM     12  C   UNL     1      -9.378  -5.036  12.291  1.00  0.00     0.025 A 
ATOM     13  C   UNL     1     -10.094  -5.072  11.081  1.00  0.00     0.016 A 
ATOM     14  C   UNL     1     -10.338  -3.895  10.369  1.00  0.00     0.051 A 
ATOM     15  C   UNL     1      -9.861  -2.668  10.848  1.00  0.00     0.157 A 
ATOM     16  C   UNL     1      -8.885  -3.806  12.756  1.00  0.00     0.062 A 
ATOM     17  C   UNL     1      -9.129  -2.624  12.046  1.00  0.00     0.158 A 
BRANCH  15  18
ATOM     18  O   UNL     1     -10.109  -1.494  10.137  1.00  0.00    -0.504 OA
ATOM     19  H   UNL     1     -10.733  -0.779  10.494  1.00  0.00     0.293 HD
ENDBRANCH  15  18
BRANCH  17  20
ATOM     20  O   UNL     1      -8.635  -1.420  12.545  1.00  0.00    -0.504 OA
ATOM     21  H   UNL     1      -7.674  -1.316  12.850  1.00  0.00     0.293 HD
ENDBRANCH  17  20
ENDBRANCH   1  12
BRANCH   2  22
ATOM     22  O   UNL     1      -7.084  -6.728  11.734  1.00  0.00    -0.502 OA
ATOM     23  H   UNL     1      -7.383  -6.709  10.767  1.00  0.00     0.293 HD
ENDBRANCH   2  22
BRANCH   9  24
ATOM     24  O   UNL     1     -11.484  -9.469  17.521  1.00  0.00    -0.508 OA
ATOM     25  H   UNL     1     -11.315 -10.180  18.222  1.00  0.00     0.293 HD
ENDBRANCH   9  24
TORSDOF 5
ENDMDL
