MODEL 1
REMARK VINA RESULT:     0.659      0.000      0.000
REMARK INTER + INTRA:          -0.063
REMARK INTER:                   0.928
REMARK INTRA:                  -0.991
REMARK UNBOUND:                -0.991
REMARK SMILES C[C@H](CO)CCC(=O)[C@H](C)[C@H]1C(=O)C[C@@H]2[C@@H]3CC=C4C[C@@H](O)CC[C@]4(C)[C@@H]3CC[C@@]21C
REMARK SMILES IDX 6 1 5 2 2 3 1 4 3 5 4 6 7 8 8 9 9 10 10 11 11 12 12 13 30 14
REMARK SMILES IDX 13 15 14 16 15 17 29 18 31 19 16 20 28 21 27 22 17 23 25 24
REMARK SMILES IDX 18 25 19 26 24 27 26 28 20 29 23 30 21 31 22 32
REMARK H PARENT 4 7 22 33
REMARK Flexibility Score: inf
ROOT
ATOM      1  C   UNL     1       4.658  46.816   8.387  1.00  0.00     0.076 C 
ENDROOT
BRANCH   1   2
ATOM      2  C   UNL     1       5.304  47.749   9.420  1.00  0.00     0.013 C 
BRANCH   2   3
ATOM      3  C   UNL     1       6.642  48.350   8.930  1.00  0.00     0.012 C 
ATOM      4  C   UNL     1       7.854  47.698   9.616  1.00  0.00     0.010 C 
BRANCH   3   5
ATOM      5  C   UNL     1       6.652  49.879   9.141  1.00  0.00     0.159 C 
BRANCH   5   6
ATOM      6  O   UNL     1       5.662  50.510   8.373  1.00  0.00    -0.396 OA
ATOM      7  H   UNL     1       4.843  49.950   8.430  1.00  0.00     0.210 HD
ENDBRANCH   5   6
ENDBRANCH   3   5
ENDBRANCH   2   3
ENDBRANCH   1   2
BRANCH   1   8
ATOM      8  C   UNL     1       3.492  47.498   7.705  1.00  0.00     0.136 C 
ATOM      9  O   UNL     1       3.730  48.495   7.036  1.00  0.00    -0.299 OA
BRANCH   8  10
ATOM     10  C   UNL     1       2.058  46.962   7.744  1.00  0.00     0.064 C 
ATOM     11  C   UNL     1       1.023  48.086   7.527  1.00  0.00     0.017 C 
BRANCH  10  12
ATOM     12  C   UNL     1       1.854  46.099   9.043  1.00  0.00     0.072 C 
ATOM     13  C   UNL     1       1.205  46.834  10.175  1.00  0.00     0.137 C 
ATOM     14  C   UNL     1       1.027  44.770   8.953  1.00  0.00    -0.019 C 
ATOM     15  O   UNL     1       1.541  47.953  10.535  1.00  0.00    -0.299 OA
ATOM     16  C   UNL     1       0.185  46.025  10.901  1.00  0.00     0.080 C 
ATOM     17  C   UNL     1       0.426  44.589  10.393  1.00  0.00     0.007 C 
ATOM     18  C   UNL     1       1.894  43.569   8.469  1.00  0.00     0.008 C 
ATOM     19  C   UNL     1      -0.170  44.886   7.972  1.00  0.00     0.012 C 
ATOM     20  C   UNL     1       1.254  43.704  11.402  1.00  0.00     0.001 C 
ATOM     21  C   UNL     1       2.697  42.849   9.554  1.00  0.00     0.005 C 
ATOM     22  C   UNL     1       1.782  42.419  10.726  1.00  0.00     0.003 C 
ATOM     23  C   UNL     1       2.383  44.433  12.180  1.00  0.00     0.031 C 
ATOM     24  C   UNL     1       2.435  41.447  11.797  1.00  0.00    -0.008 C 
ATOM     25  C   UNL     1       3.356  43.527  12.879  1.00  0.00    -0.027 C 
ATOM     26  C   UNL     1       3.412  42.189  12.710  1.00  0.00    -0.065 C 
ATOM     27  C   UNL     1       3.199  40.276  11.103  1.00  0.00     0.014 C 
ATOM     28  C   UNL     1       1.300  40.844  12.672  1.00  0.00     0.016 C 
ATOM     29  C   UNL     1       4.328  41.378  13.611  1.00  0.00     0.063 C 
ATOM     30  C   UNL     1       3.999  39.394  12.076  1.00  0.00     0.033 C 
ATOM     31  C   UNL     1       5.018  40.236  12.848  1.00  0.00     0.118 C 
BRANCH  31  32
ATOM     32  O   UNL     1       5.704  39.399  13.744  1.00  0.00    -0.393 OA
ATOM     33  H   UNL     1       6.321  39.977  14.263  1.00  0.00     0.210 HD
ENDBRANCH  31  32
ENDBRANCH  10  12
ENDBRANCH   8  10
ENDBRANCH   1   8
TORSDOF 8
ENDMDL
MODEL 2
REMARK VINA RESULT:     3.606      2.720      8.541
REMARK INTER + INTRA:           4.090
REMARK INTER:                   3.929
REMARK INTRA:                   0.161
REMARK UNBOUND:                -0.991
REMARK SMILES C[C@H](CO)CCC(=O)[C@H](C)[C@H]1C(=O)C[C@@H]2[C@@H]3CC=C4C[C@@H](O)CC[C@]4(C)[C@@H]3CC[C@@]21C
REMARK SMILES IDX 6 1 5 2 2 3 1 4 3 5 4 6 7 8 8 9 9 10 10 11 11 12 12 13 30 14
REMARK SMILES IDX 13 15 14 16 15 17 29 18 31 19 16 20 28 21 27 22 17 23 25 24
REMARK SMILES IDX 18 25 19 26 24 27 26 28 20 29 23 30 21 31 22 32
REMARK H PARENT 4 7 22 33
REMARK Flexibility Score: inf
ROOT
ATOM      1  C   UNL     1       0.803  40.140  13.682  1.00  0.00     0.076 C 
ENDROOT
BRANCH   1   2
ATOM      2  C   UNL     1       1.377  38.784  13.246  1.00  0.00     0.013 C 
BRANCH   2   3
ATOM      3  C   UNL     1       0.386  37.964  12.388  1.00  0.00     0.012 C 
ATOM      4  C   UNL     1      -1.062  38.095  12.892  1.00  0.00     0.010 C 
BRANCH   3   5
ATOM      5  C   UNL     1       0.816  36.483  12.342  1.00  0.00     0.159 C 
BRANCH   5   6
ATOM      6  O   UNL     1       0.973  36.035  11.021  1.00  0.00    -0.396 OA
ATOM      7  H   UNL     1       0.326  35.293  10.883  1.00  0.00     0.210 HD
ENDBRANCH   5   6
ENDBRANCH   3   5
ENDBRANCH   2   3
ENDBRANCH   1   2
BRANCH   1   8
ATOM      8  C   UNL     1       1.261  41.240  12.750  1.00  0.00     0.136 C 
ATOM      9  O   UNL     1       0.615  42.279  12.738  1.00  0.00    -0.299 OA
BRANCH   8  10
ATOM     10  C   UNL     1       2.525  41.149  11.889  1.00  0.00     0.064 C 
ATOM     11  C   UNL     1       3.678  40.450  12.640  1.00  0.00     0.017 C 
BRANCH  10  12
ATOM     12  C   UNL     1       2.865  42.567  11.302  1.00  0.00     0.072 C 
ATOM     13  C   UNL     1       4.139  43.160  11.822  1.00  0.00     0.137 C 
ATOM     14  C   UNL     1       2.994  42.737   9.748  1.00  0.00    -0.019 C 
ATOM     15  O   UNL     1       4.440  43.179  13.006  1.00  0.00    -0.299 OA
ATOM     16  C   UNL     1       4.953  43.833  10.770  1.00  0.00     0.080 C 
ATOM     17  C   UNL     1       3.988  43.942   9.572  1.00  0.00     0.007 C 
ATOM     18  C   UNL     1       1.611  42.948   9.062  1.00  0.00     0.008 C 
ATOM     19  C   UNL     1       3.649  41.504   9.073  1.00  0.00     0.012 C 
ATOM     20  C   UNL     1       3.348  45.374   9.418  1.00  0.00     0.001 C 
ATOM     21  C   UNL     1       1.086  44.385   9.050  1.00  0.00     0.005 C 
ATOM     22  C   UNL     1       2.138  45.353   8.457  1.00  0.00     0.003 C 
ATOM     23  C   UNL     1       3.002  46.112  10.740  1.00  0.00     0.031 C 
ATOM     24  C   UNL     1       1.633  46.827   8.155  1.00  0.00    -0.008 C 
ATOM     25  C   UNL     1       2.111  47.311  10.581  1.00  0.00    -0.027 C 
ATOM     26  C   UNL     1       1.472  47.642   9.439  1.00  0.00    -0.065 C 
ATOM     27  C   UNL     1       0.265  46.810   7.404  1.00  0.00     0.014 C 
ATOM     28  C   UNL     1       2.682  47.531   7.250  1.00  0.00     0.016 C 
ATOM     29  C   UNL     1       0.744  48.974   9.371  1.00  0.00     0.063 C 
ATOM     30  C   UNL     1      -0.365  48.203   7.232  1.00  0.00     0.033 C 
ATOM     31  C   UNL     1      -0.578  48.866   8.595  1.00  0.00     0.118 C 
BRANCH  31  32
ATOM     32  O   UNL     1      -1.125  50.144   8.390  1.00  0.00    -0.393 OA
ATOM     33  H   UNL     1      -1.528  50.426   9.252  1.00  0.00     0.210 HD
ENDBRANCH  31  32
ENDBRANCH  10  12
ENDBRANCH   8  10
ENDBRANCH   1   8
TORSDOF 8
ENDMDL
