MODEL 1
REMARK VINA RESULT:    -3.005      0.000      0.000
REMARK INTER + INTRA:          -2.968
REMARK INTER:                  -3.707
REMARK INTRA:                   0.739
REMARK UNBOUND:                 0.739
REMARK SMILES CC1=CC=CC(C)(C)CC1=O
REMARK SMILES IDX 1 1 2 2 3 3 10 4 11 5 9 6 4 8 5 9 6 10 7 11 8 12
REMARK H PARENT
REMARK Flexibility Score: 80.00
ROOT
ATOM      1  C   UNL     1      17.038  13.841  15.889  1.00  0.00     0.048 C 
ATOM      2  C   UNL     1      15.534  13.759  15.767  1.00  0.00    -0.008 C 
ATOM      3  C   UNL     1      14.909  12.743  16.398  1.00  0.00     0.007 C 
ENDROOT
BRANCH   2   4
ATOM      4  C   UNL     1      14.871  14.763  14.898  1.00  0.00     0.159 C 
ATOM      5  O   UNL     1      15.585  15.483  14.147  1.00  0.00    -0.295 OA
BRANCH   4   6
ATOM      6  C   UNL     1      13.391  14.984  14.870  1.00  0.00     0.091 CG0
ATOM      7  G   UNL     1      12.595  13.725  14.456  1.00  0.00     0.000 G0
ENDBRANCH   4   6
ENDBRANCH   2   4
BRANCH   3   8
ATOM      8  C   UNL     1      13.470  12.389  16.441  1.00  0.00    -0.003 C 
ATOM      9  C   UNL     1      12.481  12.781  15.627  1.00  0.00    -0.020 C 
BRANCH   9  10
ATOM     10  C   UNL     1      12.603  13.727  14.456  1.00  0.00    -0.010 CG0
ATOM     11  C   UNL     1      11.184  14.192  14.059  1.00  0.00     0.016 C 
ATOM     12  C   UNL     1      13.219  12.990  13.245  1.00  0.00     0.016 C 
ATOM     13  G   UNL     1      13.418  14.971  14.874  1.00  0.00     0.000 G0
ENDBRANCH   9  10
ENDBRANCH   3   8
TORSDOF 0
ENDMDL
MODEL 2
REMARK VINA RESULT:    -2.976     16.049     17.493
REMARK INTER + INTRA:          -2.933
REMARK INTER:                  -3.678
REMARK INTRA:                   0.745
REMARK UNBOUND:                 0.739
REMARK SMILES CC1=CC=CC(C)(C)CC1=O
REMARK SMILES IDX 1 1 2 2 3 3 10 4 11 5 9 6 4 8 5 9 6 10 7 11 8 12
REMARK H PARENT
REMARK Flexibility Score: 80.00
ROOT
ATOM      1  C   UNL     1       3.218  28.836  16.878  1.00  0.00     0.048 C 
ATOM      2  C   UNL     1       4.687  29.165  17.006  1.00  0.00    -0.008 C 
ATOM      3  C   UNL     1       5.016  30.399  17.443  1.00  0.00     0.007 C 
ENDROOT
BRANCH   2   4
ATOM      4  C   UNL     1       5.653  28.126  16.569  1.00  0.00     0.159 C 
ATOM      5  O   UNL     1       5.220  27.114  15.952  1.00  0.00    -0.295 OA
BRANCH   4   6
ATOM      6  C   UNL     1       7.125  28.203  16.831  1.00  0.00     0.091 CG0
ATOM      7  G   UNL     1       7.785  29.465  16.231  1.00  0.00     0.000 G0
ENDBRANCH   4   6
ENDBRANCH   2   4
BRANCH   3   8
ATOM      8  C   UNL     1       6.350  31.014  17.643  1.00  0.00    -0.003 C 
ATOM      9  C   UNL     1       7.533  30.645  17.137  1.00  0.00    -0.020 C 
BRANCH   9  10
ATOM     10  C   UNL     1       7.795  29.462  16.236  1.00  0.00    -0.010 CG0
ATOM     11  C   UNL     1       9.319  29.205  16.202  1.00  0.00     0.016 C 
ATOM     12  C   UNL     1       7.333  29.782  14.796  1.00  0.00     0.016 C 
ATOM     13  G   UNL     1       7.108  28.204  16.816  1.00  0.00     0.000 G0
ENDBRANCH   9  10
ENDBRANCH   3   8
TORSDOF 0
ENDMDL
MODEL 3
REMARK VINA RESULT:    -2.859     12.105     13.135
REMARK INTER + INTRA:          -2.788
REMARK INTER:                  -3.550
REMARK INTRA:                   0.761
REMARK UNBOUND:                 0.739
REMARK SMILES CC1=CC=CC(C)(C)CC1=O
REMARK SMILES IDX 1 1 2 2 3 3 10 4 11 5 9 6 4 8 5 9 6 10 7 11 8 12
REMARK H PARENT
REMARK Flexibility Score: 80.00
ROOT
ATOM      1  C   UNL     1      17.080  25.277  16.065  1.00  0.00     0.048 C 
ATOM      2  C   UNL     1      15.709  25.883  15.870  1.00  0.00    -0.008 C 
ATOM      3  C   UNL     1      14.642  25.065  15.979  1.00  0.00     0.007 C 
ENDROOT
BRANCH   2   4
ATOM      4  C   UNL     1      15.653  27.319  15.499  1.00  0.00     0.159 C 
ATOM      5  O   UNL     1      16.722  27.906  15.174  1.00  0.00    -0.295 OA
BRANCH   4   6
ATOM      6  C   UNL     1      14.391  28.124  15.501  1.00  0.00     0.091 CG0
ATOM      7  G   UNL     1      13.316  27.575  14.534  1.00  0.00     0.000 G0
ENDBRANCH   4   6
ENDBRANCH   2   4
BRANCH   3   8
ATOM      8  C   UNL     1      13.197  25.358  15.817  1.00  0.00    -0.003 C 
ATOM      9  C   UNL     1      12.610  26.394  15.207  1.00  0.00    -0.020 C 
BRANCH   9  10
ATOM     10  C   UNL     1      13.307  27.559  14.544  1.00  0.00    -0.010 CG0
ATOM     11  C   UNL     1      12.264  28.671  14.293  1.00  0.00     0.016 C 
ATOM     12  C   UNL     1      13.877  27.122  13.175  1.00  0.00     0.016 C 
ATOM     13  G   UNL     1      14.393  28.122  15.489  1.00  0.00     0.000 G0
ENDBRANCH   9  10
ENDBRANCH   3   8
TORSDOF 0
ENDMDL
MODEL 4
REMARK VINA RESULT:    -2.854      1.510      3.397
REMARK INTER + INTRA:          -2.782
REMARK INTER:                  -3.539
REMARK INTRA:                   0.758
REMARK UNBOUND:                 0.739
REMARK SMILES CC1=CC=CC(C)(C)CC1=O
REMARK SMILES IDX 1 1 2 2 3 3 10 4 11 5 9 6 4 8 5 9 6 10 7 11 8 12
REMARK H PARENT
REMARK Flexibility Score: 80.00
ROOT
ATOM      1  C   UNL     1      11.102  12.719  14.749  1.00  0.00     0.048 C 
ATOM      2  C   UNL     1      12.539  13.128  14.974  1.00  0.00    -0.008 C 
ATOM      3  C   UNL     1      13.218  12.511  15.964  1.00  0.00     0.007 C 
ENDROOT
BRANCH   2   4
ATOM      4  C   UNL     1      13.067  14.232  14.133  1.00  0.00     0.159 C 
ATOM      5  O   UNL     1      12.261  14.893  13.423  1.00  0.00    -0.295 OA
BRANCH   4   6
ATOM      6  C   UNL     1      14.516  14.601  14.069  1.00  0.00     0.091 CG0
ATOM      7  G   UNL     1      15.106  14.998  15.441  1.00  0.00     0.000 G0
ENDBRANCH   4   6
ENDBRANCH   2   4
BRANCH   3   8
ATOM      8  C   UNL     1      14.609  12.712  16.434  1.00  0.00    -0.003 C 
ATOM      9  C   UNL     1      15.424  13.756  16.235  1.00  0.00    -0.020 C 
BRANCH   9  10
ATOM     10  C   UNL     1      15.111  15.000  15.437  1.00  0.00    -0.010 CG0
ATOM     11  C   UNL     1      16.434  15.756  15.179  1.00  0.00     0.016 C 
ATOM     12  C   UNL     1      14.182  15.930  16.250  1.00  0.00     0.016 C 
ATOM     13  G   UNL     1      14.509  14.603  14.070  1.00  0.00     0.000 G0
ENDBRANCH   9  10
ENDBRANCH   3   8
TORSDOF 0
ENDMDL
MODEL 5
REMARK VINA RESULT:    -2.833      2.158      3.654
REMARK INTER + INTRA:          -2.757
REMARK INTER:                  -3.521
REMARK INTRA:                   0.765
REMARK UNBOUND:                 0.739
REMARK SMILES CC1=CC=CC(C)(C)CC1=O
REMARK SMILES IDX 1 1 2 2 3 3 10 4 11 5 9 6 4 8 5 9 6 10 7 11 8 12
REMARK H PARENT
REMARK Flexibility Score: 80.00
ROOT
ATOM      1  C   UNL     1      13.159  16.359  15.800  1.00  0.00     0.048 C 
ATOM      2  C   UNL     1      14.240  15.306  15.727  1.00  0.00    -0.008 C 
ATOM      3  C   UNL     1      15.492  15.713  15.435  1.00  0.00     0.007 C 
ENDROOT
BRANCH   2   4
ATOM      4  C   UNL     1      13.819  13.893  15.907  1.00  0.00     0.159 C 
ATOM      5  O   UNL     1      12.588  13.619  15.897  1.00  0.00    -0.295 OA
BRANCH   4   6
ATOM      6  C   UNL     1      14.781  12.765  16.117  1.00  0.00     0.091 CG0
ATOM      7  G   UNL     1      15.776  12.588  14.948  1.00  0.00     0.000 G0
ENDBRANCH   4   6
ENDBRANCH   2   4
BRANCH   3   8
ATOM      8  C   UNL     1      16.737  14.924  15.271  1.00  0.00    -0.003 C 
ATOM      9  C   UNL     1      16.880  13.611  15.055  1.00  0.00    -0.020 C 
BRANCH   9  10
ATOM     10  C   UNL     1      15.771  12.591  14.954  1.00  0.00    -0.010 CG0
ATOM     11  C   UNL     1      16.395  11.182  15.067  1.00  0.00     0.016 C 
ATOM     12  C   UNL     1      15.080  12.697  13.575  1.00  0.00     0.016 C 
ATOM     13  G   UNL     1      14.784  12.776  16.130  1.00  0.00     0.000 G0
ENDBRANCH   9  10
ENDBRANCH   3   8
TORSDOF 0
ENDMDL
MODEL 6
REMARK VINA RESULT:    -2.827     14.759     16.134
REMARK INTER + INTRA:          -2.749
REMARK INTER:                  -3.499
REMARK INTRA:                   0.750
REMARK UNBOUND:                 0.739
REMARK SMILES CC1=CC=CC(C)(C)CC1=O
REMARK SMILES IDX 1 1 2 2 3 3 10 4 11 5 9 6 4 8 5 9 6 10 7 11 8 12
REMARK H PARENT
REMARK Flexibility Score: 80.00
ROOT
ATOM      1  C   UNL     1       5.193  29.432  17.708  1.00  0.00     0.048 C 
ATOM      2  C   UNL     1       6.555  29.102  17.143  1.00  0.00    -0.008 C 
ATOM      3  C   UNL     1       7.482  30.082  17.131  1.00  0.00     0.007 C 
ENDROOT
BRANCH   2   4
ATOM      4  C   UNL     1       6.740  27.742  16.577  1.00  0.00     0.159 C 
ATOM      5  O   UNL     1       5.730  27.000  16.434  1.00  0.00    -0.295 OA
BRANCH   4   6
ATOM      6  C   UNL     1       8.071  27.189  16.172  1.00  0.00     0.091 CG0
ATOM      7  G   UNL     1       8.791  28.050  15.109  1.00  0.00     0.000 G0
ENDBRANCH   4   6
ENDBRANCH   2   4
BRANCH   3   8
ATOM      8  C   UNL     1       8.876  30.069  16.625  1.00  0.00    -0.003 C 
ATOM      9  C   UNL     1       9.452  29.223  15.763  1.00  0.00    -0.020 C 
BRANCH   9  10
ATOM     10  C   UNL     1       8.801  28.029  15.105  1.00  0.00    -0.010 CG0
ATOM     11  C   UNL     1       9.912  27.148  14.490  1.00  0.00     0.016 C 
ATOM     12  C   UNL     1       7.875  28.498  13.959  1.00  0.00     0.016 C 
ATOM     13  G   UNL     1       8.055  27.191  16.169  1.00  0.00     0.000 G0
ENDBRANCH   9  10
ENDBRANCH   3   8
TORSDOF 0
ENDMDL
MODEL 7
REMARK VINA RESULT:    -2.803     11.541     12.949
REMARK INTER + INTRA:          -2.719
REMARK INTER:                  -3.475
REMARK INTRA:                   0.756
REMARK UNBOUND:                 0.739
REMARK SMILES CC1=CC=CC(C)(C)CC1=O
REMARK SMILES IDX 1 1 2 2 3 3 10 4 11 5 9 6 4 8 5 9 6 10 7 11 8 12
REMARK H PARENT
REMARK Flexibility Score: 80.00
ROOT
ATOM      1  C   UNL     1      12.327  24.452  16.068  1.00  0.00     0.048 C 
ATOM      2  C   UNL     1      13.374  25.515  15.827  1.00  0.00    -0.008 C 
ATOM      3  C   UNL     1      12.945  26.768  15.566  1.00  0.00     0.007 C 
ENDROOT
BRANCH   2   4
ATOM      4  C   UNL     1      14.792  25.077  15.822  1.00  0.00     0.159 C 
ATOM      5  O   UNL     1      15.047  23.841  15.814  1.00  0.00    -0.295 OA
BRANCH   4   6
ATOM      6  C   UNL     1      15.950  26.026  15.840  1.00  0.00     0.091 CG0
ATOM      7  G   UNL     1      15.979  26.975  14.621  1.00  0.00     0.000 G0
ENDBRANCH   4   6
ENDBRANCH   2   4
BRANCH   3   8
ATOM      8  C   UNL     1      13.719  27.996  15.267  1.00  0.00    -0.003 C 
ATOM      9  C   UNL     1      14.989  28.114  14.858  1.00  0.00    -0.020 C 
BRANCH   9  10
ATOM     10  C   UNL     1      15.966  26.986  14.627  1.00  0.00    -0.010 CG0
ATOM     11  C   UNL     1      17.386  27.588  14.522  1.00  0.00     0.016 C 
ATOM     12  C   UNL     1      15.649  26.279  13.289  1.00  0.00     0.016 C 
ATOM     13  G   UNL     1      15.941  26.020  15.832  1.00  0.00     0.000 G0
ENDBRANCH   9  10
ENDBRANCH   3   8
TORSDOF 0
ENDMDL
MODEL 8
REMARK VINA RESULT:    -2.801     11.868     13.310
REMARK INTER + INTRA:          -2.717
REMARK INTER:                  -3.472
REMARK INTRA:                   0.755
REMARK UNBOUND:                 0.739
REMARK SMILES CC1=CC=CC(C)(C)CC1=O
REMARK SMILES IDX 1 1 2 2 3 3 10 4 11 5 9 6 4 8 5 9 6 10 7 11 8 12
REMARK H PARENT
REMARK Flexibility Score: 80.00
ROOT
ATOM      1  C   UNL     1      12.482  28.203  14.941  1.00  0.00     0.048 C 
ATOM      2  C   UNL     1      13.898  27.722  15.157  1.00  0.00    -0.008 C 
ATOM      3  C   UNL     1      14.902  28.510  14.719  1.00  0.00     0.007 C 
ENDROOT
BRANCH   2   4
ATOM      4  C   UNL     1      14.069  26.381  15.770  1.00  0.00     0.159 C 
ATOM      5  O   UNL     1      13.055  25.645  15.917  1.00  0.00    -0.295 OA
BRANCH   4   6
ATOM      6  C   UNL     1      15.387  25.849  16.242  1.00  0.00     0.091 CG0
ATOM      7  G   UNL     1      16.456  25.795  15.126  1.00  0.00     0.000 G0
ENDBRANCH   4   6
ENDBRANCH   2   4
BRANCH   3   8
ATOM      8  C   UNL     1      16.368  28.299  14.764  1.00  0.00    -0.003 C 
ATOM      9  C   UNL     1      17.051  27.160  14.930  1.00  0.00    -0.020 C 
BRANCH   9  10
ATOM     10  C   UNL     1      16.466  25.785  15.143  1.00  0.00    -0.010 CG0
ATOM     11  C   UNL     1      17.592  24.849  15.638  1.00  0.00     0.016 C 
ATOM     12  C   UNL     1      15.933  25.223  13.805  1.00  0.00     0.016 C 
ATOM     13  G   UNL     1      15.377  25.847  16.239  1.00  0.00     0.000 G0
ENDBRANCH   9  10
ENDBRANCH   3   8
TORSDOF 0
ENDMDL
MODEL 9
REMARK VINA RESULT:    -2.683     15.081     16.526
REMARK INTER + INTRA:          -2.571
REMARK INTER:                  -3.330
REMARK INTRA:                   0.759
REMARK UNBOUND:                 0.739
REMARK SMILES CC1=CC=CC(C)(C)CC1=O
REMARK SMILES IDX 1 1 2 2 3 3 10 4 11 5 9 6 4 8 5 9 6 10 7 11 8 12
REMARK H PARENT
REMARK Flexibility Score: 80.00
ROOT
ATOM      1  C   UNL     1       4.659  25.107  15.811  1.00  0.00     0.048 C 
ATOM      2  C   UNL     1       5.055  26.457  16.363  1.00  0.00    -0.008 C 
ATOM      3  C   UNL     1       4.079  27.372  16.541  1.00  0.00     0.007 C 
ENDROOT
BRANCH   2   4
ATOM      4  C   UNL     1       6.502  26.694  16.594  1.00  0.00     0.159 C 
ATOM      5  O   UNL     1       7.335  25.858  16.147  1.00  0.00    -0.295 OA
BRANCH   4   6
ATOM      6  C   UNL     1       7.036  27.873  17.347  1.00  0.00     0.091 CG0
ATOM      7  G   UNL     1       6.643  29.228  16.716  1.00  0.00     0.000 G0
ENDBRANCH   4   6
ENDBRANCH   2   4
BRANCH   3   8
ATOM      8  C   UNL     1       4.160  28.768  17.032  1.00  0.00    -0.003 C 
ATOM      9  C   UNL     1       5.225  29.575  17.106  1.00  0.00    -0.020 C 
BRANCH   9  10
ATOM     10  C   UNL     1       6.643  29.229  16.719  1.00  0.00    -0.010 CG0
ATOM     11  C   UNL     1       7.582  30.311  17.298  1.00  0.00     0.016 C 
ATOM     12  C   UNL     1       6.789  29.246  15.180  1.00  0.00     0.016 C 
ATOM     13  G   UNL     1       7.035  27.869  17.339  1.00  0.00     0.000 G0
ENDBRANCH   9  10
ENDBRANCH   3   8
TORSDOF 0
ENDMDL
