MODEL 1
REMARK VINA RESULT:    -3.816      0.000      0.000
REMARK INTER + INTRA:          -5.100
REMARK INTER:                  -5.824
REMARK INTRA:                   0.724
REMARK UNBOUND:                 0.724
REMARK SMILES CC1=CCC[C@H](C)C(=O)C[C@@H](C(C)C)C(=O)C1
REMARK SMILES IDX 8 1 9 2 6 3 7 4 5 5 4 6 3 7 2 8 1 9 10 11 11 12 15 13 16 14
REMARK SMILES IDX 17 15 12 17 13 18 14 19
REMARK H PARENT
REMARK Flexibility Score: 70.00
ROOT
ATOM      1  C   UNL     1      -7.656  -1.728   6.671  1.00  0.00     0.136 C 
ATOM      2  O   UNL     1      -7.901  -2.413   5.688  1.00  0.00    -0.299 OA
ENDROOT
BRANCH   1   3
ATOM      3  C   UNL     1      -8.514  -0.517   6.977  1.00  0.00     0.053 C 
ATOM      4  C   UNL     1      -8.961   0.114   5.653  1.00  0.00     0.016 C 
BRANCH   3   5
ATOM      5  C   UNL     1      -9.749  -0.864   7.844  1.00  0.00     0.015 C 
BRANCH   5   6
ATOM      6  C   UNL     1      -9.719  -0.257   9.257  1.00  0.00     0.028 C 
BRANCH   6   7
ATOM      7  C   UNL     1      -8.320   0.077   9.718  1.00  0.00    -0.028 C 
ATOM      8  C   UNL     1      -7.404  -0.805  10.180  1.00  0.00    -0.070 CG0
ATOM      9  C   UNL     1      -6.010  -0.291  10.449  1.00  0.00     0.039 C 
ATOM     10  G   UNL     1      -7.682  -2.289  10.342  1.00  0.00     0.000 G0
ENDBRANCH   6   7
ENDBRANCH   5   6
ENDBRANCH   3   5
ENDBRANCH   1   3
BRANCH   1  11
ATOM     11  C   UNL     1      -6.411  -2.021   7.478  1.00  0.00     0.087 C 
BRANCH  11  12
ATOM     12  C   UNL     1      -6.485  -3.375   8.238  1.00  0.00     0.066 C 
BRANCH  12  13
ATOM     13  C   UNL     1      -6.620  -3.158   9.747  1.00  0.00     0.140 C 
ATOM     14  O   UNL     1      -5.840  -3.695  10.521  1.00  0.00    -0.299 OA
BRANCH  13  15
ATOM     15  C   UNL     1      -7.705  -2.286  10.327  1.00  0.00     0.106 CG0
ATOM     16  G   UNL     1      -7.401  -0.805  10.173  1.00  0.00     0.000 G0
ENDBRANCH  13  15
ENDBRANCH  12  13
BRANCH  12  17
ATOM     17  C   UNL     1      -5.297  -4.331   7.882  1.00  0.00    -0.006 C 
ATOM     18  C   UNL     1      -5.483  -4.995   6.508  1.00  0.00     0.008 C 
ATOM     19  C   UNL     1      -3.919  -3.646   7.961  1.00  0.00     0.008 C 
ENDBRANCH  12  17
ENDBRANCH  11  12
ENDBRANCH   1  11
TORSDOF 1
ENDMDL
MODEL 2
REMARK VINA RESULT:    -3.059      1.699      4.464
REMARK INTER + INTRA:          -3.945
REMARK INTER:                  -4.382
REMARK INTRA:                   0.437
REMARK UNBOUND:                 0.724
REMARK SMILES CC1=CCC[C@H](C)C(=O)C[C@@H](C(C)C)C(=O)C1
REMARK SMILES IDX 8 1 9 2 6 3 7 4 5 5 4 6 3 7 2 8 1 9 10 11 11 12 15 13 16 14
REMARK SMILES IDX 17 15 12 17 13 18 14 19
REMARK H PARENT
REMARK Flexibility Score: 70.00
ROOT
ATOM      1  C   UNL     1      -6.523  -3.531   6.912  1.00  0.00     0.136 C 
ATOM      2  O   UNL     1      -6.756  -3.242   5.747  1.00  0.00    -0.299 OA
ENDROOT
BRANCH   1   3
ATOM      3  C   UNL     1      -5.594  -4.686   7.230  1.00  0.00     0.053 C 
ATOM      4  C   UNL     1      -5.864  -5.820   6.233  1.00  0.00     0.016 C 
BRANCH   3   5
ATOM      5  C   UNL     1      -4.101  -4.281   7.184  1.00  0.00     0.015 C 
BRANCH   5   6
ATOM      6  C   UNL     1      -3.426  -4.198   8.563  1.00  0.00     0.028 C 
BRANCH   6   7
ATOM      7  C   UNL     1      -4.387  -4.462   9.698  1.00  0.00    -0.028 C 
ATOM      8  C   UNL     1      -5.061  -3.525  10.403  1.00  0.00    -0.070 CG0
ATOM      9  C   UNL     1      -6.090  -4.002  11.400  1.00  0.00     0.039 C 
ATOM     10  G   UNL     1      -4.905  -2.032  10.168  1.00  0.00     0.000 G0
ENDBRANCH   6   7
ENDBRANCH   5   6
ENDBRANCH   3   5
ENDBRANCH   1   3
BRANCH   1  11
ATOM     11  C   UNL     1      -7.283  -2.823   8.011  1.00  0.00     0.087 C 
BRANCH  11  12
ATOM     12  C   UNL     1      -6.711  -1.413   8.333  1.00  0.00     0.066 C 
BRANCH  12  13
ATOM     13  C   UNL     1      -6.183  -1.343   9.767  1.00  0.00     0.140 C 
ATOM     14  O   UNL     1      -6.802  -0.727  10.625  1.00  0.00    -0.299 OA
BRANCH  13  15
ATOM     15  C   UNL     1      -4.897  -2.021  10.172  1.00  0.00     0.106 CG0
ATOM     16  G   UNL     1      -5.073  -3.515  10.381  1.00  0.00     0.000 G0
ENDBRANCH  13  15
ENDBRANCH  12  13
BRANCH  12  17
ATOM     17  C   UNL     1      -7.728  -0.264   8.020  1.00  0.00    -0.006 C 
ATOM     18  C   UNL     1      -8.003  -0.132   6.513  1.00  0.00     0.008 C 
ATOM     19  C   UNL     1      -9.054  -0.396   8.794  1.00  0.00     0.008 C 
ENDBRANCH  12  17
ENDBRANCH  11  12
ENDBRANCH   1  11
TORSDOF 1
ENDMDL
MODEL 3
REMARK VINA RESULT:    -2.794      1.863      3.181
REMARK INTER + INTRA:          -3.540
REMARK INTER:                  -3.513
REMARK INTRA:                  -0.026
REMARK UNBOUND:                 0.724
REMARK SMILES CC1=CCC[C@H](C)C(=O)C[C@@H](C(C)C)C(=O)C1
REMARK SMILES IDX 8 1 9 2 6 3 7 4 5 5 4 6 3 7 2 8 1 9 10 11 11 12 15 13 16 14
REMARK SMILES IDX 17 15 12 17 13 18 14 19
REMARK H PARENT
REMARK Flexibility Score: 70.00
ROOT
ATOM      1  C   UNL     1      -5.023  -4.100   7.358  1.00  0.00     0.136 C 
ATOM      2  O   UNL     1      -4.609  -5.246   7.254  1.00  0.00    -0.299 OA
ENDROOT
BRANCH   1   3
ATOM      3  C   UNL     1      -6.043  -3.577   6.367  1.00  0.00     0.053 C 
ATOM      4  C   UNL     1      -6.288  -4.653   5.302  1.00  0.00     0.016 C 
BRANCH   3   5
ATOM      5  C   UNL     1      -7.380  -3.178   7.038  1.00  0.00     0.015 C 
BRANCH   5   6
ATOM      6  C   UNL     1      -7.718  -1.682   6.933  1.00  0.00     0.028 C 
BRANCH   6   7
ATOM      7  C   UNL     1      -8.262  -1.116   8.223  1.00  0.00    -0.028 C 
ATOM      8  C   UNL     1      -7.537  -0.523   9.199  1.00  0.00    -0.070 CG0
ATOM      9  C   UNL     1      -8.290   0.112  10.344  1.00  0.00     0.039 C 
ATOM     10  G   UNL     1      -6.026  -0.380   9.146  1.00  0.00     0.000 G0
ENDBRANCH   6   7
ENDBRANCH   5   6
ENDBRANCH   3   5
ENDBRANCH   1   3
BRANCH   1  11
ATOM     11  C   UNL     1      -4.398  -3.183   8.385  1.00  0.00     0.087 C 
BRANCH  11  12
ATOM     12  C   UNL     1      -5.335  -2.896   9.592  1.00  0.00     0.066 C 
BRANCH  12  13
ATOM     13  C   UNL     1      -5.302  -1.416   9.980  1.00  0.00     0.140 C 
ATOM     14  O   UNL     1      -4.689  -1.051  10.974  1.00  0.00    -0.299 OA
BRANCH  13  15
ATOM     15  C   UNL     1      -6.015  -0.367   9.163  1.00  0.00     0.106 CG0
ATOM     16  G   UNL     1      -7.523  -0.547   9.182  1.00  0.00     0.000 G0
ENDBRANCH  13  15
ENDBRANCH  12  13
BRANCH  12  17
ATOM     17  C   UNL     1      -5.049  -3.834  10.813  1.00  0.00    -0.006 C 
ATOM     18  C   UNL     1      -6.241  -4.755  11.124  1.00  0.00     0.008 C 
ATOM     19  C   UNL     1      -3.761  -4.665  10.655  1.00  0.00     0.008 C 
ENDBRANCH  12  17
ENDBRANCH  11  12
ENDBRANCH   1  11
TORSDOF 1
ENDMDL
MODEL 4
REMARK VINA RESULT:    -2.787      1.462      3.460
REMARK INTER + INTRA:          -3.530
REMARK INTER:                  -5.670
REMARK INTRA:                   2.140
REMARK UNBOUND:                 0.724
REMARK SMILES CC1=CCC[C@H](C)C(=O)C[C@@H](C(C)C)C(=O)C1
REMARK SMILES IDX 8 1 9 2 6 3 7 4 5 5 4 6 3 7 2 8 1 9 10 11 11 12 15 13 16 14
REMARK SMILES IDX 17 15 12 17 13 18 14 19
REMARK H PARENT
REMARK Flexibility Score: 70.00
ROOT
ATOM      1  C   UNL     1      -6.328  -2.156  10.197  1.00  0.00     0.136 C 
ATOM      2  O   UNL     1      -6.175  -3.283  10.646  1.00  0.00    -0.299 OA
ENDROOT
BRANCH   1   3
ATOM      3  C   UNL     1      -7.543  -1.344  10.601  1.00  0.00     0.053 C 
ATOM      4  C   UNL     1      -7.126   0.124  10.746  1.00  0.00     0.016 C 
BRANCH   3   5
ATOM      5  C   UNL     1      -8.708  -1.468   9.588  1.00  0.00     0.015 C 
BRANCH   5   6
ATOM      6  C   UNL     1      -9.347  -0.127   9.194  1.00  0.00     0.028 C 
BRANCH   6   7
ATOM      7  C   UNL     1      -9.613  -0.022   7.710  1.00  0.00    -0.028 C 
ATOM      8  C   UNL     1      -8.697  -0.171   6.726  1.00  0.00    -0.070 CG0
ATOM      9  C   UNL     1      -9.194  -0.177   5.301  1.00  0.00     0.039 C 
ATOM     10  G   UNL     1      -7.224  -0.430   6.990  1.00  0.00     0.000 G0
ENDBRANCH   6   7
ENDBRANCH   5   6
ENDBRANCH   3   5
ENDBRANCH   1   3
BRANCH   1  11
ATOM     11  C   UNL     1      -5.378  -1.653   9.135  1.00  0.00     0.087 C 
BRANCH  11  12
ATOM     12  C   UNL     1      -5.580  -2.351   7.760  1.00  0.00     0.066 C 
BRANCH  12  13
ATOM     13  C   UNL     1      -6.870  -1.882   7.084  1.00  0.00     0.140 C 
ATOM     14  O   UNL     1      -7.666  -2.696   6.636  1.00  0.00    -0.299 OA
BRANCH  13  15
ATOM     15  C   UNL     1      -7.204  -0.417   6.946  1.00  0.00     0.106 CG0
ATOM     16  G   UNL     1      -8.689  -0.181   6.727  1.00  0.00     0.000 G0
ENDBRANCH  13  15
ENDBRANCH  12  13
BRANCH  12  17
ATOM     17  C   UNL     1      -5.498  -3.912   7.860  1.00  0.00    -0.006 C 
ATOM     18  C   UNL     1      -5.660  -4.587   6.488  1.00  0.00     0.008 C 
ATOM     19  C   UNL     1      -4.216  -4.412   8.553  1.00  0.00     0.008 C 
ENDBRANCH  12  17
ENDBRANCH  11  12
ENDBRANCH   1  11
TORSDOF 1
ENDMDL
MODEL 5
REMARK VINA RESULT:    -2.756      1.853      4.213
REMARK INTER + INTRA:          -3.482
REMARK INTER:                  -4.460
REMARK INTRA:                   0.978
REMARK UNBOUND:                 0.724
REMARK SMILES CC1=CCC[C@H](C)C(=O)C[C@@H](C(C)C)C(=O)C1
REMARK SMILES IDX 8 1 9 2 6 3 7 4 5 5 4 6 3 7 2 8 1 9 10 11 11 12 15 13 16 14
REMARK SMILES IDX 17 15 12 17 13 18 14 19
REMARK H PARENT
REMARK Flexibility Score: 70.00
ROOT
ATOM      1  C   UNL     1      -6.459  -3.435   6.957  1.00  0.00     0.136 C 
ATOM      2  O   UNL     1      -6.206  -3.342   5.764  1.00  0.00    -0.299 OA
ENDROOT
BRANCH   1   3
ATOM      3  C   UNL     1      -5.731  -4.462   7.801  1.00  0.00     0.053 C 
ATOM      4  C   UNL     1      -4.335  -4.684   7.207  1.00  0.00     0.016 C 
BRANCH   3   5
ATOM      5  C   UNL     1      -5.617  -4.041   9.287  1.00  0.00     0.015 C 
BRANCH   5   6
ATOM      6  C   UNL     1      -4.424  -3.121   9.592  1.00  0.00     0.028 C 
BRANCH   6   7
ATOM      7  C   UNL     1      -4.752  -2.064  10.620  1.00  0.00    -0.028 C 
ATOM      8  C   UNL     1      -5.233  -0.826  10.361  1.00  0.00    -0.070 CG0
ATOM      9  C   UNL     1      -5.638   0.029  11.537  1.00  0.00     0.039 C 
ATOM     10  G   UNL     1      -5.474  -0.302   8.956  1.00  0.00     0.000 G0
ENDBRANCH   6   7
ENDBRANCH   5   6
ENDBRANCH   3   5
ENDBRANCH   1   3
BRANCH   1  11
ATOM     11  C   UNL     1      -7.599  -2.626   7.532  1.00  0.00     0.087 C 
BRANCH  11  12
ATOM     12  C   UNL     1      -7.432  -1.096   7.304  1.00  0.00     0.066 C 
BRANCH  12  13
ATOM     13  C   UNL     1      -6.971  -0.392   8.581  1.00  0.00     0.140 C 
ATOM     14  O   UNL     1      -7.787   0.122   9.334  1.00  0.00    -0.299 OA
BRANCH  13  15
ATOM     15  C   UNL     1      -5.511  -0.306   8.955  1.00  0.00     0.106 CG0
ATOM     16  G   UNL     1      -5.244  -0.815  10.361  1.00  0.00     0.000 G0
ENDBRANCH  13  15
ENDBRANCH  12  13
BRANCH  12  17
ATOM     17  C   UNL     1      -8.714  -0.435   6.694  1.00  0.00    -0.006 C 
ATOM     18  C   UNL     1      -9.231  -1.204   5.467  1.00  0.00     0.008 C 
ATOM     19  C   UNL     1      -9.848  -0.243   7.719  1.00  0.00     0.008 C 
ENDBRANCH  12  17
ENDBRANCH  11  12
ENDBRANCH   1  11
TORSDOF 1
ENDMDL
MODEL 6
REMARK VINA RESULT:    -2.691      1.781      5.313
REMARK INTER + INTRA:          -3.383
REMARK INTER:                  -4.560
REMARK INTRA:                   1.177
REMARK UNBOUND:                 0.724
REMARK SMILES CC1=CCC[C@H](C)C(=O)C[C@@H](C(C)C)C(=O)C1
REMARK SMILES IDX 8 1 9 2 6 3 7 4 5 5 4 6 3 7 2 8 1 9 10 11 11 12 15 13 16 14
REMARK SMILES IDX 17 15 12 17 13 18 14 19
REMARK H PARENT
REMARK Flexibility Score: 70.00
ROOT
ATOM      1  C   UNL     1      -6.286  -2.780  10.470  1.00  0.00     0.136 C 
ATOM      2  O   UNL     1      -7.167  -3.558  10.807  1.00  0.00    -0.299 OA
ENDROOT
BRANCH   1   3
ATOM      3  C   UNL     1      -4.851  -3.260  10.387  1.00  0.00     0.053 C 
ATOM      4  C   UNL     1      -4.817  -4.760  10.706  1.00  0.00     0.016 C 
BRANCH   3   5
ATOM      5  C   UNL     1      -4.212  -2.997   9.001  1.00  0.00     0.015 C 
BRANCH   5   6
ATOM      6  C   UNL     1      -4.341  -4.168   8.014  1.00  0.00     0.028 C 
BRANCH   6   7
ATOM      7  C   UNL     1      -5.623  -4.120   7.217  1.00  0.00    -0.028 C 
ATOM      8  C   UNL     1      -6.318  -3.005   6.896  1.00  0.00    -0.070 CG0
ATOM      9  C   UNL     1      -7.496  -3.157   5.964  1.00  0.00     0.039 C 
ATOM     10  G   UNL     1      -5.913  -1.612   7.346  1.00  0.00     0.000 G0
ENDBRANCH   6   7
ENDBRANCH   5   6
ENDBRANCH   3   5
ENDBRANCH   1   3
BRANCH   1  11
ATOM     11  C   UNL     1      -6.627  -1.318  10.288  1.00  0.00     0.087 C 
BRANCH  11  12
ATOM     12  C   UNL     1      -7.729  -1.082   9.217  1.00  0.00     0.066 C 
BRANCH  12  13
ATOM     13  C   UNL     1      -7.118  -0.817   7.840  1.00  0.00     0.140 C 
ATOM     14  O   UNL     1      -7.578   0.055   7.115  1.00  0.00    -0.299 OA
BRANCH  13  15
ATOM     15  C   UNL     1      -5.940  -1.611   7.330  1.00  0.00     0.106 CG0
ATOM     16  G   UNL     1      -6.334  -3.011   6.891  1.00  0.00     0.000 G0
ENDBRANCH  13  15
ENDBRANCH  12  13
BRANCH  12  17
ATOM     17  C   UNL     1      -8.747   0.033   9.637  1.00  0.00    -0.006 C 
ATOM     18  C   UNL     1     -10.088  -0.104   8.899  1.00  0.00     0.008 C 
ATOM     19  C   UNL     1      -8.980   0.104  11.158  1.00  0.00     0.008 C 
ENDBRANCH  12  17
ENDBRANCH  11  12
ENDBRANCH   1  11
TORSDOF 1
ENDMDL
MODEL 7
REMARK VINA RESULT:    -2.445      2.184      3.595
REMARK INTER + INTRA:          -3.008
REMARK INTER:                  -3.926
REMARK INTRA:                   0.918
REMARK UNBOUND:                 0.724
REMARK SMILES CC1=CCC[C@H](C)C(=O)C[C@@H](C(C)C)C(=O)C1
REMARK SMILES IDX 8 1 9 2 6 3 7 4 5 5 4 6 3 7 2 8 1 9 10 11 11 12 15 13 16 14
REMARK SMILES IDX 17 15 12 17 13 18 14 19
REMARK H PARENT
REMARK Flexibility Score: 70.00
ROOT
ATOM      1  C   UNL     1      -7.550  -1.082   9.937  1.00  0.00     0.136 C 
ATOM      2  O   UNL     1      -7.281  -0.133  10.660  1.00  0.00    -0.299 OA
ENDROOT
BRANCH   1   3
ATOM      3  C   UNL     1      -8.608  -0.932   8.863  1.00  0.00     0.053 C 
ATOM      4  C   UNL     1      -9.935  -0.551   9.531  1.00  0.00     0.016 C 
BRANCH   3   5
ATOM      5  C   UNL     1      -8.229   0.122   7.794  1.00  0.00     0.015 C 
BRANCH   5   6
ATOM      6  C   UNL     1      -7.585  -0.465   6.528  1.00  0.00     0.028 C 
BRANCH   6   7
ATOM      7  C   UNL     1      -7.568  -1.976   6.530  1.00  0.00    -0.028 C 
ATOM      8  C   UNL     1      -6.515  -2.759   6.859  1.00  0.00    -0.070 CG0
ATOM      9  C   UNL     1      -6.748  -4.248   6.943  1.00  0.00     0.039 C 
ATOM     10  G   UNL     1      -5.153  -2.207   7.241  1.00  0.00     0.000 G0
ENDBRANCH   6   7
ENDBRANCH   5   6
ENDBRANCH   3   5
ENDBRANCH   1   3
BRANCH   1  11
ATOM     11  C   UNL     1      -6.926  -2.428  10.228  1.00  0.00     0.087 C 
BRANCH  11  12
ATOM     12  C   UNL     1      -5.413  -2.484   9.873  1.00  0.00     0.066 C 
BRANCH  12  13
ATOM     13  C   UNL     1      -5.101  -1.639   8.636  1.00  0.00     0.140 C 
ATOM     14  O   UNL     1      -4.811  -0.456   8.751  1.00  0.00    -0.299 OA
BRANCH  13  15
ATOM     15  C   UNL     1      -5.139  -2.226   7.247  1.00  0.00     0.106 CG0
ATOM     16  G   UNL     1      -6.521  -2.735   6.872  1.00  0.00     0.000 G0
ENDBRANCH  13  15
ENDBRANCH  12  13
BRANCH  12  17
ATOM     17  C   UNL     1      -4.880  -3.950   9.738  1.00  0.00    -0.006 C 
ATOM     18  C   UNL     1      -3.404  -3.991   9.311  1.00  0.00     0.008 C 
ATOM     19  C   UNL     1      -5.091  -4.796  11.009  1.00  0.00     0.008 C 
ENDBRANCH  12  17
ENDBRANCH  11  12
ENDBRANCH   1  11
TORSDOF 1
ENDMDL
MODEL 8
REMARK VINA RESULT:    -2.416      1.728      4.429
REMARK INTER + INTRA:          -2.964
REMARK INTER:                  -4.107
REMARK INTRA:                   1.143
REMARK UNBOUND:                 0.724
REMARK SMILES CC1=CCC[C@H](C)C(=O)C[C@@H](C(C)C)C(=O)C1
REMARK SMILES IDX 8 1 9 2 6 3 7 4 5 5 4 6 3 7 2 8 1 9 10 11 11 12 15 13 16 14
REMARK SMILES IDX 17 15 12 17 13 18 14 19
REMARK H PARENT
REMARK Flexibility Score: 70.00
ROOT
ATOM      1  C   UNL     1      -5.600  -3.627   9.817  1.00  0.00     0.136 C 
ATOM      2  O   UNL     1      -4.890  -4.089  10.699  1.00  0.00    -0.299 OA
ENDROOT
BRANCH   1   3
ATOM      3  C   UNL     1      -5.025  -3.399   8.433  1.00  0.00     0.053 C 
ATOM      4  C   UNL     1      -3.506  -3.599   8.494  1.00  0.00     0.016 C 
BRANCH   3   5
ATOM      5  C   UNL     1      -5.643  -4.338   7.368  1.00  0.00     0.015 C 
BRANCH   5   6
ATOM      6  C   UNL     1      -7.039  -3.911   6.884  1.00  0.00     0.028 C 
BRANCH   6   7
ATOM      7  C   UNL     1      -7.089  -2.465   6.452  1.00  0.00    -0.028 C 
ATOM      8  C   UNL     1      -7.798  -1.481   7.052  1.00  0.00    -0.070 CG0
ATOM      9  C   UNL     1      -7.596  -0.070   6.555  1.00  0.00     0.039 C 
ATOM     10  G   UNL     1      -8.699  -1.714   8.252  1.00  0.00     0.000 G0
ENDBRANCH   6   7
ENDBRANCH   5   6
ENDBRANCH   3   5
ENDBRANCH   1   3
BRANCH   1  11
ATOM     11  C   UNL     1      -6.993  -3.155  10.166  1.00  0.00     0.087 C 
BRANCH  11  12
ATOM     12  C   UNL     1      -7.075  -1.617  10.384  1.00  0.00     0.066 C 
BRANCH  12  13
ATOM     13  C   UNL     1      -8.166  -0.991   9.513  1.00  0.00     0.140 C 
ATOM     14  O   UNL     1      -8.642   0.098   9.804  1.00  0.00    -0.299 OA
BRANCH  13  15
ATOM     15  C   UNL     1      -8.688  -1.684   8.279  1.00  0.00     0.106 CG0
ATOM     16  G   UNL     1      -7.788  -1.474   7.073  1.00  0.00     0.000 G0
ENDBRANCH  13  15
ENDBRANCH  12  13
BRANCH  12  17
ATOM     17  C   UNL     1      -5.691  -0.908  10.200  1.00  0.00    -0.006 C 
ATOM     18  C   UNL     1      -5.608  -0.143   8.869  1.00  0.00     0.008 C 
ATOM     19  C   UNL     1      -5.321   0.020  11.373  1.00  0.00     0.008 C 
ENDBRANCH  12  17
ENDBRANCH  11  12
ENDBRANCH   1  11
TORSDOF 1
ENDMDL
MODEL 9
REMARK VINA RESULT:    -2.161     20.639     21.936
REMARK INTER + INTRA:          -2.574
REMARK INTER:                  -2.646
REMARK INTRA:                   0.073
REMARK UNBOUND:                 0.724
REMARK SMILES CC1=CCC[C@H](C)C(=O)C[C@@H](C(C)C)C(=O)C1
REMARK SMILES IDX 8 1 9 2 6 3 7 4 5 5 4 6 3 7 2 8 1 9 10 11 11 12 15 13 16 14
REMARK SMILES IDX 17 15 12 17 13 18 14 19
REMARK H PARENT
REMARK Flexibility Score: 70.00
ROOT
ATOM      1  C   UNL     1     -18.135 -17.660  14.530  1.00  0.00     0.136 C 
ATOM      2  O   UNL     1     -17.875 -16.888  13.618  1.00  0.00    -0.299 OA
ENDROOT
BRANCH   1   3
ATOM      3  C   UNL     1     -17.568 -19.066  14.510  1.00  0.00     0.053 C 
ATOM      4  C   UNL     1     -18.221 -19.874  15.637  1.00  0.00     0.016 C 
BRANCH   3   5
ATOM      5  C   UNL     1     -17.781 -19.777  13.151  1.00  0.00     0.015 C 
BRANCH   5   6
ATOM      6  C   UNL     1     -19.251 -20.089  12.826  1.00  0.00     0.028 C 
BRANCH   6   7
ATOM      7  C   UNL     1     -19.799 -19.224  11.716  1.00  0.00    -0.028 C 
ATOM      8  C   UNL     1     -20.879 -18.413  11.798  1.00  0.00    -0.070 CG0
ATOM      9  C   UNL     1     -21.174 -17.516  10.621  1.00  0.00     0.039 C 
ATOM     10  G   UNL     1     -21.739 -18.294  13.045  1.00  0.00     0.000 G0
ENDBRANCH   6   7
ENDBRANCH   5   6
ENDBRANCH   3   5
ENDBRANCH   1   3
BRANCH   1  11
ATOM     11  C   UNL     1     -19.136 -17.243  15.583  1.00  0.00     0.087 C 
BRANCH  11  12
ATOM     12  C   UNL     1     -20.543 -17.870  15.365  1.00  0.00     0.066 C 
BRANCH  12  13
ATOM     13  C   UNL     1     -21.187 -17.352  14.077  1.00  0.00     0.140 C 
ATOM     14  O   UNL     1     -21.256 -16.151  13.859  1.00  0.00    -0.299 OA
BRANCH  13  15
ATOM     15  C   UNL     1     -21.755 -18.293  13.043  1.00  0.00     0.106 CG0
ATOM     16  G   UNL     1     -20.871 -18.401  11.813  1.00  0.00     0.000 G0
ENDBRANCH  13  15
ENDBRANCH  12  13
BRANCH  12  17
ATOM     17  C   UNL     1     -21.479 -17.693  16.607  1.00  0.00    -0.006 C 
ATOM     18  C   UNL     1     -21.246 -18.784  17.665  1.00  0.00     0.008 C 
ATOM     19  C   UNL     1     -21.382 -16.297  17.252  1.00  0.00     0.008 C 
ENDBRANCH  12  17
ENDBRANCH  11  12
ENDBRANCH   1  11
TORSDOF 1
ENDMDL
