MODEL 1
REMARK VINA RESULT:    -3.204      0.000      0.000
REMARK INTER + INTRA:          -4.718
REMARK INTER:                  -4.328
REMARK INTRA:                  -0.389
REMARK UNBOUND:                -0.389
REMARK SMILES CCCCCCC=CC(=O)[O-]
REMARK SMILES IDX 5 1 6 2 7 3 8 4 9 5 10 6 11 7 4 8 3 9 2 10 1 11
REMARK H PARENT
REMARK Flexibility Score: inf
ROOT
ATOM      1  C   UNL     1     -14.123  58.934  -9.374  1.00  0.00     0.004 C 
ENDROOT
BRANCH   1   2
ATOM      2  C   UNL     1     -14.464  60.352  -9.856  1.00  0.00     0.027 C 
BRANCH   2   3
ATOM      3  C   UNL     1     -13.221  61.179 -10.038  1.00  0.00    -0.025 C 
ATOM      4  C   UNL     1     -13.090  62.483  -9.748  1.00  0.00     0.020 C 
BRANCH   4   5
ATOM      5  C   UNL     1     -14.121  63.360  -9.154  1.00  0.00     0.064 C 
ATOM      6  O   UNL     1     -13.967  63.766  -7.972  1.00  0.00    -0.545 OA
ATOM      7  O   UNL     1     -15.267  63.733  -9.844  1.00  0.00    -0.545 OA
ENDBRANCH   4   5
ENDBRANCH   2   3
ENDBRANCH   1   2
BRANCH   1   8
ATOM      8  C   UNL     1     -12.626  58.756  -9.074  1.00  0.00     0.000 C 
BRANCH   8   9
ATOM      9  C   UNL     1     -11.997  57.612  -9.891  1.00  0.00    -0.000 C 
BRANCH   9  10
ATOM     10  C   UNL     1     -12.906  56.376  -9.966  1.00  0.00    -0.003 C 
ATOM     11  C   UNL     1     -12.228  55.108  -9.447  1.00  0.00     0.004 C 
ENDBRANCH   9  10
ENDBRANCH   8   9
ENDBRANCH   1   8
TORSDOF 6
ENDMDL
