MODEL 1
REMARK VINA RESULT:    -7.901      0.000      0.000
REMARK INTER + INTRA:          -9.348
REMARK INTER:                  -9.518
REMARK INTRA:                   0.170
REMARK UNBOUND:                 0.170
REMARK SMILES O=c1c(O)c(-c2ccc(O)c(O)c2)oc2cc(O)cc(O)c12
REMARK SMILES IDX 5 1 3 2 2 3 1 4 22 5 20 6 19 7 17 8 16 9 15 10 14 11 6 12
REMARK SMILES IDX 7 13 8 14 9 15 13 16 11 17 10 18 12 20 4 22 21 24 18 26
REMARK H PARENT 10 19 12 21 4 23 21 25 18 27
REMARK Flexibility Score: inf
ROOT
ATOM      1  C   UNL     1     -37.809  12.760   8.870  1.00  0.00     0.180 A 
ATOM      2  C   UNL     1     -38.068  11.406   9.145  1.00  0.00     0.208 A 
ATOM      3  C   UNL     1     -39.178  11.072   9.937  1.00  0.00     0.238 A 
ATOM      4  O   UNL     1     -39.436   9.856  10.134  1.00  0.00    -0.285 OA
ATOM      5  C   UNL     1     -40.005  12.096  10.459  1.00  0.00     0.111 A 
ATOM      6  C   UNL     1     -41.132  11.875  11.305  1.00  0.00     0.134 A 
ATOM      7  C   UNL     1     -41.955  12.953  11.655  1.00  0.00     0.093 A 
ATOM      8  C   UNL     1     -41.654  14.252  11.241  1.00  0.00     0.123 A 
ATOM      9  C   UNL     1     -40.523  14.486  10.464  1.00  0.00     0.094 A 
ATOM     10  C   UNL     1     -39.703  13.427  10.068  1.00  0.00     0.146 A 
ATOM     11  O   UNL     1     -38.640  13.693   9.318  1.00  0.00    -0.452 OA
ENDROOT
BRANCH   1  12
ATOM     12  C   UNL     1     -36.644  13.191   8.063  1.00  0.00     0.025 A 
ATOM     13  C   UNL     1     -35.411  12.540   8.228  1.00  0.00     0.016 A 
ATOM     14  C   UNL     1     -34.304  12.917   7.464  1.00  0.00     0.051 A 
ATOM     15  C   UNL     1     -34.414  13.938   6.514  1.00  0.00     0.157 A 
ATOM     16  C   UNL     1     -36.759  14.203   7.094  1.00  0.00     0.062 A 
ATOM     17  C   UNL     1     -35.649  14.582   6.324  1.00  0.00     0.158 A 
BRANCH  15  18
ATOM     18  O   UNL     1     -33.292  14.295   5.768  1.00  0.00    -0.504 OA
ATOM     19  H   UNL     1     -33.364  14.807   4.897  1.00  0.00     0.293 HD
ENDBRANCH  15  18
BRANCH  17  20
ATOM     20  O   UNL     1     -35.769  15.591   5.370  1.00  0.00    -0.504 OA
ATOM     21  H   UNL     1     -36.116  15.400   4.436  1.00  0.00     0.293 HD
ENDBRANCH  17  20
ENDBRANCH   1  12
BRANCH   2  22
ATOM     22  O   UNL     1     -37.251  10.410   8.602  1.00  0.00    -0.502 OA
ATOM     23  H   UNL     1     -36.348  10.174   8.996  1.00  0.00     0.293 HD
ENDBRANCH   2  22
BRANCH   6  24
ATOM     24  O   UNL     1     -41.467  10.631  11.849  1.00  0.00    -0.507 OA
ATOM     25  H   UNL     1     -41.347  10.376  12.817  1.00  0.00     0.293 HD
ENDBRANCH   6  24
BRANCH   8  26
ATOM     26  O   UNL     1     -42.470  15.321  11.607  1.00  0.00    -0.508 OA
ATOM     27  H   UNL     1     -43.353  15.497  11.143  1.00  0.00     0.293 HD
ENDBRANCH   8  26
TORSDOF 6
ENDMDL
MODEL 2
REMARK VINA RESULT:    -7.837      5.506     11.559
REMARK INTER + INTRA:          -9.271
REMARK INTER:                  -9.557
REMARK INTRA:                   0.286
REMARK UNBOUND:                 0.170
REMARK SMILES O=c1c(O)c(-c2ccc(O)c(O)c2)oc2cc(O)cc(O)c12
REMARK SMILES IDX 5 1 3 2 2 3 1 4 22 5 20 6 19 7 17 8 16 9 15 10 14 11 6 12
REMARK SMILES IDX 7 13 8 14 9 15 13 16 11 17 10 18 12 20 4 22 21 24 18 26
REMARK H PARENT 10 19 12 21 4 23 21 25 18 27
REMARK Flexibility Score: inf
ROOT
ATOM      1  C   UNL     1     -32.212  14.909   3.074  1.00  0.00     0.180 A 
ATOM      2  C   UNL     1     -32.592  15.005   1.725  1.00  0.00     0.208 A 
ATOM      3  C   UNL     1     -31.596  15.167   0.748  1.00  0.00     0.238 A 
ATOM      4  O   UNL     1     -31.938  15.198  -0.464  1.00  0.00    -0.285 OA
ATOM      5  C   UNL     1     -30.237  15.248   1.133  1.00  0.00     0.111 A 
ATOM      6  C   UNL     1     -29.149  15.451   0.232  1.00  0.00     0.134 A 
ATOM      7  C   UNL     1     -27.834  15.383   0.709  1.00  0.00     0.093 A 
ATOM      8  C   UNL     1     -27.570  15.183   2.066  1.00  0.00     0.123 A 
ATOM      9  C   UNL     1     -28.626  15.043   2.963  1.00  0.00     0.094 A 
ATOM     10  C   UNL     1     -29.948  15.070   2.512  1.00  0.00     0.146 A 
ATOM     11  O   UNL     1     -30.924  14.922   3.399  1.00  0.00    -0.452 OA
ENDROOT
BRANCH   1  12
ATOM     12  C   UNL     1     -33.206  14.763   4.164  1.00  0.00     0.025 A 
ATOM     13  C   UNL     1     -34.474  15.348   4.025  1.00  0.00     0.016 A 
ATOM     14  C   UNL     1     -35.433  15.205   5.030  1.00  0.00     0.051 A 
ATOM     15  C   UNL     1     -35.146  14.465   6.181  1.00  0.00     0.157 A 
ATOM     16  C   UNL     1     -32.925  14.001   5.312  1.00  0.00     0.062 A 
ATOM     17  C   UNL     1     -33.888  13.856   6.323  1.00  0.00     0.158 A 
BRANCH  15  18
ATOM     18  O   UNL     1     -36.122  14.343   7.170  1.00  0.00    -0.504 OA
ATOM     19  H   UNL     1     -36.470  13.442   7.475  1.00  0.00     0.293 HD
ENDBRANCH  15  18
BRANCH  17  20
ATOM     20  O   UNL     1     -33.600  13.105   7.461  1.00  0.00    -0.504 OA
ATOM     21  H   UNL     1     -34.281  12.471   7.865  1.00  0.00     0.293 HD
ENDBRANCH  17  20
ENDBRANCH   1  12
BRANCH   2  22
ATOM     22  O   UNL     1     -33.938  14.902   1.364  1.00  0.00    -0.502 OA
ATOM     23  H   UNL     1     -34.236  14.494   0.486  1.00  0.00     0.293 HD
ENDBRANCH   2  22
BRANCH   6  24
ATOM     24  O   UNL     1     -29.306  15.749  -1.125  1.00  0.00    -0.507 OA
ATOM     25  H   UNL     1     -28.589  16.144  -1.714  1.00  0.00     0.293 HD
ENDBRANCH   6  24
BRANCH   8  26
ATOM     26  O   UNL     1     -26.259  15.134   2.535  1.00  0.00    -0.508 OA
ATOM     27  H   UNL     1     -26.051  15.103   3.527  1.00  0.00     0.293 HD
ENDBRANCH   8  26
TORSDOF 6
ENDMDL
MODEL 3
REMARK VINA RESULT:    -7.677      1.125      1.340
REMARK INTER + INTRA:          -9.078
REMARK INTER:                  -8.966
REMARK INTRA:                  -0.113
REMARK UNBOUND:                 0.170
REMARK SMILES O=c1c(O)c(-c2ccc(O)c(O)c2)oc2cc(O)cc(O)c12
REMARK SMILES IDX 5 1 3 2 2 3 1 4 22 5 20 6 19 7 17 8 16 9 15 10 14 11 6 12
REMARK SMILES IDX 7 13 8 14 9 15 13 16 11 17 10 18 12 20 4 22 21 24 18 26
REMARK H PARENT 10 19 12 21 4 23 21 25 18 27
REMARK Flexibility Score: inf
ROOT
ATOM      1  C   UNL     1     -36.845  12.919   7.984  1.00  0.00     0.180 A 
ATOM      2  C   UNL     1     -37.080  11.549   8.194  1.00  0.00     0.208 A 
ATOM      3  C   UNL     1     -38.158  11.161   9.007  1.00  0.00     0.238 A 
ATOM      4  O   UNL     1     -38.397   9.933   9.147  1.00  0.00    -0.285 OA
ATOM      5  C   UNL     1     -38.974  12.145   9.613  1.00  0.00     0.111 A 
ATOM      6  C   UNL     1     -40.068  11.866  10.486  1.00  0.00     0.134 A 
ATOM      7  C   UNL     1     -40.888  12.914  10.923  1.00  0.00     0.093 A 
ATOM      8  C   UNL     1     -40.615  14.237  10.569  1.00  0.00     0.123 A 
ATOM      9  C   UNL     1     -39.515  14.526   9.766  1.00  0.00     0.094 A 
ATOM     10  C   UNL     1     -38.700  13.499   9.284  1.00  0.00     0.146 A 
ATOM     11  O   UNL     1     -37.668  13.817   8.512  1.00  0.00    -0.452 OA
ENDROOT
BRANCH   1  12
ATOM     12  C   UNL     1     -35.714  13.406   7.161  1.00  0.00     0.025 A 
ATOM     13  C   UNL     1     -34.400  13.077   7.529  1.00  0.00     0.016 A 
ATOM     14  C   UNL     1     -33.319  13.509   6.756  1.00  0.00     0.051 A 
ATOM     15  C   UNL     1     -33.535  14.262   5.597  1.00  0.00     0.157 A 
ATOM     16  C   UNL     1     -35.930  14.146   5.984  1.00  0.00     0.062 A 
ATOM     17  C   UNL     1     -34.847  14.579   5.206  1.00  0.00     0.158 A 
BRANCH  15  18
ATOM     18  O   UNL     1     -32.436  14.682   4.847  1.00  0.00    -0.504 OA
ATOM     19  H   UNL     1     -31.782  15.373   5.192  1.00  0.00     0.293 HD
ENDBRANCH  15  18
BRANCH  17  20
ATOM     20  O   UNL     1     -35.069  15.317   4.045  1.00  0.00    -0.504 OA
ATOM     21  H   UNL     1     -34.474  16.099   3.790  1.00  0.00     0.293 HD
ENDBRANCH  17  20
ENDBRANCH   1  12
BRANCH   2  22
ATOM     22  O   UNL     1     -36.274  10.594   7.570  1.00  0.00    -0.502 OA
ATOM     23  H   UNL     1     -36.001   9.731   8.026  1.00  0.00     0.293 HD
ENDBRANCH   2  22
BRANCH   6  24
ATOM     24  O   UNL     1     -40.371  10.592  10.973  1.00  0.00    -0.507 OA
ATOM     25  H   UNL     1     -41.277  10.306  11.313  1.00  0.00     0.293 HD
ENDBRANCH   6  24
BRANCH   8  26
ATOM     26  O   UNL     1     -41.427  15.276  11.022  1.00  0.00    -0.508 OA
ATOM     27  H   UNL     1     -41.171  16.247  10.886  1.00  0.00     0.293 HD
ENDBRANCH   8  26
TORSDOF 6
ENDMDL
MODEL 4
REMARK VINA RESULT:    -7.620      2.599      7.332
REMARK INTER + INTRA:          -9.009
REMARK INTER:                  -8.843
REMARK INTRA:                  -0.167
REMARK UNBOUND:                 0.170
REMARK SMILES O=c1c(O)c(-c2ccc(O)c(O)c2)oc2cc(O)cc(O)c12
REMARK SMILES IDX 5 1 3 2 2 3 1 4 22 5 20 6 19 7 17 8 16 9 15 10 14 11 6 12
REMARK SMILES IDX 7 13 8 14 9 15 13 16 11 17 10 18 12 20 4 22 21 24 18 26
REMARK H PARENT 10 19 12 21 4 23 21 25 18 27
REMARK Flexibility Score: inf
ROOT
ATOM      1  C   UNL     1     -38.139  11.532   8.201  1.00  0.00     0.180 A 
ATOM      2  C   UNL     1     -36.894  12.101   8.518  1.00  0.00     0.208 A 
ATOM      3  C   UNL     1     -35.959  12.307   7.491  1.00  0.00     0.238 A 
ATOM      4  O   UNL     1     -34.866  12.867   7.772  1.00  0.00    -0.285 OA
ATOM      5  C   UNL     1     -36.273  11.928   6.165  1.00  0.00     0.111 A 
ATOM      6  C   UNL     1     -35.387  12.054   5.053  1.00  0.00     0.134 A 
ATOM      7  C   UNL     1     -35.851  11.768   3.763  1.00  0.00     0.093 A 
ATOM      8  C   UNL     1     -37.150  11.299   3.553  1.00  0.00     0.123 A 
ATOM      9  C   UNL     1     -38.003  11.116   4.638  1.00  0.00     0.094 A 
ATOM     10  C   UNL     1     -37.581  11.427   5.933  1.00  0.00     0.146 A 
ATOM     11  O   UNL     1     -38.431  11.248   6.937  1.00  0.00    -0.452 OA
ENDROOT
BRANCH   1  12
ATOM     12  C   UNL     1     -39.167  11.261   9.233  1.00  0.00     0.025 A 
ATOM     13  C   UNL     1     -40.426  11.873   9.131  1.00  0.00     0.016 A 
ATOM     14  C   UNL     1     -41.417  11.615  10.082  1.00  0.00     0.051 A 
ATOM     15  C   UNL     1     -41.172  10.732  11.138  1.00  0.00     0.157 A 
ATOM     16  C   UNL     1     -38.928  10.357  10.284  1.00  0.00     0.062 A 
ATOM     17  C   UNL     1     -39.923  10.096  11.238  1.00  0.00     0.158 A 
BRANCH  15  18
ATOM     18  O   UNL     1     -42.179  10.496  12.073  1.00  0.00    -0.504 OA
ATOM     19  H   UNL     1     -42.928   9.836  11.903  1.00  0.00     0.293 HD
ENDBRANCH  15  18
BRANCH  17  20
ATOM     20  O   UNL     1     -39.676   9.203  12.281  1.00  0.00    -0.504 OA
ATOM     21  H   UNL     1     -39.399   9.526  13.201  1.00  0.00     0.293 HD
ENDBRANCH  17  20
ENDBRANCH   1  12
BRANCH   2  22
ATOM     22  O   UNL     1     -36.612  12.488   9.831  1.00  0.00    -0.502 OA
ATOM     23  H   UNL     1     -37.335  12.779  10.479  1.00  0.00     0.293 HD
ENDBRANCH   2  22
BRANCH   6  24
ATOM     24  O   UNL     1     -34.044  12.426   5.165  1.00  0.00    -0.507 OA
ATOM     25  H   UNL     1     -33.265  11.868   4.852  1.00  0.00     0.293 HD
ENDBRANCH   6  24
BRANCH   8  26
ATOM     26  O   UNL     1     -37.599  11.001   2.268  1.00  0.00    -0.508 OA
ATOM     27  H   UNL     1     -38.102  10.145   2.067  1.00  0.00     0.293 HD
ENDBRANCH   8  26
TORSDOF 6
ENDMDL
MODEL 5
REMARK VINA RESULT:    -7.469      2.181      7.153
REMARK INTER + INTRA:          -8.828
REMARK INTER:                  -8.506
REMARK INTRA:                  -0.322
REMARK UNBOUND:                 0.170
REMARK SMILES O=c1c(O)c(-c2ccc(O)c(O)c2)oc2cc(O)cc(O)c12
REMARK SMILES IDX 5 1 3 2 2 3 1 4 22 5 20 6 19 7 17 8 16 9 15 10 14 11 6 12
REMARK SMILES IDX 7 13 8 14 9 15 13 16 11 17 10 18 12 20 4 22 21 24 18 26
REMARK H PARENT 10 19 12 21 4 23 21 25 18 27
REMARK Flexibility Score: inf
ROOT
ATOM      1  C   UNL     1     -38.334  11.615   7.882  1.00  0.00     0.180 A 
ATOM      2  C   UNL     1     -38.652  10.978   6.670  1.00  0.00     0.208 A 
ATOM      3  C   UNL     1     -37.792  11.139   5.571  1.00  0.00     0.238 A 
ATOM      4  O   UNL     1     -38.053  10.523   4.505  1.00  0.00    -0.285 OA
ATOM      5  C   UNL     1     -36.637  11.947   5.692  1.00  0.00     0.111 A 
ATOM      6  C   UNL     1     -35.718  12.212   4.633  1.00  0.00     0.134 A 
ATOM      7  C   UNL     1     -34.539  12.919   4.901  1.00  0.00     0.093 A 
ATOM      8  C   UNL     1     -34.278  13.425   6.177  1.00  0.00     0.123 A 
ATOM      9  C   UNL     1     -35.197  13.223   7.203  1.00  0.00     0.094 A 
ATOM     10  C   UNL     1     -36.364  12.491   6.975  1.00  0.00     0.146 A 
ATOM     11  O   UNL     1     -37.208  12.312   7.984  1.00  0.00    -0.452 OA
ENDROOT
BRANCH   1  12
ATOM     12  C   UNL     1     -39.203  11.513   9.077  1.00  0.00     0.025 A 
ATOM     13  C   UNL     1     -40.227  12.454   9.268  1.00  0.00     0.016 A 
ATOM     14  C   UNL     1     -41.072  12.365  10.377  1.00  0.00     0.051 A 
ATOM     15  C   UNL     1     -40.918  11.329  11.303  1.00  0.00     0.157 A 
ATOM     16  C   UNL     1     -39.062  10.460   9.998  1.00  0.00     0.062 A 
ATOM     17  C   UNL     1     -39.910  10.369  11.112  1.00  0.00     0.158 A 
BRANCH  15  18
ATOM     18  O   UNL     1     -41.774  11.269  12.402  1.00  0.00    -0.504 OA
ATOM     19  H   UNL     1     -41.481  10.884  13.292  1.00  0.00     0.293 HD
ENDBRANCH  15  18
BRANCH  17  20
ATOM     20  O   UNL     1     -39.759   9.325  12.024  1.00  0.00    -0.504 OA
ATOM     21  H   UNL     1     -40.279   8.459  11.930  1.00  0.00     0.293 HD
ENDBRANCH  17  20
ENDBRANCH   1  12
BRANCH   2  22
ATOM     22  O   UNL     1     -39.786  10.168   6.579  1.00  0.00    -0.502 OA
ATOM     23  H   UNL     1     -40.305  10.054   5.716  1.00  0.00     0.293 HD
ENDBRANCH   2  22
BRANCH   6  24
ATOM     24  O   UNL     1     -35.928  11.831   3.305  1.00  0.00    -0.507 OA
ATOM     25  H   UNL     1     -35.196  11.617   2.645  1.00  0.00     0.293 HD
ENDBRANCH   6  24
BRANCH   8  26
ATOM     26  O   UNL     1     -33.110  14.142   6.431  1.00  0.00    -0.508 OA
ATOM     27  H   UNL     1     -32.851  14.949   5.875  1.00  0.00     0.293 HD
ENDBRANCH   8  26
TORSDOF 6
ENDMDL
MODEL 6
REMARK VINA RESULT:    -7.460      6.780     10.299
REMARK INTER + INTRA:          -8.816
REMARK INTER:                  -8.752
REMARK INTRA:                  -0.064
REMARK UNBOUND:                 0.170
REMARK SMILES O=c1c(O)c(-c2ccc(O)c(O)c2)oc2cc(O)cc(O)c12
REMARK SMILES IDX 5 1 3 2 2 3 1 4 22 5 20 6 19 7 17 8 16 9 15 10 14 11 6 12
REMARK SMILES IDX 7 13 8 14 9 15 13 16 11 17 10 18 12 20 4 22 21 24 18 26
REMARK H PARENT 10 19 12 21 4 23 21 25 18 27
REMARK Flexibility Score: inf
ROOT
ATOM      1  C   UNL     1     -31.275  14.077   1.110  1.00  0.00     0.180 A 
ATOM      2  C   UNL     1     -31.843  12.989   0.425  1.00  0.00     0.208 A 
ATOM      3  C   UNL     1     -33.047  12.441   0.897  1.00  0.00     0.238 A 
ATOM      4  O   UNL     1     -33.579  11.503   0.248  1.00  0.00    -0.285 OA
ATOM      5  C   UNL     1     -33.658  12.976   2.056  1.00  0.00     0.111 A 
ATOM      6  C   UNL     1     -34.857  12.473   2.645  1.00  0.00     0.134 A 
ATOM      7  C   UNL     1     -35.442  13.162   3.715  1.00  0.00     0.093 A 
ATOM      8  C   UNL     1     -34.836  14.298   4.257  1.00  0.00     0.123 A 
ATOM      9  C   UNL     1     -33.635  14.761   3.727  1.00  0.00     0.094 A 
ATOM     10  C   UNL     1     -33.046  14.118   2.637  1.00  0.00     0.146 A 
ATOM     11  O   UNL     1     -31.906  14.599   2.155  1.00  0.00    -0.452 OA
ENDROOT
BRANCH   1  12
ATOM     12  C   UNL     1     -29.995  14.693   0.688  1.00  0.00     0.025 A 
ATOM     13  C   UNL     1     -29.881  15.232  -0.603  1.00  0.00     0.016 A 
ATOM     14  C   UNL     1     -28.691  15.836  -1.015  1.00  0.00     0.051 A 
ATOM     15  C   UNL     1     -27.603  15.923  -0.141  1.00  0.00     0.157 A 
ATOM     16  C   UNL     1     -28.908  14.800   1.573  1.00  0.00     0.062 A 
ATOM     17  C   UNL     1     -27.712  15.407   1.162  1.00  0.00     0.158 A 
BRANCH  15  18
ATOM     18  O   UNL     1     -26.426  16.528  -0.581  1.00  0.00    -0.504 OA
ATOM     19  H   UNL     1     -25.973  17.268  -0.058  1.00  0.00     0.293 HD
ENDBRANCH  15  18
BRANCH  17  20
ATOM     20  O   UNL     1     -26.636  15.503   2.043  1.00  0.00    -0.504 OA
ATOM     21  H   UNL     1     -25.679  15.550   1.709  1.00  0.00     0.293 HD
ENDBRANCH  17  20
ENDBRANCH   1  12
BRANCH   2  22
ATOM     22  O   UNL     1     -31.234  12.491  -0.730  1.00  0.00    -0.502 OA
ATOM     23  H   UNL     1     -30.228  12.448  -0.838  1.00  0.00     0.293 HD
ENDBRANCH   2  22
BRANCH   6  24
ATOM     24  O   UNL     1     -35.491  11.296   2.239  1.00  0.00    -0.507 OA
ATOM     25  H   UNL     1     -36.370  10.962   2.603  1.00  0.00     0.293 HD
ENDBRANCH   6  24
BRANCH   8  26
ATOM     26  O   UNL     1     -35.417  14.968   5.333  1.00  0.00    -0.508 OA
ATOM     27  H   UNL     1     -36.380  14.803   5.603  1.00  0.00     0.293 HD
ENDBRANCH   8  26
TORSDOF 6
ENDMDL
MODEL 7
REMARK VINA RESULT:    -7.439      4.686     10.449
REMARK INTER + INTRA:          -8.791
REMARK INTER:                  -8.500
REMARK INTRA:                  -0.291
REMARK UNBOUND:                 0.170
REMARK SMILES O=c1c(O)c(-c2ccc(O)c(O)c2)oc2cc(O)cc(O)c12
REMARK SMILES IDX 5 1 3 2 2 3 1 4 22 5 20 6 19 7 17 8 16 9 15 10 14 11 6 12
REMARK SMILES IDX 7 13 8 14 9 15 13 16 11 17 10 18 12 20 4 22 21 24 18 26
REMARK H PARENT 10 19 12 21 4 23 21 25 18 27
REMARK Flexibility Score: inf
ROOT
ATOM      1  C   UNL     1     -33.765  14.250   3.403  1.00  0.00     0.180 A 
ATOM      2  C   UNL     1     -34.263  14.127   2.094  1.00  0.00     0.208 A 
ATOM      3  C   UNL     1     -33.406  14.385   1.012  1.00  0.00     0.238 A 
ATOM      4  O   UNL     1     -33.843  14.221  -0.157  1.00  0.00    -0.285 OA
ATOM      5  C   UNL     1     -32.068  14.780   1.251  1.00  0.00     0.111 A 
ATOM      6  C   UNL     1     -31.124  15.105   0.232  1.00  0.00     0.134 A 
ATOM      7  C   UNL     1     -29.790  15.356   0.579  1.00  0.00     0.093 A 
ATOM      8  C   UNL     1     -29.382  15.355   1.915  1.00  0.00     0.123 A 
ATOM      9  C   UNL     1     -30.309  15.098   2.921  1.00  0.00     0.094 A 
ATOM     10  C   UNL     1     -31.639  14.808   2.605  1.00  0.00     0.146 A 
ATOM     11  O   UNL     1     -32.487  14.558   3.594  1.00  0.00    -0.452 OA
ENDROOT
BRANCH   1  12
ATOM     12  C   UNL     1     -34.614  14.019   4.595  1.00  0.00     0.025 A 
ATOM     13  C   UNL     1     -35.187  15.116   5.257  1.00  0.00     0.016 A 
ATOM     14  C   UNL     1     -36.007  14.920   6.370  1.00  0.00     0.051 A 
ATOM     15  C   UNL     1     -36.280  13.628   6.830  1.00  0.00     0.157 A 
ATOM     16  C   UNL     1     -34.905  12.719   5.044  1.00  0.00     0.062 A 
ATOM     17  C   UNL     1     -35.730  12.521   6.162  1.00  0.00     0.158 A 
BRANCH  15  18
ATOM     18  O   UNL     1     -37.100  13.464   7.946  1.00  0.00    -0.504 OA
ATOM     19  H   UNL     1     -36.826  13.785   8.867  1.00  0.00     0.293 HD
ENDBRANCH  15  18
BRANCH  17  20
ATOM     20  O   UNL     1     -36.009  11.229   6.606  1.00  0.00    -0.504 OA
ATOM     21  H   UNL     1     -36.746  10.672   6.188  1.00  0.00     0.293 HD
ENDBRANCH  17  20
ENDBRANCH   1  12
BRANCH   2  22
ATOM     22  O   UNL     1     -35.581  13.716   1.881  1.00  0.00    -0.502 OA
ATOM     23  H   UNL     1     -35.931  13.465   0.963  1.00  0.00     0.293 HD
ENDBRANCH   2  22
BRANCH   6  24
ATOM     24  O   UNL     1     -31.449  15.223  -1.123  1.00  0.00    -0.507 OA
ATOM     25  H   UNL     1     -32.381  15.140  -1.500  1.00  0.00     0.293 HD
ENDBRANCH   6  24
BRANCH   8  26
ATOM     26  O   UNL     1     -28.057  15.622   2.253  1.00  0.00    -0.508 OA
ATOM     27  H   UNL     1     -27.766  16.537   2.577  1.00  0.00     0.293 HD
ENDBRANCH   8  26
TORSDOF 6
ENDMDL
MODEL 8
REMARK VINA RESULT:    -7.399      7.121     10.184
REMARK INTER + INTRA:          -8.743
REMARK INTER:                  -8.543
REMARK INTRA:                  -0.201
REMARK UNBOUND:                 0.170
REMARK SMILES O=c1c(O)c(-c2ccc(O)c(O)c2)oc2cc(O)cc(O)c12
REMARK SMILES IDX 5 1 3 2 2 3 1 4 22 5 20 6 19 7 17 8 16 9 15 10 14 11 6 12
REMARK SMILES IDX 7 13 8 14 9 15 13 16 11 17 10 18 12 20 4 22 21 24 18 26
REMARK H PARENT 10 19 12 21 4 23 21 25 18 27
REMARK Flexibility Score: inf
ROOT
ATOM      1  C   UNL     1     -31.775  14.378   1.627  1.00  0.00     0.180 A 
ATOM      2  C   UNL     1     -32.412  15.162   2.604  1.00  0.00     0.208 A 
ATOM      3  C   UNL     1     -33.594  14.684   3.195  1.00  0.00     0.238 A 
ATOM      4  O   UNL     1     -34.130  15.365   4.108  1.00  0.00    -0.285 OA
ATOM      5  C   UNL     1     -34.131  13.440   2.790  1.00  0.00     0.111 A 
ATOM      6  C   UNL     1     -35.343  12.878   3.293  1.00  0.00     0.134 A 
ATOM      7  C   UNL     1     -35.711  11.579   2.917  1.00  0.00     0.093 A 
ATOM      8  C   UNL     1     -34.944  10.849   2.008  1.00  0.00     0.123 A 
ATOM      9  C   UNL     1     -33.791  11.411   1.466  1.00  0.00     0.094 A 
ATOM     10  C   UNL     1     -33.378  12.690   1.849  1.00  0.00     0.146 A 
ATOM     11  O   UNL     1     -32.267  13.184   1.316  1.00  0.00    -0.452 OA
ENDROOT
BRANCH   1  12
ATOM     12  C   UNL     1     -30.540  14.824   0.941  1.00  0.00     0.025 A 
ATOM     13  C   UNL     1     -30.600  15.204  -0.409  1.00  0.00     0.016 A 
ATOM     14  C   UNL     1     -29.453  15.648  -1.071  1.00  0.00     0.051 A 
ATOM     15  C   UNL     1     -28.233  15.734  -0.392  1.00  0.00     0.157 A 
ATOM     16  C   UNL     1     -29.318  14.931   1.628  1.00  0.00     0.062 A 
ATOM     17  C   UNL     1     -28.165  15.378   0.966  1.00  0.00     0.158 A 
BRANCH  15  18
ATOM     18  O   UNL     1     -27.104  16.177  -1.080  1.00  0.00    -0.504 OA
ATOM     19  H   UNL     1     -26.719  15.670  -1.867  1.00  0.00     0.293 HD
ENDBRANCH  15  18
BRANCH  17  20
ATOM     20  O   UNL     1     -26.956  15.474   1.652  1.00  0.00    -0.504 OA
ATOM     21  H   UNL     1     -26.835  16.117   2.427  1.00  0.00     0.293 HD
ENDBRANCH  17  20
ENDBRANCH   1  12
BRANCH   2  22
ATOM     22  O   UNL     1     -31.853  16.378   3.004  1.00  0.00    -0.502 OA
ATOM     23  H   UNL     1     -32.272  16.960   3.720  1.00  0.00     0.293 HD
ENDBRANCH   2  22
BRANCH   6  24
ATOM     24  O   UNL     1     -36.228  13.559   4.134  1.00  0.00    -0.507 OA
ATOM     25  H   UNL     1     -37.171  13.264   4.336  1.00  0.00     0.293 HD
ENDBRANCH   6  24
BRANCH   8  26
ATOM     26  O   UNL     1     -35.326   9.564   1.627  1.00  0.00    -0.508 OA
ATOM     27  H   UNL     1     -34.694   8.776   1.712  1.00  0.00     0.293 HD
ENDBRANCH   8  26
TORSDOF 6
ENDMDL
MODEL 9
REMARK VINA RESULT:    -7.282      2.113      6.830
REMARK INTER + INTRA:          -8.602
REMARK INTER:                  -8.359
REMARK INTRA:                  -0.243
REMARK UNBOUND:                 0.170
REMARK SMILES O=c1c(O)c(-c2ccc(O)c(O)c2)oc2cc(O)cc(O)c12
REMARK SMILES IDX 5 1 3 2 2 3 1 4 22 5 20 6 19 7 17 8 16 9 15 10 14 11 6 12
REMARK SMILES IDX 7 13 8 14 9 15 13 16 11 17 10 18 12 20 4 22 21 24 18 26
REMARK H PARENT 10 19 12 21 4 23 21 25 18 27
REMARK Flexibility Score: inf
ROOT
ATOM      1  C   UNL     1     -39.294  11.798   8.626  1.00  0.00     0.180 A 
ATOM      2  C   UNL     1     -39.658  10.980   7.542  1.00  0.00     0.208 A 
ATOM      3  C   UNL     1     -38.762  10.830   6.472  1.00  0.00     0.238 A 
ATOM      4  O   UNL     1     -39.071  10.054   5.530  1.00  0.00    -0.285 OA
ATOM      5  C   UNL     1     -37.521  11.510   6.490  1.00  0.00     0.111 A 
ATOM      6  C   UNL     1     -36.554  11.462   5.442  1.00  0.00     0.134 A 
ATOM      7  C   UNL     1     -35.305  12.069   5.625  1.00  0.00     0.093 A 
ATOM      8  C   UNL     1     -35.014  12.778   6.792  1.00  0.00     0.123 A 
ATOM      9  C   UNL     1     -35.973  12.881   7.796  1.00  0.00     0.094 A 
ATOM     10  C   UNL     1     -37.214  12.255   7.659  1.00  0.00     0.146 A 
ATOM     11  O   UNL     1     -38.095  12.370   8.645  1.00  0.00    -0.452 OA
ENDROOT
BRANCH   1  12
ATOM     12  C   UNL     1     -40.195  12.026   9.780  1.00  0.00     0.025 A 
ATOM     13  C   UNL     1     -40.366  11.010  10.734  1.00  0.00     0.016 A 
ATOM     14  C   UNL     1     -41.195  11.212  11.840  1.00  0.00     0.051 A 
ATOM     15  C   UNL     1     -41.853  12.432  12.018  1.00  0.00     0.157 A 
ATOM     16  C   UNL     1     -40.841  13.260   9.970  1.00  0.00     0.062 A 
ATOM     17  C   UNL     1     -41.673  13.464  11.081  1.00  0.00     0.158 A 
BRANCH  15  18
ATOM     18  O   UNL     1     -42.677  12.603  13.130  1.00  0.00    -0.504 OA
ATOM     19  H   UNL     1     -43.681  12.475  13.081  1.00  0.00     0.293 HD
ENDBRANCH  15  18
BRANCH  17  20
ATOM     20  O   UNL     1     -42.315  14.689  11.260  1.00  0.00    -0.504 OA
ATOM     21  H   UNL     1     -41.858  15.465  11.727  1.00  0.00     0.293 HD
ENDBRANCH  17  20
ENDBRANCH   1  12
BRANCH   2  22
ATOM     22  O   UNL     1     -40.879  10.301   7.555  1.00  0.00    -0.502 OA
ATOM     23  H   UNL     1     -41.731  10.721   7.908  1.00  0.00     0.293 HD
ENDBRANCH   2  22
BRANCH   6  24
ATOM     24  O   UNL     1     -36.779  10.859   4.201  1.00  0.00    -0.507 OA
ATOM     25  H   UNL     1     -36.368  11.162   3.331  1.00  0.00     0.293 HD
ENDBRANCH   6  24
BRANCH   8  26
ATOM     26  O   UNL     1     -33.775  13.393   6.959  1.00  0.00    -0.508 OA
ATOM     27  H   UNL     1     -33.640  14.377   6.757  1.00  0.00     0.293 HD
ENDBRANCH   8  26
TORSDOF 6
ENDMDL
