MODEL 1
REMARK VINA RESULT:    -4.646      0.000      0.000
REMARK INTER + INTRA:          -7.570
REMARK INTER:                  -7.090
REMARK INTRA:                  -0.480
REMARK UNBOUND:                -0.480
REMARK SMILES CCCCCCCCCC=CC(=O)[O-]
REMARK SMILES IDX 7 1 8 2 9 3 10 4 11 5 12 6 13 7 14 8 6 9 5 10 4 11 3 12 2 13
REMARK SMILES IDX 1 14
REMARK H PARENT
REMARK Flexibility Score: inf
ROOT
ATOM      1  C   UNL     1      70.009 -37.643  10.124  1.00  0.00     0.000 C 
ENDROOT
BRANCH   1   2
ATOM      2  C   UNL     1      71.097 -38.569  10.691  1.00  0.00     0.004 C 
BRANCH   2   3
ATOM      3  C   UNL     1      71.896 -37.914  11.828  1.00  0.00     0.027 C 
BRANCH   3   4
ATOM      4  C   UNL     1      73.087 -37.169  11.295  1.00  0.00    -0.025 C 
ATOM      5  C   UNL     1      74.269 -37.770  11.128  1.00  0.00     0.020 C 
BRANCH   5   6
ATOM      6  C   UNL     1      75.446 -37.049  10.620  1.00  0.00     0.064 C 
ATOM      7  O   UNL     1      75.459 -36.641   9.429  1.00  0.00    -0.545 OA
ATOM      8  O   UNL     1      76.546 -36.811  11.435  1.00  0.00    -0.545 OA
ENDBRANCH   5   6
ENDBRANCH   3   4
ENDBRANCH   2   3
ENDBRANCH   1   2
BRANCH   1   9
ATOM      9  C   UNL     1      70.423 -36.985   8.800  1.00  0.00     0.000 C 
BRANCH   9  10
ATOM     10  C   UNL     1      69.202 -36.435   8.055  1.00  0.00     0.000 C 
BRANCH  10  11
ATOM     11  C   UNL     1      69.628 -35.508   6.906  1.00  0.00    -0.000 C 
BRANCH  11  12
ATOM     12  C   UNL     1      69.288 -34.030   7.171  1.00  0.00    -0.000 C 
BRANCH  12  13
ATOM     13  C   UNL     1      70.245 -33.019   6.515  1.00  0.00    -0.003 C 
ATOM     14  C   UNL     1      71.665 -33.090   7.074  1.00  0.00     0.004 C 
ENDBRANCH  12  13
ENDBRANCH  11  12
ENDBRANCH  10  11
ENDBRANCH   9  10
ENDBRANCH   1   9
TORSDOF 9
ENDMDL
MODEL 2
REMARK VINA RESULT:    -4.595      0.933      1.611
REMARK INTER + INTRA:          -7.492
REMARK INTER:                  -6.646
REMARK INTRA:                  -0.846
REMARK UNBOUND:                -0.480
REMARK SMILES CCCCCCCCCC=CC(=O)[O-]
REMARK SMILES IDX 7 1 8 2 9 3 10 4 11 5 12 6 13 7 14 8 6 9 5 10 4 11 3 12 2 13
REMARK SMILES IDX 1 14
REMARK H PARENT
REMARK Flexibility Score: inf
ROOT
ATOM      1  C   UNL     1      70.016 -39.165   9.943  1.00  0.00     0.000 C 
ENDROOT
BRANCH   1   2
ATOM      2  C   UNL     1      70.816 -39.469  11.220  1.00  0.00     0.004 C 
BRANCH   2   3
ATOM      3  C   UNL     1      71.409 -38.205  11.861  1.00  0.00     0.027 C 
BRANCH   3   4
ATOM      4  C   UNL     1      72.902 -38.165  11.702  1.00  0.00    -0.025 C 
ATOM      5  C   UNL     1      73.491 -37.329  10.841  1.00  0.00     0.020 C 
BRANCH   5   6
ATOM      6  C   UNL     1      74.950 -37.290  10.665  1.00  0.00     0.064 C 
ATOM      7  O   UNL     1      75.697 -37.790  11.547  1.00  0.00    -0.545 OA
ATOM      8  O   UNL     1      75.520 -36.709   9.538  1.00  0.00    -0.545 OA
ENDBRANCH   5   6
ENDBRANCH   3   4
ENDBRANCH   2   3
ENDBRANCH   1   2
BRANCH   1   9
ATOM      9  C   UNL     1      69.600 -37.690   9.841  1.00  0.00     0.000 C 
BRANCH   9  10
ATOM     10  C   UNL     1      69.774 -37.168   8.411  1.00  0.00     0.000 C 
BRANCH  10  11
ATOM     11  C   UNL     1      71.100 -36.407   8.260  1.00  0.00    -0.000 C 
BRANCH  11  12
ATOM     12  C   UNL     1      71.098 -35.429   7.071  1.00  0.00    -0.000 C 
BRANCH  12  13
ATOM     13  C   UNL     1      69.766 -34.692   6.842  1.00  0.00    -0.003 C 
ATOM     14  C   UNL     1      69.904 -33.173   6.908  1.00  0.00     0.004 C 
ENDBRANCH  12  13
ENDBRANCH  11  12
ENDBRANCH  10  11
ENDBRANCH   9  10
ENDBRANCH   1   9
TORSDOF 9
ENDMDL
MODEL 3
REMARK VINA RESULT:    -4.434     11.167     13.714
REMARK INTER + INTRA:          -7.246
REMARK INTER:                  -6.093
REMARK INTRA:                  -1.153
REMARK UNBOUND:                -0.480
REMARK SMILES CCCCCCCCCC=CC(=O)[O-]
REMARK SMILES IDX 7 1 8 2 9 3 10 4 11 5 12 6 13 7 14 8 6 9 5 10 4 11 3 12 2 13
REMARK SMILES IDX 1 14
REMARK H PARENT
REMARK Flexibility Score: inf
ROOT
ATOM      1  C   UNL     1      72.484 -32.567  22.737  1.00  0.00     0.000 C 
ENDROOT
BRANCH   1   2
ATOM      2  C   UNL     1      72.486 -32.581  21.201  1.00  0.00     0.004 C 
BRANCH   2   3
ATOM      3  C   UNL     1      73.693 -31.838  20.605  1.00  0.00     0.027 C 
BRANCH   3   4
ATOM      4  C   UNL     1      73.287 -31.004  19.424  1.00  0.00    -0.025 C 
ATOM      5  C   UNL     1      72.042 -31.039  18.939  1.00  0.00     0.020 C 
BRANCH   5   6
ATOM      6  C   UNL     1      71.635 -30.239  17.774  1.00  0.00     0.064 C 
ATOM      7  O   UNL     1      70.716 -29.386  17.897  1.00  0.00    -0.545 OA
ATOM      8  O   UNL     1      72.247 -30.409  16.539  1.00  0.00    -0.545 OA
ENDBRANCH   5   6
ENDBRANCH   3   4
ENDBRANCH   2   3
ENDBRANCH   1   2
BRANCH   1   9
ATOM      9  C   UNL     1      73.854 -32.206  23.329  1.00  0.00     0.000 C 
BRANCH   9  10
ATOM     10  C   UNL     1      74.521 -33.434  23.960  1.00  0.00     0.000 C 
BRANCH  10  11
ATOM     11  C   UNL     1      75.614 -34.000  23.041  1.00  0.00    -0.000 C 
BRANCH  11  12
ATOM     12  C   UNL     1      75.139 -35.215  22.223  1.00  0.00    -0.000 C 
BRANCH  12  13
ATOM     13  C   UNL     1      73.976 -36.004  22.852  1.00  0.00    -0.003 C 
ATOM     14  C   UNL     1      72.913 -36.413  21.835  1.00  0.00     0.004 C 
ENDBRANCH  12  13
ENDBRANCH  11  12
ENDBRANCH  10  11
ENDBRANCH   9  10
ENDBRANCH   1   9
TORSDOF 9
ENDMDL
MODEL 4
REMARK VINA RESULT:    -4.243      2.089      3.998
REMARK INTER + INTRA:          -6.955
REMARK INTER:                  -6.072
REMARK INTRA:                  -0.883
REMARK UNBOUND:                -0.480
REMARK SMILES CCCCCCCCCC=CC(=O)[O-]
REMARK SMILES IDX 7 1 8 2 9 3 10 4 11 5 12 6 13 7 14 8 6 9 5 10 4 11 3 12 2 13
REMARK SMILES IDX 1 14
REMARK H PARENT
REMARK Flexibility Score: inf
ROOT
ATOM      1  C   UNL     1      69.765 -35.139   7.040  1.00  0.00     0.000 C 
ENDROOT
BRANCH   1   2
ATOM      2  C   UNL     1      68.607 -35.844   7.763  1.00  0.00     0.004 C 
BRANCH   2   3
ATOM      3  C   UNL     1      69.002 -37.227   8.304  1.00  0.00     0.027 C 
BRANCH   3   4
ATOM      4  C   UNL     1      70.367 -37.195   8.929  1.00  0.00    -0.025 C 
ATOM      5  C   UNL     1      70.572 -37.617  10.180  1.00  0.00     0.020 C 
BRANCH   5   6
ATOM      6  C   UNL     1      71.901 -37.578  10.810  1.00  0.00     0.064 C 
ATOM      7  O   UNL     1      72.097 -38.203  11.885  1.00  0.00    -0.545 OA
ATOM      8  O   UNL     1      72.944 -36.861  10.237  1.00  0.00    -0.545 OA
ENDBRANCH   5   6
ENDBRANCH   3   4
ENDBRANCH   2   3
ENDBRANCH   1   2
BRANCH   1   9
ATOM      9  C   UNL     1      69.629 -33.609   7.050  1.00  0.00     0.000 C 
BRANCH   9  10
ATOM     10  C   UNL     1      70.914 -32.940   6.550  1.00  0.00     0.000 C 
BRANCH  10  11
ATOM     11  C   UNL     1      72.150 -33.766   6.934  1.00  0.00    -0.000 C 
BRANCH  11  12
ATOM     12  C   UNL     1      73.096 -34.016   5.745  1.00  0.00    -0.000 C 
BRANCH  12  13
ATOM     13  C   UNL     1      73.574 -35.471   5.592  1.00  0.00    -0.003 C 
ATOM     14  C   UNL     1      73.466 -36.274   6.887  1.00  0.00     0.004 C 
ENDBRANCH  12  13
ENDBRANCH  11  12
ENDBRANCH  10  11
ENDBRANCH   9  10
ENDBRANCH   1   9
TORSDOF 9
ENDMDL
MODEL 5
REMARK VINA RESULT:    -4.207     10.165     11.256
REMARK INTER + INTRA:          -6.901
REMARK INTER:                  -6.216
REMARK INTRA:                  -0.686
REMARK UNBOUND:                -0.480
REMARK SMILES CCCCCCCCCC=CC(=O)[O-]
REMARK SMILES IDX 7 1 8 2 9 3 10 4 11 5 12 6 13 7 14 8 6 9 5 10 4 11 3 12 2 13
REMARK SMILES IDX 1 14
REMARK H PARENT
REMARK Flexibility Score: inf
ROOT
ATOM      1  C   UNL     1      61.861 -32.337  16.159  1.00  0.00     0.000 C 
ENDROOT
BRANCH   1   2
ATOM      2  C   UNL     1      61.403 -33.439  15.191  1.00  0.00     0.004 C 
BRANCH   2   3
ATOM      3  C   UNL     1      62.288 -34.693  15.261  1.00  0.00     0.027 C 
BRANCH   3   4
ATOM      4  C   UNL     1      63.305 -34.702  14.156  1.00  0.00    -0.025 C 
ATOM      5  C   UNL     1      64.348 -35.538  14.173  1.00  0.00     0.020 C 
BRANCH   5   6
ATOM      6  C   UNL     1      65.359 -35.547  13.106  1.00  0.00     0.064 C 
ATOM      7  O   UNL     1      66.570 -35.735  13.398  1.00  0.00    -0.545 OA
ATOM      8  O   UNL     1      65.000 -35.352  11.777  1.00  0.00    -0.545 OA
ENDBRANCH   5   6
ENDBRANCH   3   4
ENDBRANCH   2   3
ENDBRANCH   1   2
BRANCH   1   9
ATOM      9  C   UNL     1      61.898 -30.949  15.503  1.00  0.00     0.000 C 
BRANCH   9  10
ATOM     10  C   UNL     1      62.523 -31.018  14.105  1.00  0.00     0.000 C 
BRANCH  10  11
ATOM     11  C   UNL     1      63.256 -29.712  13.763  1.00  0.00    -0.000 C 
BRANCH  11  12
ATOM     12  C   UNL     1      63.222 -28.688  14.912  1.00  0.00    -0.000 C 
BRANCH  12  13
ATOM     13  C   UNL     1      62.648 -27.311  14.534  1.00  0.00    -0.003 C 
ATOM     14  C   UNL     1      62.307 -27.192  13.049  1.00  0.00     0.004 C 
ENDBRANCH  12  13
ENDBRANCH  11  12
ENDBRANCH  10  11
ENDBRANCH   9  10
ENDBRANCH   1   9
TORSDOF 9
ENDMDL
MODEL 6
REMARK VINA RESULT:    -4.109      2.443      3.685
REMARK INTER + INTRA:          -6.751
REMARK INTER:                  -6.186
REMARK INTRA:                  -0.565
REMARK UNBOUND:                -0.480
REMARK SMILES CCCCCCCCCC=CC(=O)[O-]
REMARK SMILES IDX 7 1 8 2 9 3 10 4 11 5 12 6 13 7 14 8 6 9 5 10 4 11 3 12 2 13
REMARK SMILES IDX 1 14
REMARK H PARENT
REMARK Flexibility Score: inf
ROOT
ATOM      1  C   UNL     1      73.846 -36.620   5.574  1.00  0.00     0.000 C 
ENDROOT
BRANCH   1   2
ATOM      2  C   UNL     1      74.592 -37.023   6.855  1.00  0.00     0.004 C 
BRANCH   2   3
ATOM      3  C   UNL     1      74.025 -36.339   8.109  1.00  0.00     0.027 C 
BRANCH   3   4
ATOM      4  C   UNL     1      74.416 -37.080   9.355  1.00  0.00    -0.025 C 
ATOM      5  C   UNL     1      75.478 -36.716  10.080  1.00  0.00     0.020 C 
BRANCH   5   6
ATOM      6  C   UNL     1      75.881 -37.441  11.294  1.00  0.00     0.064 C 
ATOM      7  O   UNL     1      77.079 -37.393  11.678  1.00  0.00    -0.545 OA
ATOM      8  O   UNL     1      74.959 -38.179  12.027  1.00  0.00    -0.545 OA
ENDBRANCH   5   6
ENDBRANCH   3   4
ENDBRANCH   2   3
ENDBRANCH   1   2
BRANCH   1   9
ATOM      9  C   UNL     1      73.883 -35.107   5.317  1.00  0.00     0.000 C 
BRANCH   9  10
ATOM     10  C   UNL     1      72.486 -34.572   4.982  1.00  0.00     0.000 C 
BRANCH  10  11
ATOM     11  C   UNL     1      72.241 -33.211   5.650  1.00  0.00    -0.000 C 
BRANCH  11  12
ATOM     12  C   UNL     1      71.012 -33.211   6.577  1.00  0.00    -0.000 C 
BRANCH  12  13
ATOM     13  C   UNL     1      70.094 -34.438   6.435  1.00  0.00    -0.003 C 
ATOM     14  C   UNL     1      68.910 -34.414   7.399  1.00  0.00     0.004 C 
ENDBRANCH  12  13
ENDBRANCH  11  12
ENDBRANCH  10  11
ENDBRANCH   9  10
ENDBRANCH   1   9
TORSDOF 9
ENDMDL
MODEL 7
REMARK VINA RESULT:    -4.097     10.497     11.844
REMARK INTER + INTRA:          -6.733
REMARK INTER:                  -5.903
REMARK INTRA:                  -0.830
REMARK UNBOUND:                -0.480
REMARK SMILES CCCCCCCCCC=CC(=O)[O-]
REMARK SMILES IDX 7 1 8 2 9 3 10 4 11 5 12 6 13 7 14 8 6 9 5 10 4 11 3 12 2 13
REMARK SMILES IDX 1 14
REMARK H PARENT
REMARK Flexibility Score: inf
ROOT
ATOM      1  C   UNL     1      61.993 -31.934  15.584  1.00  0.00     0.000 C 
ENDROOT
BRANCH   1   2
ATOM      2  C   UNL     1      62.371 -32.818  14.385  1.00  0.00     0.004 C 
BRANCH   2   3
ATOM      3  C   UNL     1      62.171 -32.104  13.039  1.00  0.00     0.027 C 
BRANCH   3   4
ATOM      4  C   UNL     1      62.643 -32.957  11.897  1.00  0.00    -0.025 C 
ATOM      5  C   UNL     1      63.711 -33.752  12.014  1.00  0.00     0.020 C 
BRANCH   5   6
ATOM      6  C   UNL     1      64.193 -34.582  10.900  1.00  0.00     0.064 C 
ATOM      7  O   UNL     1      65.378 -34.450  10.494  1.00  0.00    -0.545 OA
ATOM      8  O   UNL     1      63.362 -35.511  10.286  1.00  0.00    -0.545 OA
ENDBRANCH   5   6
ENDBRANCH   3   4
ENDBRANCH   2   3
ENDBRANCH   1   2
BRANCH   1   9
ATOM      9  C   UNL     1      61.053 -30.782  15.199  1.00  0.00     0.000 C 
BRANCH   9  10
ATOM     10  C   UNL     1      61.526 -29.459  15.812  1.00  0.00     0.000 C 
BRANCH  10  11
ATOM     11  C   UNL     1      62.976 -29.153  15.409  1.00  0.00    -0.000 C 
BRANCH  11  12
ATOM     12  C   UNL     1      63.113 -28.734  13.934  1.00  0.00    -0.000 C 
BRANCH  12  13
ATOM     13  C   UNL     1      62.097 -27.677  13.465  1.00  0.00    -0.003 C 
ATOM     14  C   UNL     1      62.717 -26.294  13.276  1.00  0.00     0.004 C 
ENDBRANCH  12  13
ENDBRANCH  11  12
ENDBRANCH  10  11
ENDBRANCH   9  10
ENDBRANCH   1   9
TORSDOF 9
ENDMDL
MODEL 8
REMARK VINA RESULT:    -4.066      2.944      3.933
REMARK INTER + INTRA:          -6.685
REMARK INTER:                  -6.145
REMARK INTRA:                  -0.541
REMARK UNBOUND:                -0.480
REMARK SMILES CCCCCCCCCC=CC(=O)[O-]
REMARK SMILES IDX 7 1 8 2 9 3 10 4 11 5 12 6 13 7 14 8 6 9 5 10 4 11 3 12 2 13
REMARK SMILES IDX 1 14
REMARK H PARENT
REMARK Flexibility Score: inf
ROOT
ATOM      1  C   UNL     1      70.187 -38.766  10.054  1.00  0.00     0.000 C 
ENDROOT
BRANCH   1   2
ATOM      2  C   UNL     1      71.021 -39.333  11.213  1.00  0.00     0.004 C 
BRANCH   2   3
ATOM      3  C   UNL     1      71.855 -38.255  11.924  1.00  0.00     0.027 C 
BRANCH   3   4
ATOM      4  C   UNL     1      72.966 -37.760  11.043  1.00  0.00    -0.025 C 
ATOM      5  C   UNL     1      74.215 -37.631  11.501  1.00  0.00     0.020 C 
BRANCH   5   6
ATOM      6  C   UNL     1      75.309 -37.134  10.653  1.00  0.00     0.064 C 
ATOM      7  O   UNL     1      76.455 -36.972  11.150  1.00  0.00    -0.545 OA
ATOM      8  O   UNL     1      75.100 -36.839   9.312  1.00  0.00    -0.545 OA
ENDBRANCH   5   6
ENDBRANCH   3   4
ENDBRANCH   2   3
ENDBRANCH   1   2
BRANCH   1   9
ATOM      9  C   UNL     1      69.229 -37.652  10.501  1.00  0.00     0.000 C 
BRANCH   9  10
ATOM     10  C   UNL     1      67.990 -37.598   9.600  1.00  0.00     0.000 C 
BRANCH  10  11
ATOM     11  C   UNL     1      66.981 -38.691   9.985  1.00  0.00    -0.000 C 
BRANCH  11  12
ATOM     12  C   UNL     1      65.842 -38.168  10.878  1.00  0.00    -0.000 C 
BRANCH  12  13
ATOM     13  C   UNL     1      65.819 -36.641  11.068  1.00  0.00    -0.003 C 
ATOM     14  C   UNL     1      66.100 -36.213  12.508  1.00  0.00     0.004 C 
ENDBRANCH  12  13
ENDBRANCH  11  12
ENDBRANCH  10  11
ENDBRANCH   9  10
ENDBRANCH   1   9
TORSDOF 9
ENDMDL
MODEL 9
REMARK VINA RESULT:    -4.062     11.401     13.562
REMARK INTER + INTRA:          -6.680
REMARK INTER:                  -6.049
REMARK INTRA:                  -0.631
REMARK UNBOUND:                -0.480
REMARK SMILES CCCCCCCCCC=CC(=O)[O-]
REMARK SMILES IDX 7 1 8 2 9 3 10 4 11 5 12 6 13 7 14 8 6 9 5 10 4 11 3 12 2 13
REMARK SMILES IDX 1 14
REMARK H PARENT
REMARK Flexibility Score: inf
ROOT
ATOM      1  C   UNL     1      73.845 -31.747  20.752  1.00  0.00     0.000 C 
ENDROOT
BRANCH   1   2
ATOM      2  C   UNL     1      73.128 -31.571  19.404  1.00  0.00     0.004 C 
BRANCH   2   3
ATOM      3  C   UNL     1      71.792 -30.822  19.539  1.00  0.00     0.027 C 
BRANCH   3   4
ATOM      4  C   UNL     1      71.654 -29.765  18.482  1.00  0.00    -0.025 C 
ATOM      5  C   UNL     1      72.625 -28.875  18.252  1.00  0.00     0.020 C 
BRANCH   5   6
ATOM      6  C   UNL     1      72.497 -27.826  17.229  1.00  0.00     0.064 C 
ATOM      7  O   UNL     1      72.461 -26.617  17.581  1.00  0.00    -0.545 OA
ATOM      8  O   UNL     1      72.414 -28.147  15.880  1.00  0.00    -0.545 OA
ENDBRANCH   5   6
ENDBRANCH   3   4
ENDBRANCH   2   3
ENDBRANCH   1   2
BRANCH   1   9
ATOM      9  C   UNL     1      72.970 -32.447  21.803  1.00  0.00     0.000 C 
BRANCH   9  10
ATOM     10  C   UNL     1      73.833 -33.106  22.884  1.00  0.00     0.000 C 
BRANCH  10  11
ATOM     11  C   UNL     1      75.113 -33.704  22.280  1.00  0.00    -0.000 C 
BRANCH  11  12
ATOM     12  C   UNL     1      75.046 -35.234  22.127  1.00  0.00    -0.000 C 
BRANCH  12  13
ATOM     13  C   UNL     1      73.937 -35.918  22.947  1.00  0.00    -0.003 C 
ATOM     14  C   UNL     1      72.875 -36.587  22.077  1.00  0.00     0.004 C 
ENDBRANCH  12  13
ENDBRANCH  11  12
ENDBRANCH  10  11
ENDBRANCH   9  10
ENDBRANCH   1   9
TORSDOF 9
ENDMDL
