MODEL 1
REMARK VINA RESULT:    -7.833      0.000      0.000
REMARK INTER + INTRA:          -9.386
REMARK INTER:                  -9.207
REMARK INTRA:                  -0.179
REMARK UNBOUND:                -0.179
REMARK SMILES O=c1c(O)c(-c2ccc(O)c(O)c2)oc2cc(O)ccc12
REMARK SMILES IDX 5 1 3 2 2 3 1 4 21 5 15 6 14 7 16 8 17 9 19 10 20 11 6 12
REMARK SMILES IDX 7 13 8 14 9 15 13 16 11 17 10 18 12 20 4 22 18 24
REMARK H PARENT 10 19 12 21 4 23 18 25
REMARK Flexibility Score: inf
ROOT
ATOM      1  C   UNL     1     -15.456  -4.330  16.398  1.00  0.00     0.180 A 
ATOM      2  C   UNL     1     -15.278  -4.016  17.761  1.00  0.00     0.208 A 
ATOM      3  C   UNL     1     -16.090  -3.030  18.340  1.00  0.00     0.235 A 
ATOM      4  O   UNL     1     -15.943  -2.724  19.556  1.00  0.00    -0.285 OA
ATOM      5  C   UNL     1     -17.070  -2.397  17.560  1.00  0.00     0.069 A 
ATOM      6  C   UNL     1     -17.203  -2.784  16.208  1.00  0.00     0.142 A 
ATOM      7  O   UNL     1     -16.407  -3.716  15.695  1.00  0.00    -0.452 OA
ATOM      8  C   UNL     1     -18.173  -2.183  15.400  1.00  0.00     0.094 A 
ATOM      9  C   UNL     1     -19.018  -1.195  15.926  1.00  0.00     0.119 A 
ATOM     10  C   UNL     1     -18.888  -0.809  17.264  1.00  0.00     0.047 A 
ATOM     11  C   UNL     1     -17.921  -1.403  18.081  1.00  0.00     0.020 A 
ENDROOT
BRANCH   1  12
ATOM     12  C   UNL     1     -14.626  -5.345  15.710  1.00  0.00     0.025 A 
ATOM     13  C   UNL     1     -13.702  -4.936  14.735  1.00  0.00     0.016 A 
ATOM     14  C   UNL     1     -12.894  -5.875  14.089  1.00  0.00     0.051 A 
ATOM     15  C   UNL     1     -12.986  -7.233  14.417  1.00  0.00     0.157 A 
ATOM     16  C   UNL     1     -14.701  -6.707  16.052  1.00  0.00     0.062 A 
ATOM     17  C   UNL     1     -13.891  -7.649  15.408  1.00  0.00     0.158 A 
BRANCH  15  18
ATOM     18  O   UNL     1     -12.180  -8.168  13.770  1.00  0.00    -0.504 OA
ATOM     19  H   UNL     1     -11.205  -8.292  14.019  1.00  0.00     0.293 HD
ENDBRANCH  15  18
BRANCH  17  20
ATOM     20  O   UNL     1     -13.997  -8.992  15.770  1.00  0.00    -0.504 OA
ATOM     21  H   UNL     1     -13.182  -9.568  15.945  1.00  0.00     0.293 HD
ENDBRANCH  17  20
ENDBRANCH   1  12
BRANCH   2  22
ATOM     22  O   UNL     1     -14.327  -4.698  18.525  1.00  0.00    -0.502 OA
ATOM     23  H   UNL     1     -13.617  -4.216  19.062  1.00  0.00     0.293 HD
ENDBRANCH   2  22
BRANCH   9  24
ATOM     24  O   UNL     1     -19.987  -0.592  15.128  1.00  0.00    -0.508 OA
ATOM     25  H   UNL     1     -20.337  -1.041  14.290  1.00  0.00     0.293 HD
ENDBRANCH   9  24
TORSDOF 5
ENDMDL
MODEL 2
REMARK VINA RESULT:    -7.537      2.142      6.917
REMARK INTER + INTRA:          -9.038
REMARK INTER:                  -8.748
REMARK INTRA:                  -0.290
REMARK UNBOUND:                -0.179
REMARK SMILES O=c1c(O)c(-c2ccc(O)c(O)c2)oc2cc(O)ccc12
REMARK SMILES IDX 5 1 3 2 2 3 1 4 21 5 15 6 14 7 16 8 17 9 19 10 20 11 6 12
REMARK SMILES IDX 7 13 8 14 9 15 13 16 11 17 10 18 12 20 4 22 18 24
REMARK H PARENT 10 19 12 21 4 23 18 25
REMARK Flexibility Score: inf
ROOT
ATOM      1  C   UNL     1     -15.971  -3.078  17.116  1.00  0.00     0.180 A 
ATOM      2  C   UNL     1     -14.726  -2.650  16.611  1.00  0.00     0.208 A 
ATOM      3  C   UNL     1     -13.650  -3.551  16.611  1.00  0.00     0.235 A 
ATOM      4  O   UNL     1     -12.523  -3.188  16.175  1.00  0.00    -0.285 OA
ATOM      5  C   UNL     1     -13.842  -4.855  17.091  1.00  0.00     0.069 A 
ATOM      6  C   UNL     1     -15.125  -5.215  17.558  1.00  0.00     0.142 A 
ATOM      7  O   UNL     1     -16.116  -4.329  17.549  1.00  0.00    -0.452 OA
ATOM      8  C   UNL     1     -15.360  -6.508  18.035  1.00  0.00     0.094 A 
ATOM      9  C   UNL     1     -14.324  -7.453  18.054  1.00  0.00     0.119 A 
ATOM     10  C   UNL     1     -13.051  -7.099  17.594  1.00  0.00     0.047 A 
ATOM     11  C   UNL     1     -12.807  -5.809  17.115  1.00  0.00     0.020 A 
ENDROOT
BRANCH   1  12
ATOM     12  C   UNL     1     -17.148  -2.182  17.167  1.00  0.00     0.025 A 
ATOM     13  C   UNL     1     -17.451  -1.507  18.360  1.00  0.00     0.016 A 
ATOM     14  C   UNL     1     -18.545  -0.640  18.424  1.00  0.00     0.051 A 
ATOM     15  C   UNL     1     -19.343  -0.423  17.293  1.00  0.00     0.157 A 
ATOM     16  C   UNL     1     -17.938  -1.945  16.027  1.00  0.00     0.062 A 
ATOM     17  C   UNL     1     -19.033  -1.075  16.088  1.00  0.00     0.158 A 
BRANCH  15  18
ATOM     18  O   UNL     1     -20.434   0.441  17.360  1.00  0.00    -0.504 OA
ATOM     19  H   UNL     1     -20.342   1.388  17.712  1.00  0.00     0.293 HD
ENDBRANCH  15  18
BRANCH  17  20
ATOM     20  O   UNL     1     -19.798  -0.868  14.940  1.00  0.00    -0.504 OA
ATOM     21  H   UNL     1     -20.226  -1.634  14.434  1.00  0.00     0.293 HD
ENDBRANCH  17  20
ENDBRANCH   1  12
BRANCH   2  22
ATOM     22  O   UNL     1     -14.577  -1.360  16.094  1.00  0.00    -0.502 OA
ATOM     23  H   UNL     1     -14.246  -0.586  16.657  1.00  0.00     0.293 HD
ENDBRANCH   2  22
BRANCH   9  24
ATOM     24  O   UNL     1     -14.549  -8.743  18.528  1.00  0.00    -0.508 OA
ATOM     25  H   UNL     1     -14.653  -8.933  19.517  1.00  0.00     0.293 HD
ENDBRANCH   9  24
TORSDOF 5
ENDMDL
MODEL 3
REMARK VINA RESULT:    -7.462      1.941      7.258
REMARK INTER + INTRA:          -8.950
REMARK INTER:                  -8.837
REMARK INTRA:                  -0.113
REMARK UNBOUND:                -0.179
REMARK SMILES O=c1c(O)c(-c2ccc(O)c(O)c2)oc2cc(O)ccc12
REMARK SMILES IDX 5 1 3 2 2 3 1 4 21 5 15 6 14 7 16 8 17 9 19 10 20 11 6 12
REMARK SMILES IDX 7 13 8 14 9 15 13 16 11 17 10 18 12 20 4 22 18 24
REMARK H PARENT 10 19 12 21 4 23 18 25
REMARK Flexibility Score: inf
ROOT
ATOM      1  C   UNL     1     -17.087  -2.610  16.381  1.00  0.00     0.180 A 
ATOM      2  C   UNL     1     -16.298  -2.378  15.236  1.00  0.00     0.208 A 
ATOM      3  C   UNL     1     -15.311  -3.314  14.892  1.00  0.00     0.235 A 
ATOM      4  O   UNL     1     -14.584  -3.123  13.878  1.00  0.00    -0.285 OA
ATOM      5  C   UNL     1     -15.147  -4.464  15.680  1.00  0.00     0.069 A 
ATOM      6  C   UNL     1     -15.992  -4.636  16.797  1.00  0.00     0.142 A 
ATOM      7  O   UNL     1     -16.909  -3.721  17.093  1.00  0.00    -0.452 OA
ATOM      8  C   UNL     1     -15.867  -5.774  17.601  1.00  0.00     0.094 A 
ATOM      9  C   UNL     1     -14.902  -6.746  17.303  1.00  0.00     0.119 A 
ATOM     10  C   UNL     1     -14.061  -6.577  16.198  1.00  0.00     0.047 A 
ATOM     11  C   UNL     1     -14.179  -5.443  15.388  1.00  0.00     0.020 A 
ENDROOT
BRANCH   1  12
ATOM     12  C   UNL     1     -18.135  -1.661  16.819  1.00  0.00     0.025 A 
ATOM     13  C   UNL     1     -18.008  -1.016  18.059  1.00  0.00     0.016 A 
ATOM     14  C   UNL     1     -18.975  -0.101  18.483  1.00  0.00     0.051 A 
ATOM     15  C   UNL     1     -20.075   0.195  17.667  1.00  0.00     0.157 A 
ATOM     16  C   UNL     1     -19.229  -1.345  15.993  1.00  0.00     0.062 A 
ATOM     17  C   UNL     1     -20.198  -0.427  16.414  1.00  0.00     0.158 A 
BRANCH  15  18
ATOM     18  O   UNL     1     -21.039   1.107  18.093  1.00  0.00    -0.504 OA
ATOM     19  H   UNL     1     -21.363   1.857  17.493  1.00  0.00     0.293 HD
ENDBRANCH  15  18
BRANCH  17  20
ATOM     20  O   UNL     1     -21.273  -0.143  15.571  1.00  0.00    -0.504 OA
ATOM     21  H   UNL     1     -21.242   0.611  14.895  1.00  0.00     0.293 HD
ENDBRANCH  17  20
ENDBRANCH   1  12
BRANCH   2  22
ATOM     22  O   UNL     1     -16.517  -1.248  14.443  1.00  0.00    -0.502 OA
ATOM     23  H   UNL     1     -16.145  -1.165  13.504  1.00  0.00     0.293 HD
ENDBRANCH   2  22
BRANCH   9  24
ATOM     24  O   UNL     1     -14.770  -7.882  18.099  1.00  0.00    -0.508 OA
ATOM     25  H   UNL     1     -13.869  -8.173  18.460  1.00  0.00     0.293 HD
ENDBRANCH   9  24
TORSDOF 5
ENDMDL
MODEL 4
REMARK VINA RESULT:    -7.174      1.606      7.032
REMARK INTER + INTRA:          -8.611
REMARK INTER:                  -8.390
REMARK INTRA:                  -0.221
REMARK UNBOUND:                -0.179
REMARK SMILES O=c1c(O)c(-c2ccc(O)c(O)c2)oc2cc(O)ccc12
REMARK SMILES IDX 5 1 3 2 2 3 1 4 21 5 15 6 14 7 16 8 17 9 19 10 20 11 6 12
REMARK SMILES IDX 7 13 8 14 9 15 13 16 11 17 10 18 12 20 4 22 18 24
REMARK H PARENT 10 19 12 21 4 23 18 25
REMARK Flexibility Score: inf
ROOT
ATOM      1  C   UNL     1     -15.441  -3.691  15.422  1.00  0.00     0.180 A 
ATOM      2  C   UNL     1     -14.527  -3.130  14.506  1.00  0.00     0.208 A 
ATOM      3  C   UNL     1     -13.545  -3.955  13.939  1.00  0.00     0.235 A 
ATOM      4  O   UNL     1     -12.709  -3.474  13.125  1.00  0.00    -0.285 OA
ATOM      5  C   UNL     1     -13.507  -5.316  14.278  1.00  0.00     0.069 A 
ATOM      6  C   UNL     1     -14.472  -5.808  15.184  1.00  0.00     0.142 A 
ATOM      7  O   UNL     1     -15.380  -4.990  15.706  1.00  0.00    -0.452 OA
ATOM      8  C   UNL     1     -14.474  -7.160  15.539  1.00  0.00     0.094 A 
ATOM      9  C   UNL     1     -13.519  -8.034  15.000  1.00  0.00     0.119 A 
ATOM     10  C   UNL     1     -12.561  -7.549  14.103  1.00  0.00     0.047 A 
ATOM     11  C   UNL     1     -12.551  -6.199  13.741  1.00  0.00     0.020 A 
ENDROOT
BRANCH   1  12
ATOM     12  C   UNL     1     -16.494  -2.882  16.077  1.00  0.00     0.025 A 
ATOM     13  C   UNL     1     -16.361  -2.544  17.433  1.00  0.00     0.016 A 
ATOM     14  C   UNL     1     -17.333  -1.764  18.066  1.00  0.00     0.051 A 
ATOM     15  C   UNL     1     -18.443  -1.298  17.349  1.00  0.00     0.157 A 
ATOM     16  C   UNL     1     -17.599  -2.394  15.356  1.00  0.00     0.062 A 
ATOM     17  C   UNL     1     -18.572  -1.611  15.986  1.00  0.00     0.158 A 
BRANCH  15  18
ATOM     18  O   UNL     1     -19.411  -0.521  17.983  1.00  0.00    -0.504 OA
ATOM     19  H   UNL     1     -20.335  -0.886  18.186  1.00  0.00     0.293 HD
ENDBRANCH  15  18
BRANCH  17  20
ATOM     20  O   UNL     1     -19.657  -1.149  15.240  1.00  0.00    -0.504 OA
ATOM     21  H   UNL     1     -20.176  -0.321  15.503  1.00  0.00     0.293 HD
ENDBRANCH  17  20
ENDBRANCH   1  12
BRANCH   2  22
ATOM     22  O   UNL     1     -14.620  -1.781  14.151  1.00  0.00    -0.502 OA
ATOM     23  H   UNL     1     -15.509  -1.301  14.078  1.00  0.00     0.293 HD
ENDBRANCH   2  22
BRANCH   9  24
ATOM     24  O   UNL     1     -13.514  -9.382  15.349  1.00  0.00    -0.508 OA
ATOM     25  H   UNL     1     -13.860  -9.698  16.246  1.00  0.00     0.293 HD
ENDBRANCH   9  24
TORSDOF 5
ENDMDL
MODEL 5
REMARK VINA RESULT:    -7.151      1.579      6.709
REMARK INTER + INTRA:          -8.584
REMARK INTER:                  -8.510
REMARK INTRA:                  -0.074
REMARK UNBOUND:                -0.179
REMARK SMILES O=c1c(O)c(-c2ccc(O)c(O)c2)oc2cc(O)ccc12
REMARK SMILES IDX 5 1 3 2 2 3 1 4 21 5 15 6 14 7 16 8 17 9 19 10 20 11 6 12
REMARK SMILES IDX 7 13 8 14 9 15 13 16 11 17 10 18 12 20 4 22 18 24
REMARK H PARENT 10 19 12 21 4 23 18 25
REMARK Flexibility Score: inf
ROOT
ATOM      1  C   UNL     1     -16.051  -3.660  16.152  1.00  0.00     0.180 A 
ATOM      2  C   UNL     1     -15.873  -4.875  16.845  1.00  0.00     0.208 A 
ATOM      3  C   UNL     1     -14.913  -5.786  16.378  1.00  0.00     0.235 A 
ATOM      4  O   UNL     1     -14.743  -6.885  16.975  1.00  0.00    -0.285 OA
ATOM      5  C   UNL     1     -14.143  -5.460  15.252  1.00  0.00     0.069 A 
ATOM      6  C   UNL     1     -14.364  -4.213  14.627  1.00  0.00     0.142 A 
ATOM      7  O   UNL     1     -15.289  -3.383  15.095  1.00  0.00    -0.452 OA
ATOM      8  C   UNL     1     -13.610  -3.847  13.508  1.00  0.00     0.094 A 
ATOM      9  C   UNL     1     -12.633  -4.716  13.000  1.00  0.00     0.119 A 
ATOM     10  C   UNL     1     -12.413  -5.952  13.616  1.00  0.00     0.047 A 
ATOM     11  C   UNL     1     -13.161  -6.327  14.735  1.00  0.00     0.020 A 
ENDROOT
BRANCH   1  12
ATOM     12  C   UNL     1     -17.054  -2.656  16.571  1.00  0.00     0.025 A 
ATOM     13  C   UNL     1     -16.977  -2.097  17.857  1.00  0.00     0.016 A 
ATOM     14  C   UNL     1     -17.901  -1.132  18.265  1.00  0.00     0.051 A 
ATOM     15  C   UNL     1     -18.906  -0.699  17.390  1.00  0.00     0.157 A 
ATOM     16  C   UNL     1     -18.052  -2.204  15.688  1.00  0.00     0.062 A 
ATOM     17  C   UNL     1     -18.977  -1.235  16.094  1.00  0.00     0.158 A 
BRANCH  15  18
ATOM     18  O   UNL     1     -19.827   0.262  17.801  1.00  0.00    -0.504 OA
ATOM     19  H   UNL     1     -19.633   1.254  17.718  1.00  0.00     0.293 HD
ENDBRANCH  15  18
BRANCH  17  20
ATOM     20  O   UNL     1     -19.956  -0.815  15.194  1.00  0.00    -0.504 OA
ATOM     21  H   UNL     1     -20.453   0.060  15.309  1.00  0.00     0.293 HD
ENDBRANCH  17  20
ENDBRANCH   1  12
BRANCH   2  22
ATOM     22  O   UNL     1     -16.621  -5.151  17.993  1.00  0.00    -0.502 OA
ATOM     23  H   UNL     1     -17.526  -5.602  17.954  1.00  0.00     0.293 HD
ENDBRANCH   2  22
BRANCH   9  24
ATOM     24  O   UNL     1     -11.877  -4.359  11.885  1.00  0.00    -0.508 OA
ATOM     25  H   UNL     1     -10.957  -3.946  11.980  1.00  0.00     0.293 HD
ENDBRANCH   9  24
TORSDOF 5
ENDMDL
MODEL 6
REMARK VINA RESULT:    -6.841      2.115      6.888
REMARK INTER + INTRA:          -8.220
REMARK INTER:                  -7.933
REMARK INTRA:                  -0.287
REMARK UNBOUND:                -0.179
REMARK SMILES O=c1c(O)c(-c2ccc(O)c(O)c2)oc2cc(O)ccc12
REMARK SMILES IDX 5 1 3 2 2 3 1 4 21 5 15 6 14 7 16 8 17 9 19 10 20 11 6 12
REMARK SMILES IDX 7 13 8 14 9 15 13 16 11 17 10 18 12 20 4 22 18 24
REMARK H PARENT 10 19 12 21 4 23 18 25
REMARK Flexibility Score: inf
ROOT
ATOM      1  C   UNL     1     -16.160  -2.774  17.081  1.00  0.00     0.180 A 
ATOM      2  C   UNL     1     -14.878  -2.191  17.024  1.00  0.00     0.208 A 
ATOM      3  C   UNL     1     -13.752  -3.017  17.159  1.00  0.00     0.235 A 
ATOM      4  O   UNL     1     -12.593  -2.517  17.123  1.00  0.00    -0.285 OA
ATOM      5  C   UNL     1     -13.926  -4.399  17.327  1.00  0.00     0.069 A 
ATOM      6  C   UNL     1     -15.242  -4.910  17.349  1.00  0.00     0.142 A 
ATOM      7  O   UNL     1     -16.282  -4.093  17.226  1.00  0.00    -0.452 OA
ATOM      8  C   UNL     1     -15.457  -6.283  17.503  1.00  0.00     0.094 A 
ATOM      9  C   UNL     1     -14.370  -7.158  17.638  1.00  0.00     0.119 A 
ATOM     10  C   UNL     1     -13.065  -6.654  17.618  1.00  0.00     0.047 A 
ATOM     11  C   UNL     1     -12.839  -5.283  17.464  1.00  0.00     0.020 A 
ENDROOT
BRANCH   1  12
ATOM     12  C   UNL     1     -17.396  -1.968  16.964  1.00  0.00     0.025 A 
ATOM     13  C   UNL     1     -18.136  -2.007  15.771  1.00  0.00     0.016 A 
ATOM     14  C   UNL     1     -19.317  -1.271  15.647  1.00  0.00     0.051 A 
ATOM     15  C   UNL     1     -19.785  -0.499  16.718  1.00  0.00     0.157 A 
ATOM     16  C   UNL     1     -17.881  -1.209  18.044  1.00  0.00     0.062 A 
ATOM     17  C   UNL     1     -19.065  -0.472  17.924  1.00  0.00     0.158 A 
BRANCH  15  18
ATOM     18  O   UNL     1     -20.962   0.236  16.590  1.00  0.00    -0.504 OA
ATOM     19  H   UNL     1     -21.874  -0.201  16.679  1.00  0.00     0.293 HD
ENDBRANCH  15  18
BRANCH  17  20
ATOM     20  O   UNL     1     -19.512   0.274  19.014  1.00  0.00    -0.504 OA
ATOM     21  H   UNL     1     -20.066   1.114  18.899  1.00  0.00     0.293 HD
ENDBRANCH  17  20
ENDBRANCH   1  12
BRANCH   2  22
ATOM     22  O   UNL     1     -14.734  -0.818  16.807  1.00  0.00    -0.502 OA
ATOM     23  H   UNL     1     -13.952  -0.291  17.175  1.00  0.00     0.293 HD
ENDBRANCH   2  22
BRANCH   9  24
ATOM     24  O   UNL     1     -14.575  -8.527  17.793  1.00  0.00    -0.508 OA
ATOM     25  H   UNL     1     -14.976  -9.089  17.052  1.00  0.00     0.293 HD
ENDBRANCH   9  24
TORSDOF 5
ENDMDL
MODEL 7
REMARK VINA RESULT:    -6.784      1.513      6.517
REMARK INTER + INTRA:          -8.154
REMARK INTER:                  -7.836
REMARK INTRA:                  -0.317
REMARK UNBOUND:                -0.179
REMARK SMILES O=c1c(O)c(-c2ccc(O)c(O)c2)oc2cc(O)ccc12
REMARK SMILES IDX 5 1 3 2 2 3 1 4 21 5 15 6 14 7 16 8 17 9 19 10 20 11 6 12
REMARK SMILES IDX 7 13 8 14 9 15 13 16 11 17 10 18 12 20 4 22 18 24
REMARK H PARENT 10 19 12 21 4 23 18 25
REMARK Flexibility Score: inf
ROOT
ATOM      1  C   UNL     1     -15.511  -4.130  16.728  1.00  0.00     0.180 A 
ATOM      2  C   UNL     1     -15.516  -4.710  18.013  1.00  0.00     0.208 A 
ATOM      3  C   UNL     1     -14.914  -5.965  18.192  1.00  0.00     0.235 A 
ATOM      4  O   UNL     1     -14.915  -6.510  19.330  1.00  0.00    -0.285 OA
ATOM      5  C   UNL     1     -14.306  -6.601  17.099  1.00  0.00     0.069 A 
ATOM      6  C   UNL     1     -14.321  -5.944  15.849  1.00  0.00     0.142 A 
ATOM      7  O   UNL     1     -14.910  -4.760  15.720  1.00  0.00    -0.452 OA
ATOM      8  C   UNL     1     -13.717  -6.540  14.737  1.00  0.00     0.094 A 
ATOM      9  C   UNL     1     -13.095  -7.790  14.857  1.00  0.00     0.119 A 
ATOM     10  C   UNL     1     -13.080  -8.444  16.094  1.00  0.00     0.047 A 
ATOM     11  C   UNL     1     -13.680  -7.857  17.211  1.00  0.00     0.020 A 
ENDROOT
BRANCH   1  12
ATOM     12  C   UNL     1     -16.141  -2.819  16.455  1.00  0.00     0.025 A 
ATOM     13  C   UNL     1     -15.389  -1.644  16.618  1.00  0.00     0.016 A 
ATOM     14  C   UNL     1     -15.957  -0.398  16.345  1.00  0.00     0.051 A 
ATOM     15  C   UNL     1     -17.279  -0.306  15.891  1.00  0.00     0.157 A 
ATOM     16  C   UNL     1     -17.461  -2.725  15.978  1.00  0.00     0.062 A 
ATOM     17  C   UNL     1     -18.032  -1.477  15.702  1.00  0.00     0.158 A 
BRANCH  15  18
ATOM     18  O   UNL     1     -17.844   0.939  15.621  1.00  0.00    -0.504 OA
ATOM     19  H   UNL     1     -18.257   1.505  16.355  1.00  0.00     0.293 HD
ENDBRANCH  15  18
BRANCH  17  20
ATOM     20  O   UNL     1     -19.346  -1.422  15.236  1.00  0.00    -0.504 OA
ATOM     21  H   UNL     1     -20.008  -0.735  15.575  1.00  0.00     0.293 HD
ENDBRANCH  17  20
ENDBRANCH   1  12
BRANCH   2  22
ATOM     22  O   UNL     1     -16.086  -4.031  19.094  1.00  0.00    -0.502 OA
ATOM     23  H   UNL     1     -16.264  -3.034  19.074  1.00  0.00     0.293 HD
ENDBRANCH   2  22
BRANCH   9  24
ATOM     24  O   UNL     1     -12.492  -8.391  13.755  1.00  0.00    -0.508 OA
ATOM     25  H   UNL     1     -12.926  -8.376  12.840  1.00  0.00     0.293 HD
ENDBRANCH   9  24
TORSDOF 5
ENDMDL
MODEL 8
REMARK VINA RESULT:    -6.644      1.800      6.663
REMARK INTER + INTRA:          -7.988
REMARK INTER:                  -7.684
REMARK INTRA:                  -0.305
REMARK UNBOUND:                -0.179
REMARK SMILES O=c1c(O)c(-c2ccc(O)c(O)c2)oc2cc(O)ccc12
REMARK SMILES IDX 5 1 3 2 2 3 1 4 21 5 15 6 14 7 16 8 17 9 19 10 20 11 6 12
REMARK SMILES IDX 7 13 8 14 9 15 13 16 11 17 10 18 12 20 4 22 18 24
REMARK H PARENT 10 19 12 21 4 23 18 25
REMARK Flexibility Score: inf
ROOT
ATOM      1  C   UNL     1     -15.040  -3.698  16.244  1.00  0.00     0.180 A 
ATOM      2  C   UNL     1     -13.873  -3.448  16.994  1.00  0.00     0.208 A 
ATOM      3  C   UNL     1     -12.961  -4.495  17.198  1.00  0.00     0.235 A 
ATOM      4  O   UNL     1     -11.915  -4.298  17.875  1.00  0.00    -0.285 OA
ATOM      5  C   UNL     1     -13.220  -5.754  16.636  1.00  0.00     0.069 A 
ATOM      6  C   UNL     1     -14.400  -5.919  15.877  1.00  0.00     0.142 A 
ATOM      7  O   UNL     1     -15.242  -4.904  15.716  1.00  0.00    -0.452 OA
ATOM      8  C   UNL     1     -14.689  -7.156  15.292  1.00  0.00     0.094 A 
ATOM      9  C   UNL     1     -13.812  -8.237  15.457  1.00  0.00     0.119 A 
ATOM     10  C   UNL     1     -12.644  -8.077  16.209  1.00  0.00     0.047 A 
ATOM     11  C   UNL     1     -12.345  -6.845  16.798  1.00  0.00     0.020 A 
ENDROOT
BRANCH   1  12
ATOM     12  C   UNL     1     -16.058  -2.651  16.001  1.00  0.00     0.025 A 
ATOM     13  C   UNL     1     -17.160  -2.545  16.865  1.00  0.00     0.016 A 
ATOM     14  C   UNL     1     -18.121  -1.552  16.666  1.00  0.00     0.051 A 
ATOM     15  C   UNL     1     -17.988  -0.638  15.612  1.00  0.00     0.157 A 
ATOM     16  C   UNL     1     -15.916  -1.719  14.957  1.00  0.00     0.062 A 
ATOM     17  C   UNL     1     -16.876  -0.721  14.757  1.00  0.00     0.158 A 
BRANCH  15  18
ATOM     18  O   UNL     1     -18.949   0.351  15.416  1.00  0.00    -0.504 OA
ATOM     19  H   UNL     1     -19.550   0.354  14.599  1.00  0.00     0.293 HD
ENDBRANCH  15  18
BRANCH  17  20
ATOM     20  O   UNL     1     -16.706   0.182  13.708  1.00  0.00    -0.504 OA
ATOM     21  H   UNL     1     -17.326   0.971  13.572  1.00  0.00     0.293 HD
ENDBRANCH  17  20
ENDBRANCH   1  12
BRANCH   2  22
ATOM     22  O   UNL     1     -13.618  -2.170  17.500  1.00  0.00    -0.502 OA
ATOM     23  H   UNL     1     -14.097  -1.346  17.157  1.00  0.00     0.293 HD
ENDBRANCH   2  22
BRANCH   9  24
ATOM     24  O   UNL     1     -14.092  -9.473  14.878  1.00  0.00    -0.508 OA
ATOM     25  H   UNL     1     -14.615 -10.184  15.375  1.00  0.00     0.293 HD
ENDBRANCH   9  24
TORSDOF 5
ENDMDL
MODEL 9
REMARK VINA RESULT:    -6.419      1.346      2.067
REMARK INTER + INTRA:          -7.724
REMARK INTER:                  -7.516
REMARK INTRA:                  -0.208
REMARK UNBOUND:                -0.179
REMARK SMILES O=c1c(O)c(-c2ccc(O)c(O)c2)oc2cc(O)ccc12
REMARK SMILES IDX 5 1 3 2 2 3 1 4 21 5 15 6 14 7 16 8 17 9 19 10 20 11 6 12
REMARK SMILES IDX 7 13 8 14 9 15 13 16 11 17 10 18 12 20 4 22 18 24
REMARK H PARENT 10 19 12 21 4 23 18 25
REMARK Flexibility Score: inf
ROOT
ATOM      1  C   UNL     1     -15.712  -3.627  17.371  1.00  0.00     0.180 A 
ATOM      2  C   UNL     1     -15.166  -2.659  18.238  1.00  0.00     0.208 A 
ATOM      3  C   UNL     1     -15.792  -1.407  18.335  1.00  0.00     0.235 A 
ATOM      4  O   UNL     1     -15.316  -0.519  19.096  1.00  0.00    -0.285 OA
ATOM      5  C   UNL     1     -16.953  -1.156  17.587  1.00  0.00     0.069 A 
ATOM      6  C   UNL     1     -17.452  -2.186  16.760  1.00  0.00     0.142 A 
ATOM      7  O   UNL     1     -16.824  -3.355  16.690  1.00  0.00    -0.452 OA
ATOM      8  C   UNL     1     -18.612  -1.979  16.007  1.00  0.00     0.094 A 
ATOM      9  C   UNL     1     -19.284  -0.750  16.068  1.00  0.00     0.119 A 
ATOM     10  C   UNL     1     -18.791   0.272  16.886  1.00  0.00     0.047 A 
ATOM     11  C   UNL     1     -17.633   0.075  17.643  1.00  0.00     0.020 A 
ENDROOT
BRANCH   1  12
ATOM     12  C   UNL     1     -15.099  -4.964  17.200  1.00  0.00     0.025 A 
ATOM     13  C   UNL     1     -15.191  -5.904  18.239  1.00  0.00     0.016 A 
ATOM     14  C   UNL     1     -14.638  -7.178  18.091  1.00  0.00     0.051 A 
ATOM     15  C   UNL     1     -14.000  -7.538  16.896  1.00  0.00     0.157 A 
ATOM     16  C   UNL     1     -14.477  -5.336  15.995  1.00  0.00     0.062 A 
ATOM     17  C   UNL     1     -13.925  -6.613  15.842  1.00  0.00     0.158 A 
BRANCH  15  18
ATOM     18  O   UNL     1     -13.449  -8.810  16.752  1.00  0.00    -0.504 OA
ATOM     19  H   UNL     1     -12.448  -8.948  16.665  1.00  0.00     0.293 HD
ENDBRANCH  15  18
BRANCH  17  20
ATOM     20  O   UNL     1     -13.309  -6.945  14.635  1.00  0.00    -0.504 OA
ATOM     21  H   UNL     1     -12.308  -6.869  14.503  1.00  0.00     0.293 HD
ENDBRANCH  17  20
ENDBRANCH   1  12
BRANCH   2  22
ATOM     22  O   UNL     1     -14.037  -2.954  19.007  1.00  0.00    -0.502 OA
ATOM     23  H   UNL     1     -14.079  -3.554  19.822  1.00  0.00     0.293 HD
ENDBRANCH   2  22
BRANCH   9  24
ATOM     24  O   UNL     1     -20.440  -0.536  15.321  1.00  0.00    -0.508 OA
ATOM     25  H   UNL     1     -20.557   0.296  14.754  1.00  0.00     0.293 HD
ENDBRANCH   9  24
TORSDOF 5
ENDMDL
