MODEL 1
REMARK VINA RESULT:    -4.018      0.000      0.000
REMARK INTER + INTRA:          -4.018
REMARK INTER:                  -4.018
REMARK INTRA:                   0.000
REMARK UNBOUND:                 0.000
REMARK SMILES CC1=CC(=O)[C@H]2C[C@@H]1C2(C)C
REMARK SMILES IDX 1 1 2 2 3 3 4 4 5 5 6 6 7 7 8 8 9 9 10 10 11 11
REMARK H PARENT
REMARK Flexibility Score: inf
ROOT
ATOM      1  C   UNL     1      84.470  38.083  22.834  1.00  0.00     0.040 C 
ATOM      2  C   UNL     1      85.249  37.103  23.652  1.00  0.00    -0.066 C 
ATOM      3  C   UNL     1      85.240  37.153  25.013  1.00  0.00     0.047 C 
ATOM      4  C   UNL     1      86.085  36.135  25.719  1.00  0.00     0.159 C 
ATOM      5  O   UNL     1      86.192  36.102  26.972  1.00  0.00    -0.295 OA
ATOM      6  C   UNL     1      86.810  35.141  24.810  1.00  0.00     0.067 C 
ATOM      7  C   UNL     1      85.731  34.703  23.795  1.00  0.00     0.021 C 
ATOM      8  C   UNL     1      86.082  35.980  23.000  1.00  0.00     0.022 C 
ATOM      9  C   UNL     1      87.492  35.933  23.657  1.00  0.00    -0.019 C 
ATOM     10  C   UNL     1      88.489  35.060  22.853  1.00  0.00     0.012 C 
ATOM     11  C   UNL     1      88.190  37.280  23.998  1.00  0.00     0.012 C 
ENDROOT
TORSDOF 0
ENDMDL
MODEL 2
REMARK VINA RESULT:    -3.997      4.304      6.349
REMARK INTER + INTRA:          -3.997
REMARK INTER:                  -3.997
REMARK INTRA:                   0.000
REMARK UNBOUND:                 0.000
REMARK SMILES CC1=CC(=O)[C@H]2C[C@@H]1C2(C)C
REMARK SMILES IDX 1 1 2 2 3 3 4 4 5 5 6 6 7 7 8 8 9 9 10 10 11 11
REMARK H PARENT
REMARK Flexibility Score: inf
ROOT
ATOM      1  C   UNL     1      87.183  34.946  30.719  1.00  0.00     0.040 C 
ATOM      2  C   UNL     1      86.393  35.930  29.916  1.00  0.00    -0.066 C 
ATOM      3  C   UNL     1      86.305  35.831  28.561  1.00  0.00     0.047 C 
ATOM      4  C   UNL     1      85.509  36.895  27.868  1.00  0.00     0.159 C 
ATOM      5  O   UNL     1      85.386  36.936  26.617  1.00  0.00    -0.295 OA
ATOM      6  C   UNL     1      84.858  37.929  28.788  1.00  0.00     0.067 C 
ATOM      7  C   UNL     1      84.230  37.087  29.919  1.00  0.00     0.021 C 
ATOM      8  C   UNL     1      85.625  37.092  30.582  1.00  0.00     0.022 C 
ATOM      9  C   UNL     1      85.921  38.414  29.817  1.00  0.00    -0.019 C 
ATOM     10  C   UNL     1      85.453  39.667  30.600  1.00  0.00     0.012 C 
ATOM     11  C   UNL     1      87.372  38.666  29.316  1.00  0.00     0.012 C 
ENDROOT
TORSDOF 0
ENDMDL
MODEL 3
REMARK VINA RESULT:    -3.949      1.852      3.311
REMARK INTER + INTRA:          -3.949
REMARK INTER:                  -3.949
REMARK INTRA:                   0.000
REMARK UNBOUND:                 0.000
REMARK SMILES CC1=CC(=O)[C@H]2C[C@@H]1C2(C)C
REMARK SMILES IDX 1 1 2 2 3 3 4 4 5 5 6 6 7 7 8 8 9 9 10 10 11 11
REMARK H PARENT
REMARK Flexibility Score: inf
ROOT
ATOM      1  C   UNL     1      86.274  33.446  25.706  1.00  0.00     0.040 C 
ATOM      2  C   UNL     1      86.156  34.694  24.889  1.00  0.00    -0.066 C 
ATOM      3  C   UNL     1      85.565  34.684  23.662  1.00  0.00     0.047 C 
ATOM      4  C   UNL     1      85.536  35.992  22.930  1.00  0.00     0.159 C 
ATOM      5  O   UNL     1      85.054  36.104  21.773  1.00  0.00    -0.295 OA
ATOM      6  C   UNL     1      86.134  37.179  23.686  1.00  0.00     0.067 C 
ATOM      7  C   UNL     1      85.543  37.059  25.107  1.00  0.00     0.021 C 
ATOM      8  C   UNL     1      86.678  36.053  25.402  1.00  0.00     0.022 C 
ATOM      9  C   UNL     1      87.506  36.746  24.281  1.00  0.00    -0.019 C 
ATOM     10  C   UNL     1      88.324  37.951  24.811  1.00  0.00     0.012 C 
ATOM     11  C   UNL     1      88.444  35.866  23.408  1.00  0.00     0.012 C 
ENDROOT
TORSDOF 0
ENDMDL
MODEL 4
REMARK VINA RESULT:    -3.939      1.383      3.252
REMARK INTER + INTRA:          -3.939
REMARK INTER:                  -3.939
REMARK INTRA:                   0.000
REMARK UNBOUND:                 0.000
REMARK SMILES CC1=CC(=O)[C@H]2C[C@@H]1C2(C)C
REMARK SMILES IDX 1 1 2 2 3 3 4 4 5 5 6 6 7 7 8 8 9 9 10 10 11 11
REMARK H PARENT
REMARK Flexibility Score: inf
ROOT
ATOM      1  C   UNL     1      88.205  34.571  22.422  1.00  0.00     0.040 C 
ATOM      2  C   UNL     1      87.594  35.636  23.277  1.00  0.00    -0.066 C 
ATOM      3  C   UNL     1      88.364  36.562  23.913  1.00  0.00     0.047 C 
ATOM      4  C   UNL     1      87.636  37.558  24.764  1.00  0.00     0.159 C 
ATOM      5  O   UNL     1      88.237  38.438  25.433  1.00  0.00    -0.295 OA
ATOM      6  C   UNL     1      86.112  37.429  24.764  1.00  0.00     0.067 C 
ATOM      7  C   UNL     1      85.748  37.251  23.274  1.00  0.00     0.021 C 
ATOM      8  C   UNL     1      86.066  35.751  23.464  1.00  0.00     0.022 C 
ATOM      9  C   UNL     1      85.742  35.932  24.976  1.00  0.00    -0.019 C 
ATOM     10  C   UNL     1      84.237  35.735  25.284  1.00  0.00     0.012 C 
ATOM     11  C   UNL     1      86.563  35.108  26.008  1.00  0.00     0.012 C 
ENDROOT
TORSDOF 0
ENDMDL
MODEL 5
REMARK VINA RESULT:    -3.912      4.463      5.320
REMARK INTER + INTRA:          -3.912
REMARK INTER:                  -3.912
REMARK INTRA:                   0.000
REMARK UNBOUND:                 0.000
REMARK SMILES CC1=CC(=O)[C@H]2C[C@@H]1C2(C)C
REMARK SMILES IDX 1 1 2 2 3 3 4 4 5 5 6 6 7 7 8 8 9 9 10 10 11 11
REMARK H PARENT
REMARK Flexibility Score: inf
ROOT
ATOM      1  C   UNL     1      83.402  37.782  27.493  1.00  0.00     0.040 C 
ATOM      2  C   UNL     1      84.534  37.368  28.378  1.00  0.00    -0.066 C 
ATOM      3  C   UNL     1      84.312  36.845  29.615  1.00  0.00     0.047 C 
ATOM      4  C   UNL     1      85.530  36.497  30.417  1.00  0.00     0.159 C 
ATOM      5  O   UNL     1      85.457  36.044  31.588  1.00  0.00    -0.295 OA
ATOM      6  C   UNL     1      86.866  36.734  29.713  1.00  0.00     0.067 C 
ATOM      7  C   UNL     1      86.659  36.145  28.301  1.00  0.00     0.021 C 
ATOM      8  C   UNL     1      86.005  37.494  27.927  1.00  0.00     0.022 C 
ATOM      9  C   UNL     1      86.841  38.149  29.066  1.00  0.00    -0.019 C 
ATOM     10  C   UNL     1      88.242  38.601  28.583  1.00  0.00     0.012 C 
ATOM     11  C   UNL     1      86.201  39.317  29.869  1.00  0.00     0.012 C 
ENDROOT
TORSDOF 0
ENDMDL
MODEL 6
REMARK VINA RESULT:    -3.890      1.741      2.870
REMARK INTER + INTRA:          -3.890
REMARK INTER:                  -3.890
REMARK INTRA:                   0.000
REMARK UNBOUND:                 0.000
REMARK SMILES CC1=CC(=O)[C@H]2C[C@@H]1C2(C)C
REMARK SMILES IDX 1 1 2 2 3 3 4 4 5 5 6 6 7 7 8 8 9 9 10 10 11 11
REMARK H PARENT
REMARK Flexibility Score: inf
ROOT
ATOM      1  C   UNL     1      88.373  38.012  24.817  1.00  0.00     0.040 C 
ATOM      2  C   UNL     1      87.517  36.923  24.251  1.00  0.00    -0.066 C 
ATOM      3  C   UNL     1      86.228  37.156  23.879  1.00  0.00     0.047 C 
ATOM      4  C   UNL     1      85.466  35.977  23.355  1.00  0.00     0.159 C 
ATOM      5  O   UNL     1      84.257  36.054  23.015  1.00  0.00    -0.295 OA
ATOM      6  C   UNL     1      86.260  34.673  23.263  1.00  0.00     0.067 C 
ATOM      7  C   UNL     1      87.601  35.091  22.623  1.00  0.00     0.021 C 
ATOM      8  C   UNL     1      88.056  35.492  24.044  1.00  0.00     0.022 C 
ATOM      9  C   UNL     1      87.027  34.465  24.601  1.00  0.00    -0.019 C 
ATOM     10  C   UNL     1      87.623  33.040  24.724  1.00  0.00     0.012 C 
ATOM     11  C   UNL     1      86.297  34.804  25.931  1.00  0.00     0.012 C 
ENDROOT
TORSDOF 0
ENDMDL
MODEL 7
REMARK VINA RESULT:    -3.887      4.632      6.407
REMARK INTER + INTRA:          -3.887
REMARK INTER:                  -3.887
REMARK INTRA:                   0.000
REMARK UNBOUND:                 0.000
REMARK SMILES CC1=CC(=O)[C@H]2C[C@@H]1C2(C)C
REMARK SMILES IDX 1 1 2 2 3 3 4 4 5 5 6 6 7 7 8 8 9 9 10 10 11 11
REMARK H PARENT
REMARK Flexibility Score: inf
ROOT
ATOM      1  C   UNL     1      88.150  38.623  28.506  1.00  0.00     0.040 C 
ATOM      2  C   UNL     1      86.900  38.126  29.160  1.00  0.00    -0.066 C 
ATOM      3  C   UNL     1      86.780  36.832  29.566  1.00  0.00     0.047 C 
ATOM      4  C   UNL     1      85.467  36.449  30.180  1.00  0.00     0.159 C 
ATOM      5  O   UNL     1      85.219  35.275  30.559  1.00  0.00    -0.295 OA
ATOM      6  C   UNL     1      84.450  37.584  30.311  1.00  0.00     0.067 C 
ATOM      7  C   UNL     1      85.270  38.763  30.878  1.00  0.00     0.021 C 
ATOM      8  C   UNL     1      85.696  39.055  29.422  1.00  0.00     0.022 C 
ATOM      9  C   UNL     1      84.387  38.351  28.958  1.00  0.00    -0.019 C 
ATOM     10  C   UNL     1      83.185  39.325  28.889  1.00  0.00     0.012 C 
ATOM     11  C   UNL     1      84.423  37.526  27.640  1.00  0.00     0.012 C 
ENDROOT
TORSDOF 0
ENDMDL
MODEL 8
REMARK VINA RESULT:    -3.867     11.126     13.504
REMARK INTER + INTRA:          -3.867
REMARK INTER:                  -3.867
REMARK INTRA:                   0.000
REMARK UNBOUND:                 0.000
REMARK SMILES CC1=CC(=O)[C@H]2C[C@@H]1C2(C)C
REMARK SMILES IDX 1 1 2 2 3 3 4 4 5 5 6 6 7 7 8 8 9 9 10 10 11 11
REMARK H PARENT
REMARK Flexibility Score: inf
ROOT
ATOM      1  C   UNL     1      82.752  45.375  19.869  1.00  0.00     0.040 C 
ATOM      2  C   UNL     1      81.840  46.493  20.263  1.00  0.00    -0.066 C 
ATOM      3  C   UNL     1      81.565  46.756  21.571  1.00  0.00     0.047 C 
ATOM      4  C   UNL     1      80.612  47.883  21.835  1.00  0.00     0.159 C 
ATOM      5  O   UNL     1      80.249  48.198  22.998  1.00  0.00    -0.295 OA
ATOM      6  C   UNL     1      80.111  48.621  20.593  1.00  0.00     0.067 C 
ATOM      7  C   UNL     1      81.384  48.848  19.749  1.00  0.00     0.021 C 
ATOM      8  C   UNL     1      81.181  47.413  19.213  1.00  0.00     0.022 C 
ATOM      9  C   UNL     1      79.667  47.568  19.537  1.00  0.00    -0.019 C 
ATOM     10  C   UNL     1      78.875  48.205  18.367  1.00  0.00     0.012 C 
ATOM     11  C   UNL     1      78.887  46.315  20.027  1.00  0.00     0.012 C 
ENDROOT
TORSDOF 0
ENDMDL
MODEL 9
REMARK VINA RESULT:    -3.848      4.457      5.906
REMARK INTER + INTRA:          -3.848
REMARK INTER:                  -3.848
REMARK INTRA:                   0.000
REMARK UNBOUND:                 0.000
REMARK SMILES CC1=CC(=O)[C@H]2C[C@@H]1C2(C)C
REMARK SMILES IDX 1 1 2 2 3 3 4 4 5 5 6 6 7 7 8 8 9 9 10 10 11 11
REMARK H PARENT
REMARK Flexibility Score: inf
ROOT
ATOM      1  C   UNL     1      84.881  39.464  31.108  1.00  0.00     0.040 C 
ATOM      2  C   UNL     1      85.688  38.538  30.255  1.00  0.00    -0.066 C 
ATOM      3  C   UNL     1      86.769  38.981  29.555  1.00  0.00     0.047 C 
ATOM      4  C   UNL     1      87.477  37.963  28.713  1.00  0.00     0.159 C 
ATOM      5  O   UNL     1      88.464  38.256  27.991  1.00  0.00    -0.295 OA
ATOM      6  C   UNL     1      86.914  36.543  28.792  1.00  0.00     0.067 C 
ATOM      7  C   UNL     1      86.701  36.304  30.303  1.00  0.00     0.021 C 
ATOM      8  C   UNL     1      85.350  37.036  30.140  1.00  0.00     0.022 C 
ATOM      9  C   UNL     1      85.367  36.614  28.642  1.00  0.00    -0.019 C 
ATOM     10  C   UNL     1      84.732  35.219  28.415  1.00  0.00     0.012 C 
ATOM     11  C   UNL     1      84.772  37.597  27.594  1.00  0.00     0.012 C 
ENDROOT
TORSDOF 0
ENDMDL
