MODEL 1
REMARK VINA RESULT:    -2.712      0.000      0.000
REMARK INTER + INTRA:          -6.455
REMARK INTER:                  -4.931
REMARK INTRA:                  -1.524
REMARK UNBOUND:                -1.524
REMARK SMILES CCCCCCCCCCCCCCCC(=O)[O-]
REMARK SMILES IDX 9 1 10 2 11 3 12 4 13 5 14 6 15 7 16 8 17 9 18 10 8 11 7 12
REMARK SMILES IDX 6 13 5 14 4 15 3 16 2 17 1 18
REMARK H PARENT
REMARK Flexibility Score: inf
ROOT
ATOM      1  C   UNL     1      28.731  16.956  10.739  1.00  0.00     0.000 C 
ENDROOT
BRANCH   1   2
ATOM      2  C   UNL     1      27.774  18.165  10.814  1.00  0.00     0.000 C 
BRANCH   2   3
ATOM      3  C   UNL     1      27.387  18.562  12.251  1.00  0.00     0.000 C 
BRANCH   3   4
ATOM      4  C   UNL     1      27.866  19.958  12.694  1.00  0.00     0.000 C 
BRANCH   4   5
ATOM      5  C   UNL     1      29.051  19.955  13.677  1.00  0.00     0.000 C 
BRANCH   5   6
ATOM      6  C   UNL     1      29.657  18.555  13.880  1.00  0.00     0.006 C 
BRANCH   6   7
ATOM      7  C   UNL     1      30.022  18.290  15.346  1.00  0.00     0.053 C 
BRANCH   7   8
ATOM      8  C   UNL     1      30.967  19.322  15.879  1.00  0.00     0.041 C 
ATOM      9  O   UNL     1      31.995  19.636  15.224  1.00  0.00    -0.550 OA
ATOM     10  O   UNL     1      30.732  19.910  17.115  1.00  0.00    -0.550 OA
ENDBRANCH   7   8
ENDBRANCH   6   7
ENDBRANCH   5   6
ENDBRANCH   4   5
ENDBRANCH   3   4
ENDBRANCH   2   3
ENDBRANCH   1   2
BRANCH   1  11
ATOM     11  C   UNL     1      28.013  15.621  11.005  1.00  0.00     0.000 C 
BRANCH  11  12
ATOM     12  C   UNL     1      28.990  14.446  11.165  1.00  0.00    -0.000 C 
BRANCH  12  13
ATOM     13  C   UNL     1      28.955  13.839  12.576  1.00  0.00    -0.000 C 
BRANCH  13  14
ATOM     14  C   UNL     1      28.834  14.939  13.643  1.00  0.00    -0.000 C 
BRANCH  14  15
ATOM     15  C   UNL     1      27.458  14.949  14.327  1.00  0.00    -0.000 C 
BRANCH  15  16
ATOM     16  C   UNL     1      26.864  16.364  14.442  1.00  0.00    -0.000 C 
BRANCH  16  17
ATOM     17  C   UNL     1      25.328  16.360  14.431  1.00  0.00    -0.003 C 
ATOM     18  C   UNL     1      24.745  15.048  13.907  1.00  0.00     0.004 C 
ENDBRANCH  16  17
ENDBRANCH  15  16
ENDBRANCH  14  15
ENDBRANCH  13  14
ENDBRANCH  12  13
ENDBRANCH  11  12
ENDBRANCH   1  11
TORSDOF 14
ENDMDL
MODEL 2
REMARK VINA RESULT:    -2.688     16.400     17.906
REMARK INTER + INTRA:          -6.412
REMARK INTER:                  -5.062
REMARK INTRA:                  -1.350
REMARK UNBOUND:                -1.524
REMARK SMILES CCCCCCCCCCCCCCCC(=O)[O-]
REMARK SMILES IDX 9 1 10 2 11 3 12 4 13 5 14 6 15 7 16 8 17 9 18 10 8 11 7 12
REMARK SMILES IDX 6 13 5 14 4 15 3 16 2 17 1 18
REMARK H PARENT
REMARK Flexibility Score: inf
ROOT
ATOM      1  C   UNL     1      31.819   6.245   1.859  1.00  0.00     0.000 C 
ENDROOT
BRANCH   1   2
ATOM      2  C   UNL     1      31.446   6.908   0.515  1.00  0.00     0.000 C 
BRANCH   2   3
ATOM      3  C   UNL     1      31.046   5.903  -0.582  1.00  0.00     0.000 C 
BRANCH   3   4
ATOM      4  C   UNL     1      30.421   6.530  -1.843  1.00  0.00     0.000 C 
BRANCH   4   5
ATOM      5  C   UNL     1      29.266   7.512  -1.574  1.00  0.00     0.000 C 
BRANCH   5   6
ATOM      6  C   UNL     1      27.898   6.962  -2.013  1.00  0.00     0.006 C 
BRANCH   6   7
ATOM      7  C   UNL     1      26.764   7.423  -1.087  1.00  0.00     0.053 C 
BRANCH   7   8
ATOM      8  C   UNL     1      26.874   8.880  -0.759  1.00  0.00     0.041 C 
ATOM      9  O   UNL     1      27.220   9.245   0.396  1.00  0.00    -0.550 OA
ATOM     10  O   UNL     1      26.560   9.836  -1.716  1.00  0.00    -0.550 OA
ENDBRANCH   7   8
ENDBRANCH   6   7
ENDBRANCH   5   6
ENDBRANCH   4   5
ENDBRANCH   3   4
ENDBRANCH   2   3
ENDBRANCH   1   2
BRANCH   1  11
ATOM     11  C   UNL     1      33.339   6.062   2.022  1.00  0.00     0.000 C 
BRANCH  11  12
ATOM     12  C   UNL     1      34.119   6.437   0.753  1.00  0.00    -0.000 C 
BRANCH  12  13
ATOM     13  C   UNL     1      35.325   7.342   1.049  1.00  0.00    -0.000 C 
BRANCH  13  14
ATOM     14  C   UNL     1      35.733   8.137  -0.201  1.00  0.00    -0.000 C 
BRANCH  14  15
ATOM     15  C   UNL     1      35.530   9.651  -0.031  1.00  0.00    -0.000 C 
BRANCH  15  16
ATOM     16  C   UNL     1      34.050  10.063  -0.110  1.00  0.00    -0.000 C 
BRANCH  16  17
ATOM     17  C   UNL     1      33.337   9.462  -1.331  1.00  0.00    -0.003 C 
ATOM     18  C   UNL     1      32.031  10.181  -1.664  1.00  0.00     0.004 C 
ENDBRANCH  16  17
ENDBRANCH  15  16
ENDBRANCH  14  15
ENDBRANCH  13  14
ENDBRANCH  12  13
ENDBRANCH  11  12
ENDBRANCH   1  11
TORSDOF 14
ENDMDL
MODEL 3
REMARK VINA RESULT:    -2.610      2.636      5.484
REMARK INTER + INTRA:          -6.270
REMARK INTER:                  -5.165
REMARK INTRA:                  -1.105
REMARK UNBOUND:                -1.524
REMARK SMILES CCCCCCCCCCCCCCCC(=O)[O-]
REMARK SMILES IDX 9 1 10 2 11 3 12 4 13 5 14 6 15 7 16 8 17 9 18 10 8 11 7 12
REMARK SMILES IDX 6 13 5 14 4 15 3 16 2 17 1 18
REMARK H PARENT
REMARK Flexibility Score: inf
ROOT
ATOM      1  C   UNL     1      28.817  16.997  10.953  1.00  0.00     0.000 C 
ENDROOT
BRANCH   1   2
ATOM      2  C   UNL     1      28.059  15.652  10.963  1.00  0.00     0.000 C 
BRANCH   2   3
ATOM      3  C   UNL     1      28.967  14.430  11.198  1.00  0.00     0.000 C 
BRANCH   3   4
ATOM      4  C   UNL     1      28.928  13.854  12.627  1.00  0.00     0.000 C 
BRANCH   4   5
ATOM      5  C   UNL     1      28.741  14.898  13.742  1.00  0.00     0.000 C 
BRANCH   5   6
ATOM      6  C   UNL     1      27.327  14.878  14.350  1.00  0.00     0.006 C 
BRANCH   6   7
ATOM      7  C   UNL     1      26.587  16.205  14.137  1.00  0.00     0.053 C 
BRANCH   7   8
ATOM      8  C   UNL     1      25.128  16.083  14.450  1.00  0.00     0.041 C 
ATOM      9  O   UNL     1      24.374  15.407  13.701  1.00  0.00    -0.550 OA
ATOM     10  O   UNL     1      24.592  16.746  15.547  1.00  0.00    -0.550 OA
ENDBRANCH   7   8
ENDBRANCH   6   7
ENDBRANCH   5   6
ENDBRANCH   4   5
ENDBRANCH   3   4
ENDBRANCH   2   3
ENDBRANCH   1   2
BRANCH   1  11
ATOM     11  C   UNL     1      27.870  18.205  10.834  1.00  0.00     0.000 C 
BRANCH  11  12
ATOM     12  C   UNL     1      27.376  18.704  12.200  1.00  0.00    -0.000 C 
BRANCH  12  13
ATOM     13  C   UNL     1      28.004  20.049  12.599  1.00  0.00    -0.000 C 
BRANCH  13  14
ATOM     14  C   UNL     1      29.041  19.859  13.717  1.00  0.00    -0.000 C 
BRANCH  14  15
ATOM     15  C   UNL     1      29.367  18.380  13.975  1.00  0.00    -0.000 C 
BRANCH  15  16
ATOM     16  C   UNL     1      30.410  18.189  15.091  1.00  0.00    -0.000 C 
BRANCH  16  17
ATOM     17  C   UNL     1      31.092  19.507  15.489  1.00  0.00    -0.003 C 
ATOM     18  C   UNL     1      30.853  19.876  16.952  1.00  0.00     0.004 C 
ENDBRANCH  16  17
ENDBRANCH  15  16
ENDBRANCH  14  15
ENDBRANCH  13  14
ENDBRANCH  12  13
ENDBRANCH  11  12
ENDBRANCH   1  11
TORSDOF 14
ENDMDL
MODEL 4
REMARK VINA RESULT:    -1.858      1.317      2.566
REMARK INTER + INTRA:          -4.903
REMARK INTER:                  -3.283
REMARK INTRA:                  -1.620
REMARK UNBOUND:                -1.524
REMARK SMILES CCCCCCCCCCCCCCCC(=O)[O-]
REMARK SMILES IDX 9 1 10 2 11 3 12 4 13 5 14 6 15 7 16 8 17 9 18 10 8 11 7 12
REMARK SMILES IDX 6 13 5 14 4 15 3 16 2 17 1 18
REMARK H PARENT
REMARK Flexibility Score: inf
ROOT
ATOM      1  C   UNL     1      28.669  14.603  11.569  1.00  0.00     0.000 C 
ENDROOT
BRANCH   1   2
ATOM      2  C   UNL     1      28.273  15.853  10.754  1.00  0.00     0.000 C 
BRANCH   2   3
ATOM      3  C   UNL     1      28.813  17.171  11.338  1.00  0.00     0.000 C 
BRANCH   3   4
ATOM      4  C   UNL     1      27.767  18.292  11.496  1.00  0.00     0.000 C 
BRANCH   4   5
ATOM      5  C   UNL     1      27.749  18.973  12.877  1.00  0.00     0.000 C 
BRANCH   5   6
ATOM      6  C   UNL     1      29.147  19.417  13.343  1.00  0.00     0.006 C 
BRANCH   6   7
ATOM      7  C   UNL     1      29.694  18.523  14.464  1.00  0.00     0.053 C 
BRANCH   7   8
ATOM      8  C   UNL     1      30.721  19.234  15.289  1.00  0.00     0.041 C 
ATOM      9  O   UNL     1      30.408  19.721  16.408  1.00  0.00    -0.550 OA
ATOM     10  O   UNL     1      32.014  19.393  14.808  1.00  0.00    -0.550 OA
ENDBRANCH   7   8
ENDBRANCH   6   7
ENDBRANCH   5   6
ENDBRANCH   4   5
ENDBRANCH   3   4
ENDBRANCH   2   3
ENDBRANCH   1   2
BRANCH   1  11
ATOM     11  C   UNL     1      29.137  14.954  12.993  1.00  0.00     0.000 C 
BRANCH  11  12
ATOM     12  C   UNL     1      28.064  14.669  14.055  1.00  0.00    -0.000 C 
BRANCH  12  13
ATOM     13  C   UNL     1      27.061  15.824  14.202  1.00  0.00    -0.000 C 
BRANCH  13  14
ATOM     14  C   UNL     1      25.698  15.446  13.599  1.00  0.00    -0.000 C 
BRANCH  14  15
ATOM     15  C   UNL     1      24.520  15.864  14.493  1.00  0.00    -0.000 C 
BRANCH  15  16
ATOM     16  C   UNL     1      24.874  17.033  15.430  1.00  0.00    -0.000 C 
BRANCH  16  17
ATOM     17  C   UNL     1      24.133  16.954  16.773  1.00  0.00    -0.003 C 
ATOM     18  C   UNL     1      23.696  18.325  17.287  1.00  0.00     0.004 C 
ENDBRANCH  16  17
ENDBRANCH  15  16
ENDBRANCH  14  15
ENDBRANCH  13  14
ENDBRANCH  12  13
ENDBRANCH  11  12
ENDBRANCH   1  11
TORSDOF 14
ENDMDL
MODEL 5
REMARK VINA RESULT:    -1.542      2.815      4.874
REMARK INTER + INTRA:          -4.329
REMARK INTER:                  -3.054
REMARK INTRA:                  -1.274
REMARK UNBOUND:                -1.524
REMARK SMILES CCCCCCCCCCCCCCCC(=O)[O-]
REMARK SMILES IDX 9 1 10 2 11 3 12 4 13 5 14 6 15 7 16 8 17 9 18 10 8 11 7 12
REMARK SMILES IDX 6 13 5 14 4 15 3 16 2 17 1 18
REMARK H PARENT
REMARK Flexibility Score: inf
ROOT
ATOM      1  C   UNL     1      28.290  20.124  12.855  1.00  0.00     0.000 C 
ENDROOT
BRANCH   1   2
ATOM      2  C   UNL     1      29.289  19.838  13.997  1.00  0.00     0.000 C 
BRANCH   2   3
ATOM      3  C   UNL     1      30.002  18.478  13.872  1.00  0.00     0.000 C 
BRANCH   3   4
ATOM      4  C   UNL     1      29.726  17.489  15.021  1.00  0.00     0.000 C 
BRANCH   4   5
ATOM      5  C   UNL     1      28.818  16.302  14.650  1.00  0.00     0.000 C 
BRANCH   5   6
ATOM      6  C   UNL     1      27.333  16.693  14.553  1.00  0.00     0.006 C 
BRANCH   6   7
ATOM      7  C   UNL     1      26.470  15.553  13.994  1.00  0.00     0.053 C 
BRANCH   7   8
ATOM      8  C   UNL     1      25.010  15.808  14.205  1.00  0.00     0.041 C 
ATOM      9  O   UNL     1      24.174  15.460  13.329  1.00  0.00    -0.550 OA
ATOM     10  O   UNL     1      24.574  16.464  15.349  1.00  0.00    -0.550 OA
ENDBRANCH   7   8
ENDBRANCH   6   7
ENDBRANCH   5   6
ENDBRANCH   4   5
ENDBRANCH   3   4
ENDBRANCH   2   3
ENDBRANCH   1   2
BRANCH   1  11
ATOM     11  C   UNL     1      27.487  18.875  12.450  1.00  0.00     0.000 C 
BRANCH  11  12
ATOM     12  C   UNL     1      27.823  18.391  11.031  1.00  0.00    -0.000 C 
BRANCH  12  13
ATOM     13  C   UNL     1      28.691  17.124  11.031  1.00  0.00    -0.000 C 
BRANCH  13  14
ATOM     14  C   UNL     1      27.834  15.872  10.787  1.00  0.00    -0.000 C 
BRANCH  14  15
ATOM     15  C   UNL     1      28.653  14.573  10.850  1.00  0.00    -0.000 C 
BRANCH  15  16
ATOM     16  C   UNL     1      29.343  14.374  12.211  1.00  0.00    -0.000 C 
BRANCH  16  17
ATOM     17  C   UNL     1      29.025  13.009  12.837  1.00  0.00    -0.003 C 
ATOM     18  C   UNL     1      29.003  11.879  11.809  1.00  0.00     0.004 C 
ENDBRANCH  16  17
ENDBRANCH  15  16
ENDBRANCH  14  15
ENDBRANCH  13  14
ENDBRANCH  12  13
ENDBRANCH  11  12
ENDBRANCH   1  11
TORSDOF 14
ENDMDL
MODEL 6
REMARK VINA RESULT:    -1.479      2.815      4.670
REMARK INTER + INTRA:          -4.213
REMARK INTER:                  -2.735
REMARK INTRA:                  -1.479
REMARK UNBOUND:                -1.524
REMARK SMILES CCCCCCCCCCCCCCCC(=O)[O-]
REMARK SMILES IDX 9 1 10 2 11 3 12 4 13 5 14 6 15 7 16 8 17 9 18 10 8 11 7 12
REMARK SMILES IDX 6 13 5 14 4 15 3 16 2 17 1 18
REMARK H PARENT
REMARK Flexibility Score: inf
ROOT
ATOM      1  C   UNL     1      28.703  20.129  12.913  1.00  0.00     0.000 C 
ENDROOT
BRANCH   1   2
ATOM      2  C   UNL     1      27.571  19.149  12.539  1.00  0.00     0.000 C 
BRANCH   2   3
ATOM      3  C   UNL     1      27.716  18.541  11.131  1.00  0.00     0.000 C 
BRANCH   3   4
ATOM      4  C   UNL     1      28.572  17.262  11.058  1.00  0.00     0.000 C 
BRANCH   4   5
ATOM      5  C   UNL     1      27.802  15.988  10.664  1.00  0.00     0.000 C 
BRANCH   5   6
ATOM      6  C   UNL     1      28.680  14.725  10.691  1.00  0.00     0.006 C 
BRANCH   6   7
ATOM      7  C   UNL     1      29.381  14.537  12.042  1.00  0.00     0.053 C 
BRANCH   7   8
ATOM      8  C   UNL     1      29.042  13.218  12.665  1.00  0.00     0.041 C 
ATOM      9  O   UNL     1      28.781  13.147  13.895  1.00  0.00    -0.550 OA
ATOM     10  O   UNL     1      29.049  12.062  11.896  1.00  0.00    -0.550 OA
ENDBRANCH   7   8
ENDBRANCH   6   7
ENDBRANCH   5   6
ENDBRANCH   4   5
ENDBRANCH   3   4
ENDBRANCH   2   3
ENDBRANCH   1   2
BRANCH   1  11
ATOM     11  C   UNL     1      29.321  19.817  14.287  1.00  0.00     0.000 C 
BRANCH  11  12
ATOM     12  C   UNL     1      30.264  18.604  14.249  1.00  0.00    -0.000 C 
BRANCH  12  13
ATOM     13  C   UNL     1      29.790  17.461  15.160  1.00  0.00    -0.000 C 
BRANCH  13  14
ATOM     14  C   UNL     1      28.894  16.480  14.388  1.00  0.00    -0.000 C 
BRANCH  14  15
ATOM     15  C   UNL     1      27.423  16.556  14.824  1.00  0.00    -0.000 C 
BRANCH  15  16
ATOM     16  C   UNL     1      26.489  15.754  13.900  1.00  0.00    -0.000 C 
BRANCH  16  17
ATOM     17  C   UNL     1      25.047  15.700  14.424  1.00  0.00    -0.003 C 
ATOM     18  C   UNL     1      24.018  15.542  13.305  1.00  0.00     0.004 C 
ENDBRANCH  16  17
ENDBRANCH  15  16
ENDBRANCH  14  15
ENDBRANCH  13  14
ENDBRANCH  12  13
ENDBRANCH  11  12
ENDBRANCH   1  11
TORSDOF 14
ENDMDL
MODEL 7
REMARK VINA RESULT:    -1.321     16.887     18.444
REMARK INTER + INTRA:          -3.926
REMARK INTER:                  -2.759
REMARK INTRA:                  -1.167
REMARK UNBOUND:                -1.524
REMARK SMILES CCCCCCCCCCCCCCCC(=O)[O-]
REMARK SMILES IDX 9 1 10 2 11 3 12 4 13 5 14 6 15 7 16 8 17 9 18 10 8 11 7 12
REMARK SMILES IDX 6 13 5 14 4 15 3 16 2 17 1 18
REMARK H PARENT
REMARK Flexibility Score: inf
ROOT
ATOM      1  C   UNL     1      34.277   6.852  -1.530  1.00  0.00     0.000 C 
ENDROOT
BRANCH   1   2
ATOM      2  C   UNL     1      33.134   5.877  -1.884  1.00  0.00     0.000 C 
BRANCH   2   3
ATOM      3  C   UNL     1      31.780   6.570  -2.125  1.00  0.00     0.000 C 
BRANCH   3   4
ATOM      4  C   UNL     1      31.170   7.258  -0.887  1.00  0.00     0.000 C 
BRANCH   4   5
ATOM      5  C   UNL     1      30.056   6.460  -0.186  1.00  0.00     0.000 C 
BRANCH   5   6
ATOM      6  C   UNL     1      28.688   6.611  -0.873  1.00  0.00     0.006 C 
BRANCH   6   7
ATOM      7  C   UNL     1      28.499   8.006  -1.486  1.00  0.00     0.053 C 
BRANCH   7   8
ATOM      8  C   UNL     1      27.051   8.351  -1.643  1.00  0.00     0.041 C 
ATOM      9  O   UNL     1      26.219   7.461  -1.964  1.00  0.00    -0.550 OA
ATOM     10  O   UNL     1      26.624   9.661  -1.472  1.00  0.00    -0.550 OA
ENDBRANCH   7   8
ENDBRANCH   6   7
ENDBRANCH   5   6
ENDBRANCH   4   5
ENDBRANCH   3   4
ENDBRANCH   2   3
ENDBRANCH   1   2
BRANCH   1  11
ATOM     11  C   UNL     1      34.612   6.846  -0.028  1.00  0.00     0.000 C 
BRANCH  11  12
ATOM     12  C   UNL     1      34.025   8.057   0.713  1.00  0.00    -0.000 C 
BRANCH  12  13
ATOM     13  C   UNL     1      35.041   9.197   0.876  1.00  0.00    -0.000 C 
BRANCH  13  14
ATOM     14  C   UNL     1      36.115   9.135  -0.220  1.00  0.00    -0.000 C 
BRANCH  14  15
ATOM     15  C   UNL     1      36.125  10.388  -1.110  1.00  0.00    -0.000 C 
BRANCH  15  16
ATOM     16  C   UNL     1      34.875  11.264  -0.912  1.00  0.00    -0.000 C 
BRANCH  16  17
ATOM     17  C   UNL     1      33.933  11.225  -2.125  1.00  0.00    -0.003 C 
ATOM     18  C   UNL     1      32.624  10.492  -1.833  1.00  0.00     0.004 C 
ENDBRANCH  16  17
ENDBRANCH  15  16
ENDBRANCH  14  15
ENDBRANCH  13  14
ENDBRANCH  12  13
ENDBRANCH  11  12
ENDBRANCH   1  11
TORSDOF 14
ENDMDL
MODEL 8
REMARK VINA RESULT:    -1.307      4.675      8.583
REMARK INTER + INTRA:          -3.901
REMARK INTER:                  -3.282
REMARK INTRA:                  -0.619
REMARK UNBOUND:                -1.524
REMARK SMILES CCCCCCCCCCCCCCCC(=O)[O-]
REMARK SMILES IDX 9 1 10 2 11 3 12 4 13 5 14 6 15 7 16 8 17 9 18 10 8 11 7 12
REMARK SMILES IDX 6 13 5 14 4 15 3 16 2 17 1 18
REMARK H PARENT
REMARK Flexibility Score: inf
ROOT
ATOM      1  C   UNL     1      32.740  19.377  14.722  1.00  0.00     0.000 C 
ENDROOT
BRANCH   1   2
ATOM      2  C   UNL     1      31.424  19.498  15.520  1.00  0.00     0.000 C 
BRANCH   2   3
ATOM      3  C   UNL     1      30.159  19.332  14.658  1.00  0.00     0.000 C 
BRANCH   3   4
ATOM      4  C   UNL     1      29.691  17.877  14.460  1.00  0.00     0.000 C 
BRANCH   4   5
ATOM      5  C   UNL     1      28.707  17.665  13.295  1.00  0.00     0.000 C 
BRANCH   5   6
ATOM      6  C   UNL     1      27.648  16.590  13.594  1.00  0.00     0.006 C 
BRANCH   6   7
ATOM      7  C   UNL     1      28.279  15.225  13.899  1.00  0.00     0.053 C 
BRANCH   7   8
ATOM      8  C   UNL     1      28.754  14.542  12.654  1.00  0.00     0.041 C 
ATOM      9  O   UNL     1      29.299  13.409  12.722  1.00  0.00    -0.550 OA
ATOM     10  O   UNL     1      28.630  15.172  11.422  1.00  0.00    -0.550 OA
ENDBRANCH   7   8
ENDBRANCH   6   7
ENDBRANCH   5   6
ENDBRANCH   4   5
ENDBRANCH   3   4
ENDBRANCH   2   3
ENDBRANCH   1   2
BRANCH   1  11
ATOM     11  C   UNL     1      33.810  20.376  15.199  1.00  0.00     0.000 C 
BRANCH  11  12
ATOM     12  C   UNL     1      34.955  20.542  14.187  1.00  0.00    -0.000 C 
BRANCH  12  13
ATOM     13  C   UNL     1      36.020  21.542  14.663  1.00  0.00    -0.000 C 
BRANCH  13  14
ATOM     14  C   UNL     1      36.008  22.810  13.795  1.00  0.00    -0.000 C 
BRANCH  14  15
ATOM     15  C   UNL     1      35.907  24.097  14.630  1.00  0.00    -0.000 C 
BRANCH  15  16
ATOM     16  C   UNL     1      34.743  24.059  15.637  1.00  0.00    -0.000 C 
BRANCH  16  17
ATOM     17  C   UNL     1      35.154  24.561  17.029  1.00  0.00    -0.003 C 
ATOM     18  C   UNL     1      36.109  23.606  17.743  1.00  0.00     0.004 C 
ENDBRANCH  16  17
ENDBRANCH  15  16
ENDBRANCH  14  15
ENDBRANCH  13  14
ENDBRANCH  12  13
ENDBRANCH  11  12
ENDBRANCH   1  11
TORSDOF 14
ENDMDL
MODEL 9
REMARK VINA RESULT:    -1.181      1.166      2.055
REMARK INTER + INTRA:          -3.672
REMARK INTER:                  -2.652
REMARK INTRA:                  -1.021
REMARK UNBOUND:                -1.524
REMARK SMILES CCCCCCCCCCCCCCCC(=O)[O-]
REMARK SMILES IDX 9 1 10 2 11 3 12 4 13 5 14 6 15 7 16 8 17 9 18 10 8 11 7 12
REMARK SMILES IDX 6 13 5 14 4 15 3 16 2 17 1 18
REMARK H PARENT
REMARK Flexibility Score: inf
ROOT
ATOM      1  C   UNL     1      27.505  18.294  11.269  1.00  0.00     0.000 C 
ENDROOT
BRANCH   1   2
ATOM      2  C   UNL     1      27.687  19.042  12.606  1.00  0.00     0.000 C 
BRANCH   2   3
ATOM      3  C   UNL     1      28.743  18.409  13.532  1.00  0.00     0.000 C 
BRANCH   3   4
ATOM      4  C   UNL     1      29.716  19.408  14.189  1.00  0.00     0.000 C 
BRANCH   4   5
ATOM      5  C   UNL     1      30.751  18.775  15.138  1.00  0.00     0.000 C 
BRANCH   5   6
ATOM      6  C   UNL     1      31.908  19.729  15.483  1.00  0.00     0.006 C 
BRANCH   6   7
ATOM      7  C   UNL     1      32.145  19.826  16.996  1.00  0.00     0.053 C 
BRANCH   7   8
ATOM      8  C   UNL     1      30.868  20.046  17.746  1.00  0.00     0.041 C 
ATOM      9  O   UNL     1      30.547  21.204  18.125  1.00  0.00    -0.550 OA
ATOM     10  O   UNL     1      30.049  18.969  18.058  1.00  0.00    -0.550 OA
ENDBRANCH   7   8
ENDBRANCH   6   7
ENDBRANCH   5   6
ENDBRANCH   4   5
ENDBRANCH   3   4
ENDBRANCH   2   3
ENDBRANCH   1   2
BRANCH   1  11
ATOM     11  C   UNL     1      28.670  17.335  10.967  1.00  0.00     0.000 C 
BRANCH  11  12
ATOM     12  C   UNL     1      28.243  15.859  10.995  1.00  0.00    -0.000 C 
BRANCH  12  13
ATOM     13  C   UNL     1      29.344  14.937  11.540  1.00  0.00    -0.000 C 
BRANCH  13  14
ATOM     14  C   UNL     1      28.869  14.204  12.805  1.00  0.00    -0.000 C 
BRANCH  14  15
ATOM     15  C   UNL     1      28.238  15.154  13.835  1.00  0.00    -0.000 C 
BRANCH  15  16
ATOM     16  C   UNL     1      26.725  14.928  14.000  1.00  0.00    -0.000 C 
BRANCH  16  17
ATOM     17  C   UNL     1      26.004  16.162  14.563  1.00  0.00    -0.003 C 
ATOM     18  C   UNL     1      24.494  16.119  14.335  1.00  0.00     0.004 C 
ENDBRANCH  16  17
ENDBRANCH  15  16
ENDBRANCH  14  15
ENDBRANCH  13  14
ENDBRANCH  12  13
ENDBRANCH  11  12
ENDBRANCH   1  11
TORSDOF 14
ENDMDL
