MODEL 1
REMARK VINA RESULT:    -5.669      0.000      0.000
REMARK INTER + INTRA:          -6.827
REMARK INTER:                  -6.664
REMARK INTRA:                  -0.163
REMARK UNBOUND:                -0.163
REMARK SMILES COc1ccc(C=CC(=O)[O-])cc1
REMARK SMILES IDX 6 1 5 2 12 3 4 4 13 5 3 6 7 7 8 8 9 9 10 10 11 11 2 12 1 13
REMARK H PARENT
REMARK Flexibility Score: inf
ROOT
ATOM      1  C   UNL     1     -43.314 -39.668 105.380  1.00  0.00    -0.025 A 
ATOM      2  C   UNL     1     -44.031 -39.725 106.592  1.00  0.00     0.012 A 
ATOM      3  C   UNL     1     -42.848 -38.423 104.928  1.00  0.00     0.012 A 
ATOM      4  C   UNL     1     -44.294 -38.556 107.314  1.00  0.00     0.047 A 
ATOM      5  C   UNL     1     -43.113 -37.256 105.651  1.00  0.00     0.047 A 
ATOM      6  C   UNL     1     -43.842 -37.316 106.852  1.00  0.00     0.118 A 
ENDROOT
BRANCH   1   7
ATOM      7  C   UNL     1     -42.998 -40.878 104.582  1.00  0.00     0.010 C 
ATOM      8  C   UNL     1     -41.764 -41.382 104.451  1.00  0.00     0.025 C 
BRANCH   8   9
ATOM      9  C   UNL     1     -41.498 -42.592 103.657  1.00  0.00     0.064 C 
ATOM     10  O   UNL     1     -42.120 -42.777 102.578  1.00  0.00    -0.545 OA
ATOM     11  O   UNL     1     -40.570 -43.538 104.079  1.00  0.00    -0.545 OA
ENDBRANCH   8   9
ENDBRANCH   1   7
BRANCH   6  12
ATOM     12  O   UNL     1     -44.134 -36.174 107.614  1.00  0.00    -0.497 OA
ATOM     13  C   UNL     1     -43.191 -35.154 107.927  1.00  0.00     0.278 C 
ENDBRANCH   6  12
TORSDOF 3
ENDMDL
MODEL 2
REMARK VINA RESULT:    -5.663      1.056      1.947
REMARK INTER + INTRA:          -6.819
REMARK INTER:                  -6.655
REMARK INTRA:                  -0.164
REMARK UNBOUND:                -0.163
REMARK SMILES COc1ccc(C=CC(=O)[O-])cc1
REMARK SMILES IDX 6 1 5 2 12 3 4 4 13 5 3 6 7 7 8 8 9 9 10 10 11 11 2 12 1 13
REMARK H PARENT
REMARK Flexibility Score: inf
ROOT
ATOM      1  C   UNL     1     -42.691 -40.409 105.264  1.00  0.00    -0.025 A 
ATOM      2  C   UNL     1     -42.262 -39.132 104.849  1.00  0.00     0.012 A 
ATOM      3  C   UNL     1     -43.856 -40.511 106.040  1.00  0.00     0.012 A 
ATOM      4  C   UNL     1     -42.973 -37.988 105.230  1.00  0.00     0.047 A 
ATOM      5  C   UNL     1     -44.565 -39.367 106.420  1.00  0.00     0.047 A 
ATOM      6  C   UNL     1     -44.124 -38.093 106.017  1.00  0.00     0.118 A 
ENDROOT
BRANCH   1   7
ATOM      7  C   UNL     1     -41.982 -41.654 104.879  1.00  0.00     0.010 C 
ATOM      8  C   UNL     1     -41.772 -42.030 103.610  1.00  0.00     0.025 C 
BRANCH   8   9
ATOM      9  C   UNL     1     -41.053 -43.269 103.275  1.00  0.00     0.064 C 
ATOM     10  O   UNL     1     -40.344 -43.832 104.149  1.00  0.00    -0.545 OA
ATOM     11  O   UNL     1     -41.141 -43.828 102.005  1.00  0.00    -0.545 OA
ENDBRANCH   8   9
ENDBRANCH   1   7
BRANCH   6  12
ATOM     12  O   UNL     1     -44.798 -36.915 106.372  1.00  0.00    -0.497 OA
ATOM     13  C   UNL     1     -44.152 -35.700 106.742  1.00  0.00     0.278 C 
ENDBRANCH   6  12
TORSDOF 3
ENDMDL
MODEL 3
REMARK VINA RESULT:    -5.652      2.535      7.239
REMARK INTER + INTRA:          -6.807
REMARK INTER:                  -6.634
REMARK INTRA:                  -0.173
REMARK UNBOUND:                -0.163
REMARK SMILES COc1ccc(C=CC(=O)[O-])cc1
REMARK SMILES IDX 6 1 5 2 12 3 4 4 13 5 3 6 7 7 8 8 9 9 10 10 11 11 2 12 1 13
REMARK H PARENT
REMARK Flexibility Score: inf
ROOT
ATOM      1  C   UNL     1     -40.790 -41.503 103.182  1.00  0.00    -0.025 A 
ATOM      2  C   UNL     1     -39.750 -41.616 102.237  1.00  0.00     0.012 A 
ATOM      3  C   UNL     1     -41.292 -42.671 103.777  1.00  0.00     0.012 A 
ATOM      4  C   UNL     1     -39.248 -42.873 101.884  1.00  0.00     0.047 A 
ATOM      5  C   UNL     1     -40.790 -43.927 103.423  1.00  0.00     0.047 A 
ATOM      6  C   UNL     1     -39.762 -44.035 102.468  1.00  0.00     0.118 A 
ENDROOT
BRANCH   1   7
ATOM      7  C   UNL     1     -41.351 -40.195 103.600  1.00  0.00     0.010 C 
ATOM      8  C   UNL     1     -41.960 -39.987 104.776  1.00  0.00     0.025 C 
BRANCH   8   9
ATOM      9  C   UNL     1     -42.491 -38.669 105.154  1.00  0.00     0.064 C 
ATOM     10  O   UNL     1     -43.532 -38.234 104.595  1.00  0.00    -0.545 OA
ATOM     11  O   UNL     1     -41.862 -37.891 106.120  1.00  0.00    -0.545 OA
ENDBRANCH   8   9
ENDBRANCH   1   7
BRANCH   6  12
ATOM     12  O   UNL     1     -39.224 -45.271 102.077  1.00  0.00    -0.497 OA
ATOM     13  C   UNL     1     -38.926 -46.337 102.974  1.00  0.00     0.278 C 
ENDBRANCH   6  12
TORSDOF 3
ENDMDL
MODEL 4
REMARK VINA RESULT:    -5.629      2.583      7.188
REMARK INTER + INTRA:          -6.779
REMARK INTER:                  -6.615
REMARK INTRA:                  -0.164
REMARK UNBOUND:                -0.163
REMARK SMILES COc1ccc(C=CC(=O)[O-])cc1
REMARK SMILES IDX 6 1 5 2 12 3 4 4 13 5 3 6 7 7 8 8 9 9 10 10 11 11 2 12 1 13
REMARK H PARENT
REMARK Flexibility Score: inf
ROOT
ATOM      1  C   UNL     1     -40.726 -41.541 103.229  1.00  0.00    -0.025 A 
ATOM      2  C   UNL     1     -41.307 -42.757 103.643  1.00  0.00     0.012 A 
ATOM      3  C   UNL     1     -39.590 -41.581 102.406  1.00  0.00     0.012 A 
ATOM      4  C   UNL     1     -40.743 -43.977 103.259  1.00  0.00     0.047 A 
ATOM      5  C   UNL     1     -39.026 -42.802 102.024  1.00  0.00     0.047 A 
ATOM      6  C   UNL     1     -39.601 -44.013 102.452  1.00  0.00     0.118 A 
ENDROOT
BRANCH   1   7
ATOM      7  C   UNL     1     -41.291 -40.219 103.598  1.00  0.00     0.010 C 
ATOM      8  C   UNL     1     -42.179 -40.038 104.585  1.00  0.00     0.025 C 
BRANCH   8   9
ATOM      9  C   UNL     1     -42.704 -38.706 104.924  1.00  0.00     0.064 C 
ATOM     10  O   UNL     1     -42.059 -37.965 105.711  1.00  0.00    -0.545 OA
ATOM     11  O   UNL     1     -43.905 -38.251 104.389  1.00  0.00    -0.545 OA
ENDBRANCH   8   9
ENDBRANCH   1   7
BRANCH   6  12
ATOM     12  O   UNL     1     -39.074 -45.264 102.098  1.00  0.00    -0.497 OA
ATOM     13  C   UNL     1     -38.924 -46.357 102.999  1.00  0.00     0.278 C 
ENDBRANCH   6  12
TORSDOF 3
ENDMDL
MODEL 5
REMARK VINA RESULT:    -5.622      1.078      1.472
REMARK INTER + INTRA:          -6.771
REMARK INTER:                  -6.604
REMARK INTRA:                  -0.167
REMARK UNBOUND:                -0.163
REMARK SMILES COc1ccc(C=CC(=O)[O-])cc1
REMARK SMILES IDX 6 1 5 2 12 3 4 4 13 5 3 6 7 7 8 8 9 9 10 10 11 11 2 12 1 13
REMARK H PARENT
REMARK Flexibility Score: inf
ROOT
ATOM      1  C   UNL     1     -42.743 -40.518 105.234  1.00  0.00    -0.025 A 
ATOM      2  C   UNL     1     -43.920 -40.567 106.007  1.00  0.00     0.012 A 
ATOM      3  C   UNL     1     -42.225 -39.266 104.868  1.00  0.00     0.012 A 
ATOM      4  C   UNL     1     -44.571 -39.386 106.379  1.00  0.00     0.047 A 
ATOM      5  C   UNL     1     -42.878 -38.087 105.240  1.00  0.00     0.047 A 
ATOM      6  C   UNL     1     -44.062 -38.140 105.999  1.00  0.00     0.118 A 
ENDROOT
BRANCH   1   7
ATOM      7  C   UNL     1     -42.007 -41.739 104.823  1.00  0.00     0.010 C 
ATOM      8  C   UNL     1     -41.725 -42.045 103.549  1.00  0.00     0.025 C 
BRANCH   8   9
ATOM      9  C   UNL     1     -40.981 -43.262 103.188  1.00  0.00     0.064 C 
ATOM     10  O   UNL     1     -40.300 -43.858 104.063  1.00  0.00    -0.545 OA
ATOM     11  O   UNL     1     -41.018 -43.767 101.892  1.00  0.00    -0.545 OA
ENDBRANCH   8   9
ENDBRANCH   1   7
BRANCH   6  12
ATOM     12  O   UNL     1     -44.755 -36.987 106.396  1.00  0.00    -0.497 OA
ATOM     13  C   UNL     1     -44.132 -35.748 106.723  1.00  0.00     0.278 C 
ENDBRANCH   6  12
TORSDOF 3
ENDMDL
MODEL 6
REMARK VINA RESULT:    -5.604      2.395      7.024
REMARK INTER + INTRA:          -6.749
REMARK INTER:                  -6.594
REMARK INTRA:                  -0.156
REMARK UNBOUND:                -0.163
REMARK SMILES COc1ccc(C=CC(=O)[O-])cc1
REMARK SMILES IDX 6 1 5 2 12 3 4 4 13 5 3 6 7 7 8 8 9 9 10 10 11 11 2 12 1 13
REMARK H PARENT
REMARK Flexibility Score: inf
ROOT
ATOM      1  C   UNL     1     -41.409 -42.024 104.078  1.00  0.00    -0.025 A 
ATOM      2  C   UNL     1     -40.305 -42.571 104.763  1.00  0.00     0.012 A 
ATOM      3  C   UNL     1     -41.776 -42.575 102.840  1.00  0.00     0.012 A 
ATOM      4  C   UNL     1     -39.577 -43.626 104.203  1.00  0.00     0.047 A 
ATOM      5  C   UNL     1     -41.047 -43.629 102.282  1.00  0.00     0.047 A 
ATOM      6  C   UNL     1     -39.937 -44.161 102.962  1.00  0.00     0.118 A 
ENDROOT
BRANCH   1   7
ATOM      7  C   UNL     1     -42.222 -40.913 104.631  1.00  0.00     0.010 C 
ATOM      8  C   UNL     1     -41.905 -39.618 104.494  1.00  0.00     0.025 C 
BRANCH   8   9
ATOM      9  C   UNL     1     -42.747 -38.548 105.050  1.00  0.00     0.064 C 
ATOM     10  O   UNL     1     -43.882 -38.328 104.552  1.00  0.00    -0.545 OA
ATOM     11  O   UNL     1     -42.310 -37.773 106.119  1.00  0.00    -0.545 OA
ENDBRANCH   8   9
ENDBRANCH   1   7
BRANCH   6  12
ATOM     12  O   UNL     1     -39.172 -45.218 102.445  1.00  0.00    -0.497 OA
ATOM     13  C   UNL     1     -38.739 -46.343 103.205  1.00  0.00     0.278 C 
ENDBRANCH   6  12
TORSDOF 3
ENDMDL
MODEL 7
REMARK VINA RESULT:    -5.576      1.547      6.346
REMARK INTER + INTRA:          -6.717
REMARK INTER:                  -6.557
REMARK INTRA:                  -0.160
REMARK UNBOUND:                -0.163
REMARK SMILES COc1ccc(C=CC(=O)[O-])cc1
REMARK SMILES IDX 6 1 5 2 12 3 4 4 13 5 3 6 7 7 8 8 9 9 10 10 11 11 2 12 1 13
REMARK H PARENT
REMARK Flexibility Score: inf
ROOT
ATOM      1  C   UNL     1     -43.043 -39.061 104.514  1.00  0.00    -0.025 A 
ATOM      2  C   UNL     1     -41.707 -39.469 104.698  1.00  0.00     0.012 A 
ATOM      3  C   UNL     1     -43.834 -39.742 103.575  1.00  0.00     0.012 A 
ATOM      4  C   UNL     1     -41.175 -40.517 103.939  1.00  0.00     0.047 A 
ATOM      5  C   UNL     1     -43.301 -40.788 102.816  1.00  0.00     0.047 A 
ATOM      6  C   UNL     1     -41.962 -41.182 102.993  1.00  0.00     0.118 A 
ENDROOT
BRANCH   1   7
ATOM      7  C   UNL     1     -43.660 -37.964 105.300  1.00  0.00     0.010 C 
ATOM      8  C   UNL     1     -43.010 -36.847 105.656  1.00  0.00     0.025 C 
BRANCH   8   9
ATOM      9  C   UNL     1     -43.665 -35.779 106.427  1.00  0.00     0.064 C 
ATOM     10  O   UNL     1     -44.883 -35.887 106.729  1.00  0.00    -0.545 OA
ATOM     11  O   UNL     1     -42.961 -34.649 106.829  1.00  0.00    -0.545 OA
ENDBRANCH   8   9
ENDBRANCH   1   7
BRANCH   6  12
ATOM     12  O   UNL     1     -41.379 -42.225 102.257  1.00  0.00    -0.497 OA
ATOM     13  C   UNL     1     -41.018 -43.490 102.804  1.00  0.00     0.278 C 
ENDBRANCH   6  12
TORSDOF 3
ENDMDL
MODEL 8
REMARK VINA RESULT:    -5.465      2.053      6.725
REMARK INTER + INTRA:          -6.586
REMARK INTER:                  -6.430
REMARK INTRA:                  -0.156
REMARK UNBOUND:                -0.163
REMARK SMILES COc1ccc(C=CC(=O)[O-])cc1
REMARK SMILES IDX 6 1 5 2 12 3 4 4 13 5 3 6 7 7 8 8 9 9 10 10 11 11 2 12 1 13
REMARK H PARENT
REMARK Flexibility Score: inf
ROOT
ATOM      1  C   UNL     1     -41.783 -40.668 103.543  1.00  0.00    -0.025 A 
ATOM      2  C   UNL     1     -40.533 -40.272 103.024  1.00  0.00     0.012 A 
ATOM      3  C   UNL     1     -42.107 -42.034 103.555  1.00  0.00     0.012 A 
ATOM      4  C   UNL     1     -39.648 -41.224 102.508  1.00  0.00     0.047 A 
ATOM      5  C   UNL     1     -41.221 -42.984 103.037  1.00  0.00     0.047 A 
ATOM      6  C   UNL     1     -39.982 -42.582 102.507  1.00  0.00     0.118 A 
ENDROOT
BRANCH   1   7
ATOM      7  C   UNL     1     -42.754 -39.702 104.113  1.00  0.00     0.010 C 
ATOM      8  C   UNL     1     -42.404 -38.658 104.876  1.00  0.00     0.025 C 
BRANCH   8   9
ATOM      9  C   UNL     1     -43.401 -37.717 105.412  1.00  0.00     0.064 C 
ATOM     10  O   UNL     1     -43.078 -36.518 105.615  1.00  0.00    -0.545 OA
ATOM     11  O   UNL     1     -44.697 -38.132 105.700  1.00  0.00    -0.545 OA
ENDBRANCH   8   9
ENDBRANCH   1   7
BRANCH   6  12
ATOM     12  O   UNL     1     -39.058 -43.495 101.975  1.00  0.00    -0.497 OA
ATOM     13  C   UNL     1     -38.069 -44.175 102.742  1.00  0.00     0.278 C 
ENDBRANCH   6  12
TORSDOF 3
ENDMDL
MODEL 9
REMARK VINA RESULT:    -5.403      2.379      3.512
REMARK INTER + INTRA:          -6.514
REMARK INTER:                  -6.347
REMARK INTRA:                  -0.167
REMARK UNBOUND:                -0.163
REMARK SMILES COc1ccc(C=CC(=O)[O-])cc1
REMARK SMILES IDX 6 1 5 2 12 3 4 4 13 5 3 6 7 7 8 8 9 9 10 10 11 11 2 12 1 13
REMARK H PARENT
REMARK Flexibility Score: inf
ROOT
ATOM      1  C   UNL     1     -42.018 -42.018 103.480  1.00  0.00    -0.025 A 
ATOM      2  C   UNL     1     -41.954 -41.736 104.859  1.00  0.00     0.012 A 
ATOM      3  C   UNL     1     -42.884 -41.261 102.675  1.00  0.00     0.012 A 
ATOM      4  C   UNL     1     -42.760 -40.737 105.416  1.00  0.00     0.047 A 
ATOM      5  C   UNL     1     -43.690 -40.263 103.233  1.00  0.00     0.047 A 
ATOM      6  C   UNL     1     -43.633 -39.996 104.614  1.00  0.00     0.118 A 
ENDROOT
BRANCH   1   7
ATOM      7  C   UNL     1     -41.178 -43.058 102.837  1.00  0.00     0.010 C 
ATOM      8  C   UNL     1     -40.589 -44.058 103.506  1.00  0.00     0.025 C 
BRANCH   8   9
ATOM      9  C   UNL     1     -39.773 -45.075 102.825  1.00  0.00     0.064 C 
ATOM     10  O   UNL     1     -40.214 -46.248 102.704  1.00  0.00    -0.545 OA
ATOM     11  O   UNL     1     -38.518 -44.763 102.314  1.00  0.00    -0.545 OA
ENDBRANCH   8   9
ENDBRANCH   1   7
BRANCH   6  12
ATOM     12  O   UNL     1     -44.421 -39.007 105.222  1.00  0.00    -0.497 OA
ATOM     13  C   UNL     1     -44.672 -38.929 106.623  1.00  0.00     0.278 C 
ENDBRANCH   6  12
TORSDOF 3
ENDMDL
