MODEL 1
REMARK VINA RESULT:     4.717      0.000      0.000
REMARK INTER + INTRA:           6.888
REMARK INTER:                   7.199
REMARK INTRA:                  -0.311
REMARK UNBOUND:                -0.311
REMARK SMILES CCCCCCCCCCC(=O)[O-]
REMARK SMILES IDX 7 1 8 2 9 3 10 4 11 5 12 6 13 7 6 8 5 9 4 10 3 11 2 12 1 13
REMARK H PARENT
REMARK Flexibility Score: inf
ROOT
ATOM      1  C   UNL     1     -34.318  13.347  17.039  1.00  0.00     0.000 C 
ENDROOT
BRANCH   1   2
ATOM      2  C   UNL     1     -32.958  12.665  17.279  1.00  0.00     0.000 C 
BRANCH   2   3
ATOM      3  C   UNL     1     -32.663  12.296  18.747  1.00  0.00     0.006 C 
BRANCH   3   4
ATOM      4  C   UNL     1     -33.162  10.905  19.168  1.00  0.00     0.053 C 
BRANCH   4   5
ATOM      5  C   UNL     1     -33.834  10.930  20.506  1.00  0.00     0.041 C 
ATOM      6  O   UNL     1     -34.004  12.021  21.109  1.00  0.00    -0.550 OA
ATOM      7  O   UNL     1     -34.242   9.743  21.102  1.00  0.00    -0.550 OA
ENDBRANCH   4   5
ENDBRANCH   3   4
ENDBRANCH   2   3
ENDBRANCH   1   2
BRANCH   1   8
ATOM      8  C   UNL     1     -34.528  14.589  17.919  1.00  0.00     0.000 C 
BRANCH   8   9
ATOM      9  C   UNL     1     -35.007  15.781  17.081  1.00  0.00    -0.000 C 
BRANCH   9  10
ATOM     10  C   UNL     1     -35.414  16.957  17.981  1.00  0.00    -0.000 C 
BRANCH  10  11
ATOM     11  C   UNL     1     -36.932  17.029  18.224  1.00  0.00    -0.000 C 
BRANCH  11  12
ATOM     12  C   UNL     1     -37.669  15.682  18.114  1.00  0.00    -0.003 C 
ATOM     13  C   UNL     1     -39.018  15.677  18.832  1.00  0.00     0.004 C 
ENDBRANCH  11  12
ENDBRANCH  10  11
ENDBRANCH   9  10
ENDBRANCH   8   9
ENDBRANCH   1   8
TORSDOF 9
ENDMDL
MODEL 2
REMARK VINA RESULT:     4.776      2.820      5.909
REMARK INTER + INTRA:           6.978
REMARK INTER:                   7.289
REMARK INTRA:                  -0.310
REMARK UNBOUND:                -0.311
REMARK SMILES CCCCCCCCCCC(=O)[O-]
REMARK SMILES IDX 7 1 8 2 9 3 10 4 11 5 12 6 13 7 6 8 5 9 4 10 3 11 2 12 1 13
REMARK H PARENT
REMARK Flexibility Score: inf
ROOT
ATOM      1  C   UNL     1     -34.858  15.762  17.039  1.00  0.00     0.000 C 
ENDROOT
BRANCH   1   2
ATOM      2  C   UNL     1     -35.284  16.932  17.944  1.00  0.00     0.000 C 
BRANCH   2   3
ATOM      3  C   UNL     1     -36.795  17.009  18.244  1.00  0.00     0.006 C 
BRANCH   3   4
ATOM      4  C   UNL     1     -37.570  15.716  17.949  1.00  0.00     0.053 C 
BRANCH   4   5
ATOM      5  C   UNL     1     -38.927  15.718  18.582  1.00  0.00     0.041 C 
ATOM      6  O   UNL     1     -39.130  15.077  19.647  1.00  0.00    -0.550 OA
ATOM      7  O   UNL     1     -39.977  16.400  17.979  1.00  0.00    -0.550 OA
ENDBRANCH   4   5
ENDBRANCH   3   4
ENDBRANCH   2   3
ENDBRANCH   1   2
BRANCH   1   8
ATOM      8  C   UNL     1     -34.439  14.514  17.831  1.00  0.00     0.000 C 
BRANCH   8   9
ATOM      9  C   UNL     1     -34.348  13.287  16.915  1.00  0.00    -0.000 C 
BRANCH   9  10
ATOM     10  C   UNL     1     -33.216  12.350  17.362  1.00  0.00    -0.000 C 
BRANCH  10  11
ATOM     11  C   UNL     1     -32.984  12.372  18.883  1.00  0.00    -0.000 C 
BRANCH  11  12
ATOM     12  C   UNL     1     -33.254  11.034  19.597  1.00  0.00    -0.003 C 
ATOM     13  C   UNL     1     -34.070  11.193  20.879  1.00  0.00     0.004 C 
ENDBRANCH  11  12
ENDBRANCH  10  11
ENDBRANCH   9  10
ENDBRANCH   8   9
ENDBRANCH   1   8
TORSDOF 9
ENDMDL
MODEL 3
REMARK VINA RESULT:     5.028      1.237      2.350
REMARK INTER + INTRA:           7.363
REMARK INTER:                   7.822
REMARK INTRA:                  -0.458
REMARK UNBOUND:                -0.311
REMARK SMILES CCCCCCCCCCC(=O)[O-]
REMARK SMILES IDX 7 1 8 2 9 3 10 4 11 5 12 6 13 7 6 8 5 9 4 10 3 11 2 12 1 13
REMARK H PARENT
REMARK Flexibility Score: inf
ROOT
ATOM      1  C   UNL     1     -35.105  15.511  17.011  1.00  0.00     0.000 C 
ENDROOT
BRANCH   1   2
ATOM      2  C   UNL     1     -34.394  14.383  17.780  1.00  0.00     0.000 C 
BRANCH   2   3
ATOM      3  C   UNL     1     -33.798  13.267  16.897  1.00  0.00     0.006 C 
BRANCH   3   4
ATOM      4  C   UNL     1     -33.721  11.891  17.575  1.00  0.00     0.053 C 
BRANCH   4   5
ATOM      5  C   UNL     1     -32.979  11.946  18.875  1.00  0.00     0.041 C 
ATOM      6  O   UNL     1     -31.756  12.243  18.894  1.00  0.00    -0.550 OA
ATOM      7  O   UNL     1     -33.630  11.635  20.062  1.00  0.00    -0.550 OA
ENDBRANCH   4   5
ENDBRANCH   3   4
ENDBRANCH   2   3
ENDBRANCH   1   2
BRANCH   1   8
ATOM      8  C   UNL     1     -35.166  16.828  17.800  1.00  0.00     0.000 C 
BRANCH   8   9
ATOM      9  C   UNL     1     -36.603  17.141  18.237  1.00  0.00    -0.000 C 
BRANCH   9  10
ATOM     10  C   UNL     1     -37.569  16.036  17.782  1.00  0.00    -0.000 C 
BRANCH  10  11
ATOM     11  C   UNL     1     -38.530  15.585  18.896  1.00  0.00    -0.000 C 
BRANCH  11  12
ATOM     12  C   UNL     1     -40.025  15.764  18.572  1.00  0.00    -0.003 C 
ATOM     13  C   UNL     1     -40.273  16.694  17.385  1.00  0.00     0.004 C 
ENDBRANCH  11  12
ENDBRANCH  10  11
ENDBRANCH   9  10
ENDBRANCH   8   9
ENDBRANCH   1   8
TORSDOF 9
ENDMDL
MODEL 4
REMARK VINA RESULT:     6.495      1.200      1.983
REMARK INTER + INTRA:           9.601
REMARK INTER:                  10.083
REMARK INTRA:                  -0.481
REMARK UNBOUND:                -0.311
REMARK SMILES CCCCCCCCCCC(=O)[O-]
REMARK SMILES IDX 7 1 8 2 9 3 10 4 11 5 12 6 13 7 6 8 5 9 4 10 3 11 2 12 1 13
REMARK H PARENT
REMARK Flexibility Score: inf
ROOT
ATOM      1  C   UNL     1     -34.253  13.095  17.252  1.00  0.00     0.000 C 
ENDROOT
BRANCH   1   2
ATOM      2  C   UNL     1     -32.929  12.388  17.593  1.00  0.00     0.000 C 
BRANCH   2   3
ATOM      3  C   UNL     1     -32.940  11.581  18.908  1.00  0.00     0.006 C 
BRANCH   3   4
ATOM      4  C   UNL     1     -33.599  12.303  20.094  1.00  0.00     0.053 C 
BRANCH   4   5
ATOM      5  C   UNL     1     -34.063  11.345  21.147  1.00  0.00     0.041 C 
ATOM      6  O   UNL     1     -34.341  11.759  22.303  1.00  0.00    -0.550 OA
ATOM      7  O   UNL     1     -34.155   9.988  20.862  1.00  0.00    -0.550 OA
ENDBRANCH   4   5
ENDBRANCH   3   4
ENDBRANCH   2   3
ENDBRANCH   1   2
BRANCH   1   8
ATOM      8  C   UNL     1     -34.097  14.158  16.153  1.00  0.00     0.000 C 
BRANCH   8   9
ATOM      9  C   UNL     1     -35.038  15.344  16.400  1.00  0.00    -0.000 C 
BRANCH   9  10
ATOM     10  C   UNL     1     -35.354  15.495  17.895  1.00  0.00    -0.000 C 
BRANCH  10  11
ATOM     11  C   UNL     1     -36.339  16.641  18.188  1.00  0.00    -0.000 C 
BRANCH  11  12
ATOM     12  C   UNL     1     -35.748  18.055  18.037  1.00  0.00    -0.003 C 
ATOM     13  C   UNL     1     -34.272  18.132  18.423  1.00  0.00     0.004 C 
ENDBRANCH  11  12
ENDBRANCH  10  11
ENDBRANCH   9  10
ENDBRANCH   8   9
ENDBRANCH   1   8
TORSDOF 9
ENDMDL
MODEL 5
REMARK VINA RESULT:     7.122      2.770      5.935
REMARK INTER + INTRA:          10.559
REMARK INTER:                  11.002
REMARK INTRA:                  -0.443
REMARK UNBOUND:                -0.311
REMARK SMILES CCCCCCCCCCC(=O)[O-]
REMARK SMILES IDX 7 1 8 2 9 3 10 4 11 5 12 6 13 7 6 8 5 9 4 10 3 11 2 12 1 13
REMARK H PARENT
REMARK Flexibility Score: inf
ROOT
ATOM      1  C   UNL     1     -35.345  14.997  16.809  1.00  0.00     0.000 C 
ENDROOT
BRANCH   1   2
ATOM      2  C   UNL     1     -36.719  15.340  17.412  1.00  0.00     0.000 C 
BRANCH   2   3
ATOM      3  C   UNL     1     -36.769  16.659  18.212  1.00  0.00     0.006 C 
BRANCH   3   4
ATOM      4  C   UNL     1     -35.832  17.758  17.688  1.00  0.00     0.053 C 
BRANCH   4   5
ATOM      5  C   UNL     1     -34.621  17.924  18.554  1.00  0.00     0.041 C 
ATOM      6  O   UNL     1     -33.691  18.695  18.202  1.00  0.00    -0.550 OA
ATOM      7  O   UNL     1     -34.505  17.199  19.734  1.00  0.00    -0.550 OA
ENDBRANCH   4   5
ENDBRANCH   3   4
ENDBRANCH   2   3
ENDBRANCH   1   2
BRANCH   1   8
ATOM      8  C   UNL     1     -34.441  14.223  17.780  1.00  0.00     0.000 C 
BRANCH   8   9
ATOM      9  C   UNL     1     -33.573  13.205  17.030  1.00  0.00    -0.000 C 
BRANCH   9  10
ATOM     10  C   UNL     1     -33.551  11.855  17.763  1.00  0.00    -0.000 C 
BRANCH  10  11
ATOM     11  C   UNL     1     -32.848  11.926  19.131  1.00  0.00    -0.000 C 
BRANCH  11  12
ATOM     12  C   UNL     1     -33.772  11.715  20.344  1.00  0.00    -0.003 C 
ATOM     13  C   UNL     1     -33.976  10.241  20.691  1.00  0.00     0.004 C 
ENDBRANCH  11  12
ENDBRANCH  10  11
ENDBRANCH   9  10
ENDBRANCH   8   9
ENDBRANCH   1   8
TORSDOF 9
ENDMDL
MODEL 6
REMARK VINA RESULT:     7.214      3.395      5.903
REMARK INTER + INTRA:          10.698
REMARK INTER:                  11.107
REMARK INTRA:                  -0.408
REMARK UNBOUND:                -0.311
REMARK SMILES CCCCCCCCCCC(=O)[O-]
REMARK SMILES IDX 7 1 8 2 9 3 10 4 11 5 12 6 13 7 6 8 5 9 4 10 3 11 2 12 1 13
REMARK H PARENT
REMARK Flexibility Score: inf
ROOT
ATOM      1  C   UNL     1     -33.485  13.239  16.902  1.00  0.00     0.000 C 
ENDROOT
BRANCH   1   2
ATOM      2  C   UNL     1     -34.880  13.767  16.523  1.00  0.00     0.000 C 
BRANCH   2   3
ATOM      3  C   UNL     1     -35.062  15.292  16.669  1.00  0.00     0.006 C 
BRANCH   3   4
ATOM      4  C   UNL     1     -35.192  15.783  18.119  1.00  0.00     0.053 C 
BRANCH   4   5
ATOM      5  C   UNL     1     -35.618  17.217  18.190  1.00  0.00     0.041 C 
ATOM      6  O   UNL     1     -34.755  18.132  18.258  1.00  0.00    -0.550 OA
ATOM      7  O   UNL     1     -36.968  17.542  18.216  1.00  0.00    -0.550 OA
ENDBRANCH   4   5
ENDBRANCH   3   4
ENDBRANCH   2   3
ENDBRANCH   1   2
BRANCH   1   8
ATOM      8  C   UNL     1     -33.537  11.909  17.669  1.00  0.00     0.000 C 
BRANCH   8   9
ATOM      9  C   UNL     1     -32.906  12.052  19.060  1.00  0.00    -0.000 C 
BRANCH   9  10
ATOM     10  C   UNL     1     -32.971  10.727  19.833  1.00  0.00    -0.000 C 
BRANCH  10  11
ATOM     11  C   UNL     1     -34.060  10.720  20.920  1.00  0.00    -0.000 C 
BRANCH  11  12
ATOM     12  C   UNL     1     -34.186  12.031  21.718  1.00  0.00    -0.003 C 
ATOM     13  C   UNL     1     -34.396  11.803  23.215  1.00  0.00     0.004 C 
ENDBRANCH  11  12
ENDBRANCH  10  11
ENDBRANCH   9  10
ENDBRANCH   8   9
ENDBRANCH   1   8
TORSDOF 9
ENDMDL
