MODEL 1
REMARK VINA RESULT:    -3.381      0.000      0.000
REMARK INTER + INTRA:          -4.781
REMARK INTER:                  -4.567
REMARK INTRA:                  -0.215
REMARK UNBOUND:                -0.215
REMARK SMILES CCCCCCCC(=O)[O-]
REMARK SMILES IDX 5 1 6 2 7 3 8 4 9 5 10 6 4 7 3 8 2 9 1 10
REMARK H PARENT
REMARK Flexibility Score: inf
ROOT
ATOM      1  C   UNL     1     -96.317 149.411 238.559  1.00  0.00     0.000 C 
ENDROOT
BRANCH   1   2
ATOM      2  C   UNL     1     -95.991 149.887 239.979  1.00  0.00     0.006 C 
BRANCH   2   3
ATOM      3  C   UNL     1     -97.242 150.422 240.682  1.00  0.00     0.053 C 
BRANCH   3   4
ATOM      4  C   UNL     1     -97.697 149.468 241.740  1.00  0.00     0.041 C 
ATOM      5  O   UNL     1     -98.353 149.886 242.731  1.00  0.00    -0.550 OA
ATOM      6  O   UNL     1     -97.440 148.110 241.608  1.00  0.00    -0.550 OA
ENDBRANCH   3   4
ENDBRANCH   2   3
ENDBRANCH   1   2
BRANCH   1   7
ATOM      7  C   UNL     1     -95.054 149.351 237.693  1.00  0.00     0.000 C 
BRANCH   7   8
ATOM      8  C   UNL     1     -93.882 148.734 238.472  1.00  0.00    -0.000 C 
BRANCH   8   9
ATOM      9  C   UNL     1     -93.705 147.235 238.182  1.00  0.00    -0.003 C 
ATOM     10  C   UNL     1     -92.271 146.875 237.790  1.00  0.00     0.004 C 
ENDBRANCH   8   9
ENDBRANCH   7   8
ENDBRANCH   1   7
TORSDOF 6
ENDMDL
MODEL 2
REMARK VINA RESULT:    -3.352      1.315      2.106
REMARK INTER + INTRA:          -4.743
REMARK INTER:                  -4.475
REMARK INTRA:                  -0.268
REMARK UNBOUND:                -0.215
REMARK SMILES CCCCCCCC(=O)[O-]
REMARK SMILES IDX 5 1 6 2 7 3 8 4 9 5 10 6 4 7 3 8 2 9 1 10
REMARK H PARENT
REMARK Flexibility Score: inf
ROOT
ATOM      1  C   UNL     1     -96.329 149.358 239.661  1.00  0.00     0.000 C 
ENDROOT
BRANCH   1   2
ATOM      2  C   UNL     1     -96.798 150.557 240.493  1.00  0.00     0.006 C 
BRANCH   2   3
ATOM      3  C   UNL     1     -98.263 150.400 240.909  1.00  0.00     0.053 C 
BRANCH   3   4
ATOM      4  C   UNL     1     -98.361 150.002 242.347  1.00  0.00     0.041 C 
ATOM      5  O   UNL     1     -98.007 148.849 242.711  1.00  0.00    -0.550 OA
ATOM      6  O   UNL     1     -98.797 150.920 243.294  1.00  0.00    -0.550 OA
ENDBRANCH   3   4
ENDBRANCH   2   3
ENDBRANCH   1   2
BRANCH   1   7
ATOM      7  C   UNL     1     -94.821 149.133 239.818  1.00  0.00     0.000 C 
BRANCH   7   8
ATOM      8  C   UNL     1     -94.167 148.824 238.464  1.00  0.00    -0.000 C 
BRANCH   8   9
ATOM      9  C   UNL     1     -94.905 149.482 237.287  1.00  0.00    -0.003 C 
ATOM     10  C   UNL     1     -95.176 148.507 236.140  1.00  0.00     0.004 C 
ENDBRANCH   8   9
ENDBRANCH   7   8
ENDBRANCH   1   7
TORSDOF 6
ENDMDL
MODEL 3
REMARK VINA RESULT:    -3.347      1.678      2.644
REMARK INTER + INTRA:          -4.736
REMARK INTER:                  -4.218
REMARK INTRA:                  -0.519
REMARK UNBOUND:                -0.215
REMARK SMILES CCCCCCCC(=O)[O-]
REMARK SMILES IDX 5 1 6 2 7 3 8 4 9 5 10 6 4 7 3 8 2 9 1 10
REMARK H PARENT
REMARK Flexibility Score: inf
ROOT
ATOM      1  C   UNL     1     -95.078 148.132 239.978  1.00  0.00     0.000 C 
ENDROOT
BRANCH   1   2
ATOM      2  C   UNL     1     -96.391 148.676 240.551  1.00  0.00     0.006 C 
BRANCH   2   3
ATOM      3  C   UNL     1     -96.472 150.197 240.394  1.00  0.00     0.053 C 
BRANCH   3   4
ATOM      4  C   UNL     1     -97.875 150.673 240.603  1.00  0.00     0.041 C 
ATOM      5  O   UNL     1     -98.551 151.101 239.630  1.00  0.00    -0.550 OA
ATOM      6  O   UNL     1     -98.453 150.597 241.863  1.00  0.00    -0.550 OA
ENDBRANCH   3   4
ENDBRANCH   2   3
ENDBRANCH   1   2
BRANCH   1   7
ATOM      7  C   UNL     1     -94.427 149.147 239.032  1.00  0.00     0.000 C 
BRANCH   7   8
ATOM      8  C   UNL     1     -94.460 148.645 237.581  1.00  0.00    -0.000 C 
BRANCH   8   9
ATOM      9  C   UNL     1     -95.313 149.538 236.666  1.00  0.00    -0.003 C 
ATOM     10  C   UNL     1     -96.812 149.269 236.809  1.00  0.00     0.004 C 
ENDBRANCH   8   9
ENDBRANCH   7   8
ENDBRANCH   1   7
TORSDOF 6
ENDMDL
MODEL 4
REMARK VINA RESULT:    -3.283      2.908      5.640
REMARK INTER + INTRA:          -4.650
REMARK INTER:                  -4.342
REMARK INTRA:                  -0.307
REMARK UNBOUND:                -0.215
REMARK SMILES CCCCCCCC(=O)[O-]
REMARK SMILES IDX 5 1 6 2 7 3 8 4 9 5 10 6 4 7 3 8 2 9 1 10
REMARK H PARENT
REMARK Flexibility Score: inf
ROOT
ATOM      1  C   UNL     1     -97.156 149.856 240.417  1.00  0.00     0.000 C 
ENDROOT
BRANCH   1   2
ATOM      2  C   UNL     1     -95.694 150.097 240.024  1.00  0.00     0.006 C 
BRANCH   2   3
ATOM      3  C   UNL     1     -94.969 148.774 239.760  1.00  0.00     0.053 C 
BRANCH   3   4
ATOM      4  C   UNL     1     -94.357 148.774 238.395  1.00  0.00     0.041 C 
ATOM      5  O   UNL     1     -93.430 147.969 238.116  1.00  0.00    -0.550 OA
ATOM      6  O   UNL     1     -94.845 149.629 237.415  1.00  0.00    -0.550 OA
ENDBRANCH   3   4
ENDBRANCH   2   3
ENDBRANCH   1   2
BRANCH   1   7
ATOM      7  C   UNL     1     -97.289 148.622 241.317  1.00  0.00     0.000 C 
BRANCH   7   8
ATOM      8  C   UNL     1     -98.143 148.934 242.554  1.00  0.00    -0.000 C 
BRANCH   8   9
ATOM      9  C   UNL     1     -98.649 150.385 242.573  1.00  0.00    -0.003 C 
ATOM     10  C   UNL     1     -98.946 150.890 243.985  1.00  0.00     0.004 C 
ENDBRANCH   8   9
ENDBRANCH   7   8
ENDBRANCH   1   7
TORSDOF 6
ENDMDL
MODEL 5
REMARK VINA RESULT:    -3.263      2.705      4.727
REMARK INTER + INTRA:          -4.623
REMARK INTER:                  -4.026
REMARK INTRA:                  -0.597
REMARK UNBOUND:                -0.215
REMARK SMILES CCCCCCCC(=O)[O-]
REMARK SMILES IDX 5 1 6 2 7 3 8 4 9 5 10 6 4 7 3 8 2 9 1 10
REMARK H PARENT
REMARK Flexibility Score: inf
ROOT
ATOM      1  C   UNL     1     -94.566 149.167 239.334  1.00  0.00     0.000 C 
ENDROOT
BRANCH   1   2
ATOM      2  C   UNL     1     -94.322 148.526 237.963  1.00  0.00     0.006 C 
BRANCH   2   3
ATOM      3  C   UNL     1     -95.137 149.229 236.873  1.00  0.00     0.053 C 
BRANCH   3   4
ATOM      4  C   UNL     1     -96.569 148.801 236.930  1.00  0.00     0.041 C 
ATOM      5  O   UNL     1     -96.862 147.581 237.045  1.00  0.00    -0.550 OA
ATOM      6  O   UNL     1     -97.580 149.752 236.907  1.00  0.00    -0.550 OA
ENDBRANCH   3   4
ENDBRANCH   2   3
ENDBRANCH   1   2
BRANCH   1   7
ATOM      7  C   UNL     1     -95.336 148.217 240.258  1.00  0.00     0.000 C 
BRANCH   7   8
ATOM      8  C   UNL     1     -96.678 148.832 240.683  1.00  0.00    -0.000 C 
BRANCH   8   9
ATOM      9  C   UNL     1     -96.738 150.347 240.435  1.00  0.00    -0.003 C 
ATOM     10  C   UNL     1     -98.165 150.856 240.230  1.00  0.00     0.004 C 
ENDBRANCH   8   9
ENDBRANCH   7   8
ENDBRANCH   1   7
TORSDOF 6
ENDMDL
MODEL 6
REMARK VINA RESULT:    -3.253      3.020      5.450
REMARK INTER + INTRA:          -4.609
REMARK INTER:                  -4.309
REMARK INTRA:                  -0.300
REMARK UNBOUND:                -0.215
REMARK SMILES CCCCCCCC(=O)[O-]
REMARK SMILES IDX 5 1 6 2 7 3 8 4 9 5 10 6 4 7 3 8 2 9 1 10
REMARK H PARENT
REMARK Flexibility Score: inf
ROOT
ATOM      1  C   UNL     1     -96.600 148.640 240.557  1.00  0.00     0.000 C 
ENDROOT
BRANCH   1   2
ATOM      2  C   UNL     1     -95.184 148.165 240.210  1.00  0.00     0.006 C 
BRANCH   2   3
ATOM      3  C   UNL     1     -94.432 149.223 239.398  1.00  0.00     0.053 C 
BRANCH   3   4
ATOM      4  C   UNL     1     -94.266 148.776 237.980  1.00  0.00     0.041 C 
ATOM      5  O   UNL     1     -94.894 149.357 237.055  1.00  0.00    -0.550 OA
ATOM      6  O   UNL     1     -93.381 147.751 237.674  1.00  0.00    -0.550 OA
ENDBRANCH   3   4
ENDBRANCH   2   3
ENDBRANCH   1   2
BRANCH   1   7
ATOM      7  C   UNL     1     -96.734 150.156 240.373  1.00  0.00     0.000 C 
BRANCH   7   8
ATOM      8  C   UNL     1     -98.016 150.679 241.037  1.00  0.00    -0.000 C 
BRANCH   8   9
ATOM      9  C   UNL     1     -98.394 149.885 242.298  1.00  0.00    -0.003 C 
ATOM     10  C   UNL     1     -98.870 150.783 243.441  1.00  0.00     0.004 C 
ENDBRANCH   8   9
ENDBRANCH   7   8
ENDBRANCH   1   7
TORSDOF 6
ENDMDL
MODEL 7
REMARK VINA RESULT:    -3.149      3.889      5.563
REMARK INTER + INTRA:          -4.469
REMARK INTER:                  -4.082
REMARK INTRA:                  -0.386
REMARK UNBOUND:                -0.215
REMARK SMILES CCCCCCCC(=O)[O-]
REMARK SMILES IDX 5 1 6 2 7 3 8 4 9 5 10 6 4 7 3 8 2 9 1 10
REMARK H PARENT
REMARK Flexibility Score: inf
ROOT
ATOM      1  C   UNL     1     -94.225 148.882 238.562  1.00  0.00     0.000 C 
ENDROOT
BRANCH   1   2
ATOM      2  C   UNL     1     -95.008 149.444 237.369  1.00  0.00     0.006 C 
BRANCH   2   3
ATOM      3  C   UNL     1     -95.553 148.316 236.488  1.00  0.00     0.053 C 
BRANCH   3   4
ATOM      4  C   UNL     1     -94.588 147.992 235.392  1.00  0.00     0.041 C 
ATOM      5  O   UNL     1     -94.659 148.593 234.288  1.00  0.00    -0.550 OA
ATOM      6  O   UNL     1     -93.579 147.063 235.608  1.00  0.00    -0.550 OA
ENDBRANCH   3   4
ENDBRANCH   2   3
ENDBRANCH   1   2
BRANCH   1   7
ATOM      7  C   UNL     1     -94.825 149.361 239.889  1.00  0.00     0.000 C 
BRANCH   7   8
ATOM      8  C   UNL     1     -95.907 148.392 240.386  1.00  0.00    -0.000 C 
BRANCH   8   9
ATOM      9  C   UNL     1     -97.137 149.118 240.952  1.00  0.00    -0.003 C 
ATOM     10  C   UNL     1     -97.250 150.561 240.459  1.00  0.00     0.004 C 
ENDBRANCH   8   9
ENDBRANCH   7   8
ENDBRANCH   1   7
TORSDOF 6
ENDMDL
MODEL 8
REMARK VINA RESULT:    -3.137      1.586      2.859
REMARK INTER + INTRA:          -4.452
REMARK INTER:                  -3.935
REMARK INTRA:                  -0.516
REMARK UNBOUND:                -0.215
REMARK SMILES CCCCCCCC(=O)[O-]
REMARK SMILES IDX 5 1 6 2 7 3 8 4 9 5 10 6 4 7 3 8 2 9 1 10
REMARK H PARENT
REMARK Flexibility Score: inf
ROOT
ATOM      1  C   UNL     1     -95.173 148.136 238.674  1.00  0.00     0.000 C 
ENDROOT
BRANCH   1   2
ATOM      2  C   UNL     1     -95.237 148.701 240.098  1.00  0.00     0.006 C 
BRANCH   2   3
ATOM      3  C   UNL     1     -95.753 150.143 240.096  1.00  0.00     0.053 C 
BRANCH   3   4
ATOM      4  C   UNL     1     -97.122 150.212 240.695  1.00  0.00     0.041 C 
ATOM      5  O   UNL     1     -97.952 151.065 240.281  1.00  0.00    -0.550 OA
ATOM      6  O   UNL     1     -97.498 149.303 241.674  1.00  0.00    -0.550 OA
ENDBRANCH   3   4
ENDBRANCH   2   3
ENDBRANCH   1   2
BRANCH   1   7
ATOM      7  C   UNL     1     -94.509 149.132 237.716  1.00  0.00     0.000 C 
BRANCH   7   8
ATOM      8  C   UNL     1     -95.445 149.478 236.549  1.00  0.00    -0.000 C 
BRANCH   8   9
ATOM      9  C   UNL     1     -96.812 148.785 236.662  1.00  0.00    -0.003 C 
ATOM     10  C   UNL     1     -97.966 149.776 236.821  1.00  0.00     0.004 C 
ENDBRANCH   8   9
ENDBRANCH   7   8
ENDBRANCH   1   7
TORSDOF 6
ENDMDL
MODEL 9
REMARK VINA RESULT:    -3.029      3.957      5.574
REMARK INTER + INTRA:          -4.306
REMARK INTER:                  -3.979
REMARK INTRA:                  -0.327
REMARK UNBOUND:                -0.215
REMARK SMILES CCCCCCCC(=O)[O-]
REMARK SMILES IDX 5 1 6 2 7 3 8 4 9 5 10 6 4 7 3 8 2 9 1 10
REMARK H PARENT
REMARK Flexibility Score: inf
ROOT
ATOM      1  C   UNL     1     -94.207 149.138 238.140  1.00  0.00     0.000 C 
ENDROOT
BRANCH   1   2
ATOM      2  C   UNL     1     -95.015 148.526 236.990  1.00  0.00     0.006 C 
BRANCH   2   3
ATOM      3  C   UNL     1     -96.006 149.540 236.411  1.00  0.00     0.053 C 
BRANCH   3   4
ATOM      4  C   UNL     1     -95.685 149.829 234.979  1.00  0.00     0.041 C 
ATOM      5  O   UNL     1     -96.007 150.934 234.467  1.00  0.00    -0.550 OA
ATOM      6  O   UNL     1     -94.986 148.897 234.223  1.00  0.00    -0.550 OA
ENDBRANCH   3   4
ENDBRANCH   2   3
ENDBRANCH   1   2
BRANCH   1   7
ATOM      7  C   UNL     1     -94.837 148.801 239.497  1.00  0.00     0.000 C 
BRANCH   7   8
ATOM      8  C   UNL     1     -95.639 149.993 240.041  1.00  0.00    -0.000 C 
BRANCH   8   9
ATOM      9  C   UNL     1     -97.120 149.653 240.271  1.00  0.00    -0.003 C 
ATOM     10  C   UNL     1     -98.023 150.887 240.229  1.00  0.00     0.004 C 
ENDBRANCH   8   9
ENDBRANCH   7   8
ENDBRANCH   1   7
TORSDOF 6
ENDMDL
