MODEL 1
REMARK VINA RESULT:    -5.412      0.000      0.000
REMARK INTER + INTRA:         -12.041
REMARK INTER:                 -10.474
REMARK INTRA:                  -1.567
REMARK UNBOUND:                -1.567
REMARK SMILES CCCCCCCCCCCCCCCCCC(=O)[O-]
REMARK SMILES IDX 10 1 11 2 12 3 13 4 14 5 15 6 16 7 17 8 18 9 19 10 20 11
REMARK SMILES IDX 9 12 8 13 7 14 6 15 5 16 4 17 3 18 2 19 1 20
REMARK H PARENT
REMARK Flexibility Score: inf
ROOT
ATOM      1  C   UNL     1       4.304  11.593  19.121  1.00  0.00     0.000 C 
ENDROOT
BRANCH   1   2
ATOM      2  C   UNL     1       3.434  10.328  19.070  1.00  0.00     0.000 C 
BRANCH   2   3
ATOM      3  C   UNL     1       2.941  10.003  17.650  1.00  0.00     0.000 C 
BRANCH   3   4
ATOM      4  C   UNL     1       2.025   8.769  17.611  1.00  0.00     0.000 C 
BRANCH   4   5
ATOM      5  C   UNL     1       2.634   7.608  16.807  1.00  0.00     0.000 C 
BRANCH   5   6
ATOM      6  C   UNL     1       2.274   6.226  17.384  1.00  0.00     0.000 C 
BRANCH   6   7
ATOM      7  C   UNL     1       1.301   6.256  18.577  1.00  0.00     0.006 C 
BRANCH   7   8
ATOM      8  C   UNL     1       0.726   4.874  18.915  1.00  0.00     0.053 C 
BRANCH   8   9
ATOM      9  C   UNL     1       1.829   3.886  19.127  1.00  0.00     0.041 C 
ATOM     10  O   UNL     1       1.931   2.879  18.378  1.00  0.00    -0.550 OA
ATOM     11  O   UNL     1       2.720   4.056  20.179  1.00  0.00    -0.550 OA
ENDBRANCH   8   9
ENDBRANCH   7   8
ENDBRANCH   6   7
ENDBRANCH   5   6
ENDBRANCH   4   5
ENDBRANCH   3   4
ENDBRANCH   2   3
ENDBRANCH   1   2
BRANCH   1  12
ATOM     12  C   UNL     1       5.808  11.279  19.142  1.00  0.00     0.000 C 
BRANCH  12  13
ATOM     13  C   UNL     1       6.505  11.858  17.907  1.00  0.00    -0.000 C 
BRANCH  13  14
ATOM     14  C   UNL     1       5.657  11.649  16.643  1.00  0.00    -0.000 C 
BRANCH  14  15
ATOM     15  C   UNL     1       5.245  12.970  15.972  1.00  0.00    -0.000 C 
BRANCH  15  16
ATOM     16  C   UNL     1       3.735  13.064  15.668  1.00  0.00    -0.000 C 
BRANCH  16  17
ATOM     17  C   UNL     1       3.402  12.604  14.239  1.00  0.00    -0.000 C 
BRANCH  17  18
ATOM     18  C   UNL     1       2.907  11.151  14.229  1.00  0.00    -0.000 C 
BRANCH  18  19
ATOM     19  C   UNL     1       4.019  10.152  13.876  1.00  0.00    -0.003 C 
ATOM     20  C   UNL     1       3.475   8.790  13.445  1.00  0.00     0.004 C 
ENDBRANCH  18  19
ENDBRANCH  17  18
ENDBRANCH  16  17
ENDBRANCH  15  16
ENDBRANCH  14  15
ENDBRANCH  13  14
ENDBRANCH  12  13
ENDBRANCH   1  12
TORSDOF 16
ENDMDL
MODEL 2
REMARK VINA RESULT:    -5.360      2.689      6.345
REMARK INTER + INTRA:         -11.941
REMARK INTER:                 -10.144
REMARK INTRA:                  -1.797
REMARK UNBOUND:                -1.567
REMARK SMILES CCCCCCCCCCCCCCCCCC(=O)[O-]
REMARK SMILES IDX 10 1 11 2 12 3 13 4 14 5 15 6 16 7 17 8 18 9 19 10 20 11
REMARK SMILES IDX 9 12 8 13 7 14 6 15 5 16 4 17 3 18 2 19 1 20
REMARK H PARENT
REMARK Flexibility Score: inf
ROOT
ATOM      1  C   UNL     1       5.302  11.514  19.377  1.00  0.00     0.000 C 
ENDROOT
BRANCH   1   2
ATOM      2  C   UNL     1       6.226  11.135  18.210  1.00  0.00     0.000 C 
BRANCH   2   3
ATOM      3  C   UNL     1       6.442  12.295  17.224  1.00  0.00     0.000 C 
BRANCH   3   4
ATOM      4  C   UNL     1       5.498  12.223  16.013  1.00  0.00     0.000 C 
BRANCH   4   5
ATOM      5  C   UNL     1       4.362  13.259  16.088  1.00  0.00     0.000 C 
BRANCH   5   6
ATOM      6  C   UNL     1       3.196  12.939  15.135  1.00  0.00     0.000 C 
BRANCH   6   7
ATOM      7  C   UNL     1       3.562  12.033  13.945  1.00  0.00     0.006 C 
BRANCH   7   8
ATOM      8  C   UNL     1       2.784  10.711  13.938  1.00  0.00     0.053 C 
BRANCH   8   9
ATOM      9  C   UNL     1       3.692   9.572  13.601  1.00  0.00     0.041 C 
ATOM     10  O   UNL     1       4.936   9.754  13.519  1.00  0.00    -0.550 OA
ATOM     11  O   UNL     1       3.161   8.315  13.334  1.00  0.00    -0.550 OA
ENDBRANCH   8   9
ENDBRANCH   7   8
ENDBRANCH   6   7
ENDBRANCH   5   6
ENDBRANCH   4   5
ENDBRANCH   3   4
ENDBRANCH   2   3
ENDBRANCH   1   2
BRANCH   1  12
ATOM     12  C   UNL     1       4.091  10.575  19.504  1.00  0.00     0.000 C 
BRANCH  12  13
ATOM     13  C   UNL     1       3.095  10.812  18.365  1.00  0.00    -0.000 C 
BRANCH  13  14
ATOM     14  C   UNL     1       3.156   9.678  17.331  1.00  0.00    -0.000 C 
BRANCH  14  15
ATOM     15  C   UNL     1       2.132   8.563  17.601  1.00  0.00    -0.000 C 
BRANCH  15  16
ATOM     16  C   UNL     1       2.384   7.281  16.780  1.00  0.00    -0.000 C 
BRANCH  16  17
ATOM     17  C   UNL     1       2.367   6.018  17.657  1.00  0.00    -0.000 C 
BRANCH  17  18
ATOM     18  C   UNL     1       1.135   5.999  18.572  1.00  0.00    -0.000 C 
BRANCH  18  19
ATOM     19  C   UNL     1       1.136   4.805  19.539  1.00  0.00    -0.003 C 
ATOM     20  C   UNL     1       2.481   4.079  19.579  1.00  0.00     0.004 C 
ENDBRANCH  18  19
ENDBRANCH  17  18
ENDBRANCH  16  17
ENDBRANCH  15  16
ENDBRANCH  14  15
ENDBRANCH  13  14
ENDBRANCH  12  13
ENDBRANCH   1  12
TORSDOF 16
ENDMDL
MODEL 3
REMARK VINA RESULT:    -5.093      0.956      3.561
REMARK INTER + INTRA:         -11.423
REMARK INTER:                 -10.164
REMARK INTRA:                  -1.260
REMARK UNBOUND:                -1.567
REMARK SMILES CCCCCCCCCCCCCCCCCC(=O)[O-]
REMARK SMILES IDX 10 1 11 2 12 3 13 4 14 5 15 6 16 7 17 8 18 9 19 10 20 11
REMARK SMILES IDX 9 12 8 13 7 14 6 15 5 16 4 17 3 18 2 19 1 20
REMARK H PARENT
REMARK Flexibility Score: inf
ROOT
ATOM      1  C   UNL     1       4.017  10.681  14.197  1.00  0.00     0.000 C 
ENDROOT
BRANCH   1   2
ATOM      2  C   UNL     1       3.788   9.346  14.922  1.00  0.00     0.000 C 
BRANCH   2   3
ATOM      3  C   UNL     1       3.158   9.528  16.314  1.00  0.00     0.000 C 
BRANCH   3   4
ATOM      4  C   UNL     1       2.613   8.211  16.891  1.00  0.00     0.000 C 
BRANCH   4   5
ATOM      5  C   UNL     1       1.328   8.412  17.711  1.00  0.00     0.000 C 
BRANCH   5   6
ATOM      6  C   UNL     1       0.578   7.095  17.983  1.00  0.00     0.000 C 
BRANCH   6   7
ATOM      7  C   UNL     1       1.221   6.193  19.052  1.00  0.00     0.006 C 
BRANCH   7   8
ATOM      8  C   UNL     1       0.789   4.725  18.934  1.00  0.00     0.053 C 
BRANCH   8   9
ATOM      9  C   UNL     1       1.982   3.824  18.981  1.00  0.00     0.041 C 
ATOM     10  O   UNL     1       3.064   4.229  19.483  1.00  0.00    -0.550 OA
ATOM     11  O   UNL     1       1.912   2.550  18.432  1.00  0.00    -0.550 OA
ENDBRANCH   8   9
ENDBRANCH   7   8
ENDBRANCH   6   7
ENDBRANCH   5   6
ENDBRANCH   4   5
ENDBRANCH   3   4
ENDBRANCH   2   3
ENDBRANCH   1   2
BRANCH   1  12
ATOM     12  C   UNL     1       2.767  11.574  14.188  1.00  0.00     0.000 C 
BRANCH  12  13
ATOM     13  C   UNL     1       3.112  13.004  14.617  1.00  0.00    -0.000 C 
BRANCH  13  14
ATOM     14  C   UNL     1       3.793  13.020  15.994  1.00  0.00    -0.000 C 
BRANCH  14  15
ATOM     15  C   UNL     1       2.904  13.618  17.096  1.00  0.00    -0.000 C 
BRANCH  15  16
ATOM     16  C   UNL     1       3.139  12.993  18.487  1.00  0.00    -0.000 C 
BRANCH  16  17
ATOM     17  C   UNL     1       3.520  11.507  18.398  1.00  0.00    -0.000 C 
BRANCH  17  18
ATOM     18  C   UNL     1       4.532  11.130  19.490  1.00  0.00    -0.000 C 
BRANCH  18  19
ATOM     19  C   UNL     1       5.987  11.340  19.043  1.00  0.00    -0.003 C 
ATOM     20  C   UNL     1       6.186  11.100  17.546  1.00  0.00     0.004 C 
ENDBRANCH  18  19
ENDBRANCH  17  18
ENDBRANCH  16  17
ENDBRANCH  15  16
ENDBRANCH  14  15
ENDBRANCH  13  14
ENDBRANCH  12  13
ENDBRANCH   1  12
TORSDOF 16
ENDMDL
MODEL 4
REMARK VINA RESULT:    -5.032      1.052      1.879
REMARK INTER + INTRA:         -11.306
REMARK INTER:                  -9.466
REMARK INTRA:                  -1.839
REMARK UNBOUND:                -1.567
REMARK SMILES CCCCCCCCCCCCCCCCCC(=O)[O-]
REMARK SMILES IDX 10 1 11 2 12 3 13 4 14 5 15 6 16 7 17 8 18 9 19 10 20 11
REMARK SMILES IDX 9 12 8 13 7 14 6 15 5 16 4 17 3 18 2 19 1 20
REMARK H PARENT
REMARK Flexibility Score: inf
ROOT
ATOM      1  C   UNL     1       3.052  11.521  18.450  1.00  0.00     0.000 C 
ENDROOT
BRANCH   1   2
ATOM      2  C   UNL     1       3.118   9.988  18.529  1.00  0.00     0.000 C 
BRANCH   2   3
ATOM      3  C   UNL     1       2.161   9.302  17.540  1.00  0.00     0.000 C 
BRANCH   3   4
ATOM      4  C   UNL     1       2.842   8.174  16.747  1.00  0.00     0.000 C 
BRANCH   4   5
ATOM      5  C   UNL     1       2.256   6.789  17.069  1.00  0.00     0.000 C 
BRANCH   5   6
ATOM      6  C   UNL     1       0.959   6.864  17.894  1.00  0.00     0.000 C 
BRANCH   6   7
ATOM      7  C   UNL     1       0.992   6.091  19.226  1.00  0.00     0.006 C 
BRANCH   7   8
ATOM      8  C   UNL     1       0.670   4.600  19.060  1.00  0.00     0.053 C 
BRANCH   8   9
ATOM      9  C   UNL     1       1.922   3.785  19.118  1.00  0.00     0.041 C 
ATOM     10  O   UNL     1       2.116   2.859  18.288  1.00  0.00    -0.550 OA
ATOM     11  O   UNL     1       2.858   4.021  20.118  1.00  0.00    -0.550 OA
ENDBRANCH   8   9
ENDBRANCH   7   8
ENDBRANCH   6   7
ENDBRANCH   5   6
ENDBRANCH   4   5
ENDBRANCH   3   4
ENDBRANCH   2   3
ENDBRANCH   1   2
BRANCH   1  12
ATOM     12  C   UNL     1       4.235  12.203  19.155  1.00  0.00     0.000 C 
BRANCH  12  13
ATOM     13  C   UNL     1       5.274  11.170  19.602  1.00  0.00    -0.000 C 
BRANCH  13  14
ATOM     14  C   UNL     1       6.502  11.185  18.680  1.00  0.00    -0.000 C 
BRANCH  14  15
ATOM     15  C   UNL     1       6.182  11.686  17.262  1.00  0.00    -0.000 C 
BRANCH  15  16
ATOM     16  C   UNL     1       5.759  10.564  16.291  1.00  0.00    -0.000 C 
BRANCH  16  17
ATOM     17  C   UNL     1       4.676  11.030  15.304  1.00  0.00    -0.000 C 
BRANCH  17  18
ATOM     18  C   UNL     1       4.552  12.560  15.303  1.00  0.00    -0.000 C 
BRANCH  18  19
ATOM     19  C   UNL     1       3.157  13.039  14.873  1.00  0.00    -0.003 C 
ATOM     20  C   UNL     1       2.418  12.011  14.017  1.00  0.00     0.004 C 
ENDBRANCH  18  19
ENDBRANCH  17  18
ENDBRANCH  16  17
ENDBRANCH  15  16
ENDBRANCH  14  15
ENDBRANCH  13  14
ENDBRANCH  12  13
ENDBRANCH   1  12
TORSDOF 16
ENDMDL
MODEL 5
REMARK VINA RESULT:    -4.995      2.540      6.751
REMARK INTER + INTRA:         -11.233
REMARK INTER:                  -9.501
REMARK INTRA:                  -1.732
REMARK UNBOUND:                -1.567
REMARK SMILES CCCCCCCCCCCCCCCCCC(=O)[O-]
REMARK SMILES IDX 10 1 11 2 12 3 13 4 14 5 15 6 16 7 17 8 18 9 19 10 20 11
REMARK SMILES IDX 9 12 8 13 7 14 6 15 5 16 4 17 3 18 2 19 1 20
REMARK H PARENT
REMARK Flexibility Score: inf
ROOT
ATOM      1  C   UNL     1       3.881  10.001  14.032  1.00  0.00     0.000 C 
ENDROOT
BRANCH   1   2
ATOM      2  C   UNL     1       2.882  11.163  13.923  1.00  0.00     0.000 C 
BRANCH   2   3
ATOM      3  C   UNL     1       3.558  12.539  14.048  1.00  0.00     0.000 C 
BRANCH   3   4
ATOM      4  C   UNL     1       2.959  13.390  15.180  1.00  0.00     0.000 C 
BRANCH   4   5
ATOM      5  C   UNL     1       3.806  13.346  16.463  1.00  0.00     0.000 C 
BRANCH   5   6
ATOM      6  C   UNL     1       5.156  12.632  16.266  1.00  0.00     0.000 C 
BRANCH   6   7
ATOM      7  C   UNL     1       5.580  11.715  17.428  1.00  0.00     0.006 C 
BRANCH   7   8
ATOM      8  C   UNL     1       4.748  11.936  18.699  1.00  0.00     0.053 C 
BRANCH   8   9
ATOM      9  C   UNL     1       5.333  11.173  19.844  1.00  0.00     0.041 C 
ATOM     10  O   UNL     1       4.598  10.447  20.565  1.00  0.00    -0.550 OA
ATOM     11  O   UNL     1       6.684  11.297  20.144  1.00  0.00    -0.550 OA
ENDBRANCH   8   9
ENDBRANCH   7   8
ENDBRANCH   6   7
ENDBRANCH   5   6
ENDBRANCH   4   5
ENDBRANCH   3   4
ENDBRANCH   2   3
ENDBRANCH   1   2
BRANCH   1  12
ATOM     12  C   UNL     1       3.833   9.304  15.401  1.00  0.00     0.000 C 
BRANCH  12  13
ATOM     13  C   UNL     1       2.679   9.845  16.250  1.00  0.00    -0.000 C 
BRANCH  13  14
ATOM     14  C   UNL     1       2.689   9.228  17.657  1.00  0.00    -0.000 C 
BRANCH  14  15
ATOM     15  C   UNL     1       1.829   7.958  17.761  1.00  0.00    -0.000 C 
BRANCH  15  16
ATOM     16  C   UNL     1       2.358   6.782  16.914  1.00  0.00    -0.000 C 
BRANCH  16  17
ATOM     17  C   UNL     1       2.513   5.496  17.741  1.00  0.00    -0.000 C 
BRANCH  17  18
ATOM     18  C   UNL     1       1.215   5.161  18.489  1.00  0.00    -0.000 C 
BRANCH  18  19
ATOM     19  C   UNL     1       1.473   4.564  19.881  1.00  0.00    -0.003 C 
ATOM     20  C   UNL     1       2.793   3.799  19.961  1.00  0.00     0.004 C 
ENDBRANCH  18  19
ENDBRANCH  17  18
ENDBRANCH  16  17
ENDBRANCH  15  16
ENDBRANCH  14  15
ENDBRANCH  13  14
ENDBRANCH  12  13
ENDBRANCH   1  12
TORSDOF 16
ENDMDL
MODEL 6
REMARK VINA RESULT:    -4.806      1.094      3.629
REMARK INTER + INTRA:         -10.868
REMARK INTER:                  -9.092
REMARK INTRA:                  -1.776
REMARK UNBOUND:                -1.567
REMARK SMILES CCCCCCCCCCCCCCCCCC(=O)[O-]
REMARK SMILES IDX 10 1 11 2 12 3 13 4 14 5 15 6 16 7 17 8 18 9 19 10 20 11
REMARK SMILES IDX 9 12 8 13 7 14 6 15 5 16 4 17 3 18 2 19 1 20
REMARK H PARENT
REMARK Flexibility Score: inf
ROOT
ATOM      1  C   UNL     1       3.870  10.160  14.070  1.00  0.00     0.000 C 
ENDROOT
BRANCH   1   2
ATOM      2  C   UNL     1       3.529   9.059  15.086  1.00  0.00     0.000 C 
BRANCH   2   3
ATOM      3  C   UNL     1       2.817   9.605  16.335  1.00  0.00     0.000 C 
BRANCH   3   4
ATOM      4  C   UNL     1       2.586   8.523  17.403  1.00  0.00     0.000 C 
BRANCH   4   5
ATOM      5  C   UNL     1       1.116   8.435  17.846  1.00  0.00     0.000 C 
BRANCH   5   6
ATOM      6  C   UNL     1       0.553   7.004  17.772  1.00  0.00     0.000 C 
BRANCH   6   7
ATOM      7  C   UNL     1       0.635   6.207  19.087  1.00  0.00     0.006 C 
BRANCH   7   8
ATOM      8  C   UNL     1       0.961   4.723  18.868  1.00  0.00     0.053 C 
BRANCH   8   9
ATOM      9  C   UNL     1       2.370   4.432  19.277  1.00  0.00     0.041 C 
ATOM     10  O   UNL     1       2.609   3.885  20.386  1.00  0.00    -0.550 OA
ATOM     11  O   UNL     1       3.424   4.806  18.452  1.00  0.00    -0.550 OA
ENDBRANCH   8   9
ENDBRANCH   7   8
ENDBRANCH   6   7
ENDBRANCH   5   6
ENDBRANCH   4   5
ENDBRANCH   3   4
ENDBRANCH   2   3
ENDBRANCH   1   2
BRANCH   1  12
ATOM     12  C   UNL     1       2.716  11.153  13.861  1.00  0.00     0.000 C 
BRANCH  12  13
ATOM     13  C   UNL     1       3.125  12.565  14.294  1.00  0.00    -0.000 C 
BRANCH  13  14
ATOM     14  C   UNL     1       4.643  12.661  14.508  1.00  0.00    -0.000 C 
BRANCH  14  15
ATOM     15  C   UNL     1       5.024  13.001  15.958  1.00  0.00    -0.000 C 
BRANCH  15  16
ATOM     16  C   UNL     1       6.247  12.215  16.476  1.00  0.00    -0.000 C 
BRANCH  16  17
ATOM     17  C   UNL     1       5.838  10.970  17.279  1.00  0.00    -0.000 C 
BRANCH  17  18
ATOM     18  C   UNL     1       5.989  11.212  18.788  1.00  0.00    -0.000 C 
BRANCH  18  19
ATOM     19  C   UNL     1       4.659  11.071  19.544  1.00  0.00    -0.003 C 
ATOM     20  C   UNL     1       3.516  11.837  18.877  1.00  0.00     0.004 C 
ENDBRANCH  18  19
ENDBRANCH  17  18
ENDBRANCH  16  17
ENDBRANCH  15  16
ENDBRANCH  14  15
ENDBRANCH  13  14
ENDBRANCH  12  13
ENDBRANCH   1  12
TORSDOF 16
ENDMDL
MODEL 7
REMARK VINA RESULT:    -4.564      1.090      1.863
REMARK INTER + INTRA:         -10.399
REMARK INTER:                  -8.786
REMARK INTRA:                  -1.613
REMARK UNBOUND:                -1.567
REMARK SMILES CCCCCCCCCCCCCCCCCC(=O)[O-]
REMARK SMILES IDX 10 1 11 2 12 3 13 4 14 5 15 6 16 7 17 8 18 9 19 10 20 11
REMARK SMILES IDX 9 12 8 13 7 14 6 15 5 16 4 17 3 18 2 19 1 20
REMARK H PARENT
REMARK Flexibility Score: inf
ROOT
ATOM      1  C   UNL     1       4.383  11.919  18.215  1.00  0.00     0.000 C 
ENDROOT
BRANCH   1   2
ATOM      2  C   UNL     1       4.137  10.650  19.045  1.00  0.00     0.000 C 
BRANCH   2   3
ATOM      3  C   UNL     1       2.842   9.922  18.647  1.00  0.00     0.000 C 
BRANCH   3   4
ATOM      4  C   UNL     1       2.912   9.323  17.233  1.00  0.00     0.000 C 
BRANCH   4   5
ATOM      5  C   UNL     1       2.369   7.885  17.173  1.00  0.00     0.000 C 
BRANCH   5   6
ATOM      6  C   UNL     1       1.099   7.689  18.021  1.00  0.00     0.000 C 
BRANCH   6   7
ATOM      7  C   UNL     1       0.980   6.313  18.701  1.00  0.00     0.006 C 
BRANCH   7   8
ATOM      8  C   UNL     1       1.838   5.235  18.025  1.00  0.00     0.053 C 
BRANCH   8   9
ATOM      9  C   UNL     1       1.942   4.026  18.900  1.00  0.00     0.041 C 
ATOM     10  O   UNL     1       2.010   2.877  18.389  1.00  0.00    -0.550 OA
ATOM     11  O   UNL     1       1.920   4.165  20.282  1.00  0.00    -0.550 OA
ENDBRANCH   8   9
ENDBRANCH   7   8
ENDBRANCH   6   7
ENDBRANCH   5   6
ENDBRANCH   4   5
ENDBRANCH   3   4
ENDBRANCH   2   3
ENDBRANCH   1   2
BRANCH   1  12
ATOM     12  C   UNL     1       3.294  12.983  18.421  1.00  0.00     0.000 C 
BRANCH  12  13
ATOM     13  C   UNL     1       2.800  13.528  17.077  1.00  0.00    -0.000 C 
BRANCH  13  14
ATOM     14  C   UNL     1       3.831  13.277  15.966  1.00  0.00    -0.000 C 
BRANCH  14  15
ATOM     15  C   UNL     1       3.190  13.130  14.576  1.00  0.00    -0.000 C 
BRANCH  15  16
ATOM     16  C   UNL     1       2.945  11.664  14.160  1.00  0.00    -0.000 C 
BRANCH  16  17
ATOM     17  C   UNL     1       4.045  10.723  14.678  1.00  0.00    -0.000 C 
BRANCH  17  18
ATOM     18  C   UNL     1       4.339   9.608  13.664  1.00  0.00    -0.000 C 
BRANCH  18  19
ATOM     19  C   UNL     1       3.063   8.913  13.165  1.00  0.00    -0.003 C 
ATOM     20  C   UNL     1       3.155   7.389  13.232  1.00  0.00     0.004 C 
ENDBRANCH  18  19
ENDBRANCH  17  18
ENDBRANCH  16  17
ENDBRANCH  15  16
ENDBRANCH  14  15
ENDBRANCH  13  14
ENDBRANCH  12  13
ENDBRANCH   1  12
TORSDOF 16
ENDMDL
MODEL 8
REMARK VINA RESULT:    -4.311      5.208      8.165
REMARK INTER + INTRA:          -9.910
REMARK INTER:                  -9.087
REMARK INTRA:                  -0.822
REMARK UNBOUND:                -1.567
REMARK SMILES CCCCCCCCCCCCCCCCCC(=O)[O-]
REMARK SMILES IDX 10 1 11 2 12 3 13 4 14 5 15 6 16 7 17 8 18 9 19 10 20 11
REMARK SMILES IDX 9 12 8 13 7 14 6 15 5 16 4 17 3 18 2 19 1 20
REMARK H PARENT
REMARK Flexibility Score: inf
ROOT
ATOM      1  C   UNL     1       5.107  11.327  16.520  1.00  0.00     0.000 C 
ENDROOT
BRANCH   1   2
ATOM      2  C   UNL     1       4.927  12.696  15.846  1.00  0.00     0.000 C 
BRANCH   2   3
ATOM      3  C   UNL     1       3.492  12.924  15.340  1.00  0.00     0.000 C 
BRANCH   3   4
ATOM      4  C   UNL     1       2.765  14.038  16.111  1.00  0.00     0.000 C 
BRANCH   4   5
ATOM      5  C   UNL     1       2.720  13.775  17.626  1.00  0.00     0.000 C 
BRANCH   5   6
ATOM      6  C   UNL     1       1.993  14.886  18.406  1.00  0.00     0.000 C 
BRANCH   6   7
ATOM      7  C   UNL     1       0.866  15.591  17.629  1.00  0.00     0.006 C 
BRANCH   7   8
ATOM      8  C   UNL     1      -0.318  15.987  18.522  1.00  0.00     0.053 C 
BRANCH   8   9
ATOM      9  C   UNL     1      -0.266  17.448  18.841  1.00  0.00     0.041 C 
ATOM     10  O   UNL     1      -1.154  17.971  19.564  1.00  0.00    -0.550 OA
ATOM     11  O   UNL     1       0.741  18.240  18.303  1.00  0.00    -0.550 OA
ENDBRANCH   8   9
ENDBRANCH   7   8
ENDBRANCH   6   7
ENDBRANCH   5   6
ENDBRANCH   4   5
ENDBRANCH   3   4
ENDBRANCH   2   3
ENDBRANCH   1   2
BRANCH   1  12
ATOM     12  C   UNL     1       5.271  11.432  18.044  1.00  0.00     0.000 C 
BRANCH  12  13
ATOM     13  C   UNL     1       4.303  10.488  18.764  1.00  0.00    -0.000 C 
BRANCH  13  14
ATOM     14  C   UNL     1       2.950  10.424  18.040  1.00  0.00    -0.000 C 
BRANCH  14  15
ATOM     15  C   UNL     1       2.786   9.157  17.185  1.00  0.00    -0.000 C 
BRANCH  15  16
ATOM     16  C   UNL     1       1.608   8.262  17.626  1.00  0.00    -0.000 C 
BRANCH  16  17
ATOM     17  C   UNL     1       2.043   6.807  17.866  1.00  0.00    -0.000 C 
BRANCH  17  18
ATOM     18  C   UNL     1       1.325   6.211  19.085  1.00  0.00    -0.000 C 
BRANCH  18  19
ATOM     19  C   UNL     1       1.196   4.682  19.004  1.00  0.00    -0.003 C 
ATOM     20  C   UNL     1       2.386   3.955  19.630  1.00  0.00     0.004 C 
ENDBRANCH  18  19
ENDBRANCH  17  18
ENDBRANCH  16  17
ENDBRANCH  15  16
ENDBRANCH  14  15
ENDBRANCH  13  14
ENDBRANCH  12  13
ENDBRANCH   1  12
TORSDOF 16
ENDMDL
MODEL 9
REMARK VINA RESULT:    -4.210      3.255      4.771
REMARK INTER + INTRA:          -9.715
REMARK INTER:                  -8.744
REMARK INTRA:                  -0.971
REMARK UNBOUND:                -1.567
REMARK SMILES CCCCCCCCCCCCCCCCCC(=O)[O-]
REMARK SMILES IDX 10 1 11 2 12 3 13 4 14 5 15 6 16 7 17 8 18 9 19 10 20 11
REMARK SMILES IDX 9 12 8 13 7 14 6 15 5 16 4 17 3 18 2 19 1 20
REMARK H PARENT
REMARK Flexibility Score: inf
ROOT
ATOM      1  C   UNL     1       4.964  11.764  16.502  1.00  0.00     0.000 C 
ENDROOT
BRANCH   1   2
ATOM      2  C   UNL     1       4.440  10.350  16.795  1.00  0.00     0.000 C 
BRANCH   2   3
ATOM      3  C   UNL     1       3.429  10.320  17.954  1.00  0.00     0.000 C 
BRANCH   3   4
ATOM      4  C   UNL     1       2.294   9.310  17.722  1.00  0.00     0.000 C 
BRANCH   4   5
ATOM      5  C   UNL     1       2.681   8.207  16.722  1.00  0.00     0.000 C 
BRANCH   5   6
ATOM      6  C   UNL     1       2.398   6.790  17.254  1.00  0.00     0.000 C 
BRANCH   6   7
ATOM      7  C   UNL     1       1.553   6.738  18.540  1.00  0.00     0.006 C 
BRANCH   7   8
ATOM      8  C   UNL     1       0.748   5.438  18.674  1.00  0.00     0.053 C 
BRANCH   8   9
ATOM      9  C   UNL     1       1.620   4.334  19.182  1.00  0.00     0.041 C 
ATOM     10  O   UNL     1       2.302   4.494  20.228  1.00  0.00    -0.550 OA
ATOM     11  O   UNL     1       1.711   3.141  18.476  1.00  0.00    -0.550 OA
ENDBRANCH   8   9
ENDBRANCH   7   8
ENDBRANCH   6   7
ENDBRANCH   5   6
ENDBRANCH   4   5
ENDBRANCH   3   4
ENDBRANCH   2   3
ENDBRANCH   1   2
BRANCH   1  12
ATOM     12  C   UNL     1       4.519  12.289  15.128  1.00  0.00     0.000 C 
BRANCH  12  13
ATOM     13  C   UNL     1       3.255  13.147  15.254  1.00  0.00    -0.000 C 
BRANCH  13  14
ATOM     14  C   UNL     1       3.093  13.688  16.682  1.00  0.00    -0.000 C 
BRANCH  14  15
ATOM     15  C   UNL     1       2.018  14.782  16.791  1.00  0.00    -0.000 C 
BRANCH  15  16
ATOM     16  C   UNL     1       1.564  15.060  18.239  1.00  0.00    -0.000 C 
BRANCH  16  17
ATOM     17  C   UNL     1       0.393  16.054  18.299  1.00  0.00    -0.000 C 
BRANCH  17  18
ATOM     18  C   UNL     1       0.902  17.501  18.365  1.00  0.00    -0.000 C 
BRANCH  18  19
ATOM     19  C   UNL     1      -0.192  18.493  18.790  1.00  0.00    -0.003 C 
ATOM     20  C   UNL     1      -1.456  17.797  19.293  1.00  0.00     0.004 C 
ENDBRANCH  18  19
ENDBRANCH  17  18
ENDBRANCH  16  17
ENDBRANCH  15  16
ENDBRANCH  14  15
ENDBRANCH  13  14
ENDBRANCH  12  13
ENDBRANCH   1  12
TORSDOF 16
ENDMDL
