MODEL 1
REMARK VINA RESULT:    -6.688      0.000      0.000
REMARK INTER + INTRA:          -7.524
REMARK INTER:                  -7.470
REMARK INTRA:                  -0.054
REMARK UNBOUND:                -0.054
REMARK SMILES COc1cc2ccc(=O)oc2c(O)c1O
REMARK SMILES IDX 3 1 14 2 12 3 11 4 5 5 4 6 6 7 7 8 8 9 9 10 10 11 2 12 1 13
REMARK SMILES IDX 15 14 13 16
REMARK H PARENT 15 15 13 17
REMARK Flexibility Score: inf
ROOT
ATOM      1  C   UNL     1     -31.221  -2.183 -20.084  1.00  0.00     0.165 A 
ATOM      2  C   UNL     1     -32.602  -2.126 -20.340  1.00  0.00     0.204 A 
ATOM      3  C   UNL     1     -33.515  -2.733 -19.443  1.00  0.00     0.205 A 
ATOM      4  C   UNL     1     -33.033  -3.388 -18.302  1.00  0.00     0.184 A 
ATOM      5  C   UNL     1     -31.647  -3.442 -18.048  1.00  0.00     0.025 A 
ATOM      6  C   UNL     1     -30.748  -2.843 -18.935  1.00  0.00     0.062 A 
ATOM      7  C   UNL     1     -31.203  -4.105 -16.898  1.00  0.00     0.020 A 
ATOM      8  C   UNL     1     -32.134  -4.689 -16.041  1.00  0.00     0.094 A 
ATOM      9  C   UNL     1     -33.493  -4.597 -16.355  1.00  0.00     0.336 A 
ATOM     10  O   UNL     1     -34.352  -5.117 -15.595  1.00  0.00    -0.246 OA
ATOM     11  O   UNL     1     -33.888  -3.960 -17.456  1.00  0.00    -0.419 OA
ENDROOT
BRANCH   1  12
ATOM     12  O   UNL     1     -30.350  -1.568 -20.998  1.00  0.00    -0.493 OA
ATOM     13  C   UNL     1     -28.981  -1.918 -21.171  1.00  0.00     0.278 C 
ENDBRANCH   1  12
BRANCH   2  14
ATOM     14  O   UNL     1     -33.021  -1.460 -21.494  1.00  0.00    -0.502 OA
ATOM     15  H   UNL     1     -32.550  -1.516 -22.386  1.00  0.00     0.293 HD
ENDBRANCH   2  14
BRANCH   3  16
ATOM     16  O   UNL     1     -34.898  -2.708 -19.648  1.00  0.00    -0.502 OA
ATOM     17  H   UNL     1     -35.550  -3.327 -19.190  1.00  0.00     0.293 HD
ENDBRANCH   3  16
TORSDOF 3
ENDMDL
MODEL 2
REMARK VINA RESULT:    -6.244      1.878      3.040
REMARK INTER + INTRA:          -7.028
REMARK INTER:                  -6.961
REMARK INTRA:                  -0.067
REMARK UNBOUND:                -0.054
REMARK SMILES COc1cc2ccc(=O)oc2c(O)c1O
REMARK SMILES IDX 3 1 14 2 12 3 11 4 5 5 4 6 6 7 7 8 8 9 9 10 10 11 2 12 1 13
REMARK SMILES IDX 15 14 13 16
REMARK H PARENT 15 15 13 17
REMARK Flexibility Score: inf
ROOT
ATOM      1  C   UNL     1     -31.667  -2.593 -19.190  1.00  0.00     0.165 A 
ATOM      2  C   UNL     1     -31.016  -3.311 -18.171  1.00  0.00     0.204 A 
ATOM      3  C   UNL     1     -31.735  -4.254 -17.396  1.00  0.00     0.205 A 
ATOM      4  C   UNL     1     -33.097  -4.465 -17.651  1.00  0.00     0.184 A 
ATOM      5  C   UNL     1     -33.747  -3.743 -18.673  1.00  0.00     0.025 A 
ATOM      6  C   UNL     1     -33.035  -2.814 -19.437  1.00  0.00     0.062 A 
ATOM      7  C   UNL     1     -35.108  -3.981 -18.898  1.00  0.00     0.020 A 
ATOM      8  C   UNL     1     -35.779  -4.917 -18.114  1.00  0.00     0.094 A 
ATOM      9  C   UNL     1     -35.072  -5.595 -17.117  1.00  0.00     0.336 A 
ATOM     10  O   UNL     1     -35.658  -6.445 -16.396  1.00  0.00    -0.246 OA
ATOM     11  O   UNL     1     -33.778  -5.350 -16.924  1.00  0.00    -0.419 OA
ENDROOT
BRANCH   1  12
ATOM     12  O   UNL     1     -30.918  -1.669 -19.934  1.00  0.00    -0.493 OA
ATOM     13  C   UNL     1     -30.406  -1.909 -21.240  1.00  0.00     0.278 C 
ENDBRANCH   1  12
BRANCH   2  14
ATOM     14  O   UNL     1     -29.658  -3.056 -17.965  1.00  0.00    -0.502 OA
ATOM     15  H   UNL     1     -29.125  -2.367 -18.475  1.00  0.00     0.293 HD
ENDBRANCH   2  14
BRANCH   3  16
ATOM     16  O   UNL     1     -31.139  -4.995 -16.371  1.00  0.00    -0.502 OA
ATOM     17  H   UNL     1     -31.625  -5.676 -15.807  1.00  0.00     0.293 HD
ENDBRANCH   3  16
TORSDOF 3
ENDMDL
MODEL 3
REMARK VINA RESULT:    -6.168      1.430      4.840
REMARK INTER + INTRA:          -6.943
REMARK INTER:                  -6.910
REMARK INTRA:                  -0.033
REMARK UNBOUND:                -0.054
REMARK SMILES COc1cc2ccc(=O)oc2c(O)c1O
REMARK SMILES IDX 3 1 14 2 12 3 11 4 5 5 4 6 6 7 7 8 8 9 9 10 10 11 2 12 1 13
REMARK SMILES IDX 15 14 13 16
REMARK H PARENT 15 15 13 17
REMARK Flexibility Score: inf
ROOT
ATOM      1  C   UNL     1     -34.216  -4.354 -16.306  1.00  0.00     0.165 A 
ATOM      2  C   UNL     1     -34.954  -3.772 -17.352  1.00  0.00     0.204 A 
ATOM      3  C   UNL     1     -34.282  -3.154 -18.436  1.00  0.00     0.205 A 
ATOM      4  C   UNL     1     -32.881  -3.129 -18.459  1.00  0.00     0.184 A 
ATOM      5  C   UNL     1     -32.144  -3.714 -17.408  1.00  0.00     0.025 A 
ATOM      6  C   UNL     1     -32.810  -4.322 -16.339  1.00  0.00     0.062 A 
ATOM      7  C   UNL     1     -30.747  -3.669 -17.465  1.00  0.00     0.020 A 
ATOM      8  C   UNL     1     -30.125  -3.052 -18.549  1.00  0.00     0.094 A 
ATOM      9  C   UNL     1     -30.918  -2.492 -19.554  1.00  0.00     0.336 A 
ATOM     10  O   UNL     1     -30.376  -1.930 -20.543  1.00  0.00    -0.246 OA
ATOM     11  O   UNL     1     -32.245  -2.549 -19.475  1.00  0.00    -0.419 OA
ENDROOT
BRANCH   1  12
ATOM     12  O   UNL     1     -34.921  -4.955 -15.252  1.00  0.00    -0.493 OA
ATOM     13  C   UNL     1     -35.313  -4.287 -14.057  1.00  0.00     0.278 C 
ENDBRANCH   1  12
BRANCH   2  14
ATOM     14  O   UNL     1     -36.347  -3.828 -17.273  1.00  0.00    -0.502 OA
ATOM     15  H   UNL     1     -36.937  -4.284 -17.954  1.00  0.00     0.293 HD
ENDBRANCH   2  14
BRANCH   3  16
ATOM     16  O   UNL     1     -34.964  -2.559 -19.502  1.00  0.00    -0.502 OA
ATOM     17  H   UNL     1     -35.375  -3.070 -20.268  1.00  0.00     0.293 HD
ENDBRANCH   3  16
TORSDOF 3
ENDMDL
MODEL 4
REMARK VINA RESULT:    -6.036      1.680      5.295
REMARK INTER + INTRA:          -6.796
REMARK INTER:                  -6.742
REMARK INTRA:                  -0.054
REMARK UNBOUND:                -0.054
REMARK SMILES COc1cc2ccc(=O)oc2c(O)c1O
REMARK SMILES IDX 3 1 14 2 12 3 11 4 5 5 4 6 6 7 7 8 8 9 9 10 10 11 2 12 1 13
REMARK SMILES IDX 15 14 13 16
REMARK H PARENT 15 15 13 17
REMARK Flexibility Score: inf
ROOT
ATOM      1  C   UNL     1     -33.494  -3.190 -18.289  1.00  0.00     0.165 A 
ATOM      2  C   UNL     1     -32.403  -3.491 -17.456  1.00  0.00     0.204 A 
ATOM      3  C   UNL     1     -31.080  -3.269 -17.911  1.00  0.00     0.205 A 
ATOM      4  C   UNL     1     -30.867  -2.747 -19.194  1.00  0.00     0.184 A 
ATOM      5  C   UNL     1     -31.964  -2.445 -20.027  1.00  0.00     0.025 A 
ATOM      6  C   UNL     1     -33.269  -2.666 -19.576  1.00  0.00     0.062 A 
ATOM      7  C   UNL     1     -31.713  -1.925 -21.302  1.00  0.00     0.020 A 
ATOM      8  C   UNL     1     -30.397  -1.721 -21.711  1.00  0.00     0.094 A 
ATOM      9  C   UNL     1     -29.357  -2.043 -20.834  1.00  0.00     0.336 A 
ATOM     10  O   UNL     1     -28.161  -1.867 -21.183  1.00  0.00    -0.246 OA
ATOM     11  O   UNL     1     -29.625  -2.536 -19.627  1.00  0.00    -0.419 OA
ENDROOT
BRANCH   1  12
ATOM     12  O   UNL     1     -34.788  -3.425 -17.800  1.00  0.00    -0.493 OA
ATOM     13  C   UNL     1     -35.961  -2.769 -18.268  1.00  0.00     0.278 C 
ENDBRANCH   1  12
BRANCH   2  14
ATOM     14  O   UNL     1     -32.678  -4.010 -16.189  1.00  0.00    -0.502 OA
ATOM     15  H   UNL     1     -33.484  -3.758 -15.634  1.00  0.00     0.293 HD
ENDBRANCH   2  14
BRANCH   3  16
ATOM     16  O   UNL     1     -29.957  -3.551 -17.126  1.00  0.00    -0.502 OA
ATOM     17  H   UNL     1     -29.093  -3.033 -17.165  1.00  0.00     0.293 HD
ENDBRANCH   3  16
TORSDOF 3
ENDMDL
MODEL 5
REMARK VINA RESULT:    -5.907      2.460      5.327
REMARK INTER + INTRA:          -6.652
REMARK INTER:                  -6.597
REMARK INTRA:                  -0.055
REMARK UNBOUND:                -0.054
REMARK SMILES COc1cc2ccc(=O)oc2c(O)c1O
REMARK SMILES IDX 3 1 14 2 12 3 11 4 5 5 4 6 6 7 7 8 8 9 9 10 10 11 2 12 1 13
REMARK SMILES IDX 15 14 13 16
REMARK H PARENT 15 15 13 17
REMARK Flexibility Score: inf
ROOT
ATOM      1  C   UNL     1     -36.051  -5.792 -16.954  1.00  0.00     0.165 A 
ATOM      2  C   UNL     1     -36.503  -4.903 -17.944  1.00  0.00     0.204 A 
ATOM      3  C   UNL     1     -35.610  -3.964 -18.516  1.00  0.00     0.205 A 
ATOM      4  C   UNL     1     -34.275  -3.929 -18.089  1.00  0.00     0.184 A 
ATOM      5  C   UNL     1     -33.825  -4.823 -17.095  1.00  0.00     0.025 A 
ATOM      6  C   UNL     1     -34.709  -5.748 -16.532  1.00  0.00     0.062 A 
ATOM      7  C   UNL     1     -32.486  -4.758 -16.694  1.00  0.00     0.020 A 
ATOM      8  C   UNL     1     -31.639  -3.820 -17.282  1.00  0.00     0.094 A 
ATOM      9  C   UNL     1     -32.153  -2.964 -18.261  1.00  0.00     0.336 A 
ATOM     10  O   UNL     1     -31.406  -2.110 -18.805  1.00  0.00    -0.246 OA
ATOM     11  O   UNL     1     -33.431  -3.048 -18.624  1.00  0.00    -0.419 OA
ENDROOT
BRANCH   1  12
ATOM     12  O   UNL     1     -36.969  -6.706 -16.413  1.00  0.00    -0.493 OA
ATOM     13  C   UNL     1     -36.621  -7.975 -15.868  1.00  0.00     0.278 C 
ENDBRANCH   1  12
BRANCH   2  14
ATOM     14  O   UNL     1     -37.844  -4.986 -18.327  1.00  0.00    -0.502 OA
ATOM     15  H   UNL     1     -38.531  -4.267 -18.153  1.00  0.00     0.293 HD
ENDBRANCH   2  14
BRANCH   3  16
ATOM     16  O   UNL     1     -36.004  -3.056 -19.503  1.00  0.00    -0.502 OA
ATOM     17  H   UNL     1     -36.321  -3.321 -20.424  1.00  0.00     0.293 HD
ENDBRANCH   3  16
TORSDOF 3
ENDMDL
MODEL 6
REMARK VINA RESULT:    -5.882      5.505      8.136
REMARK INTER + INTRA:          -6.624
REMARK INTER:                  -6.555
REMARK INTRA:                  -0.069
REMARK UNBOUND:                -0.054
REMARK SMILES COc1cc2ccc(=O)oc2c(O)c1O
REMARK SMILES IDX 3 1 14 2 12 3 11 4 5 5 4 6 6 7 7 8 8 9 9 10 10 11 2 12 1 13
REMARK SMILES IDX 15 14 13 16
REMARK H PARENT 15 15 13 17
REMARK Flexibility Score: inf
ROOT
ATOM      1  C   UNL     1     -36.155  -4.966 -14.022  1.00  0.00     0.165 A 
ATOM      2  C   UNL     1     -37.361  -4.261 -13.868  1.00  0.00     0.204 A 
ATOM      3  C   UNL     1     -38.577  -4.965 -13.687  1.00  0.00     0.205 A 
ATOM      4  C   UNL     1     -38.568  -6.367 -13.662  1.00  0.00     0.184 A 
ATOM      5  C   UNL     1     -37.356  -7.071 -13.817  1.00  0.00     0.025 A 
ATOM      6  C   UNL     1     -36.158  -6.373 -13.996  1.00  0.00     0.062 A 
ATOM      7  C   UNL     1     -37.386  -8.470 -13.787  1.00  0.00     0.020 A 
ATOM      8  C   UNL     1     -38.603  -9.125 -13.607  1.00  0.00     0.094 A 
ATOM      9  C   UNL     1     -39.766  -8.363 -13.461  1.00  0.00     0.336 A 
ATOM     10  O   UNL     1     -40.876  -8.935 -13.296  1.00  0.00    -0.246 OA
ATOM     11  O   UNL     1     -39.708  -7.034 -13.493  1.00  0.00    -0.419 OA
ENDROOT
BRANCH   1  12
ATOM     12  O   UNL     1     -34.973  -4.229 -14.199  1.00  0.00    -0.493 OA
ATOM     13  C   UNL     1     -34.226  -4.178 -15.410  1.00  0.00     0.278 C 
ENDBRANCH   1  12
BRANCH   2  14
ATOM     14  O   UNL     1     -37.306  -2.866 -13.901  1.00  0.00    -0.502 OA
ATOM     15  H   UNL     1     -36.464  -2.326 -13.758  1.00  0.00     0.293 HD
ENDBRANCH   2  14
BRANCH   3  16
ATOM     16  O   UNL     1     -39.805  -4.317 -13.529  1.00  0.00    -0.502 OA
ATOM     17  H   UNL     1     -40.674  -4.645 -13.922  1.00  0.00     0.293 HD
ENDBRANCH   3  16
TORSDOF 3
ENDMDL
MODEL 7
REMARK VINA RESULT:    -5.861      2.449      3.443
REMARK INTER + INTRA:          -6.601
REMARK INTER:                  -6.547
REMARK INTRA:                  -0.053
REMARK UNBOUND:                -0.054
REMARK SMILES COc1cc2ccc(=O)oc2c(O)c1O
REMARK SMILES IDX 3 1 14 2 12 3 11 4 5 5 4 6 6 7 7 8 8 9 9 10 10 11 2 12 1 13
REMARK SMILES IDX 15 14 13 16
REMARK H PARENT 15 15 13 17
REMARK Flexibility Score: inf
ROOT
ATOM      1  C   UNL     1     -33.110  -3.600 -18.160  1.00  0.00     0.165 A 
ATOM      2  C   UNL     1     -34.114  -3.183 -19.052  1.00  0.00     0.204 A 
ATOM      3  C   UNL     1     -35.441  -3.651 -18.896  1.00  0.00     0.205 A 
ATOM      4  C   UNL     1     -35.747  -4.530 -17.848  1.00  0.00     0.184 A 
ATOM      5  C   UNL     1     -34.738  -4.946 -16.955  1.00  0.00     0.025 A 
ATOM      6  C   UNL     1     -33.428  -4.483 -17.112  1.00  0.00     0.062 A 
ATOM      7  C   UNL     1     -35.081  -5.825 -15.921  1.00  0.00     0.020 A 
ATOM      8  C   UNL     1     -36.399  -6.262 -15.802  1.00  0.00     0.094 A 
ATOM      9  C   UNL     1     -37.347  -5.809 -16.723  1.00  0.00     0.336 A 
ATOM     10  O   UNL     1     -38.544  -6.191 -16.634  1.00  0.00    -0.246 OA
ATOM     11  O   UNL     1     -36.994  -4.974 -17.697  1.00  0.00    -0.419 OA
ENDROOT
BRANCH   1  12
ATOM     12  O   UNL     1     -31.808  -3.113 -18.351  1.00  0.00    -0.493 OA
ATOM     13  C   UNL     1     -30.785  -3.131 -17.361  1.00  0.00     0.278 C 
ENDBRANCH   1  12
BRANCH   2  14
ATOM     14  O   UNL     1     -33.747  -2.307 -20.076  1.00  0.00    -0.502 OA
ATOM     15  H   UNL     1     -34.086  -2.369 -21.026  1.00  0.00     0.293 HD
ENDBRANCH   2  14
BRANCH   3  16
ATOM     16  O   UNL     1     -36.478  -3.270 -19.753  1.00  0.00    -0.502 OA
ATOM     17  H   UNL     1     -37.177  -2.579 -19.526  1.00  0.00     0.293 HD
ENDBRANCH   3  16
TORSDOF 3
ENDMDL
MODEL 8
REMARK VINA RESULT:    -5.707      5.409      8.180
REMARK INTER + INTRA:          -6.428
REMARK INTER:                  -6.375
REMARK INTRA:                  -0.053
REMARK UNBOUND:                -0.054
REMARK SMILES COc1cc2ccc(=O)oc2c(O)c1O
REMARK SMILES IDX 3 1 14 2 12 3 11 4 5 5 4 6 6 7 7 8 8 9 9 10 10 11 2 12 1 13
REMARK SMILES IDX 15 14 13 16
REMARK H PARENT 15 15 13 17
REMARK Flexibility Score: inf
ROOT
ATOM      1  C   UNL     1     -36.428  -6.507 -15.798  1.00  0.00     0.165 A 
ATOM      2  C   UNL     1     -36.913  -7.752 -15.363  1.00  0.00     0.204 A 
ATOM      3  C   UNL     1     -37.951  -7.813 -14.402  1.00  0.00     0.205 A 
ATOM      4  C   UNL     1     -38.491  -6.626 -13.889  1.00  0.00     0.184 A 
ATOM      5  C   UNL     1     -38.002  -5.378 -14.328  1.00  0.00     0.025 A 
ATOM      6  C   UNL     1     -36.977  -5.321 -15.276  1.00  0.00     0.062 A 
ATOM      7  C   UNL     1     -38.566  -4.213 -13.793  1.00  0.00     0.020 A 
ATOM      8  C   UNL     1     -39.586  -4.317 -12.850  1.00  0.00     0.094 A 
ATOM      9  C   UNL     1     -40.021  -5.587 -12.460  1.00  0.00     0.336 A 
ATOM     10  O   UNL     1     -40.942  -5.704 -11.610  1.00  0.00    -0.246 OA
ATOM     11  O   UNL     1     -39.468  -6.678 -12.985  1.00  0.00    -0.419 OA
ENDROOT
BRANCH   1  12
ATOM     12  O   UNL     1     -35.397  -6.491 -16.751  1.00  0.00    -0.493 OA
ATOM     13  C   UNL     1     -34.546  -5.378 -17.003  1.00  0.00     0.278 C 
ENDBRANCH   1  12
BRANCH   2  14
ATOM     14  O   UNL     1     -36.334  -8.900 -15.910  1.00  0.00    -0.502 OA
ATOM     15  H   UNL     1     -35.387  -8.950 -16.257  1.00  0.00     0.293 HD
ENDBRANCH   2  14
BRANCH   3  16
ATOM     16  O   UNL     1     -38.472  -9.023 -13.934  1.00  0.00    -0.502 OA
ATOM     17  H   UNL     1     -39.456  -9.210 -13.816  1.00  0.00     0.293 HD
ENDBRANCH   3  16
TORSDOF 3
ENDMDL
MODEL 9
REMARK VINA RESULT:    -5.600      5.301      7.858
REMARK INTER + INTRA:          -6.309
REMARK INTER:                  -6.240
REMARK INTRA:                  -0.069
REMARK UNBOUND:                -0.054
REMARK SMILES COc1cc2ccc(=O)oc2c(O)c1O
REMARK SMILES IDX 3 1 14 2 12 3 11 4 5 5 4 6 6 7 7 8 8 9 9 10 10 11 2 12 1 13
REMARK SMILES IDX 15 14 13 16
REMARK H PARENT 15 15 13 17
REMARK Flexibility Score: inf
ROOT
ATOM      1  C   UNL     1     -36.452  -5.054 -15.353  1.00  0.00     0.165 A 
ATOM      2  C   UNL     1     -36.166  -6.336 -15.855  1.00  0.00     0.204 A 
ATOM      3  C   UNL     1     -37.007  -7.428 -15.530  1.00  0.00     0.205 A 
ATOM      4  C   UNL     1     -38.124  -7.223 -14.709  1.00  0.00     0.184 A 
ATOM      5  C   UNL     1     -38.408  -5.935 -14.207  1.00  0.00     0.025 A 
ATOM      6  C   UNL     1     -37.576  -4.859 -14.528  1.00  0.00     0.062 A 
ATOM      7  C   UNL     1     -39.531  -5.769 -13.389  1.00  0.00     0.020 A 
ATOM      8  C   UNL     1     -40.333  -6.869 -13.094  1.00  0.00     0.094 A 
ATOM      9  C   UNL     1     -39.992  -8.117 -13.625  1.00  0.00     0.336 A 
ATOM     10  O   UNL     1     -40.703  -9.125 -13.372  1.00  0.00    -0.246 OA
ATOM     11  O   UNL     1     -38.918  -8.247 -14.400  1.00  0.00    -0.419 OA
ENDROOT
BRANCH   1  12
ATOM     12  O   UNL     1     -35.593  -3.999 -15.698  1.00  0.00    -0.493 OA
ATOM     13  C   UNL     1     -35.890  -2.998 -16.666  1.00  0.00     0.278 C 
ENDBRANCH   1  12
BRANCH   2  14
ATOM     14  O   UNL     1     -35.040  -6.477 -16.668  1.00  0.00    -0.502 OA
ATOM     15  H   UNL     1     -35.033  -6.971 -17.549  1.00  0.00     0.293 HD
ENDBRANCH   2  14
BRANCH   3  16
ATOM     16  O   UNL     1     -36.772  -8.724 -16.000  1.00  0.00    -0.502 OA
ATOM     17  H   UNL     1     -37.114  -9.080 -16.880  1.00  0.00     0.293 HD
ENDBRANCH   3  16
TORSDOF 3
ENDMDL
