MODEL 1
REMARK VINA RESULT:    -5.713      0.000      0.000
REMARK INTER + INTRA:          -6.467
REMARK INTER:                  -6.047
REMARK INTRA:                  -0.421
REMARK UNBOUND:                -0.421
REMARK SMILES CC1=CC[C@@H]2[C@H]3[C@H](C(C)C)CC[C@]2(C)[C@@H]13
REMARK SMILES IDX 1 1 2 2 3 3 4 4 5 5 6 6 15 7 13 8 12 9 11 10 7 11 14 12 8 13
REMARK SMILES IDX 9 14 10 15
REMARK H PARENT
REMARK Flexibility Score: inf
ROOT
ATOM      1  C   UNL     1       5.947  -1.451  19.897  1.00  0.00     0.039 C 
ATOM      2  C   UNL     1       5.057  -2.551  19.401  1.00  0.00    -0.073 C 
ATOM      3  C   UNL     1       5.380  -3.857  19.588  1.00  0.00    -0.027 C 
ATOM      4  C   UNL     1       4.423  -4.937  19.076  1.00  0.00     0.031 C 
ATOM      5  C   UNL     1       3.197  -4.283  18.358  1.00  0.00     0.003 C 
ATOM      6  C   UNL     1       3.741  -3.191  17.407  1.00  0.00     0.004 C 
ATOM      7  C   UNL     1       3.759  -2.256  18.645  1.00  0.00     0.024 C 
ATOM      8  C   UNL     1       2.601  -3.124  19.196  1.00  0.00    -0.022 C 
ATOM      9  C   UNL     1       1.241  -2.690  18.566  1.00  0.00     0.008 C 
ATOM     10  C   UNL     1       1.397  -2.179  17.108  1.00  0.00     0.005 C 
ATOM     11  C   UNL     1       2.632  -2.795  16.384  1.00  0.00    -0.005 C 
ATOM     12  C   UNL     1       2.468  -3.307  20.726  1.00  0.00     0.012 C 
ENDROOT
BRANCH  11  13
ATOM     13  C   UNL     1       3.141  -1.896  15.216  1.00  0.00    -0.014 C 
ATOM     14  C   UNL     1       4.671  -1.963  15.082  1.00  0.00     0.007 C 
ATOM     15  C   UNL     1       2.690  -0.429  15.317  1.00  0.00     0.007 C 
ENDBRANCH  11  13
TORSDOF 1
ENDMDL
MODEL 2
REMARK VINA RESULT:    -5.492      2.001      5.448
REMARK INTER + INTRA:          -6.233
REMARK INTER:                  -5.950
REMARK INTRA:                  -0.284
REMARK UNBOUND:                -0.421
REMARK SMILES CC1=CC[C@@H]2[C@H]3[C@H](C(C)C)CC[C@]2(C)[C@@H]13
REMARK SMILES IDX 1 1 2 2 3 3 4 4 5 5 6 6 15 7 13 8 12 9 11 10 7 11 14 12 8 13
REMARK SMILES IDX 9 14 10 15
REMARK H PARENT
REMARK Flexibility Score: inf
ROOT
ATOM      1  C   UNL     1      -0.765   0.006  15.630  1.00  0.00     0.039 C 
ATOM      2  C   UNL     1       0.107  -1.072  15.061  1.00  0.00    -0.073 C 
ATOM      3  C   UNL     1      -0.332  -1.877  14.059  1.00  0.00    -0.027 C 
ATOM      4  C   UNL     1       0.611  -2.950  13.505  1.00  0.00     0.031 C 
ATOM      5  C   UNL     1       1.971  -2.931  14.277  1.00  0.00     0.003 C 
ATOM      6  C   UNL     1       1.649  -2.864  15.788  1.00  0.00     0.004 C 
ATOM      7  C   UNL     1       1.518  -1.330  15.595  1.00  0.00     0.024 C 
ATOM      8  C   UNL     1       2.520  -1.491  14.424  1.00  0.00    -0.022 C 
ATOM      9  C   UNL     1       3.984  -1.558  14.960  1.00  0.00     0.008 C 
ATOM     10  C   UNL     1       4.078  -2.238  16.352  1.00  0.00     0.005 C 
ATOM     11  C   UNL     1       2.920  -3.250  16.606  1.00  0.00    -0.005 C 
ATOM     12  C   UNL     1       2.416  -0.530  13.217  1.00  0.00     0.012 C 
ENDROOT
BRANCH  11  13
ATOM     13  C   UNL     1       2.651  -3.469  18.126  1.00  0.00    -0.014 C 
ATOM     14  C   UNL     1       3.657  -4.458  18.738  1.00  0.00     0.007 C 
ATOM     15  C   UNL     1       1.216  -3.921  18.446  1.00  0.00     0.007 C 
ENDBRANCH  11  13
TORSDOF 1
ENDMDL
MODEL 3
REMARK VINA RESULT:    -5.453      1.914      5.265
REMARK INTER + INTRA:          -6.192
REMARK INTER:                  -6.002
REMARK INTRA:                  -0.191
REMARK UNBOUND:                -0.421
REMARK SMILES CC1=CC[C@@H]2[C@H]3[C@H](C(C)C)CC[C@]2(C)[C@@H]13
REMARK SMILES IDX 1 1 2 2 3 3 4 4 5 5 6 6 15 7 13 8 12 9 11 10 7 11 14 12 8 13
REMARK SMILES IDX 9 14 10 15
REMARK H PARENT
REMARK Flexibility Score: inf
ROOT
ATOM      1  C   UNL     1      -0.862  -0.019  15.634  1.00  0.00     0.039 C 
ATOM      2  C   UNL     1       0.164  -1.090  15.418  1.00  0.00    -0.073 C 
ATOM      3  C   UNL     1       0.268  -1.737  14.228  1.00  0.00    -0.027 C 
ATOM      4  C   UNL     1       1.347  -2.810  14.060  1.00  0.00     0.031 C 
ATOM      5  C   UNL     1       2.149  -2.989  15.391  1.00  0.00     0.003 C 
ATOM      6  C   UNL     1       1.124  -3.071  16.546  1.00  0.00     0.004 C 
ATOM      7  C   UNL     1       1.124  -1.520  16.530  1.00  0.00     0.024 C 
ATOM      8  C   UNL     1       2.571  -1.623  15.987  1.00  0.00    -0.022 C 
ATOM      9  C   UNL     1       3.579  -1.868  17.153  1.00  0.00     0.008 C 
ATOM     10  C   UNL     1       2.965  -2.709  18.303  1.00  0.00     0.005 C 
ATOM     11  C   UNL     1       1.821  -3.649  17.816  1.00  0.00    -0.005 C 
ATOM     12  C   UNL     1       3.089  -0.524  15.030  1.00  0.00     0.012 C 
ENDROOT
BRANCH  11  13
ATOM     13  C   UNL     1       0.833  -4.021  18.965  1.00  0.00    -0.014 C 
ATOM     14  C   UNL     1       0.185  -2.767  19.575  1.00  0.00     0.007 C 
ATOM     15  C   UNL     1       1.464  -4.876  20.077  1.00  0.00     0.007 C 
ENDBRANCH  11  13
TORSDOF 1
ENDMDL
MODEL 4
REMARK VINA RESULT:    -5.371      1.514      4.982
REMARK INTER + INTRA:          -6.106
REMARK INTER:                  -5.887
REMARK INTRA:                  -0.219
REMARK UNBOUND:                -0.421
REMARK SMILES CC1=CC[C@@H]2[C@H]3[C@H](C(C)C)CC[C@]2(C)[C@@H]13
REMARK SMILES IDX 1 1 2 2 3 3 4 4 5 5 6 6 15 7 13 8 12 9 11 10 7 11 14 12 8 13
REMARK SMILES IDX 9 14 10 15
REMARK H PARENT
REMARK Flexibility Score: inf
ROOT
ATOM      1  C   UNL     1       1.974  -3.736  13.031  1.00  0.00     0.039 C 
ATOM      2  C   UNL     1       2.214  -2.594  13.973  1.00  0.00    -0.073 C 
ATOM      3  C   UNL     1       2.839  -1.461  13.561  1.00  0.00    -0.027 C 
ATOM      4  C   UNL     1       3.041  -0.320  14.564  1.00  0.00     0.031 C 
ATOM      5  C   UNL     1       2.482  -0.725  15.968  1.00  0.00     0.003 C 
ATOM      6  C   UNL     1       2.991  -2.152  16.279  1.00  0.00     0.004 C 
ATOM      7  C   UNL     1       1.788  -2.661  15.442  1.00  0.00     0.024 C 
ATOM      8  C   UNL     1       1.071  -1.353  15.858  1.00  0.00    -0.022 C 
ATOM      9  C   UNL     1       0.465  -1.491  17.290  1.00  0.00     0.008 C 
ATOM     10  C   UNL     1       1.313  -2.409  18.210  1.00  0.00     0.005 C 
ATOM     11  C   UNL     1       2.817  -2.444  17.802  1.00  0.00    -0.005 C 
ATOM     12  C   UNL     1       0.050  -0.719  14.884  1.00  0.00     0.012 C 
ENDROOT
BRANCH  11  13
ATOM     13  C   UNL     1       3.529  -3.746  18.281  1.00  0.00    -0.014 C 
ATOM     14  C   UNL     1       2.747  -4.428  19.415  1.00  0.00     0.007 C 
ATOM     15  C   UNL     1       4.991  -3.535  18.709  1.00  0.00     0.007 C 
ENDBRANCH  11  13
TORSDOF 1
ENDMDL
MODEL 5
REMARK VINA RESULT:    -5.243      1.329      3.348
REMARK INTER + INTRA:          -5.970
REMARK INTER:                  -5.675
REMARK INTRA:                  -0.295
REMARK UNBOUND:                -0.421
REMARK SMILES CC1=CC[C@@H]2[C@H]3[C@H](C(C)C)CC[C@]2(C)[C@@H]13
REMARK SMILES IDX 1 1 2 2 3 3 4 4 5 5 6 6 15 7 13 8 12 9 11 10 7 11 14 12 8 13
REMARK SMILES IDX 9 14 10 15
REMARK H PARENT
REMARK Flexibility Score: inf
ROOT
ATOM      1  C   UNL     1       4.915  -5.385  20.013  1.00  0.00     0.039 C 
ATOM      2  C   UNL     1       5.044  -3.955  19.581  1.00  0.00    -0.073 C 
ATOM      3  C   UNL     1       5.558  -3.012  20.412  1.00  0.00    -0.027 C 
ATOM      4  C   UNL     1       5.682  -1.570  19.909  1.00  0.00     0.031 C 
ATOM      5  C   UNL     1       5.124  -1.451  18.453  1.00  0.00     0.003 C 
ATOM      6  C   UNL     1       3.765  -2.189  18.413  1.00  0.00     0.004 C 
ATOM      7  C   UNL     1       4.585  -3.489  18.197  1.00  0.00     0.024 C 
ATOM      8  C   UNL     1       5.661  -2.585  17.545  1.00  0.00    -0.022 C 
ATOM      9  C   UNL     1       5.287  -2.269  16.063  1.00  0.00     0.008 C 
ATOM     10  C   UNL     1       3.754  -2.181  15.842  1.00  0.00     0.005 C 
ATOM     11  C   UNL     1       2.983  -1.765  17.131  1.00  0.00    -0.005 C 
ATOM     12  C   UNL     1       7.149  -2.990  17.665  1.00  0.00     0.012 C 
ENDROOT
BRANCH  11  13
ATOM     13  C   UNL     1       1.498  -2.241  17.111  1.00  0.00    -0.014 C 
ATOM     14  C   UNL     1       0.597  -1.236  16.375  1.00  0.00     0.007 C 
ATOM     15  C   UNL     1       0.920  -2.537  18.505  1.00  0.00     0.007 C 
ENDBRANCH  11  13
TORSDOF 1
ENDMDL
MODEL 6
REMARK VINA RESULT:    -5.242      1.713      4.422
REMARK INTER + INTRA:          -5.969
REMARK INTER:                  -5.548
REMARK INTRA:                  -0.421
REMARK UNBOUND:                -0.421
REMARK SMILES CC1=CC[C@@H]2[C@H]3[C@H](C(C)C)CC[C@]2(C)[C@@H]13
REMARK SMILES IDX 1 1 2 2 3 3 4 4 5 5 6 6 15 7 13 8 12 9 11 10 7 11 14 12 8 13
REMARK SMILES IDX 9 14 10 15
REMARK H PARENT
REMARK Flexibility Score: inf
ROOT
ATOM      1  C   UNL     1       0.508  -2.719  22.143  1.00  0.00     0.039 C 
ATOM      2  C   UNL     1       0.883  -3.400  20.861  1.00  0.00    -0.073 C 
ATOM      3  C   UNL     1       0.109  -4.382  20.332  1.00  0.00    -0.027 C 
ATOM      4  C   UNL     1       0.535  -5.029  19.010  1.00  0.00     0.031 C 
ATOM      5  C   UNL     1       1.886  -4.417  18.514  1.00  0.00     0.003 C 
ATOM      6  C   UNL     1       2.850  -4.376  19.722  1.00  0.00     0.004 C 
ATOM      7  C   UNL     1       2.164  -3.038  20.104  1.00  0.00     0.024 C 
ATOM      8  C   UNL     1       1.870  -2.871  18.592  1.00  0.00    -0.022 C 
ATOM      9  C   UNL     1       3.124  -2.312  17.848  1.00  0.00     0.008 C 
ATOM     10  C   UNL     1       4.456  -2.798  18.480  1.00  0.00     0.005 C 
ATOM     11  C   UNL     1       4.310  -4.166  19.213  1.00  0.00    -0.005 C 
ATOM     12  C   UNL     1       0.590  -2.118  18.159  1.00  0.00     0.012 C 
ENDROOT
BRANCH  11  13
ATOM     13  C   UNL     1       5.398  -4.366  20.312  1.00  0.00    -0.014 C 
ATOM     14  C   UNL     1       4.915  -5.326  21.411  1.00  0.00     0.007 C 
ATOM     15  C   UNL     1       5.892  -3.054  20.946  1.00  0.00     0.007 C 
ENDBRANCH  11  13
TORSDOF 1
ENDMDL
MODEL 7
REMARK VINA RESULT:    -5.085      3.445      5.811
REMARK INTER + INTRA:          -5.803
REMARK INTER:                  -5.588
REMARK INTRA:                  -0.215
REMARK UNBOUND:                -0.421
REMARK SMILES CC1=CC[C@@H]2[C@H]3[C@H](C(C)C)CC[C@]2(C)[C@@H]13
REMARK SMILES IDX 1 1 2 2 3 3 4 4 5 5 6 6 15 7 13 8 12 9 11 10 7 11 14 12 8 13
REMARK SMILES IDX 9 14 10 15
REMARK H PARENT
REMARK Flexibility Score: inf
ROOT
ATOM      1  C   UNL     1       1.772  -3.545  17.184  1.00  0.00     0.039 C 
ATOM      2  C   UNL     1       1.202  -2.505  16.266  1.00  0.00    -0.073 C 
ATOM      3  C   UNL     1       0.489  -1.454  16.749  1.00  0.00    -0.027 C 
ATOM      4  C   UNL     1      -0.053  -0.413  15.764  1.00  0.00     0.031 C 
ATOM      5  C   UNL     1       0.315  -0.808  14.296  1.00  0.00     0.003 C 
ATOM      6  C   UNL     1      -0.014  -2.310  14.122  1.00  0.00     0.004 C 
ATOM      7  C   UNL     1       1.378  -2.590  14.748  1.00  0.00     0.024 C 
ATOM      8  C   UNL     1       1.804  -1.215  14.174  1.00  0.00    -0.022 C 
ATOM      9  C   UNL     1       2.172  -1.343  12.662  1.00  0.00     0.008 C 
ATOM     10  C   UNL     1       1.331  -2.425  11.934  1.00  0.00     0.005 C 
ATOM     11  C   UNL     1      -0.058  -2.657  12.601  1.00  0.00    -0.005 C 
ATOM     12  C   UNL     1       2.865  -0.386  14.934  1.00  0.00     0.012 C 
ENDROOT
BRANCH  11  13
ATOM     13  C   UNL     1      -0.632  -4.074  12.293  1.00  0.00    -0.014 C 
ATOM     14  C   UNL     1      -0.380  -4.475  10.830  1.00  0.00     0.007 C 
ATOM     15  C   UNL     1      -2.125  -4.227  12.626  1.00  0.00     0.007 C 
ENDBRANCH  11  13
TORSDOF 1
ENDMDL
MODEL 8
REMARK VINA RESULT:    -5.029      1.979      2.695
REMARK INTER + INTRA:          -5.744
REMARK INTER:                  -5.490
REMARK INTRA:                  -0.253
REMARK UNBOUND:                -0.421
REMARK SMILES CC1=CC[C@@H]2[C@H]3[C@H](C(C)C)CC[C@]2(C)[C@@H]13
REMARK SMILES IDX 1 1 2 2 3 3 4 4 5 5 6 6 15 7 13 8 12 9 11 10 7 11 14 12 8 13
REMARK SMILES IDX 9 14 10 15
REMARK H PARENT
REMARK Flexibility Score: inf
ROOT
ATOM      1  C   UNL     1       3.841  -3.557  21.726  1.00  0.00     0.039 C 
ATOM      2  C   UNL     1       2.613  -3.985  20.979  1.00  0.00    -0.073 C 
ATOM      3  C   UNL     1       2.003  -5.168  21.245  1.00  0.00    -0.027 C 
ATOM      4  C   UNL     1       0.741  -5.543  20.461  1.00  0.00     0.031 C 
ATOM      5  C   UNL     1       0.401  -4.433  19.414  1.00  0.00     0.003 C 
ATOM      6  C   UNL     1       1.711  -4.068  18.678  1.00  0.00     0.004 C 
ATOM      7  C   UNL     1       2.006  -3.121  19.871  1.00  0.00     0.024 C 
ATOM      8  C   UNL     1       0.470  -3.019  20.043  1.00  0.00    -0.022 C 
ATOM      9  C   UNL     1      -0.128  -1.986  19.037  1.00  0.00     0.008 C 
ATOM     10  C   UNL     1       0.654  -1.940  17.697  1.00  0.00     0.005 C 
ATOM     11  C   UNL     1       1.371  -3.285  17.372  1.00  0.00    -0.005 C 
ATOM     12  C   UNL     1      -0.110  -2.809  21.461  1.00  0.00     0.012 C 
ENDROOT
BRANCH  11  13
ATOM     13  C   UNL     1       2.588  -3.090  16.417  1.00  0.00    -0.014 C 
ATOM     14  C   UNL     1       3.430  -1.869  16.823  1.00  0.00     0.007 C 
ATOM     15  C   UNL     1       2.204  -2.987  14.931  1.00  0.00     0.007 C 
ENDBRANCH  11  13
TORSDOF 1
ENDMDL
MODEL 9
REMARK VINA RESULT:    -5.009      4.560      6.605
REMARK INTER + INTRA:          -5.722
REMARK INTER:                  -5.446
REMARK INTRA:                  -0.276
REMARK UNBOUND:                -0.421
REMARK SMILES CC1=CC[C@@H]2[C@H]3[C@H](C(C)C)CC[C@]2(C)[C@@H]13
REMARK SMILES IDX 1 1 2 2 3 3 4 4 5 5 6 6 15 7 13 8 12 9 11 10 7 11 14 12 8 13
REMARK SMILES IDX 9 14 10 15
REMARK H PARENT
REMARK Flexibility Score: inf
ROOT
ATOM      1  C   UNL     1       3.132  -1.119  11.865  1.00  0.00     0.039 C 
ATOM      2  C   UNL     1       2.290  -1.869  12.853  1.00  0.00    -0.073 C 
ATOM      3  C   UNL     1       2.771  -2.204  14.078  1.00  0.00    -0.027 C 
ATOM      4  C   UNL     1       1.857  -2.955  15.052  1.00  0.00     0.031 C 
ATOM      5  C   UNL     1       0.470  -3.239  14.388  1.00  0.00     0.003 C 
ATOM      6  C   UNL     1       0.737  -3.791  12.968  1.00  0.00     0.004 C 
ATOM      7  C   UNL     1       0.862  -2.311  12.520  1.00  0.00     0.024 C 
ATOM      8  C   UNL     1      -0.095  -1.977  13.691  1.00  0.00    -0.022 C 
ATOM      9  C   UNL     1      -1.577  -2.244  13.282  1.00  0.00     0.008 C 
ATOM     10  C   UNL     1      -1.716  -3.428  12.288  1.00  0.00     0.005 C 
ATOM     11  C   UNL     1      -0.560  -4.465  12.423  1.00  0.00    -0.005 C 
ATOM     12  C   UNL     1       0.044  -0.611  14.403  1.00  0.00     0.012 C 
ENDROOT
BRANCH  11  13
ATOM     13  C   UNL     1      -0.344  -5.282  11.112  1.00  0.00    -0.014 C 
ATOM     14  C   UNL     1      -0.744  -4.468   9.870  1.00  0.00     0.007 C 
ATOM     15  C   UNL     1      -1.064  -6.641  11.099  1.00  0.00     0.007 C 
ENDBRANCH  11  13
TORSDOF 1
ENDMDL
