MODEL 1
REMARK VINA RESULT:     3.005      0.000      0.000
REMARK INTER + INTRA:           2.948
REMARK INTER:                   3.268
REMARK INTRA:                  -0.320
REMARK UNBOUND:                -0.320
REMARK SMILES C[C@@H]1[C@H]2C3=CC[C@@H]4[C@]5(C)CC[C@@H](O)C(C)(C)[C@@H]5CC[C@]4(C)[C@]3(C)CC[C@@]2(C(=O)[O-])CC[C@@H]1C
REMARK SMILES IDX 26 1 30 2 25 3 3 4 31 5 24 6 4 7 2 8 32 9 22 10 5 11 1 12
REMARK SMILES IDX 33 13 23 14 20 15 6 16 7 17 19 18 21 19 8 20 18 21 17 22
REMARK SMILES IDX 10 23 9 24 14 25 11 26 12 27 15 28 16 29 27 30 28 31 29 32
REMARK SMILES IDX 13 33
REMARK H PARENT 13 34
REMARK Flexibility Score: inf
ROOT
ATOM      1  C   UNL     1     -20.501  38.576  -6.174  1.00  0.00     0.017 C 
ATOM      2  C   UNL     1     -21.271  39.113  -7.426  1.00  0.00     0.014 C 
ATOM      3  C   UNL     1     -21.621  38.041  -5.218  1.00  0.00     0.014 C 
ATOM      4  C   UNL     1     -19.535  39.711  -5.568  1.00  0.00     0.030 C 
ATOM      5  C   UNL     1     -20.373  39.727  -8.500  1.00  0.00     0.004 C 
ATOM      6  C   UNL     1     -21.299  38.163  -3.738  1.00  0.00     0.013 C 
ATOM      7  C   UNL     1     -19.667  39.962  -4.043  1.00  0.00    -0.063 C 
ATOM      8  C   UNL     1     -19.558  41.031  -6.429  1.00  0.00    -0.003 C 
ATOM      9  C   UNL     1     -19.326  40.726  -7.941  1.00  0.00    -0.011 C 
ATOM     10  C   UNL     1     -20.949  39.614  -3.297  1.00  0.00    -0.006 C 
ATOM     11  C   UNL     1     -18.613  40.473  -3.386  1.00  0.00    -0.027 C 
ATOM     12  C   UNL     1     -18.588  42.125  -5.948  1.00  0.00     0.008 C 
ATOM     13  C   UNL     1     -17.898  40.232  -8.261  1.00  0.00     0.008 C 
ATOM     14  C   UNL     1     -22.026  40.629  -3.809  1.00  0.00     0.017 C 
ATOM     15  C   UNL     1     -20.823  39.683  -1.676  1.00  0.00    -0.020 C 
ATOM     16  C   UNL     1     -18.600  40.887  -1.950  1.00  0.00     0.032 C 
ATOM     17  C   UNL     1     -19.989  40.943  -1.249  1.00  0.00     0.006 C 
ATOM     18  C   UNL     1     -20.085  38.439  -1.081  1.00  0.00     0.008 C 
ATOM     19  C   UNL     1     -22.277  39.730  -1.096  1.00  0.00     0.012 C 
ATOM     20  C   UNL     1     -19.893  41.186   0.344  1.00  0.00    -0.025 C 
ATOM     21  C   UNL     1     -19.386  38.630   0.295  1.00  0.00     0.005 C 
ATOM     22  C   UNL     1     -19.910  39.813   1.161  1.00  0.00     0.003 C 
ATOM     23  C   UNL     1     -18.605  42.017   0.689  1.00  0.00     0.010 C 
ATOM     24  C   UNL     1     -21.118  42.073   0.758  1.00  0.00     0.012 C 
ATOM     25  C   UNL     1     -19.335  39.854   2.656  1.00  0.00    -0.006 C 
ATOM     26  C   UNL     1     -18.271  42.125   2.172  1.00  0.00     0.033 C 
ATOM     27  C   UNL     1     -18.052  40.726   2.767  1.00  0.00     0.120 C 
ATOM     28  C   UNL     1     -18.985  38.432   3.182  1.00  0.00     0.014 C 
ATOM     29  C   UNL     1     -20.427  40.383   3.638  1.00  0.00     0.014 C 
ENDROOT
BRANCH   1  30
ATOM     30  C   UNL     1     -19.655  37.365  -6.582  1.00  0.00     0.048 C 
ATOM     31  O   UNL     1     -18.469  37.243  -6.164  1.00  0.00    -0.550 OA
ATOM     32  O   UNL     1     -20.208  36.323  -7.318  1.00  0.00    -0.550 OA
ENDBRANCH   1  30
BRANCH  27  33
ATOM     33  O   UNL     1     -17.625  40.796   4.115  1.00  0.00    -0.393 OA
ATOM     34  H   UNL     1     -18.352  41.157   4.677  1.00  0.00     0.210 HD
ENDBRANCH  27  33
TORSDOF 2
ENDMDL
