MODEL 1
REMARK VINA RESULT:    -2.892      0.000      0.000
REMARK INTER + INTRA:          -3.431
REMARK INTER:                  -3.399
REMARK INTRA:                  -0.032
REMARK UNBOUND:                -0.032
REMARK SMILES O=C([O-])CCC(=O)[O-]
REMARK SMILES IDX 4 1 2 2 1 3 3 4 5 5 6 6 7 7 8 8
REMARK H PARENT
REMARK Flexibility Score: inf
ROOT
ATOM      1  C   UNL     1      61.411  22.724  20.829  1.00  0.00     0.059 C 
ENDROOT
BRANCH   1   2
ATOM      2  C   UNL     1      62.121  22.081  19.677  1.00  0.00     0.042 C 
ATOM      3  O   UNL     1      61.860  22.429  18.496  1.00  0.00    -0.550 OA
ATOM      4  O   UNL     1      63.100  21.123  19.913  1.00  0.00    -0.550 OA
ENDBRANCH   1   2
BRANCH   1   5
ATOM      5  C   UNL     1      60.140  21.958  21.207  1.00  0.00     0.059 C 
BRANCH   5   6
ATOM      6  C   UNL     1      59.383  22.651  22.300  1.00  0.00     0.042 C 
ATOM      7  O   UNL     1      59.954  23.515  23.017  1.00  0.00    -0.550 OA
ATOM      8  O   UNL     1      58.038  22.369  22.500  1.00  0.00    -0.550 OA
ENDBRANCH   5   6
ENDBRANCH   1   5
TORSDOF 3
ENDMDL
MODEL 2
REMARK VINA RESULT:    -2.871      0.115      1.149
REMARK INTER + INTRA:          -3.407
REMARK INTER:                  -3.378
REMARK INTRA:                  -0.029
REMARK UNBOUND:                -0.032
REMARK SMILES O=C([O-])CCC(=O)[O-]
REMARK SMILES IDX 4 1 2 2 1 3 3 4 5 5 6 6 7 7 8 8
REMARK H PARENT
REMARK Flexibility Score: inf
ROOT
ATOM      1  C   UNL     1      61.347  22.682  20.895  1.00  0.00     0.059 C 
ENDROOT
BRANCH   1   2
ATOM      2  C   UNL     1      62.059  22.026  19.751  1.00  0.00     0.042 C 
ATOM      3  O   UNL     1      61.818  22.380  18.567  1.00  0.00    -0.550 OA
ATOM      4  O   UNL     1      63.017  21.050  19.997  1.00  0.00    -0.550 OA
ENDBRANCH   1   2
BRANCH   1   5
ATOM      5  C   UNL     1      60.086  21.909  21.292  1.00  0.00     0.059 C 
BRANCH   5   6
ATOM      6  C   UNL     1      59.286  22.651  22.319  1.00  0.00     0.042 C 
ATOM      7  O   UNL     1      58.053  22.430  22.443  1.00  0.00    -0.550 OA
ATOM      8  O   UNL     1      59.912  23.557  23.166  1.00  0.00    -0.550 OA
ENDBRANCH   5   6
ENDBRANCH   1   5
TORSDOF 3
ENDMDL
MODEL 3
REMARK VINA RESULT:    -2.859      0.107      4.362
REMARK INTER + INTRA:          -3.392
REMARK INTER:                  -3.360
REMARK INTRA:                  -0.032
REMARK UNBOUND:                -0.032
REMARK SMILES O=C([O-])CCC(=O)[O-]
REMARK SMILES IDX 4 1 2 2 1 3 3 4 5 5 6 6 7 7 8 8
REMARK H PARENT
REMARK Flexibility Score: inf
ROOT
ATOM      1  C   UNL     1      60.021  22.038  21.209  1.00  0.00     0.059 C 
ENDROOT
BRANCH   1   2
ATOM      2  C   UNL     1      59.323  22.696  22.360  1.00  0.00     0.042 C 
ATOM      3  O   UNL     1      59.923  23.551  23.061  1.00  0.00    -0.550 OA
ATOM      4  O   UNL     1      57.994  22.391  22.633  1.00  0.00    -0.550 OA
ENDBRANCH   1   2
BRANCH   1   5
ATOM      5  C   UNL     1      61.340  22.740  20.874  1.00  0.00     0.059 C 
BRANCH   5   6
ATOM      6  C   UNL     1      62.034  22.086  19.718  1.00  0.00     0.042 C 
ATOM      7  O   UNL     1      61.776  22.444  18.539  1.00  0.00    -0.550 OA
ATOM      8  O   UNL     1      62.995  21.109  19.947  1.00  0.00    -0.550 OA
ENDBRANCH   5   6
ENDBRANCH   1   5
TORSDOF 3
ENDMDL
MODEL 4
REMARK VINA RESULT:    -2.827      0.140      4.247
REMARK INTER + INTRA:          -3.355
REMARK INTER:                  -3.325
REMARK INTRA:                  -0.031
REMARK UNBOUND:                -0.032
REMARK SMILES O=C([O-])CCC(=O)[O-]
REMARK SMILES IDX 4 1 2 2 1 3 3 4 5 5 6 6 7 7 8 8
REMARK H PARENT
REMARK Flexibility Score: inf
ROOT
ATOM      1  C   UNL     1      60.092  22.045  21.150  1.00  0.00     0.059 C 
ENDROOT
BRANCH   1   2
ATOM      2  C   UNL     1      59.320  22.693  22.258  1.00  0.00     0.042 C 
ATOM      3  O   UNL     1      58.110  22.399  22.445  1.00  0.00    -0.550 OA
ATOM      4  O   UNL     1      59.950  23.593  23.109  1.00  0.00    -0.550 OA
ENDBRANCH   1   2
BRANCH   1   5
ATOM      5  C   UNL     1      61.481  22.670  20.989  1.00  0.00     0.059 C 
BRANCH   5   6
ATOM      6  C   UNL     1      62.201  22.114  19.799  1.00  0.00     0.042 C 
ATOM      7  O   UNL     1      63.171  21.326  19.956  1.00  0.00    -0.550 OA
ATOM      8  O   UNL     1      61.776  22.436  18.516  1.00  0.00    -0.550 OA
ENDBRANCH   5   6
ENDBRANCH   1   5
TORSDOF 3
ENDMDL
MODEL 5
REMARK VINA RESULT:    -2.826      3.031      5.145
REMARK INTER + INTRA:          -3.353
REMARK INTER:                  -3.237
REMARK INTRA:                  -0.116
REMARK UNBOUND:                -0.032
REMARK SMILES O=C([O-])CCC(=O)[O-]
REMARK SMILES IDX 4 1 2 2 1 3 3 4 5 5 6 6 7 7 8 8
REMARK H PARENT
REMARK Flexibility Score: inf
ROOT
ATOM      1  C   UNL     1      57.539  21.438  23.401  1.00  0.00     0.059 C 
ENDROOT
BRANCH   1   2
ATOM      2  C   UNL     1      56.161  21.889  23.023  1.00  0.00     0.042 C 
ATOM      3  O   UNL     1      56.005  22.834  22.206  1.00  0.00    -0.550 OA
ATOM      4  O   UNL     1      55.050  21.237  23.544  1.00  0.00    -0.550 OA
ENDBRANCH   1   2
BRANCH   1   5
ATOM      5  C   UNL     1      58.351  22.574  24.030  1.00  0.00     0.059 C 
BRANCH   5   6
ATOM      6  C   UNL     1      59.420  23.067  23.103  1.00  0.00     0.042 C 
ATOM      7  O   UNL     1      60.242  23.939  23.489  1.00  0.00    -0.550 OA
ATOM      8  O   UNL     1      59.532  22.533  21.825  1.00  0.00    -0.550 OA
ENDBRANCH   5   6
ENDBRANCH   1   5
TORSDOF 3
ENDMDL
MODEL 6
REMARK VINA RESULT:    -2.804      3.252      4.427
REMARK INTER + INTRA:          -3.327
REMARK INTER:                  -3.211
REMARK INTRA:                  -0.117
REMARK UNBOUND:                -0.032
REMARK SMILES O=C([O-])CCC(=O)[O-]
REMARK SMILES IDX 4 1 2 2 1 3 3 4 5 5 6 6 7 7 8 8
REMARK H PARENT
REMARK Flexibility Score: inf
ROOT
ATOM      1  C   UNL     1      58.046  22.641  24.169  1.00  0.00     0.059 C 
ENDROOT
BRANCH   1   2
ATOM      2  C   UNL     1      59.169  23.129  23.306  1.00  0.00     0.042 C 
ATOM      3  O   UNL     1      59.974  23.994  23.740  1.00  0.00    -0.550 OA
ATOM      4  O   UNL     1      59.349  22.597  22.034  1.00  0.00    -0.550 OA
ENDBRANCH   1   2
BRANCH   1   5
ATOM      5  C   UNL     1      57.229  21.551  23.468  1.00  0.00     0.059 C 
BRANCH   5   6
ATOM      6  C   UNL     1      55.911  22.075  22.984  1.00  0.00     0.042 C 
ATOM      7  O   UNL     1      55.870  22.948  22.078  1.00  0.00    -0.550 OA
ATOM      8  O   UNL     1      54.728  21.570  23.509  1.00  0.00    -0.550 OA
ENDBRANCH   5   6
ENDBRANCH   1   5
TORSDOF 3
ENDMDL
MODEL 7
REMARK VINA RESULT:    -2.678      2.413      4.909
REMARK INTER + INTRA:          -3.180
REMARK INTER:                  -3.038
REMARK INTRA:                  -0.141
REMARK UNBOUND:                -0.032
REMARK SMILES O=C([O-])CCC(=O)[O-]
REMARK SMILES IDX 4 1 2 2 1 3 3 4 5 5 6 6 7 7 8 8
REMARK H PARENT
REMARK Flexibility Score: inf
ROOT
ATOM      1  C   UNL     1      57.450  20.875  22.771  1.00  0.00     0.059 C 
ENDROOT
BRANCH   1   2
ATOM      2  C   UNL     1      56.765  22.168  23.094  1.00  0.00     0.042 C 
ATOM      3  O   UNL     1      55.898  22.640  22.313  1.00  0.00    -0.550 OA
ATOM      4  O   UNL     1      57.058  22.831  24.280  1.00  0.00    -0.550 OA
ENDBRANCH   1   2
BRANCH   1   5
ATOM      5  C   UNL     1      58.932  20.911  23.154  1.00  0.00     0.059 C 
BRANCH   5   6
ATOM      6  C   UNL     1      59.733  21.724  22.183  1.00  0.00     0.042 C 
ATOM      7  O   UNL     1      60.075  21.234  21.075  1.00  0.00    -0.550 OA
ATOM      8  O   UNL     1      60.067  23.038  22.487  1.00  0.00    -0.550 OA
ENDBRANCH   5   6
ENDBRANCH   1   5
TORSDOF 3
ENDMDL
MODEL 8
REMARK VINA RESULT:    -2.621      2.020      2.583
REMARK INTER + INTRA:          -3.113
REMARK INTER:                  -3.079
REMARK INTRA:                  -0.034
REMARK UNBOUND:                -0.032
REMARK SMILES O=C([O-])CCC(=O)[O-]
REMARK SMILES IDX 4 1 2 2 1 3 3 4 5 5 6 6 7 7 8 8
REMARK H PARENT
REMARK Flexibility Score: inf
ROOT
ATOM      1  C   UNL     1      59.593  22.777  22.588  1.00  0.00     0.059 C 
ENDROOT
BRANCH   1   2
ATOM      2  C   UNL     1      60.570  22.561  21.472  1.00  0.00     0.042 C 
ATOM      3  O   UNL     1      61.583  23.300  21.363  1.00  0.00    -0.550 OA
ATOM      4  O   UNL     1      60.381  21.515  20.576  1.00  0.00    -0.550 OA
ENDBRANCH   1   2
BRANCH   1   5
ATOM      5  C   UNL     1      58.403  21.819  22.488  1.00  0.00     0.059 C 
BRANCH   5   6
ATOM      6  C   UNL     1      57.172  22.403  23.113  1.00  0.00     0.042 C 
ATOM      7  O   UNL     1      57.209  22.852  24.288  1.00  0.00    -0.550 OA
ATOM      8  O   UNL     1      55.994  22.486  22.381  1.00  0.00    -0.550 OA
ENDBRANCH   5   6
ENDBRANCH   1   5
TORSDOF 3
ENDMDL
MODEL 9
REMARK VINA RESULT:    -2.352      4.144      5.014
REMARK INTER + INTRA:          -2.797
REMARK INTER:                  -2.675
REMARK INTRA:                  -0.122
REMARK UNBOUND:                -0.032
REMARK SMILES O=C([O-])CCC(=O)[O-]
REMARK SMILES IDX 4 1 2 2 1 3 3 4 5 5 6 6 7 7 8 8
REMARK H PARENT
REMARK Flexibility Score: inf
ROOT
ATOM      1  C   UNL     1      57.731  23.116  24.661  1.00  0.00     0.059 C 
ENDROOT
BRANCH   1   2
ATOM      2  C   UNL     1      57.332  22.393  23.411  1.00  0.00     0.042 C 
ATOM      3  O   UNL     1      56.241  21.768  23.360  1.00  0.00    -0.550 OA
ATOM      4  O   UNL     1      58.151  22.443  22.288  1.00  0.00    -0.550 OA
ENDBRANCH   1   2
BRANCH   1   5
ATOM      5  C   UNL     1      59.162  22.768  25.082  1.00  0.00     0.059 C 
BRANCH   5   6
ATOM      6  C   UNL     1      60.064  23.962  25.009  1.00  0.00     0.042 C 
ATOM      7  O   UNL     1      60.654  24.375  26.042  1.00  0.00    -0.550 OA
ATOM      8  O   UNL     1      60.283  24.595  23.792  1.00  0.00    -0.550 OA
ENDBRANCH   5   6
ENDBRANCH   1   5
TORSDOF 3
ENDMDL
