MODEL 1
REMARK VINA RESULT:    -5.936      0.000      0.000
REMARK INTER + INTRA:          -6.653
REMARK INTER:                  -6.457
REMARK INTRA:                  -0.196
REMARK UNBOUND:                -0.196
REMARK SMILES Cc1ccc(C(C)C)c(O)c1
REMARK SMILES IDX 1 1 2 2 11 3 9 4 5 5 4 6 3 7 10 8 6 10 7 11 8 12
REMARK H PARENT 10 9
REMARK Flexibility Score: inf
ROOT
ATOM      1  C   UNL     1      11.228  18.979  -5.124  1.00  0.00     0.044 C 
ATOM      2  C   UNL     1      11.763  19.927  -4.093  1.00  0.00    -0.047 A 
ATOM      3  C   UNL     1      12.354  21.135  -4.483  1.00  0.00     0.049 A 
ATOM      4  C   UNL     1      12.823  22.046  -3.523  1.00  0.00     0.119 A 
ATOM      5  C   UNL     1      12.691  21.752  -2.148  1.00  0.00    -0.004 A 
ATOM      6  C   UNL     1      12.077  20.543  -1.767  1.00  0.00     0.008 A 
ATOM      7  C   UNL     1      11.613  19.644  -2.729  1.00  0.00     0.004 A 
ENDROOT
BRANCH   4   8
ATOM      8  O   UNL     1      13.416  23.238  -3.940  1.00  0.00    -0.508 OA
ATOM      9  H   UNL     1      14.132  23.254  -4.656  1.00  0.00     0.293 HD
ENDBRANCH   4   8
BRANCH   5  10
ATOM     10  C   UNL     1      13.193  22.722  -1.087  1.00  0.00     0.017 C 
ATOM     11  C   UNL     1      12.034  23.256  -0.236  1.00  0.00     0.012 C 
ATOM     12  C   UNL     1      14.269  22.074  -0.208  1.00  0.00     0.012 C 
ENDBRANCH   5  10
TORSDOF 2
ENDMDL
MODEL 2
REMARK VINA RESULT:    -5.930      1.947      2.822
REMARK INTER + INTRA:          -6.646
REMARK INTER:                  -6.450
REMARK INTRA:                  -0.196
REMARK UNBOUND:                -0.196
REMARK SMILES Cc1ccc(C(C)C)c(O)c1
REMARK SMILES IDX 1 1 2 2 11 3 9 4 5 5 4 6 3 7 10 8 6 10 7 11 8 12
REMARK H PARENT 10 9
REMARK Flexibility Score: inf
ROOT
ATOM      1  C   UNL     1      11.682  18.875  -3.081  1.00  0.00     0.044 C 
ATOM      2  C   UNL     1      12.059  20.315  -2.900  1.00  0.00    -0.047 A 
ATOM      3  C   UNL     1      11.794  20.968  -1.690  1.00  0.00     0.049 A 
ATOM      4  C   UNL     1      12.177  22.305  -1.499  1.00  0.00     0.119 A 
ATOM      5  C   UNL     1      12.847  23.002  -2.529  1.00  0.00    -0.004 A 
ATOM      6  C   UNL     1      13.127  22.329  -3.734  1.00  0.00     0.008 A 
ATOM      7  C   UNL     1      12.742  20.998  -3.915  1.00  0.00     0.004 A 
ENDROOT
BRANCH   4   8
ATOM      8  O   UNL     1      11.892  22.934  -0.287  1.00  0.00    -0.508 OA
ATOM      9  H   UNL     1      12.621  23.170   0.376  1.00  0.00     0.293 HD
ENDBRANCH   4   8
BRANCH   5  10
ATOM     10  C   UNL     1      13.273  24.452  -2.347  1.00  0.00     0.017 C 
ATOM     11  C   UNL     1      14.685  24.543  -1.755  1.00  0.00     0.012 C 
ATOM     12  C   UNL     1      13.177  25.227  -3.666  1.00  0.00     0.012 C 
ENDBRANCH   5  10
TORSDOF 2
ENDMDL
MODEL 3
REMARK VINA RESULT:    -5.380      1.318      1.617
REMARK INTER + INTRA:          -6.048
REMARK INTER:                  -5.947
REMARK INTRA:                  -0.101
REMARK UNBOUND:                -0.196
REMARK SMILES Cc1ccc(C(C)C)c(O)c1
REMARK SMILES IDX 1 1 2 2 11 3 9 4 5 5 4 6 3 7 10 8 6 10 7 11 8 12
REMARK H PARENT 10 9
REMARK Flexibility Score: inf
ROOT
ATOM      1  C   UNL     1      10.983  18.996  -2.885  1.00  0.00     0.044 C 
ATOM      2  C   UNL     1      11.921  20.138  -2.630  1.00  0.00    -0.047 A 
ATOM      3  C   UNL     1      12.202  21.060  -3.646  1.00  0.00     0.049 A 
ATOM      4  C   UNL     1      13.049  22.153  -3.405  1.00  0.00     0.119 A 
ATOM      5  C   UNL     1      13.618  22.338  -2.126  1.00  0.00    -0.004 A 
ATOM      6  C   UNL     1      13.311  21.415  -1.106  1.00  0.00     0.008 A 
ATOM      7  C   UNL     1      12.467  20.331  -1.355  1.00  0.00     0.004 A 
ENDROOT
BRANCH   4   8
ATOM      8  O   UNL     1      13.320  23.052  -4.438  1.00  0.00    -0.508 OA
ATOM      9  H   UNL     1      14.266  23.238  -4.747  1.00  0.00     0.293 HD
ENDBRANCH   4   8
BRANCH   5  10
ATOM     10  C   UNL     1      14.541  23.515  -1.839  1.00  0.00     0.017 C 
ATOM     11  C   UNL     1      13.744  24.819  -1.704  1.00  0.00     0.012 C 
ATOM     12  C   UNL     1      15.395  23.258  -0.593  1.00  0.00     0.012 C 
ENDBRANCH   5  10
TORSDOF 2
ENDMDL
MODEL 4
REMARK VINA RESULT:    -5.298      1.056      4.109
REMARK INTER + INTRA:          -5.958
REMARK INTER:                  -5.760
REMARK INTRA:                  -0.199
REMARK UNBOUND:                -0.196
REMARK SMILES Cc1ccc(C(C)C)c(O)c1
REMARK SMILES IDX 1 1 2 2 11 3 9 4 5 5 4 6 3 7 10 8 6 10 7 11 8 12
REMARK H PARENT 10 9
REMARK Flexibility Score: inf
ROOT
ATOM      1  C   UNL     1      12.589  23.340  -0.268  1.00  0.00     0.044 C 
ATOM      2  C   UNL     1      12.503  22.472  -1.488  1.00  0.00    -0.047 A 
ATOM      3  C   UNL     1      12.904  22.966  -2.736  1.00  0.00     0.049 A 
ATOM      4  C   UNL     1      12.863  22.148  -3.876  1.00  0.00     0.119 A 
ATOM      5  C   UNL     1      12.424  20.810  -3.771  1.00  0.00    -0.004 A 
ATOM      6  C   UNL     1      12.042  20.318  -2.507  1.00  0.00     0.008 A 
ATOM      7  C   UNL     1      12.087  21.139  -1.378  1.00  0.00     0.004 A 
ENDROOT
BRANCH   4   8
ATOM      8  O   UNL     1      13.259  22.669  -5.108  1.00  0.00    -0.508 OA
ATOM      9  H   UNL     1      13.398  23.663  -5.247  1.00  0.00     0.293 HD
ENDBRANCH   4   8
BRANCH   5  10
ATOM     10  C   UNL     1      12.369  19.903  -4.993  1.00  0.00     0.017 C 
ATOM     11  C   UNL     1      13.508  18.877  -4.969  1.00  0.00     0.012 C 
ATOM     12  C   UNL     1      11.006  19.212  -5.108  1.00  0.00     0.012 C 
ENDBRANCH   5  10
TORSDOF 2
ENDMDL
MODEL 5
REMARK VINA RESULT:    -5.171      1.508      4.043
REMARK INTER + INTRA:          -5.820
REMARK INTER:                  -6.253
REMARK INTRA:                   0.433
REMARK UNBOUND:                -0.196
REMARK SMILES Cc1ccc(C(C)C)c(O)c1
REMARK SMILES IDX 1 1 2 2 11 3 9 4 5 5 4 6 3 7 10 8 6 10 7 11 8 12
REMARK H PARENT 10 9
REMARK Flexibility Score: inf
ROOT
ATOM      1  C   UNL     1      14.438  24.989  -1.360  1.00  0.00     0.044 C 
ATOM      2  C   UNL     1      13.664  23.740  -1.662  1.00  0.00    -0.047 A 
ATOM      3  C   UNL     1      14.174  22.793  -2.559  1.00  0.00     0.049 A 
ATOM      4  C   UNL     1      13.475  21.604  -2.819  1.00  0.00     0.119 A 
ATOM      5  C   UNL     1      12.249  21.349  -2.166  1.00  0.00    -0.004 A 
ATOM      6  C   UNL     1      11.755  22.300  -1.251  1.00  0.00     0.008 A 
ATOM      7  C   UNL     1      12.459  23.479  -0.998  1.00  0.00     0.004 A 
ENDROOT
BRANCH   4   8
ATOM      8  O   UNL     1      14.002  20.682  -3.724  1.00  0.00    -0.508 OA
ATOM      9  H   UNL     1      13.551  20.488  -4.610  1.00  0.00     0.293 HD
ENDBRANCH   4   8
BRANCH   5  10
ATOM     10  C   UNL     1      11.470  20.067  -2.431  1.00  0.00     0.017 C 
ATOM     11  C   UNL     1      11.365  19.788  -3.936  1.00  0.00     0.012 C 
ATOM     12  C   UNL     1      12.093  18.878  -1.692  1.00  0.00     0.012 C 
ENDBRANCH   5  10
TORSDOF 2
ENDMDL
MODEL 6
REMARK VINA RESULT:    -5.123      2.407      3.727
REMARK INTER + INTRA:          -5.768
REMARK INTER:                  -5.571
REMARK INTRA:                  -0.197
REMARK UNBOUND:                -0.196
REMARK SMILES Cc1ccc(C(C)C)c(O)c1
REMARK SMILES IDX 1 1 2 2 11 3 9 4 5 5 4 6 3 7 10 8 6 10 7 11 8 12
REMARK H PARENT 10 9
REMARK Flexibility Score: inf
ROOT
ATOM      1  C   UNL     1      12.868  25.546  -5.045  1.00  0.00     0.044 C 
ATOM      2  C   UNL     1      13.175  24.600  -3.922  1.00  0.00    -0.047 A 
ATOM      3  C   UNL     1      13.064  23.217  -4.113  1.00  0.00     0.049 A 
ATOM      4  C   UNL     1      13.385  22.324  -3.079  1.00  0.00     0.119 A 
ATOM      5  C   UNL     1      13.836  22.816  -1.835  1.00  0.00    -0.004 A 
ATOM      6  C   UNL     1      13.962  24.208  -1.660  1.00  0.00     0.008 A 
ATOM      7  C   UNL     1      13.641  25.090  -2.695  1.00  0.00     0.004 A 
ENDROOT
BRANCH   4   8
ATOM      8  O   UNL     1      13.257  20.951  -3.294  1.00  0.00    -0.508 OA
ATOM      9  H   UNL     1      13.857  20.455  -3.942  1.00  0.00     0.293 HD
ENDBRANCH   4   8
BRANCH   5  10
ATOM     10  C   UNL     1      14.189  21.868  -0.697  1.00  0.00     0.017 C 
ATOM     11  C   UNL     1      15.697  21.881  -0.418  1.00  0.00     0.012 C 
ATOM     12  C   UNL     1      13.391  22.200   0.569  1.00  0.00     0.012 C 
ENDBRANCH   5  10
TORSDOF 2
ENDMDL
MODEL 7
REMARK VINA RESULT:    -4.984      1.605      4.447
REMARK INTER + INTRA:          -5.617
REMARK INTER:                  -5.417
REMARK INTRA:                  -0.200
REMARK UNBOUND:                -0.196
REMARK SMILES Cc1ccc(C(C)C)c(O)c1
REMARK SMILES IDX 1 1 2 2 11 3 9 4 5 5 4 6 3 7 10 8 6 10 7 11 8 12
REMARK H PARENT 10 9
REMARK Flexibility Score: inf
ROOT
ATOM      1  C   UNL     1      15.871  23.292   0.131  1.00  0.00     0.044 C 
ATOM      2  C   UNL     1      14.825  22.612  -0.701  1.00  0.00    -0.047 A 
ATOM      3  C   UNL     1      13.468  22.889  -0.493  1.00  0.00     0.049 A 
ATOM      4  C   UNL     1      12.484  22.285  -1.292  1.00  0.00     0.119 A 
ATOM      5  C   UNL     1      12.859  21.398  -2.325  1.00  0.00    -0.004 A 
ATOM      6  C   UNL     1      14.228  21.143  -2.538  1.00  0.00     0.008 A 
ATOM      7  C   UNL     1      15.200  21.749  -1.738  1.00  0.00     0.004 A 
ENDROOT
BRANCH   4   8
ATOM      8  O   UNL     1      11.139  22.572  -1.057  1.00  0.00    -0.508 OA
ATOM      9  H   UNL     1      10.503  21.875  -0.688  1.00  0.00     0.293 HD
ENDBRANCH   4   8
BRANCH   5  10
ATOM     10  C   UNL     1      11.812  20.730  -3.205  1.00  0.00     0.017 C 
ATOM     11  C   UNL     1      12.276  20.670  -4.666  1.00  0.00     0.012 C 
ATOM     12  C   UNL     1      11.457  19.334  -2.681  1.00  0.00     0.012 C 
ENDBRANCH   5  10
TORSDOF 2
ENDMDL
MODEL 8
REMARK VINA RESULT:    -4.551      1.767      4.564
REMARK INTER + INTRA:          -5.146
REMARK INTER:                  -5.484
REMARK INTRA:                   0.338
REMARK UNBOUND:                -0.196
REMARK SMILES Cc1ccc(C(C)C)c(O)c1
REMARK SMILES IDX 1 1 2 2 11 3 9 4 5 5 4 6 3 7 10 8 6 10 7 11 8 12
REMARK H PARENT 10 9
REMARK Flexibility Score: inf
ROOT
ATOM      1  C   UNL     1      12.578  23.323  -0.017  1.00  0.00     0.044 C 
ATOM      2  C   UNL     1      12.590  22.466  -1.247  1.00  0.00    -0.047 A 
ATOM      3  C   UNL     1      12.213  21.119  -1.172  1.00  0.00     0.049 A 
ATOM      4  C   UNL     1      12.184  20.319  -2.325  1.00  0.00     0.119 A 
ATOM      5  C   UNL     1      12.528  20.873  -3.578  1.00  0.00    -0.004 A 
ATOM      6  C   UNL     1      12.886  22.234  -3.644  1.00  0.00     0.008 A 
ATOM      7  C   UNL     1      12.911  23.022  -2.491  1.00  0.00     0.004 A 
ENDROOT
BRANCH   4   8
ATOM      8  O   UNL     1      11.814  18.978  -2.221  1.00  0.00    -0.508 OA
ATOM      9  H   UNL     1      12.247  18.260  -2.788  1.00  0.00     0.293 HD
ENDBRANCH   4   8
BRANCH   5  10
ATOM     10  C   UNL     1      12.506  20.026  -4.843  1.00  0.00     0.017 C 
ATOM     11  C   UNL     1      13.526  18.884  -4.760  1.00  0.00     0.012 C 
ATOM     12  C   UNL     1      11.098  19.488  -5.125  1.00  0.00     0.012 C 
ENDBRANCH   5  10
TORSDOF 2
ENDMDL
MODEL 9
REMARK VINA RESULT:    -4.456      1.433      4.271
REMARK INTER + INTRA:          -5.043
REMARK INTER:                  -4.843
REMARK INTRA:                  -0.200
REMARK UNBOUND:                -0.196
REMARK SMILES Cc1ccc(C(C)C)c(O)c1
REMARK SMILES IDX 1 1 2 2 11 3 9 4 5 5 4 6 3 7 10 8 6 10 7 11 8 12
REMARK H PARENT 10 9
REMARK Flexibility Score: inf
ROOT
ATOM      1  C   UNL     1      13.209  22.976   1.368  1.00  0.00     0.044 C 
ATOM      2  C   UNL     1      13.135  22.486  -0.048  1.00  0.00    -0.047 A 
ATOM      3  C   UNL     1      14.280  21.991  -0.684  1.00  0.00     0.049 A 
ATOM      4  C   UNL     1      14.212  21.496  -1.996  1.00  0.00     0.119 A 
ATOM      5  C   UNL     1      12.979  21.483  -2.683  1.00  0.00    -0.004 A 
ATOM      6  C   UNL     1      11.830  21.965  -2.026  1.00  0.00     0.008 A 
ATOM      7  C   UNL     1      11.907  22.456  -0.720  1.00  0.00     0.004 A 
ENDROOT
BRANCH   4   8
ATOM      8  O   UNL     1      15.371  21.017  -2.609  1.00  0.00    -0.508 OA
ATOM      9  H   UNL     1      15.741  20.097  -2.403  1.00  0.00     0.293 HD
ENDBRANCH   4   8
BRANCH   5  10
ATOM     10  C   UNL     1      12.879  20.952  -4.107  1.00  0.00     0.017 C 
ATOM     11  C   UNL     1      11.649  20.051  -4.274  1.00  0.00     0.012 C 
ATOM     12  C   UNL     1      12.866  22.098  -5.125  1.00  0.00     0.012 C 
ENDBRANCH   5  10
TORSDOF 2
ENDMDL
