MODEL 1
REMARK VINA RESULT:    -7.102      0.000      0.000
REMARK INTER + INTRA:          -9.603
REMARK INTER:                  -8.971
REMARK INTRA:                  -0.632
REMARK UNBOUND:                -0.632
REMARK SMILES CC(C)[C@@H](C)C=C[C@@H](C)[C@@H]1CC[C@H]2C3=CC=C4C[C@H](O)CC[C@@]4(C)[C@@H]3CC[C@@]21C
REMARK SMILES IDX 8 1 9 2 7 3 6 4 4 5 5 6 2 7 1 8 3 9 10 10 11 11 28 12 12 13
REMARK SMILES IDX 13 14 27 15 29 16 14 17 26 18 25 19 15 20 23 21 16 22 17 23
REMARK SMILES IDX 22 24 24 25 18 26 21 27 19 28 20 29
REMARK H PARENT 20 30
REMARK Flexibility Score: inf
ROOT
ATOM      1  C   UNL     1     141.118 138.217 146.334  1.00  0.00     0.012 C 
ATOM      2  C   UNL     1     140.004 137.304 146.881  1.00  0.00     0.012 C 
ENDROOT
BRANCH   1   3
ATOM      3  C   UNL     1     140.471 139.573 146.023  1.00  0.00    -0.028 C 
ATOM      4  C   UNL     1     139.944 140.426 146.928  1.00  0.00    -0.028 C 
BRANCH   4   5
ATOM      5  C   UNL     1     139.583 141.866 146.626  1.00  0.00     0.011 C 
ATOM      6  C   UNL     1     140.653 142.588 145.787  1.00  0.00     0.012 C 
BRANCH   5   7
ATOM      7  C   UNL     1     139.126 142.665 147.887  1.00  0.00    -0.011 C 
ATOM      8  C   UNL     1     137.606 142.877 147.969  1.00  0.00     0.008 C 
ATOM      9  C   UNL     1     139.844 144.023 147.982  1.00  0.00     0.008 C 
ENDBRANCH   5   7
ENDBRANCH   4   5
ENDBRANCH   1   3
BRANCH   1  10
ATOM     10  C   UNL     1     141.918 137.554 145.142  1.00  0.00     0.002 C 
ATOM     11  C   UNL     1     142.248 136.032 145.301  1.00  0.00     0.005 C 
ATOM     12  C   UNL     1     143.335 138.160 144.854  1.00  0.00    -0.023 C 
ATOM     13  C   UNL     1     143.713 135.895 145.732  1.00  0.00     0.009 C 
ATOM     14  C   UNL     1     144.180 137.326 145.837  1.00  0.00     0.021 C 
ATOM     15  C   UNL     1     143.633 139.653 145.175  1.00  0.00     0.008 C 
ATOM     16  C   UNL     1     143.632 137.916 143.329  1.00  0.00     0.012 C 
ATOM     17  C   UNL     1     145.658 137.643 145.875  1.00  0.00    -0.063 C 
ATOM     18  C   UNL     1     145.176 139.996 145.180  1.00  0.00     0.009 C 
ATOM     19  C   UNL     1     146.160 138.782 145.008  1.00  0.00     0.025 C 
ATOM     20  C   UNL     1     146.325 137.310 146.988  1.00  0.00    -0.000 C 
ATOM     21  C   UNL     1     147.704 139.092 145.194  1.00  0.00    -0.005 C 
ATOM     22  C   UNL     1     147.533 138.010 147.411  1.00  0.00    -0.000 C 
ATOM     23  C   UNL     1     148.152 138.909 146.636  1.00  0.00    -0.061 C 
ATOM     24  C   UNL     1     148.568 138.070 144.377  1.00  0.00     0.014 C 
ATOM     25  C   UNL     1     148.016 140.528 144.671  1.00  0.00     0.017 C 
ATOM     26  C   UNL     1     149.604 139.181 146.946  1.00  0.00     0.063 C 
ATOM     27  C   UNL     1     150.094 138.168 144.652  1.00  0.00     0.033 C 
ATOM     28  C   UNL     1     150.446 138.161 146.160  1.00  0.00     0.118 C 
BRANCH  28  29
ATOM     29  O   UNL     1     151.807 138.461 146.334  1.00  0.00    -0.393 OA
ATOM     30  H   UNL     1     151.844 139.249 146.936  1.00  0.00     0.210 HD
ENDBRANCH  28  29
ENDBRANCH   1  10
TORSDOF 5
ENDMDL
MODEL 2
REMARK VINA RESULT:    -7.015      1.138      1.392
REMARK INTER + INTRA:          -9.493
REMARK INTER:                  -8.686
REMARK INTRA:                  -0.807
REMARK UNBOUND:                -0.632
REMARK SMILES CC(C)[C@@H](C)C=C[C@@H](C)[C@@H]1CC[C@H]2C3=CC=C4C[C@H](O)CC[C@@]4(C)[C@@H]3CC[C@@]21C
REMARK SMILES IDX 8 1 9 2 7 3 6 4 4 5 5 6 2 7 1 8 3 9 10 10 11 11 28 12 12 13
REMARK SMILES IDX 13 14 27 15 29 16 14 17 26 18 25 19 15 20 23 21 16 22 17 23
REMARK SMILES IDX 22 24 24 25 18 26 21 27 19 28 20 29
REMARK H PARENT 20 30
REMARK Flexibility Score: inf
ROOT
ATOM      1  C   UNL     1     139.825 137.899 145.529  1.00  0.00     0.012 C 
ATOM      2  C   UNL     1     138.735 136.838 145.778  1.00  0.00     0.012 C 
ENDROOT
BRANCH   1   3
ATOM      3  C   UNL     1     139.132 139.267 145.565  1.00  0.00    -0.028 C 
ATOM      4  C   UNL     1     139.144 140.134 146.600  1.00  0.00    -0.028 C 
BRANCH   4   5
ATOM      5  C   UNL     1     138.705 141.581 146.499  1.00  0.00     0.011 C 
ATOM      6  C   UNL     1     139.454 142.358 145.400  1.00  0.00     0.012 C 
BRANCH   5   7
ATOM      7  C   UNL     1     138.671 142.313 147.877  1.00  0.00    -0.011 C 
ATOM      8  C   UNL     1     137.325 142.986 148.187  1.00  0.00     0.008 C 
ATOM      9  C   UNL     1     139.805 143.347 147.992  1.00  0.00     0.008 C 
ENDBRANCH   5   7
ENDBRANCH   4   5
ENDBRANCH   1   3
BRANCH   1  10
ATOM     10  C   UNL     1     140.679 137.600 144.231  1.00  0.00     0.002 C 
ATOM     11  C   UNL     1     140.966 136.090 143.933  1.00  0.00     0.005 C 
ATOM     12  C   UNL     1     142.123 138.210 144.213  1.00  0.00    -0.023 C 
ATOM     13  C   UNL     1     142.400 135.772 144.372  1.00  0.00     0.009 C 
ATOM     14  C   UNL     1     142.890 137.084 144.934  1.00  0.00     0.021 C 
ATOM     15  C   UNL     1     142.434 139.521 144.991  1.00  0.00     0.008 C 
ATOM     16  C   UNL     1     142.504 138.431 142.704  1.00  0.00     0.012 C 
ATOM     17  C   UNL     1     144.371 137.318 145.140  1.00  0.00    -0.063 C 
ATOM     18  C   UNL     1     143.980 139.787 145.177  1.00  0.00     0.009 C 
ATOM     19  C   UNL     1     144.947 138.646 144.689  1.00  0.00     0.025 C 
ATOM     20  C   UNL     1     144.964 136.636 146.129  1.00  0.00    -0.000 C 
ATOM     21  C   UNL     1     146.483 138.826 145.037  1.00  0.00    -0.005 C 
ATOM     22  C   UNL     1     146.160 137.127 146.805  1.00  0.00    -0.000 C 
ATOM     23  C   UNL     1     146.842 138.195 146.375  1.00  0.00    -0.061 C 
ATOM     24  C   UNL     1     147.372 138.068 143.990  1.00  0.00     0.014 C 
ATOM     25  C   UNL     1     146.856 140.339 144.996  1.00  0.00     0.017 C 
ATOM     26  C   UNL     1     148.279 138.304 146.824  1.00  0.00     0.063 C 
ATOM     27  C   UNL     1     148.881 138.019 144.357  1.00  0.00     0.033 C 
ATOM     28  C   UNL     1     149.144 137.540 145.806  1.00  0.00     0.118 C 
BRANCH  28  29
ATOM     29  O   UNL     1     150.498 137.720 146.130  1.00  0.00    -0.393 OA
ATOM     30  H   UNL     1     150.807 136.863 146.522  1.00  0.00     0.210 HD
ENDBRANCH  28  29
ENDBRANCH   1  10
TORSDOF 5
ENDMDL
MODEL 3
REMARK VINA RESULT:    -6.749      2.540      3.354
REMARK INTER + INTRA:          -9.156
REMARK INTER:                  -8.374
REMARK INTRA:                  -0.783
REMARK UNBOUND:                -0.632
REMARK SMILES CC(C)[C@@H](C)C=C[C@@H](C)[C@@H]1CC[C@H]2C3=CC=C4C[C@H](O)CC[C@@]4(C)[C@@H]3CC[C@@]21C
REMARK SMILES IDX 8 1 9 2 7 3 6 4 4 5 5 6 2 7 1 8 3 9 10 10 11 11 28 12 12 13
REMARK SMILES IDX 13 14 27 15 29 16 14 17 26 18 25 19 15 20 23 21 16 22 17 23
REMARK SMILES IDX 22 24 24 25 18 26 21 27 19 28 20 29
REMARK H PARENT 20 30
REMARK Flexibility Score: inf
ROOT
ATOM      1  C   UNL     1     139.549 137.512 146.871  1.00  0.00     0.012 C 
ATOM      2  C   UNL     1     138.176 136.837 147.051  1.00  0.00     0.012 C 
ENDROOT
BRANCH   1   3
ATOM      3  C   UNL     1     139.281 138.964 146.454  1.00  0.00    -0.028 C 
ATOM      4  C   UNL     1     139.205 140.026 147.285  1.00  0.00    -0.028 C 
BRANCH   4   5
ATOM      5  C   UNL     1     139.232 141.468 146.822  1.00  0.00     0.011 C 
ATOM      6  C   UNL     1     140.474 141.802 145.975  1.00  0.00     0.012 C 
BRANCH   5   7
ATOM      7  C   UNL     1     138.959 142.491 147.969  1.00  0.00    -0.011 C 
ATOM      8  C   UNL     1     137.483 142.903 148.092  1.00  0.00     0.008 C 
ATOM      9  C   UNL     1     139.837 143.745 147.825  1.00  0.00     0.008 C 
ENDBRANCH   5   7
ENDBRANCH   4   5
ENDBRANCH   1   3
BRANCH   1  10
ATOM     10  C   UNL     1     140.509 136.694 145.917  1.00  0.00     0.002 C 
ATOM     11  C   UNL     1     140.343 135.138 145.948  1.00  0.00     0.005 C 
ATOM     12  C   UNL     1     142.044 136.858 146.195  1.00  0.00    -0.023 C 
ATOM     13  C   UNL     1     141.469 134.546 146.804  1.00  0.00     0.009 C 
ATOM     14  C   UNL     1     142.233 135.764 147.264  1.00  0.00     0.021 C 
ATOM     15  C   UNL     1     142.596 138.175 146.812  1.00  0.00     0.008 C 
ATOM     16  C   UNL     1     142.782 136.606 144.830  1.00  0.00     0.012 C 
ATOM     17  C   UNL     1     143.631 135.618 147.824  1.00  0.00    -0.063 C 
ATOM     18  C   UNL     1     144.070 138.037 147.366  1.00  0.00     0.009 C 
ATOM     19  C   UNL     1     144.690 136.591 147.343  1.00  0.00     0.025 C 
ATOM     20  C   UNL     1     143.748 135.048 149.030  1.00  0.00    -0.000 C 
ATOM     21  C   UNL     1     146.093 136.413 148.061  1.00  0.00    -0.005 C 
ATOM     22  C   UNL     1     144.870 135.332 149.920  1.00  0.00    -0.000 C 
ATOM     23  C   UNL     1     145.938 136.037 149.528  1.00  0.00    -0.061 C 
ATOM     24  C   UNL     1     146.882 135.216 147.426  1.00  0.00     0.014 C 
ATOM     25  C   UNL     1     146.939 137.710 147.885  1.00  0.00     0.017 C 
ATOM     26  C   UNL     1     147.204 135.844 150.326  1.00  0.00     0.063 C 
ATOM     27  C   UNL     1     148.181 134.837 148.191  1.00  0.00     0.033 C 
ATOM     28  C   UNL     1     147.964 134.655 149.713  1.00  0.00     0.118 C 
BRANCH  28  29
ATOM     29  O   UNL     1     149.204 134.523 150.359  1.00  0.00    -0.393 OA
ATOM     30  H   UNL     1     149.614 133.691 150.008  1.00  0.00     0.210 HD
ENDBRANCH  28  29
ENDBRANCH   1  10
TORSDOF 5
ENDMDL
MODEL 4
REMARK VINA RESULT:    -6.606      5.355      9.921
REMARK INTER + INTRA:          -8.976
REMARK INTER:                  -7.919
REMARK INTRA:                  -1.057
REMARK UNBOUND:                -0.632
REMARK SMILES CC(C)[C@@H](C)C=C[C@@H](C)[C@@H]1CC[C@H]2C3=CC=C4C[C@H](O)CC[C@@]4(C)[C@@H]3CC[C@@]21C
REMARK SMILES IDX 8 1 9 2 7 3 6 4 4 5 5 6 2 7 1 8 3 9 10 10 11 11 28 12 12 13
REMARK SMILES IDX 13 14 27 15 29 16 14 17 26 18 25 19 15 20 23 21 16 22 17 23
REMARK SMILES IDX 22 24 24 25 18 26 21 27 19 28 20 29
REMARK H PARENT 20 30
REMARK Flexibility Score: inf
ROOT
ATOM      1  C   UNL     1     150.791 138.421 139.016  1.00  0.00     0.012 C 
ATOM      2  C   UNL     1     151.588 137.165 138.613  1.00  0.00     0.012 C 
ENDROOT
BRANCH   1   3
ATOM      3  C   UNL     1     150.373 139.120 137.717  1.00  0.00    -0.028 C 
ATOM      4  C   UNL     1     150.040 140.423 137.590  1.00  0.00    -0.028 C 
BRANCH   4   5
ATOM      5  C   UNL     1     149.919 141.141 136.261  1.00  0.00     0.011 C 
ATOM      6  C   UNL     1     148.471 141.199 135.742  1.00  0.00     0.012 C 
BRANCH   5   7
ATOM      7  C   UNL     1     150.951 140.651 135.197  1.00  0.00    -0.011 C 
ATOM      8  C   UNL     1     152.362 141.228 135.391  1.00  0.00     0.008 C 
ATOM      9  C   UNL     1     150.464 140.941 133.767  1.00  0.00     0.008 C 
ENDBRANCH   5   7
ENDBRANCH   4   5
ENDBRANCH   1   3
BRANCH   1  10
ATOM     10  C   UNL     1     151.566 139.324 140.059  1.00  0.00     0.002 C 
ATOM     11  C   UNL     1     152.857 138.696 140.683  1.00  0.00     0.005 C 
ATOM     12  C   UNL     1     150.757 139.730 141.339  1.00  0.00    -0.023 C 
ATOM     13  C   UNL     1     152.520 138.190 142.090  1.00  0.00     0.009 C 
ATOM     14  C   UNL     1     151.051 138.509 142.232  1.00  0.00     0.021 C 
ATOM     15  C   UNL     1     149.208 139.868 141.280  1.00  0.00     0.008 C 
ATOM     16  C   UNL     1     151.354 141.096 141.839  1.00  0.00     0.012 C 
ATOM     17  C   UNL     1     150.402 138.516 143.598  1.00  0.00    -0.063 C 
ATOM     18  C   UNL     1     148.529 139.912 142.707  1.00  0.00     0.009 C 
ATOM     19  C   UNL     1     149.478 139.669 143.937  1.00  0.00     0.025 C 
ATOM     20  C   UNL     1     150.236 137.330 144.200  1.00  0.00    -0.000 C 
ATOM     21  C   UNL     1     148.778 139.530 145.353  1.00  0.00    -0.005 C 
ATOM     22  C   UNL     1     149.183 137.096 145.182  1.00  0.00    -0.000 C 
ATOM     23  C   UNL     1     148.427 138.085 145.675  1.00  0.00    -0.061 C 
ATOM     24  C   UNL     1     149.762 139.964 146.494  1.00  0.00     0.014 C 
ATOM     25  C   UNL     1     147.522 140.453 145.409  1.00  0.00     0.017 C 
ATOM     26  C   UNL     1     147.748 137.820 146.997  1.00  0.00     0.063 C 
ATOM     27  C   UNL     1     149.237 139.676 147.928  1.00  0.00     0.033 C 
ATOM     28  C   UNL     1     148.726 138.226 148.113  1.00  0.00     0.118 C 
BRANCH  28  29
ATOM     29  O   UNL     1     148.082 138.101 149.354  1.00  0.00    -0.393 OA
ATOM     30  H   UNL     1     147.982 137.129 149.520  1.00  0.00     0.210 HD
ENDBRANCH  28  29
ENDBRANCH   1  10
TORSDOF 5
ENDMDL
MODEL 5
REMARK VINA RESULT:    -6.517      2.496      3.263
REMARK INTER + INTRA:          -8.864
REMARK INTER:                  -7.973
REMARK INTRA:                  -0.891
REMARK UNBOUND:                -0.632
REMARK SMILES CC(C)[C@@H](C)C=C[C@@H](C)[C@@H]1CC[C@H]2C3=CC=C4C[C@H](O)CC[C@@]4(C)[C@@H]3CC[C@@]21C
REMARK SMILES IDX 8 1 9 2 7 3 6 4 4 5 5 6 2 7 1 8 3 9 10 10 11 11 28 12 12 13
REMARK SMILES IDX 13 14 27 15 29 16 14 17 26 18 25 19 15 20 23 21 16 22 17 23
REMARK SMILES IDX 22 24 24 25 18 26 21 27 19 28 20 29
REMARK H PARENT 20 30
REMARK Flexibility Score: inf
ROOT
ATOM      1  C   UNL     1     141.080 139.754 145.693  1.00  0.00     0.012 C 
ATOM      2  C   UNL     1     140.116 139.844 146.892  1.00  0.00     0.012 C 
ENDROOT
BRANCH   1   3
ATOM      3  C   UNL     1     140.459 140.577 144.558  1.00  0.00    -0.028 C 
ATOM      4  C   UNL     1     139.139 140.703 144.301  1.00  0.00    -0.028 C 
BRANCH   4   5
ATOM      5  C   UNL     1     138.553 141.743 143.368  1.00  0.00     0.011 C 
ATOM      6  C   UNL     1     139.469 142.058 142.171  1.00  0.00     0.012 C 
BRANCH   5   7
ATOM      7  C   UNL     1     138.027 143.011 144.110  1.00  0.00    -0.011 C 
ATOM      8  C   UNL     1     137.644 142.757 145.577  1.00  0.00     0.008 C 
ATOM      9  C   UNL     1     136.838 143.644 143.367  1.00  0.00     0.008 C 
ENDBRANCH   5   7
ENDBRANCH   4   5
ENDBRANCH   1   3
BRANCH   1  10
ATOM     10  C   UNL     1     141.457 138.262 145.327  1.00  0.00     0.002 C 
ATOM     11  C   UNL     1     140.736 137.149 146.159  1.00  0.00     0.005 C 
ATOM     12  C   UNL     1     142.965 137.876 145.516  1.00  0.00    -0.023 C 
ATOM     13  C   UNL     1     141.709 136.631 147.225  1.00  0.00     0.009 C 
ATOM     14  C   UNL     1     142.945 137.468 147.003  1.00  0.00     0.021 C 
ATOM     15  C   UNL     1     144.078 138.953 145.372  1.00  0.00     0.008 C 
ATOM     16  C   UNL     1     143.268 136.715 144.499  1.00  0.00     0.012 C 
ATOM     17  C   UNL     1     144.271 137.037 147.590  1.00  0.00    -0.063 C 
ATOM     18  C   UNL     1     145.474 138.494 145.952  1.00  0.00     0.009 C 
ATOM     19  C   UNL     1     145.496 137.110 146.699  1.00  0.00     0.025 C 
ATOM     20  C   UNL     1     144.408 137.129 148.919  1.00  0.00    -0.000 C 
ATOM     21  C   UNL     1     146.846 136.728 147.439  1.00  0.00    -0.005 C 
ATOM     22  C   UNL     1     145.708 137.303 149.558  1.00  0.00    -0.000 C 
ATOM     23  C   UNL     1     146.859 137.209 148.882  1.00  0.00    -0.061 C 
ATOM     24  C   UNL     1     146.991 135.170 147.538  1.00  0.00     0.014 C 
ATOM     25  C   UNL     1     148.059 137.286 146.634  1.00  0.00     0.017 C 
ATOM     26  C   UNL     1     148.097 136.911 149.695  1.00  0.00     0.063 C 
ATOM     27  C   UNL     1     148.182 134.699 148.419  1.00  0.00     0.033 C 
ATOM     28  C   UNL     1     148.222 135.382 149.808  1.00  0.00     0.118 C 
BRANCH  28  29
ATOM     29  O   UNL     1     149.427 135.070 150.459  1.00  0.00    -0.393 OA
ATOM     30  H   UNL     1     149.520 135.721 151.201  1.00  0.00     0.210 HD
ENDBRANCH  28  29
ENDBRANCH   1  10
TORSDOF 5
ENDMDL
MODEL 6
REMARK VINA RESULT:    -6.511      3.331      5.731
REMARK INTER + INTRA:          -8.856
REMARK INTER:                  -7.359
REMARK INTRA:                  -1.497
REMARK UNBOUND:                -0.632
REMARK SMILES CC(C)[C@@H](C)C=C[C@@H](C)[C@@H]1CC[C@H]2C3=CC=C4C[C@H](O)CC[C@@]4(C)[C@@H]3CC[C@@]21C
REMARK SMILES IDX 8 1 9 2 7 3 6 4 4 5 5 6 2 7 1 8 3 9 10 10 11 11 28 12 12 13
REMARK SMILES IDX 13 14 27 15 29 16 14 17 26 18 25 19 15 20 23 21 16 22 17 23
REMARK SMILES IDX 22 24 24 25 18 26 21 27 19 28 20 29
REMARK H PARENT 20 30
REMARK Flexibility Score: inf
ROOT
ATOM      1  C   UNL     1     143.180 133.316 150.602  1.00  0.00     0.012 C 
ATOM      2  C   UNL     1     143.582 131.830 150.670  1.00  0.00     0.012 C 
ENDROOT
BRANCH   1   3
ATOM      3  C   UNL     1     142.792 133.606 149.147  1.00  0.00    -0.028 C 
ATOM      4  C   UNL     1     141.797 134.424 148.740  1.00  0.00    -0.028 C 
BRANCH   4   5
ATOM      5  C   UNL     1     141.631 134.913 147.315  1.00  0.00     0.011 C 
ATOM      6  C   UNL     1     142.929 134.813 146.493  1.00  0.00     0.012 C 
BRANCH   5   7
ATOM      7  C   UNL     1     140.928 136.303 147.217  1.00  0.00    -0.011 C 
ATOM      8  C   UNL     1     139.396 136.231 147.322  1.00  0.00     0.008 C 
ATOM      9  C   UNL     1     141.325 137.044 145.929  1.00  0.00     0.008 C 
ENDBRANCH   5   7
ENDBRANCH   4   5
ENDBRANCH   1   3
BRANCH   1  10
ATOM     10  C   UNL     1     144.278 134.272 151.219  1.00  0.00     0.002 C 
ATOM     11  C   UNL     1     143.744 135.569 151.916  1.00  0.00     0.005 C 
ATOM     12  C   UNL     1     145.316 134.860 150.202  1.00  0.00    -0.023 C 
ATOM     13  C   UNL     1     143.937 136.749 150.957  1.00  0.00     0.009 C 
ATOM     14  C   UNL     1     144.544 136.108 149.733  1.00  0.00     0.021 C 
ATOM     15  C   UNL     1     145.694 134.069 148.917  1.00  0.00     0.008 C 
ATOM     16  C   UNL     1     146.635 135.143 151.011  1.00  0.00     0.012 C 
ATOM     17  C   UNL     1     145.232 136.961 148.690  1.00  0.00    -0.063 C 
ATOM     18  C   UNL     1     146.445 134.946 147.839  1.00  0.00     0.009 C 
ATOM     19  C   UNL     1     146.568 136.482 148.155  1.00  0.00     0.025 C 
ATOM     20  C   UNL     1     144.454 137.745 147.933  1.00  0.00    -0.000 C 
ATOM     21  C   UNL     1     147.157 137.396 147.000  1.00  0.00    -0.005 C 
ATOM     22  C   UNL     1     144.841 138.163 146.590  1.00  0.00    -0.000 C 
ATOM     23  C   UNL     1     146.064 137.940 146.092  1.00  0.00    -0.061 C 
ATOM     24  C   UNL     1     147.839 138.671 147.608  1.00  0.00     0.014 C 
ATOM     25  C   UNL     1     148.229 136.599 146.197  1.00  0.00     0.017 C 
ATOM     26  C   UNL     1     146.497 138.823 144.946  1.00  0.00     0.063 C 
ATOM     27  C   UNL     1     148.270 139.724 146.549  1.00  0.00     0.033 C 
ATOM     28  C   UNL     1     147.146 140.081 145.548  1.00  0.00     0.118 C 
BRANCH  28  29
ATOM     29  O   UNL     1     147.664 140.870 144.508  1.00  0.00    -0.393 OA
ATOM     30  H   UNL     1     148.459 141.333 144.879  1.00  0.00     0.210 HD
ENDBRANCH  28  29
ENDBRANCH   1  10
TORSDOF 5
ENDMDL
MODEL 7
REMARK VINA RESULT:    -6.457      4.274      8.668
REMARK INTER + INTRA:          -8.788
REMARK INTER:                  -7.907
REMARK INTRA:                  -0.880
REMARK UNBOUND:                -0.632
REMARK SMILES CC(C)[C@@H](C)C=C[C@@H](C)[C@@H]1CC[C@H]2C3=CC=C4C[C@H](O)CC[C@@]4(C)[C@@H]3CC[C@@]21C
REMARK SMILES IDX 8 1 9 2 7 3 6 4 4 5 5 6 2 7 1 8 3 9 10 10 11 11 28 12 12 13
REMARK SMILES IDX 13 14 27 15 29 16 14 17 26 18 25 19 15 20 23 21 16 22 17 23
REMARK SMILES IDX 22 24 24 25 18 26 21 27 19 28 20 29
REMARK H PARENT 20 30
REMARK Flexibility Score: inf
ROOT
ATOM      1  C   UNL     1     149.585 138.849 142.781  1.00  0.00     0.012 C 
ATOM      2  C   UNL     1     151.042 138.357 142.681  1.00  0.00     0.012 C 
ENDROOT
BRANCH   1   3
ATOM      3  C   UNL     1     149.288 139.627 141.493  1.00  0.00    -0.028 C 
ATOM      4  C   UNL     1     150.135 139.793 140.454  1.00  0.00    -0.028 C 
BRANCH   4   5
ATOM      5  C   UNL     1     149.716 140.309 139.093  1.00  0.00     0.011 C 
ATOM      6  C   UNL     1     148.255 140.794 139.060  1.00  0.00     0.012 C 
BRANCH   5   7
ATOM      7  C   UNL     1     150.086 139.341 137.925  1.00  0.00    -0.011 C 
ATOM      8  C   UNL     1     150.705 138.015 138.393  1.00  0.00     0.008 C 
ATOM      9  C   UNL     1     151.020 140.019 136.908  1.00  0.00     0.008 C 
ENDBRANCH   5   7
ENDBRANCH   4   5
ENDBRANCH   1   3
BRANCH   1  10
ATOM     10  C   UNL     1     149.295 139.624 144.129  1.00  0.00     0.002 C 
ATOM     11  C   UNL     1     150.424 139.562 145.211  1.00  0.00     0.005 C 
ATOM     12  C   UNL     1     148.047 139.132 144.940  1.00  0.00    -0.023 C 
ATOM     13  C   UNL     1     150.023 138.532 146.273  1.00  0.00     0.009 C 
ATOM     14  C   UNL     1     148.700 138.009 145.768  1.00  0.00     0.021 C 
ATOM     15  C   UNL     1     146.835 138.489 144.207  1.00  0.00     0.008 C 
ATOM     16  C   UNL     1     147.526 140.366 145.764  1.00  0.00     0.012 C 
ATOM     17  C   UNL     1     147.779 137.248 146.697  1.00  0.00    -0.063 C 
ATOM     18  C   UNL     1     145.850 137.723 145.177  1.00  0.00     0.009 C 
ATOM     19  C   UNL     1     146.305 137.604 146.678  1.00  0.00     0.025 C 
ATOM     20  C   UNL     1     148.163 136.018 147.062  1.00  0.00    -0.000 C 
ATOM     21  C   UNL     1     145.416 136.684 147.615  1.00  0.00    -0.005 C 
ATOM     22  C   UNL     1     147.206 134.985 147.447  1.00  0.00    -0.000 C 
ATOM     23  C   UNL     1     145.905 135.243 147.629  1.00  0.00    -0.061 C 
ATOM     24  C   UNL     1     145.527 137.155 149.107  1.00  0.00     0.014 C 
ATOM     25  C   UNL     1     143.922 136.781 147.178  1.00  0.00     0.017 C 
ATOM     26  C   UNL     1     145.136 134.263 148.481  1.00  0.00     0.063 C 
ATOM     27  C   UNL     1     144.850 136.197 150.126  1.00  0.00     0.033 C 
ATOM     28  C   UNL     1     145.266 134.717 149.945  1.00  0.00     0.118 C 
BRANCH  28  29
ATOM     29  O   UNL     1     144.466 133.893 150.752  1.00  0.00    -0.393 OA
ATOM     30  H   UNL     1     144.153 134.459 151.505  1.00  0.00     0.210 HD
ENDBRANCH  28  29
ENDBRANCH   1  10
TORSDOF 5
ENDMDL
MODEL 8
REMARK VINA RESULT:    -6.279      4.260      7.434
REMARK INTER + INTRA:          -8.563
REMARK INTER:                  -7.479
REMARK INTRA:                  -1.085
REMARK UNBOUND:                -0.632
REMARK SMILES CC(C)[C@@H](C)C=C[C@@H](C)[C@@H]1CC[C@H]2C3=CC=C4C[C@H](O)CC[C@@]4(C)[C@@H]3CC[C@@]21C
REMARK SMILES IDX 8 1 9 2 7 3 6 4 4 5 5 6 2 7 1 8 3 9 10 10 11 11 28 12 12 13
REMARK SMILES IDX 13 14 27 15 29 16 14 17 26 18 25 19 15 20 23 21 16 22 17 23
REMARK SMILES IDX 22 24 24 25 18 26 21 27 19 28 20 29
REMARK H PARENT 20 30
REMARK Flexibility Score: inf
ROOT
ATOM      1  C   UNL     1     148.848 139.082 142.727  1.00  0.00     0.012 C 
ATOM      2  C   UNL     1     150.377 138.893 142.753  1.00  0.00     0.012 C 
ENDROOT
BRANCH   1   3
ATOM      3  C   UNL     1     148.494 139.667 141.354  1.00  0.00    -0.028 C 
ATOM      4  C   UNL     1     147.516 140.564 141.103  1.00  0.00    -0.028 C 
BRANCH   4   5
ATOM      5  C   UNL     1     147.385 141.334 139.805  1.00  0.00     0.011 C 
ATOM      6  C   UNL     1     148.437 140.926 138.758  1.00  0.00     0.012 C 
BRANCH   5   7
ATOM      7  C   UNL     1     147.266 142.876 140.011  1.00  0.00    -0.011 C 
ATOM      8  C   UNL     1     147.819 143.365 141.359  1.00  0.00     0.008 C 
ATOM      9  C   UNL     1     145.813 143.355 139.843  1.00  0.00     0.008 C 
ENDBRANCH   5   7
ENDBRANCH   4   5
ENDBRANCH   1   3
BRANCH   1  10
ATOM     10  C   UNL     1     148.315 139.896 143.974  1.00  0.00     0.002 C 
ATOM     11  C   UNL     1     149.372 140.227 145.080  1.00  0.00     0.005 C 
ATOM     12  C   UNL     1     147.186 139.198 144.809  1.00  0.00    -0.023 C 
ATOM     13  C   UNL     1     149.184 139.245 146.242  1.00  0.00     0.009 C 
ATOM     14  C   UNL     1     148.054 138.362 145.771  1.00  0.00     0.021 C 
ATOM     15  C   UNL     1     146.203 138.203 144.128  1.00  0.00     0.008 C 
ATOM     16  C   UNL     1     146.342 140.343 145.479  1.00  0.00     0.012 C 
ATOM     17  C   UNL     1     147.302 137.497 146.759  1.00  0.00    -0.063 C 
ATOM     18  C   UNL     1     145.390 137.322 145.157  1.00  0.00     0.009 C 
ATOM     19  C   UNL     1     145.789 137.475 146.671  1.00  0.00     0.025 C 
ATOM     20  C   UNL     1     147.956 136.444 147.267  1.00  0.00    -0.000 C 
ATOM     21  C   UNL     1     145.106 136.465 147.686  1.00  0.00    -0.005 C 
ATOM     22  C   UNL     1     147.262 135.253 147.746  1.00  0.00    -0.000 C 
ATOM     23  C   UNL     1     145.930 135.199 147.871  1.00  0.00    -0.061 C 
ATOM     24  C   UNL     1     145.029 137.100 149.118  1.00  0.00     0.014 C 
ATOM     25  C   UNL     1     143.657 136.144 147.211  1.00  0.00     0.017 C 
ATOM     26  C   UNL     1     145.383 134.153 148.811  1.00  0.00     0.063 C 
ATOM     27  C   UNL     1     144.558 136.115 150.223  1.00  0.00     0.033 C 
ATOM     28  C   UNL     1     145.330 134.773 150.218  1.00  0.00     0.118 C 
BRANCH  28  29
ATOM     29  O   UNL     1     144.716 133.865 151.095  1.00  0.00    -0.393 OA
ATOM     30  H   UNL     1     144.227 133.215 150.527  1.00  0.00     0.210 HD
ENDBRANCH  28  29
ENDBRANCH   1  10
TORSDOF 5
ENDMDL
MODEL 9
REMARK VINA RESULT:    -6.262      3.639      5.316
REMARK INTER + INTRA:          -8.542
REMARK INTER:                  -7.588
REMARK INTRA:                  -0.954
REMARK UNBOUND:                -0.632
REMARK SMILES CC(C)[C@@H](C)C=C[C@@H](C)[C@@H]1CC[C@H]2C3=CC=C4C[C@H](O)CC[C@@]4(C)[C@@H]3CC[C@@]21C
REMARK SMILES IDX 8 1 9 2 7 3 6 4 4 5 5 6 2 7 1 8 3 9 10 10 11 11 28 12 12 13
REMARK SMILES IDX 13 14 27 15 29 16 14 17 26 18 25 19 15 20 23 21 16 22 17 23
REMARK SMILES IDX 22 24 24 25 18 26 21 27 19 28 20 29
REMARK H PARENT 20 30
REMARK Flexibility Score: inf
ROOT
ATOM      1  C   UNL     1     144.085 135.529 150.590  1.00  0.00     0.012 C 
ATOM      2  C   UNL     1     144.317 135.482 152.113  1.00  0.00     0.012 C 
ENDROOT
BRANCH   1   3
ATOM      3  C   UNL     1     142.620 135.144 150.351  1.00  0.00    -0.028 C 
ATOM      4  C   UNL     1     142.077 134.792 149.165  1.00  0.00    -0.028 C 
BRANCH   4   5
ATOM      5  C   UNL     1     140.717 134.142 149.015  1.00  0.00     0.011 C 
ATOM      6  C   UNL     1     140.790 132.742 148.379  1.00  0.00     0.012 C 
BRANCH   5   7
ATOM      7  C   UNL     1     139.654 135.078 148.359  1.00  0.00    -0.011 C 
ATOM      8  C   UNL     1     138.444 134.329 147.777  1.00  0.00     0.008 C 
ATOM      9  C   UNL     1     140.283 135.967 147.273  1.00  0.00     0.008 C 
ENDBRANCH   5   7
ENDBRANCH   4   5
ENDBRANCH   1   3
BRANCH   1  10
ATOM     10  C   UNL     1     145.154 134.685 149.785  1.00  0.00     0.002 C 
ATOM     11  C   UNL     1     146.480 134.353 150.548  1.00  0.00     0.005 C 
ATOM     12  C   UNL     1     145.697 135.350 148.474  1.00  0.00    -0.023 C 
ATOM     13  C   UNL     1     147.573 135.311 150.062  1.00  0.00     0.009 C 
ATOM     14  C   UNL     1     146.852 136.183 149.063  1.00  0.00     0.021 C 
ATOM     15  C   UNL     1     144.808 136.340 147.667  1.00  0.00     0.008 C 
ATOM     16  C   UNL     1     146.125 134.180 147.515  1.00  0.00     0.012 C 
ATOM     17  C   UNL     1     147.637 137.019 148.076  1.00  0.00    -0.063 C 
ATOM     18  C   UNL     1     145.619 137.190 146.609  1.00  0.00     0.009 C 
ATOM     19  C   UNL     1     147.182 137.018 146.629  1.00  0.00     0.025 C 
ATOM     20  C   UNL     1     148.303 138.073 148.564  1.00  0.00    -0.000 C 
ATOM     21  C   UNL     1     148.013 137.998 145.699  1.00  0.00    -0.005 C 
ATOM     22  C   UNL     1     148.612 139.245 147.750  1.00  0.00    -0.000 C 
ATOM     23  C   UNL     1     148.409 139.275 146.428  1.00  0.00    -0.061 C 
ATOM     24  C   UNL     1     149.374 137.338 145.288  1.00  0.00     0.014 C 
ATOM     25  C   UNL     1     147.201 138.303 144.403  1.00  0.00     0.017 C 
ATOM     26  C   UNL     1     149.200 140.295 145.646  1.00  0.00     0.063 C 
ATOM     27  C   UNL     1     150.343 138.296 144.541  1.00  0.00     0.033 C 
ATOM     28  C   UNL     1     150.543 139.650 145.264  1.00  0.00     0.118 C 
BRANCH  28  29
ATOM     29  O   UNL     1     151.256 140.533 144.437  1.00  0.00    -0.393 OA
ATOM     30  H   UNL     1     152.038 140.026 144.097  1.00  0.00     0.210 HD
ENDBRANCH  28  29
ENDBRANCH   1  10
TORSDOF 5
ENDMDL
