MODEL 1
REMARK VINA RESULT:    -4.656      0.000      0.000
REMARK INTER + INTRA:          -7.043
REMARK INTER:                  -6.561
REMARK INTRA:                  -0.483
REMARK UNBOUND:                -0.483
REMARK SMILES OC[C@@H]1O[C@@H](O[C@H]2OC=C[C@H]3[C@@H](O)[C@H]4O[C@@]4(CO)[C@@H]23)[C@H](O)[C@H](O)[C@H]1O
REMARK SMILES IDX 6 1 7 2 10 3 9 4 11 5 8 6 19 7 12 8 16 9 14 10 15 11 13 12
REMARK SMILES IDX 17 14 18 15 5 17 20 18 4 19 22 20 3 21 24 22 21 23 23 25
REMARK SMILES IDX 2 27 1 28 25 30
REMARK H PARENT 13 13 18 16 21 24 23 26 1 29 25 31
REMARK Flexibility Score: inf
ROOT
ATOM      1  O   UNL     1      40.915  20.221  11.028  1.00  0.00    -0.310 OA
ENDROOT
BRANCH   1   2
ATOM      2  C   UNL     1      41.631  19.937   9.838  1.00  0.00     0.315 C 
ATOM      3  C   UNL     1      42.534  20.321   7.182  1.00  0.00     0.018 C 
ATOM      4  C   UNL     1      41.246  20.074   7.422  1.00  0.00     0.186 C 
ATOM      5  C   UNL     1      43.505  20.732   8.278  1.00  0.00     0.059 C 
ATOM      6  O   UNL     1      40.753  20.080   8.727  1.00  0.00    -0.472 OA
ATOM      7  C   UNL     1      42.841  20.880   9.671  1.00  0.00     0.105 C 
ATOM      8  C   UNL     1      44.111  22.125   8.013  1.00  0.00     0.154 C 
ATOM      9  C   UNL     1      42.499  22.372   9.819  1.00  0.00     0.130 C 
ATOM     10  C   UNL     1      43.304  23.125   8.838  1.00  0.00     0.183 C 
ATOM     11  O   UNL     1      41.904  22.994   8.701  1.00  0.00    -0.360 OA
BRANCH   8  12
ATOM     12  O   UNL     1      44.169  22.474   6.649  1.00  0.00    -0.390 OA
ATOM     13  H   UNL     1      45.122  22.617   6.407  1.00  0.00     0.211 HD
ENDBRANCH   8  12
BRANCH   9  14
ATOM     14  C   UNL     1      42.349  23.069  11.180  1.00  0.00     0.195 C 
BRANCH  14  15
ATOM     15  O   UNL     1      43.452  22.810  12.009  1.00  0.00    -0.393 OA
ATOM     16  H   UNL     1      43.789  23.689  12.323  1.00  0.00     0.210 HD
ENDBRANCH  14  15
ENDBRANCH   9  14
ENDBRANCH   1   2
BRANCH   1  17
ATOM     17  C   UNL     1      40.942  19.119  11.923  1.00  0.00     0.286 C 
ATOM     18  C   UNL     1      42.297  18.394  11.834  1.00  0.00     0.202 C 
ATOM     19  O   UNL     1      40.676  19.522  13.261  1.00  0.00    -0.341 OA
ATOM     20  C   UNL     1      43.417  19.298  12.384  1.00  0.00     0.179 C 
ATOM     21  C   UNL     1      41.636  20.457  13.732  1.00  0.00     0.178 C 
ATOM     22  C   UNL     1      43.044  19.818  13.778  1.00  0.00     0.177 C 
BRANCH  18  23
ATOM     23  O   UNL     1      42.225  17.200  12.573  1.00  0.00    -0.385 OA
ATOM     24  H   UNL     1      43.149  16.849  12.651  1.00  0.00     0.211 HD
ENDBRANCH  18  23
BRANCH  20  25
ATOM     25  O   UNL     1      44.630  18.593  12.454  1.00  0.00    -0.387 OA
ATOM     26  H   UNL     1      44.895  18.388  11.519  1.00  0.00     0.211 HD
ENDBRANCH  20  25
BRANCH  21  27
ATOM     27  C   UNL     1      41.203  20.927  15.126  1.00  0.00     0.191 C 
BRANCH  27  28
ATOM     28  O   UNL     1      41.584  22.262  15.312  1.00  0.00    -0.394 OA
ATOM     29  H   UNL     1      40.832  22.698  15.790  1.00  0.00     0.210 HD
ENDBRANCH  27  28
ENDBRANCH  21  27
BRANCH  22  30
ATOM     30  O   UNL     1      43.997  20.773  14.175  1.00  0.00    -0.387 OA
ATOM     31  H   UNL     1      43.505  21.602  14.408  1.00  0.00     0.211 HD
ENDBRANCH  22  30
ENDBRANCH   1  17
TORSDOF 10
ENDMDL
MODEL 2
REMARK VINA RESULT:    -4.301     18.348     21.143
REMARK INTER + INTRA:          -6.544
REMARK INTER:                  -6.281
REMARK INTRA:                  -0.262
REMARK UNBOUND:                -0.483
REMARK SMILES OC[C@@H]1O[C@@H](O[C@H]2OC=C[C@H]3[C@@H](O)[C@H]4O[C@@]4(CO)[C@@H]23)[C@H](O)[C@H](O)[C@H]1O
REMARK SMILES IDX 6 1 7 2 10 3 9 4 11 5 8 6 19 7 12 8 16 9 14 10 15 11 13 12
REMARK SMILES IDX 17 14 18 15 5 17 20 18 4 19 22 20 3 21 24 22 21 23 23 25
REMARK SMILES IDX 2 27 1 28 25 30
REMARK H PARENT 13 13 18 16 21 24 23 26 1 29 25 31
REMARK Flexibility Score: inf
ROOT
ATOM      1  O   UNL     1      33.069   3.339  18.765  1.00  0.00    -0.310 OA
ENDROOT
BRANCH   1   2
ATOM      2  C   UNL     1      32.668   3.760  20.058  1.00  0.00     0.315 C 
ATOM      3  C   UNL     1      31.574   5.488  22.017  1.00  0.00     0.018 C 
ATOM      4  C   UNL     1      32.691   5.827  21.372  1.00  0.00     0.186 C 
ATOM      5  C   UNL     1      30.662   4.370  21.535  1.00  0.00     0.059 C 
ATOM      6  O   UNL     1      33.130   5.088  20.274  1.00  0.00    -0.472 OA
ATOM      7  C   UNL     1      31.133   3.711  20.215  1.00  0.00     0.105 C 
ATOM      8  C   UNL     1      29.249   4.888  21.202  1.00  0.00     0.154 C 
ATOM      9  C   UNL     1      30.365   4.424  19.090  1.00  0.00     0.130 C 
ATOM     10  C   UNL     1      29.200   5.102  19.690  1.00  0.00     0.183 C 
ATOM     11  O   UNL     1      30.293   5.831  19.172  1.00  0.00    -0.360 OA
BRANCH   8  12
ATOM     12  O   UNL     1      28.876   6.040  21.921  1.00  0.00    -0.390 OA
ATOM     13  H   UNL     1      29.002   5.855  22.889  1.00  0.00     0.211 HD
ENDBRANCH   8  12
BRANCH   9  14
ATOM     14  C   UNL     1      30.084   3.780  17.723  1.00  0.00     0.195 C 
BRANCH  14  15
ATOM     15  O   UNL     1      29.698   4.741  16.776  1.00  0.00    -0.393 OA
ATOM     16  H   UNL     1      29.862   5.631  17.185  1.00  0.00     0.210 HD
ENDBRANCH  14  15
ENDBRANCH   9  14
ENDBRANCH   1   2
BRANCH   1  17
ATOM     17  C   UNL     1      34.220   4.045  18.326  1.00  0.00     0.286 C 
ATOM     18  C   UNL     1      34.867   3.320  17.133  1.00  0.00     0.202 C 
ATOM     19  O   UNL     1      33.912   5.392  17.988  1.00  0.00    -0.341 OA
ATOM     20  C   UNL     1      33.941   3.395  15.904  1.00  0.00     0.179 C 
ATOM     21  C   UNL     1      32.959   5.469  16.938  1.00  0.00     0.178 C 
ATOM     22  C   UNL     1      33.526   4.849  15.639  1.00  0.00     0.177 C 
BRANCH  18  23
ATOM     23  O   UNL     1      36.106   3.924  16.850  1.00  0.00    -0.385 OA
ATOM     24  H   UNL     1      36.061   4.854  17.191  1.00  0.00     0.211 HD
ENDBRANCH  18  23
BRANCH  20  25
ATOM     25  O   UNL     1      34.586   2.877  14.769  1.00  0.00    -0.387 OA
ATOM     26  H   UNL     1      34.164   1.998  14.578  1.00  0.00     0.211 HD
ENDBRANCH  20  25
BRANCH  21  27
ATOM     27  C   UNL     1      32.596   6.943  16.727  1.00  0.00     0.191 C 
BRANCH  27  28
ATOM     28  O   UNL     1      31.277   7.043  16.265  1.00  0.00    -0.394 OA
ATOM     29  H   UNL     1      30.725   7.262  17.058  1.00  0.00     0.210 HD
ENDBRANCH  27  28
ENDBRANCH  21  27
BRANCH  22  30
ATOM     30  O   UNL     1      32.548   4.863  14.628  1.00  0.00    -0.387 OA
ATOM     31  H   UNL     1      32.351   3.919  14.396  1.00  0.00     0.211 HD
ENDBRANCH  22  30
ENDBRANCH   1  17
TORSDOF 10
ENDMDL
MODEL 3
REMARK VINA RESULT:    -3.988      2.364      4.724
REMARK INTER + INTRA:          -6.103
REMARK INTER:                  -5.115
REMARK INTRA:                  -0.987
REMARK UNBOUND:                -0.483
REMARK SMILES OC[C@@H]1O[C@@H](O[C@H]2OC=C[C@H]3[C@@H](O)[C@H]4O[C@@]4(CO)[C@@H]23)[C@H](O)[C@H](O)[C@H]1O
REMARK SMILES IDX 6 1 7 2 10 3 9 4 11 5 8 6 19 7 12 8 16 9 14 10 15 11 13 12
REMARK SMILES IDX 17 14 18 15 5 17 20 18 4 19 22 20 3 21 24 22 21 23 23 25
REMARK SMILES IDX 2 27 1 28 25 30
REMARK H PARENT 13 13 18 16 21 24 23 26 1 29 25 31
REMARK Flexibility Score: inf
ROOT
ATOM      1  O   UNL     1      42.983  21.163   8.051  1.00  0.00    -0.310 OA
ENDROOT
BRANCH   1   2
ATOM      2  C   UNL     1      43.830  22.126   7.446  1.00  0.00     0.315 C 
ATOM      3  C   UNL     1      46.159  23.124   6.180  1.00  0.00     0.018 C 
ATOM      4  C   UNL     1      46.217  22.679   7.436  1.00  0.00     0.186 C 
ATOM      5  C   UNL     1      44.980  22.830   5.264  1.00  0.00     0.059 C 
ATOM      6  O   UNL     1      45.135  22.006   8.002  1.00  0.00    -0.472 OA
ATOM      7  C   UNL     1      43.897  21.934   5.916  1.00  0.00     0.105 C 
ATOM      8  C   UNL     1      45.410  22.034   4.016  1.00  0.00     0.154 C 
ATOM      9  C   UNL     1      44.219  20.496   5.478  1.00  0.00     0.130 C 
ATOM     10  C   UNL     1      45.104  20.565   4.299  1.00  0.00     0.183 C 
ATOM     11  O   UNL     1      45.574  20.105   5.550  1.00  0.00    -0.360 OA
BRANCH   8  12
ATOM     12  O   UNL     1      46.751  22.242   3.637  1.00  0.00    -0.390 OA
ATOM     13  H   UNL     1      46.760  22.578   2.702  1.00  0.00     0.211 HD
ENDBRANCH   8  12
BRANCH   9  14
ATOM     14  C   UNL     1      43.164  19.381   5.409  1.00  0.00     0.195 C 
BRANCH  14  15
ATOM     15  O   UNL     1      42.765  18.976   6.692  1.00  0.00    -0.393 OA
ATOM     16  H   UNL     1      42.466  19.793   7.172  1.00  0.00     0.210 HD
ENDBRANCH  14  15
ENDBRANCH   9  14
ENDBRANCH   1   2
BRANCH   1  17
ATOM     17  C   UNL     1      41.919  21.784   8.758  1.00  0.00     0.286 C 
ATOM     18  C   UNL     1      40.650  20.917   8.681  1.00  0.00     0.202 C 
ATOM     19  O   UNL     1      42.269  22.043  10.112  1.00  0.00    -0.341 OA
ATOM     20  C   UNL     1      40.856  19.609   9.469  1.00  0.00     0.179 C 
ATOM     21  C   UNL     1      42.585  20.848  10.813  1.00  0.00     0.178 C 
ATOM     22  C   UNL     1      41.354  19.916  10.888  1.00  0.00     0.177 C 
BRANCH  18  23
ATOM     23  O   UNL     1      39.568  21.643   9.211  1.00  0.00    -0.385 OA
ATOM     24  H   UNL     1      38.946  20.984   9.614  1.00  0.00     0.211 HD
ENDBRANCH  18  23
BRANCH  20  25
ATOM     25  O   UNL     1      39.657  18.881   9.538  1.00  0.00    -0.387 OA
ATOM     26  H   UNL     1      39.668  18.241   8.780  1.00  0.00     0.211 HD
ENDBRANCH  20  25
BRANCH  21  27
ATOM     27  C   UNL     1      43.068  21.230  12.218  1.00  0.00     0.191 C 
BRANCH  27  28
ATOM     28  O   UNL     1      43.801  20.172  12.768  1.00  0.00    -0.394 OA
ATOM     29  H   UNL     1      43.436  19.344  12.362  1.00  0.00     0.210 HD
ENDBRANCH  27  28
ENDBRANCH  21  27
BRANCH  22  30
ATOM     30  O   UNL     1      41.698  18.707  11.518  1.00  0.00    -0.387 OA
ATOM     31  H   UNL     1      40.853  18.233  11.730  1.00  0.00     0.211 HD
ENDBRANCH  22  30
ENDBRANCH   1  17
TORSDOF 10
ENDMDL
MODEL 4
REMARK VINA RESULT:    -3.751      1.549      3.581
REMARK INTER + INTRA:          -5.768
REMARK INTER:                  -5.180
REMARK INTRA:                  -0.588
REMARK UNBOUND:                -0.483
REMARK SMILES OC[C@@H]1O[C@@H](O[C@H]2OC=C[C@H]3[C@@H](O)[C@H]4O[C@@]4(CO)[C@@H]23)[C@H](O)[C@H](O)[C@H]1O
REMARK SMILES IDX 6 1 7 2 10 3 9 4 11 5 8 6 19 7 12 8 16 9 14 10 15 11 13 12
REMARK SMILES IDX 17 14 18 15 5 17 20 18 4 19 22 20 3 21 24 22 21 23 23 25
REMARK SMILES IDX 2 27 1 28 25 30
REMARK H PARENT 13 13 18 16 21 24 23 26 1 29 25 31
REMARK Flexibility Score: inf
ROOT
ATOM      1  O   UNL     1      41.821  21.725  11.206  1.00  0.00    -0.310 OA
ENDROOT
BRANCH   1   2
ATOM      2  C   UNL     1      42.308  22.071   9.920  1.00  0.00     0.315 C 
ATOM      3  C   UNL     1      43.680  21.717   7.468  1.00  0.00     0.018 C 
ATOM      4  C   UNL     1      44.357  21.746   8.617  1.00  0.00     0.186 C 
ATOM      5  C   UNL     1      42.170  21.539   7.415  1.00  0.00     0.059 C 
ATOM      6  O   UNL     1      43.684  21.719   9.838  1.00  0.00    -0.472 OA
ATOM      7  C   UNL     1      41.519  21.348   8.808  1.00  0.00     0.105 C 
ATOM      8  C   UNL     1      41.771  20.263   6.646  1.00  0.00     0.154 C 
ATOM      9  C   UNL     1      41.396  19.829   9.011  1.00  0.00     0.130 C 
ATOM     10  C   UNL     1      41.509  19.180   7.691  1.00  0.00     0.183 C 
ATOM     11  O   UNL     1      42.525  19.055   8.665  1.00  0.00    -0.360 OA
BRANCH   8  12
ATOM     12  O   UNL     1      42.710  19.861   5.677  1.00  0.00    -0.390 OA
ATOM     13  H   UNL     1      42.969  20.660   5.146  1.00  0.00     0.211 HD
ENDBRANCH   8  12
BRANCH   9  14
ATOM     14  C   UNL     1      40.356  19.186   9.942  1.00  0.00     0.195 C 
BRANCH  14  15
ATOM     15  O   UNL     1      39.265  20.042  10.157  1.00  0.00    -0.393 OA
ATOM     16  H   UNL     1      39.532  20.938   9.821  1.00  0.00     0.210 HD
ENDBRANCH  14  15
ENDBRANCH   9  14
ENDBRANCH   1   2
BRANCH   1  17
ATOM     17  C   UNL     1      42.870  21.279  12.052  1.00  0.00     0.286 C 
ATOM     18  C   UNL     1      42.784  21.976  13.422  1.00  0.00     0.202 C 
ATOM     19  O   UNL     1      42.855  19.865  12.207  1.00  0.00    -0.341 OA
ATOM     20  C   UNL     1      41.526  21.505  14.175  1.00  0.00     0.179 C 
ATOM     21  C   UNL     1      41.640  19.410  12.786  1.00  0.00     0.178 C 
ATOM     22  C   UNL     1      41.473  19.972  14.217  1.00  0.00     0.177 C 
BRANCH  18  23
ATOM     23  O   UNL     1      43.941  21.671  14.162  1.00  0.00    -0.385 OA
ATOM     24  H   UNL     1      44.521  21.116  13.580  1.00  0.00     0.211 HD
ENDBRANCH  18  23
BRANCH  20  25
ATOM     25  O   UNL     1      41.517  22.011  15.485  1.00  0.00    -0.387 OA
ATOM     26  H   UNL     1      41.372  21.237  16.089  1.00  0.00     0.211 HD
ENDBRANCH  20  25
BRANCH  21  27
ATOM     27  C   UNL     1      41.661  17.877  12.799  1.00  0.00     0.191 C 
BRANCH  27  28
ATOM     28  O   UNL     1      42.911  17.426  13.241  1.00  0.00    -0.394 OA
ATOM     29  H   UNL     1      43.000  16.496  12.909  1.00  0.00     0.210 HD
ENDBRANCH  27  28
ENDBRANCH  21  27
BRANCH  22  30
ATOM     30  O   UNL     1      40.234  19.576  14.751  1.00  0.00    -0.387 OA
ATOM     31  H   UNL     1      39.712  20.400  14.927  1.00  0.00     0.211 HD
ENDBRANCH  22  30
ENDBRANCH   1  17
TORSDOF 10
ENDMDL
MODEL 5
REMARK VINA RESULT:    -3.684      1.599      5.764
REMARK INTER + INTRA:          -5.674
REMARK INTER:                  -5.460
REMARK INTRA:                  -0.214
REMARK UNBOUND:                -0.483
REMARK SMILES OC[C@@H]1O[C@@H](O[C@H]2OC=C[C@H]3[C@@H](O)[C@H]4O[C@@]4(CO)[C@@H]23)[C@H](O)[C@H](O)[C@H]1O
REMARK SMILES IDX 6 1 7 2 10 3 9 4 11 5 8 6 19 7 12 8 16 9 14 10 15 11 13 12
REMARK SMILES IDX 17 14 18 15 5 17 20 18 4 19 22 20 3 21 24 22 21 23 23 25
REMARK SMILES IDX 2 27 1 28 25 30
REMARK H PARENT 13 13 18 16 21 24 23 26 1 29 25 31
REMARK Flexibility Score: inf
ROOT
ATOM      1  O   UNL     1      43.745  20.923  10.023  1.00  0.00    -0.310 OA
ENDROOT
BRANCH   1   2
ATOM      2  C   UNL     1      43.685  21.477  11.327  1.00  0.00     0.315 C 
ATOM      3  C   UNL     1      42.473  22.476  13.684  1.00  0.00     0.018 C 
ATOM      4  C   UNL     1      42.326  23.125  12.528  1.00  0.00     0.186 C 
ATOM      5  C   UNL     1      42.989  21.047  13.758  1.00  0.00     0.059 C 
ATOM      6  O   UNL     1      42.745  22.545  11.331  1.00  0.00    -0.472 OA
ATOM      7  C   UNL     1      43.272  20.418  12.370  1.00  0.00     0.105 C 
ATOM      8  C   UNL     1      41.950  20.096  14.385  1.00  0.00     0.154 C 
ATOM      9  C   UNL     1      42.005  19.631  11.997  1.00  0.00     0.130 C 
ATOM     10  C   UNL     1      41.228  19.403  13.231  1.00  0.00     0.183 C 
ATOM     11  O   UNL     1      40.772  20.281  12.222  1.00  0.00    -0.360 OA
BRANCH   8  12
ATOM     12  O   UNL     1      41.060  20.727  15.276  1.00  0.00    -0.390 OA
ATOM     13  H   UNL     1      41.442  20.665  16.191  1.00  0.00     0.211 HD
ENDBRANCH   8  12
BRANCH   9  14
ATOM     14  C   UNL     1      42.009  18.439  11.027  1.00  0.00     0.195 C 
BRANCH  14  15
ATOM     15  O   UNL     1      40.795  18.344  10.329  1.00  0.00    -0.393 OA
ATOM     16  H   UNL     1      40.109  18.801  10.883  1.00  0.00     0.210 HD
ENDBRANCH  14  15
ENDBRANCH   9  14
ENDBRANCH   1   2
BRANCH   1  17
ATOM     17  C   UNL     1      43.391  21.882   9.038  1.00  0.00     0.286 C 
ATOM     18  C   UNL     1      43.695  21.338   7.631  1.00  0.00     0.202 C 
ATOM     19  O   UNL     1      42.025  22.263   9.144  1.00  0.00    -0.341 OA
ATOM     20  C   UNL     1      42.755  20.162   7.305  1.00  0.00     0.179 C 
ATOM     21  C   UNL     1      41.152  21.156   8.970  1.00  0.00     0.178 C 
ATOM     22  C   UNL     1      41.295  20.565   7.548  1.00  0.00     0.177 C 
BRANCH  18  23
ATOM     23  O   UNL     1      43.526  22.374   6.695  1.00  0.00    -0.385 OA
ATOM     24  H   UNL     1      42.863  23.005   7.076  1.00  0.00     0.211 HD
ENDBRANCH  18  23
BRANCH  20  25
ATOM     25  O   UNL     1      42.916  19.759   5.969  1.00  0.00    -0.387 OA
ATOM     26  H   UNL     1      42.288  19.004   5.821  1.00  0.00     0.211 HD
ENDBRANCH  20  25
BRANCH  21  27
ATOM     27  C   UNL     1      39.717  21.632   9.223  1.00  0.00     0.191 C 
BRANCH  27  28
ATOM     28  O   UNL     1      38.997  20.629   9.884  1.00  0.00    -0.394 OA
ATOM     29  H   UNL     1      39.284  19.771   9.478  1.00  0.00     0.210 HD
ENDBRANCH  27  28
ENDBRANCH  21  27
BRANCH  22  30
ATOM     30  O   UNL     1      40.482  19.425   7.412  1.00  0.00    -0.387 OA
ATOM     31  H   UNL     1      40.771  18.954   6.589  1.00  0.00     0.211 HD
ENDBRANCH  22  30
ENDBRANCH   1  17
TORSDOF 10
ENDMDL
MODEL 6
REMARK VINA RESULT:    -3.561      2.275      5.656
REMARK INTER + INTRA:          -5.501
REMARK INTER:                  -5.519
REMARK INTRA:                   0.018
REMARK UNBOUND:                -0.483
REMARK SMILES OC[C@@H]1O[C@@H](O[C@H]2OC=C[C@H]3[C@@H](O)[C@H]4O[C@@]4(CO)[C@@H]23)[C@H](O)[C@H](O)[C@H]1O
REMARK SMILES IDX 6 1 7 2 10 3 9 4 11 5 8 6 19 7 12 8 16 9 14 10 15 11 13 12
REMARK SMILES IDX 17 14 18 15 5 17 20 18 4 19 22 20 3 21 24 22 21 23 23 25
REMARK SMILES IDX 2 27 1 28 25 30
REMARK H PARENT 13 13 18 16 21 24 23 26 1 29 25 31
REMARK Flexibility Score: inf
ROOT
ATOM      1  O   UNL     1      41.075  18.284  11.930  1.00  0.00    -0.310 OA
ENDROOT
BRANCH   1   2
ATOM      2  C   UNL     1      40.855  19.497  12.631  1.00  0.00     0.315 C 
ATOM      3  C   UNL     1      41.171  21.413  14.692  1.00  0.00     0.018 C 
ATOM      4  C   UNL     1      40.637  20.222  14.961  1.00  0.00     0.186 C 
ATOM      5  C   UNL     1      41.925  21.696  13.402  1.00  0.00     0.059 C 
ATOM      6  O   UNL     1      40.657  19.203  14.009  1.00  0.00    -0.472 OA
ATOM      7  C   UNL     1      42.048  20.463  12.472  1.00  0.00     0.105 C 
ATOM      8  C   UNL     1      43.390  22.098  13.671  1.00  0.00     0.154 C 
ATOM      9  C   UNL     1      43.413  19.831  12.787  1.00  0.00     0.130 C 
ATOM     10  C   UNL     1      44.237  20.842  13.477  1.00  0.00     0.183 C 
ATOM     11  O   UNL     1      43.746  19.702  14.152  1.00  0.00    -0.360 OA
BRANCH   8  12
ATOM     12  O   UNL     1      43.597  22.700  14.927  1.00  0.00    -0.390 OA
ATOM     13  H   UNL     1      43.090  22.181  15.607  1.00  0.00     0.211 HD
ENDBRANCH   8  12
BRANCH   9  14
ATOM     14  C   UNL     1      44.191  18.963  11.784  1.00  0.00     0.195 C 
BRANCH  14  15
ATOM     15  O   UNL     1      43.831  17.611  11.893  1.00  0.00    -0.393 OA
ATOM     16  H   UNL     1      42.947  17.584  12.345  1.00  0.00     0.210 HD
ENDBRANCH  14  15
ENDBRANCH   9  14
ENDBRANCH   1   2
BRANCH   1  17
ATOM     17  C   UNL     1      40.046  18.043  10.982  1.00  0.00     0.286 C 
ATOM     18  C   UNL     1      39.309  19.352  10.650  1.00  0.00     0.202 C 
ATOM     19  O   UNL     1      40.554  17.439   9.798  1.00  0.00    -0.341 OA
ATOM     20  C   UNL     1      40.247  20.308   9.888  1.00  0.00     0.179 C 
ATOM     21  C   UNL     1      41.517  18.262   9.157  1.00  0.00     0.178 C 
ATOM     22  C   UNL     1      40.877  19.589   8.687  1.00  0.00     0.177 C 
BRANCH  18  23
ATOM     23  O   UNL     1      38.176  19.053   9.871  1.00  0.00    -0.385 OA
ATOM     24  H   UNL     1      37.389  19.096  10.474  1.00  0.00     0.211 HD
ENDBRANCH  18  23
BRANCH  20  25
ATOM     25  O   UNL     1      39.543  21.438   9.443  1.00  0.00    -0.387 OA
ATOM     26  H   UNL     1      39.296  21.267   8.497  1.00  0.00     0.211 HD
ENDBRANCH  20  25
BRANCH  21  27
ATOM     27  C   UNL     1      42.098  17.485   7.970  1.00  0.00     0.191 C 
BRANCH  27  28
ATOM     28  O   UNL     1      42.363  18.366   6.914  1.00  0.00    -0.394 OA
ATOM     29  H   UNL     1      43.037  19.008   7.255  1.00  0.00     0.210 HD
ENDBRANCH  27  28
ENDBRANCH  21  27
BRANCH  22  30
ATOM     30  O   UNL     1      41.855  20.426   8.121  1.00  0.00    -0.387 OA
ATOM     31  H   UNL     1      41.860  20.255   7.144  1.00  0.00     0.211 HD
ENDBRANCH  22  30
ENDBRANCH   1  17
TORSDOF 10
ENDMDL
MODEL 7
REMARK VINA RESULT:    -3.307      1.812      4.114
REMARK INTER + INTRA:          -5.143
REMARK INTER:                  -4.823
REMARK INTRA:                  -0.320
REMARK UNBOUND:                -0.483
REMARK SMILES OC[C@@H]1O[C@@H](O[C@H]2OC=C[C@H]3[C@@H](O)[C@H]4O[C@@]4(CO)[C@@H]23)[C@H](O)[C@H](O)[C@H]1O
REMARK SMILES IDX 6 1 7 2 10 3 9 4 11 5 8 6 19 7 12 8 16 9 14 10 15 11 13 12
REMARK SMILES IDX 17 14 18 15 5 17 20 18 4 19 22 20 3 21 24 22 21 23 23 25
REMARK SMILES IDX 2 27 1 28 25 30
REMARK H PARENT 13 13 18 16 21 24 23 26 1 29 25 31
REMARK Flexibility Score: inf
ROOT
ATOM      1  O   UNL     1      43.981  19.834  10.755  1.00  0.00    -0.310 OA
ENDROOT
BRANCH   1   2
ATOM      2  C   UNL     1      43.157  20.969  10.547  1.00  0.00     0.315 C 
ATOM      3  C   UNL     1      41.693  22.896   9.076  1.00  0.00     0.018 C 
ATOM      4  C   UNL     1      43.021  22.836   8.966  1.00  0.00     0.186 C 
ATOM      5  C   UNL     1      40.875  21.776   9.699  1.00  0.00     0.059 C 
ATOM      6  O   UNL     1      43.732  21.775   9.525  1.00  0.00    -0.472 OA
ATOM      7  C   UNL     1      41.726  20.559  10.142  1.00  0.00     0.105 C 
ATOM      8  C   UNL     1      39.870  21.174   8.696  1.00  0.00     0.154 C 
ATOM      9  C   UNL     1      41.666  19.557   8.977  1.00  0.00     0.130 C 
ATOM     10  C   UNL     1      40.513  19.911   8.127  1.00  0.00     0.183 C 
ATOM     11  O   UNL     1      41.842  20.088   7.681  1.00  0.00    -0.360 OA
BRANCH   8  12
ATOM     12  O   UNL     1      39.458  22.070   7.690  1.00  0.00    -0.390 OA
ATOM     13  H   UNL     1      38.524  21.845   7.438  1.00  0.00     0.211 HD
ENDBRANCH   8  12
BRANCH   9  14
ATOM     14  C   UNL     1      41.875  18.045   9.156  1.00  0.00     0.195 C 
BRANCH  14  15
ATOM     15  O   UNL     1      40.903  17.493  10.004  1.00  0.00    -0.393 OA
ATOM     16  H   UNL     1      40.715  16.577   9.670  1.00  0.00     0.210 HD
ENDBRANCH  14  15
ENDBRANCH   9  14
ENDBRANCH   1   2
BRANCH   1  17
ATOM     17  C   UNL     1      44.328  19.693  12.124  1.00  0.00     0.286 C 
ATOM     18  C   UNL     1      43.113  20.000  13.017  1.00  0.00     0.202 C 
ATOM     19  O   UNL     1      44.843  18.397  12.405  1.00  0.00    -0.341 OA
ATOM     20  C   UNL     1      42.035  18.914  12.833  1.00  0.00     0.179 C 
ATOM     21  C   UNL     1      43.895  17.378  12.115  1.00  0.00     0.178 C 
ATOM     22  C   UNL     1      42.648  17.520  13.019  1.00  0.00     0.177 C 
BRANCH  18  23
ATOM     23  O   UNL     1      43.533  20.050  14.358  1.00  0.00    -0.385 OA
ATOM     24  H   UNL     1      43.207  20.908  14.734  1.00  0.00     0.211 HD
ENDBRANCH  18  23
BRANCH  20  25
ATOM     25  O   UNL     1      40.991  19.096  13.754  1.00  0.00    -0.387 OA
ATOM     26  H   UNL     1      41.228  18.570  14.562  1.00  0.00     0.211 HD
ENDBRANCH  20  25
BRANCH  21  27
ATOM     27  C   UNL     1      44.572  16.019  12.326  1.00  0.00     0.191 C 
BRANCH  27  28
ATOM     28  O   UNL     1      44.548  15.687  13.687  1.00  0.00    -0.394 OA
ATOM     29  H   UNL     1      45.440  15.307  13.892  1.00  0.00     0.210 HD
ENDBRANCH  27  28
ENDBRANCH  21  27
BRANCH  22  30
ATOM     30  O   UNL     1      41.686  16.553  12.673  1.00  0.00    -0.387 OA
ATOM     31  H   UNL     1      41.086  16.963  11.998  1.00  0.00     0.211 HD
ENDBRANCH  22  30
ENDBRANCH   1  17
TORSDOF 10
ENDMDL
MODEL 8
REMARK VINA RESULT:    -2.233     18.061     20.665
REMARK INTER + INTRA:          -3.629
REMARK INTER:                  -2.468
REMARK INTRA:                  -1.161
REMARK UNBOUND:                -0.483
REMARK SMILES OC[C@@H]1O[C@@H](O[C@H]2OC=C[C@H]3[C@@H](O)[C@H]4O[C@@]4(CO)[C@@H]23)[C@H](O)[C@H](O)[C@H]1O
REMARK SMILES IDX 6 1 7 2 10 3 9 4 11 5 8 6 19 7 12 8 16 9 14 10 15 11 13 12
REMARK SMILES IDX 17 14 18 15 5 17 20 18 4 19 22 20 3 21 24 22 21 23 23 25
REMARK SMILES IDX 2 27 1 28 25 30
REMARK H PARENT 13 13 18 16 21 24 23 26 1 29 25 31
REMARK Flexibility Score: inf
ROOT
ATOM      1  O   UNL     1      32.359   3.730  19.378  1.00  0.00    -0.310 OA
ENDROOT
BRANCH   1   2
ATOM      2  C   UNL     1      32.994   3.151  18.249  1.00  0.00     0.315 C 
ATOM      3  C   UNL     1      33.844   2.942  15.556  1.00  0.00     0.018 C 
ATOM      4  C   UNL     1      32.545   2.904  15.854  1.00  0.00     0.186 C 
ATOM      5  C   UNL     1      34.895   3.418  16.548  1.00  0.00     0.059 C 
ATOM      6  O   UNL     1      32.102   3.203  17.142  1.00  0.00    -0.472 OA
ATOM      7  C   UNL     1      34.302   3.892  17.899  1.00  0.00     0.105 C 
ATOM      8  C   UNL     1      35.654   4.655  16.028  1.00  0.00     0.154 C 
ATOM      9  C   UNL     1      34.147   5.417  17.780  1.00  0.00     0.130 C 
ATOM     10  C   UNL     1      35.002   5.878  16.669  1.00  0.00     0.183 C 
ATOM     11  O   UNL     1      33.592   5.900  16.575  1.00  0.00    -0.360 OA
BRANCH   8  12
ATOM     12  O   UNL     1      35.706   4.746  14.623  1.00  0.00    -0.390 OA
ATOM     13  H   UNL     1      36.515   4.261  14.311  1.00  0.00     0.211 HD
ENDBRANCH   8  12
BRANCH   9  14
ATOM     14  C   UNL     1      34.130   6.358  18.995  1.00  0.00     0.195 C 
BRANCH  14  15
ATOM     15  O   UNL     1      34.140   5.637  20.199  1.00  0.00    -0.393 OA
ATOM     16  H   UNL     1      34.889   5.995  20.743  1.00  0.00     0.210 HD
ENDBRANCH  14  15
ENDBRANCH   9  14
ENDBRANCH   1   2
BRANCH   1  17
ATOM     17  C   UNL     1      30.950   3.773  19.211  1.00  0.00     0.286 C 
ATOM     18  C   UNL     1      30.248   3.177  20.444  1.00  0.00     0.202 C 
ATOM     19  O   UNL     1      30.491   5.096  18.963  1.00  0.00    -0.341 OA
ATOM     20  C   UNL     1      30.468   4.087  21.668  1.00  0.00     0.179 C 
ATOM     21  C   UNL     1      30.804   5.973  20.036  1.00  0.00     0.178 C 
ATOM     22  C   UNL     1      30.081   5.533  21.331  1.00  0.00     0.177 C 
BRANCH  18  23
ATOM     23  O   UNL     1      28.875   3.048  20.170  1.00  0.00    -0.385 OA
ATOM     24  H   UNL     1      28.721   3.432  19.269  1.00  0.00     0.211 HD
ENDBRANCH  18  23
BRANCH  20  25
ATOM     25  O   UNL     1      29.706   3.639  22.759  1.00  0.00    -0.387 OA
ATOM     26  H   UNL     1      29.072   2.961  22.405  1.00  0.00     0.211 HD
ENDBRANCH  20  25
BRANCH  21  27
ATOM     27  C   UNL     1      30.387   7.392  19.633  1.00  0.00     0.191 C 
BRANCH  27  28
ATOM     28  O   UNL     1      29.111   7.671  20.138  1.00  0.00    -0.394 OA
ATOM     29  H   UNL     1      28.469   7.287  19.488  1.00  0.00     0.210 HD
ENDBRANCH  27  28
ENDBRANCH  21  27
BRANCH  22  30
ATOM     30  O   UNL     1      30.456   6.364  22.402  1.00  0.00    -0.387 OA
ATOM     31  H   UNL     1      31.381   6.674  22.224  1.00  0.00     0.211 HD
ENDBRANCH  22  30
ENDBRANCH   1  17
TORSDOF 10
ENDMDL
