MODEL 1
REMARK VINA RESULT:    -2.809      0.000      0.000
REMARK INTER + INTRA:          -3.387
REMARK INTER:                  -3.384
REMARK INTRA:                  -0.003
REMARK UNBOUND:                -0.003
REMARK SMILES OCC(O)CO
REMARK SMILES IDX 3 1 5 2 6 3 2 5 1 6 4 8
REMARK H PARENT 6 4 1 7 4 9
REMARK Flexibility Score: inf
ROOT
ATOM      1  C   UNL     1      -4.622  -4.231   4.395  1.00  0.00     0.165 C 
ENDROOT
BRANCH   1   2
ATOM      2  C   UNL     1      -3.769  -3.556   5.482  1.00  0.00     0.190 C 
BRANCH   2   3
ATOM      3  O   UNL     1      -4.119  -2.205   5.630  1.00  0.00    -0.394 OA
ATOM      4  H   UNL     1      -5.020  -2.095   5.227  1.00  0.00     0.210 HD
ENDBRANCH   2   3
ENDBRANCH   1   2
BRANCH   1   5
ATOM      5  C   UNL     1      -3.924  -5.467   3.820  1.00  0.00     0.190 C 
BRANCH   5   6
ATOM      6  O   UNL     1      -3.434  -5.177   2.541  1.00  0.00    -0.394 OA
ATOM      7  H   UNL     1      -2.916  -5.976   2.256  1.00  0.00     0.210 HD
ENDBRANCH   5   6
ENDBRANCH   1   5
BRANCH   1   8
ATOM      8  O   UNL     1      -4.891  -3.323   3.358  1.00  0.00    -0.388 OA
ATOM      9  H   UNL     1      -5.878  -3.214   3.321  1.00  0.00     0.211 HD
ENDBRANCH   1   8
TORSDOF 5
ENDMDL
MODEL 2
REMARK VINA RESULT:    -2.787      1.340      2.662
REMARK INTER + INTRA:          -3.360
REMARK INTER:                  -3.138
REMARK INTRA:                  -0.222
REMARK UNBOUND:                -0.003
REMARK SMILES OCC(O)CO
REMARK SMILES IDX 3 1 5 2 6 3 2 5 1 6 4 8
REMARK H PARENT 6 4 1 7 4 9
REMARK Flexibility Score: inf
ROOT
ATOM      1  C   UNL     1      -4.296  -4.171   4.429  1.00  0.00     0.165 C 
ENDROOT
BRANCH   1   2
ATOM      2  C   UNL     1      -5.467  -5.052   4.896  1.00  0.00     0.190 C 
BRANCH   2   3
ATOM      3  O   UNL     1      -6.308  -4.348   5.773  1.00  0.00    -0.394 OA
ATOM      4  H   UNL     1      -6.082  -4.649   6.692  1.00  0.00     0.210 HD
ENDBRANCH   2   3
ENDBRANCH   1   2
BRANCH   1   5
ATOM      5  C   UNL     1      -3.651  -3.427   5.602  1.00  0.00     0.190 C 
BRANCH   5   6
ATOM      6  O   UNL     1      -4.267  -2.180   5.763  1.00  0.00    -0.394 OA
ATOM      7  H   UNL     1      -4.508  -2.113   6.724  1.00  0.00     0.210 HD
ENDBRANCH   5   6
ENDBRANCH   1   5
BRANCH   1   8
ATOM      8  O   UNL     1      -4.741  -3.242   3.475  1.00  0.00    -0.388 OA
ATOM      9  H   UNL     1      -4.164  -3.356   2.674  1.00  0.00     0.211 HD
ENDBRANCH   1   8
TORSDOF 5
ENDMDL
MODEL 3
REMARK VINA RESULT:    -2.750      1.278      3.052
REMARK INTER + INTRA:          -3.315
REMARK INTER:                  -3.093
REMARK INTRA:                  -0.222
REMARK UNBOUND:                -0.003
REMARK SMILES OCC(O)CO
REMARK SMILES IDX 3 1 5 2 6 3 2 5 1 6 4 8
REMARK H PARENT 6 4 1 7 4 9
REMARK Flexibility Score: inf
ROOT
ATOM      1  C   UNL     1      -3.654  -5.033   4.886  1.00  0.00     0.165 C 
ENDROOT
BRANCH   1   2
ATOM      2  C   UNL     1      -4.148  -5.782   3.637  1.00  0.00     0.190 C 
BRANCH   2   3
ATOM      3  O   UNL     1      -3.286  -5.570   2.549  1.00  0.00    -0.394 OA
ATOM      4  H   UNL     1      -2.373  -5.815   2.853  1.00  0.00     0.210 HD
ENDBRANCH   2   3
ENDBRANCH   1   2
BRANCH   1   5
ATOM      5  C   UNL     1      -4.035  -3.550   4.839  1.00  0.00     0.190 C 
BRANCH   5   6
ATOM      6  O   UNL     1      -4.668  -3.266   3.623  1.00  0.00    -0.394 OA
ATOM      7  H   UNL     1      -5.562  -3.696   3.670  1.00  0.00     0.210 HD
ENDBRANCH   5   6
ENDBRANCH   1   5
BRANCH   1   8
ATOM      8  O   UNL     1      -2.260  -5.153   5.001  1.00  0.00    -0.388 OA
ATOM      9  H   UNL     1      -1.892  -5.127   4.078  1.00  0.00     0.211 HD
ENDBRANCH   1   8
TORSDOF 5
ENDMDL
MODEL 4
REMARK VINA RESULT:    -2.729      1.266      2.320
REMARK INTER + INTRA:          -3.290
REMARK INTER:                  -3.260
REMARK INTRA:                  -0.031
REMARK UNBOUND:                -0.003
REMARK SMILES OCC(O)CO
REMARK SMILES IDX 3 1 5 2 6 3 2 5 1 6 4 8
REMARK H PARENT 6 4 1 7 4 9
REMARK Flexibility Score: inf
ROOT
ATOM      1  C   UNL     1      -4.006  -3.662   5.639  1.00  0.00     0.165 C 
ENDROOT
BRANCH   1   2
ATOM      2  C   UNL     1      -2.541  -4.095   5.815  1.00  0.00     0.190 C 
BRANCH   2   3
ATOM      3  O   UNL     1      -2.252  -5.223   5.031  1.00  0.00    -0.394 OA
ATOM      4  H   UNL     1      -2.789  -5.142   4.199  1.00  0.00     0.210 HD
ENDBRANCH   2   3
ENDBRANCH   1   2
BRANCH   1   5
ATOM      5  C   UNL     1      -4.625  -4.275   4.379  1.00  0.00     0.190 C 
BRANCH   5   6
ATOM      6  O   UNL     1      -4.823  -3.275   3.418  1.00  0.00    -0.394 OA
ATOM      7  H   UNL     1      -4.346  -3.580   2.602  1.00  0.00     0.210 HD
ENDBRANCH   5   6
ENDBRANCH   1   5
BRANCH   1   8
ATOM      8  O   UNL     1      -4.091  -2.262   5.567  1.00  0.00    -0.388 OA
ATOM      9  H   UNL     1      -3.710  -1.908   6.413  1.00  0.00     0.211 HD
ENDBRANCH   1   8
TORSDOF 5
ENDMDL
MODEL 5
REMARK VINA RESULT:    -2.628      1.441      2.924
REMARK INTER + INTRA:          -3.169
REMARK INTER:                  -2.967
REMARK INTRA:                  -0.201
REMARK UNBOUND:                -0.003
REMARK SMILES OCC(O)CO
REMARK SMILES IDX 3 1 5 2 6 3 2 5 1 6 4 8
REMARK H PARENT 6 4 1 7 4 9
REMARK Flexibility Score: inf
ROOT
ATOM      1  C   UNL     1      -3.991  -3.493   5.739  1.00  0.00     0.165 C 
ENDROOT
BRANCH   1   2
ATOM      2  C   UNL     1      -4.103  -4.124   4.341  1.00  0.00     0.190 C 
BRANCH   2   3
ATOM      3  O   UNL     1      -4.865  -3.317   3.483  1.00  0.00    -0.394 OA
ATOM      4  H   UNL     1      -4.880  -3.769   2.599  1.00  0.00     0.210 HD
ENDBRANCH   2   3
ENDBRANCH   1   2
BRANCH   1   5
ATOM      5  C   UNL     1      -4.997  -4.110   6.716  1.00  0.00     0.190 C 
BRANCH   5   6
ATOM      6  O   UNL     1      -6.260  -4.169   6.115  1.00  0.00    -0.394 OA
ATOM      7  H   UNL     1      -6.535  -3.228   5.957  1.00  0.00     0.210 HD
ENDBRANCH   5   6
ENDBRANCH   1   5
BRANCH   1   8
ATOM      8  O   UNL     1      -4.206  -2.107   5.662  1.00  0.00    -0.388 OA
ATOM      9  H   UNL     1      -3.986  -1.834   4.732  1.00  0.00     0.211 HD
ENDBRANCH   1   8
TORSDOF 5
ENDMDL
MODEL 6
REMARK VINA RESULT:    -2.623      1.349      2.240
REMARK INTER + INTRA:          -3.163
REMARK INTER:                  -2.959
REMARK INTRA:                  -0.204
REMARK UNBOUND:                -0.003
REMARK SMILES OCC(O)CO
REMARK SMILES IDX 3 1 5 2 6 3 2 5 1 6 4 8
REMARK H PARENT 6 4 1 7 4 9
REMARK Flexibility Score: inf
ROOT
ATOM      1  C   UNL     1      -4.053  -5.688   3.779  1.00  0.00     0.165 C 
ENDROOT
BRANCH   1   2
ATOM      2  C   UNL     1      -4.999  -4.536   4.156  1.00  0.00     0.190 C 
BRANCH   2   3
ATOM      3  O   UNL     1      -4.559  -3.322   3.604  1.00  0.00    -0.394 OA
ATOM      4  H   UNL     1      -3.925  -2.923   4.256  1.00  0.00     0.210 HD
ENDBRANCH   2   3
ENDBRANCH   1   2
BRANCH   1   5
ATOM      5  C   UNL     1      -3.018  -5.947   4.878  1.00  0.00     0.190 C 
BRANCH   5   6
ATOM      6  O   UNL     1      -2.297  -4.774   5.130  1.00  0.00    -0.394 OA
ATOM      7  H   UNL     1      -1.521  -5.041   5.689  1.00  0.00     0.210 HD
ENDBRANCH   5   6
ENDBRANCH   1   5
BRANCH   1   8
ATOM      8  O   UNL     1      -3.392  -5.397   2.575  1.00  0.00    -0.388 OA
ATOM      9  H   UNL     1      -3.841  -5.928   1.866  1.00  0.00     0.211 HD
ENDBRANCH   1   8
TORSDOF 5
ENDMDL
MODEL 7
REMARK VINA RESULT:    -2.599     10.171     10.285
REMARK INTER + INTRA:          -3.133
REMARK INTER:                  -2.918
REMARK INTRA:                  -0.215
REMARK UNBOUND:                -0.003
REMARK SMILES OCC(O)CO
REMARK SMILES IDX 3 1 5 2 6 3 2 5 1 6 4 8
REMARK H PARENT 6 4 1 7 4 9
REMARK Flexibility Score: inf
ROOT
ATOM      1  C   UNL     1      -2.189   4.441  -1.918  1.00  0.00     0.165 C 
ENDROOT
BRANCH   1   2
ATOM      2  C   UNL     1      -3.675   4.833  -1.865  1.00  0.00     0.190 C 
BRANCH   2   3
ATOM      3  O   UNL     1      -4.480   3.718  -1.582  1.00  0.00    -0.394 OA
ATOM      4  H   UNL     1      -4.674   3.742  -0.609  1.00  0.00     0.210 HD
ENDBRANCH   2   3
ENDBRANCH   1   2
BRANCH   1   5
ATOM      5  C   UNL     1      -1.852   3.687  -3.207  1.00  0.00     0.190 C 
BRANCH   5   6
ATOM      6  O   UNL     1      -2.220   2.342  -3.074  1.00  0.00    -0.394 OA
ATOM      7  H   UNL     1      -1.635   1.834  -3.696  1.00  0.00     0.210 HD
ENDBRANCH   5   6
ENDBRANCH   1   5
BRANCH   1   8
ATOM      8  O   UNL     1      -1.860   3.643  -0.811  1.00  0.00    -0.388 OA
ATOM      9  H   UNL     1      -0.876   3.504  -0.839  1.00  0.00     0.211 HD
ENDBRANCH   1   8
TORSDOF 5
ENDMDL
MODEL 8
REMARK VINA RESULT:    -2.594     10.156     10.382
REMARK INTER + INTRA:          -3.127
REMARK INTER:                  -2.904
REMARK INTRA:                  -0.224
REMARK UNBOUND:                -0.003
REMARK SMILES OCC(O)CO
REMARK SMILES IDX 3 1 5 2 6 3 2 5 1 6 4 8
REMARK H PARENT 6 4 1 7 4 9
REMARK Flexibility Score: inf
ROOT
ATOM      1  C   UNL     1      -2.251   3.643  -3.172  1.00  0.00     0.165 C 
ENDROOT
BRANCH   1   2
ATOM      2  C   UNL     1      -1.554   4.269  -1.953  1.00  0.00     0.190 C 
BRANCH   2   3
ATOM      3  O   UNL     1      -1.915   3.605  -0.770  1.00  0.00    -0.394 OA
ATOM      4  H   UNL     1      -1.744   4.235  -0.022  1.00  0.00     0.210 HD
ENDBRANCH   2   3
ENDBRANCH   1   2
BRANCH   1   5
ATOM      5  C   UNL     1      -3.714   4.086  -3.271  1.00  0.00     0.190 C 
BRANCH   5   6
ATOM      6  O   UNL     1      -4.447   3.524  -2.218  1.00  0.00    -0.394 OA
ATOM      7  H   UNL     1      -4.616   4.262  -1.575  1.00  0.00     0.210 HD
ENDBRANCH   5   6
ENDBRANCH   1   5
BRANCH   1   8
ATOM      8  O   UNL     1      -2.192   2.242  -3.096  1.00  0.00    -0.388 OA
ATOM      9  H   UNL     1      -2.136   2.009  -2.132  1.00  0.00     0.211 HD
ENDBRANCH   1   8
TORSDOF 5
ENDMDL
MODEL 9
REMARK VINA RESULT:    -2.566     10.159     10.450
REMARK INTER + INTRA:          -3.094
REMARK INTER:                  -2.891
REMARK INTRA:                  -0.203
REMARK UNBOUND:                -0.003
REMARK SMILES OCC(O)CO
REMARK SMILES IDX 3 1 5 2 6 3 2 5 1 6 4 8
REMARK H PARENT 6 4 1 7 4 9
REMARK Flexibility Score: inf
ROOT
ATOM      1  C   UNL     1      -3.375   4.279  -2.533  1.00  0.00     0.165 C 
ENDROOT
BRANCH   1   2
ATOM      2  C   UNL     1      -3.114   3.216  -3.613  1.00  0.00     0.190 C 
BRANCH   2   3
ATOM      3  O   UNL     1      -2.221   2.236  -3.151  1.00  0.00    -0.394 OA
ATOM      4  H   UNL     1      -2.544   1.952  -2.256  1.00  0.00     0.210 HD
ENDBRANCH   2   3
ENDBRANCH   1   2
BRANCH   1   5
ATOM      5  C   UNL     1      -2.097   4.618  -1.759  1.00  0.00     0.190 C 
BRANCH   5   6
ATOM      6  O   UNL     1      -1.863   3.637  -0.787  1.00  0.00    -0.394 OA
ATOM      7  H   UNL     1      -2.489   2.894  -0.989  1.00  0.00     0.210 HD
ENDBRANCH   5   6
ENDBRANCH   1   5
BRANCH   1   8
ATOM      8  O   UNL     1      -4.357   3.828  -1.638  1.00  0.00    -0.388 OA
ATOM      9  H   UNL     1      -5.237   4.074  -2.029  1.00  0.00     0.211 HD
ENDBRANCH   1   8
TORSDOF 5
ENDMDL
