MODEL 1
REMARK VINA RESULT:    -2.735      0.000      0.000
REMARK INTER + INTRA:          -2.974
REMARK INTER:                  -2.974
REMARK INTRA:                   0.000
REMARK UNBOUND:                 0.000
REMARK SMILES [NH3+]CC(=O)[O-]
REMARK SMILES IDX 2 1 1 2 3 6 4 7 5 8
REMARK H PARENT 1 3 1 4 1 5
REMARK Flexibility Score: inf
ROOT
ATOM      1  C   UNL     1     -38.511  17.697 -30.557  1.00  0.00     0.312 C 
ENDROOT
BRANCH   1   2
ATOM      2  N   UNL     1     -39.134  16.774 -31.503  1.00  0.00    -0.353 N 
ATOM      3  H   UNL     1     -40.175  16.819 -31.416  1.00  0.00     0.344 HD
ATOM      4  H   UNL     1     -38.848  17.015 -32.480  1.00  0.00     0.344 HD
ATOM      5  H   UNL     1     -38.818  15.800 -31.288  1.00  0.00     0.344 HD
ENDBRANCH   1   2
BRANCH   1   6
ATOM      6  C   UNL     1     -37.260  17.103 -29.984  1.00  0.00     0.096 C 
ATOM      7  O   UNL     1     -36.195  17.773 -29.962  1.00  0.00    -0.544 OA
ATOM      8  O   UNL     1     -37.285  15.830 -29.430  1.00  0.00    -0.544 OA
ENDBRANCH   1   6
TORSDOF 2
ENDMDL
MODEL 2
REMARK VINA RESULT:    -2.731      2.188      2.767
REMARK INTER + INTRA:          -2.971
REMARK INTER:                  -2.971
REMARK INTRA:                   0.000
REMARK UNBOUND:                 0.000
REMARK SMILES [NH3+]CC(=O)[O-]
REMARK SMILES IDX 2 1 1 2 3 6 4 7 5 8
REMARK H PARENT 1 3 1 4 1 5
REMARK Flexibility Score: inf
ROOT
ATOM      1  C   UNL     1     -37.439  17.156 -29.835  1.00  0.00     0.312 C 
ENDROOT
BRANCH   1   2
ATOM      2  N   UNL     1     -37.298  15.704 -29.916  1.00  0.00    -0.353 N 
ATOM      3  H   UNL     1     -38.240  15.254 -29.972  1.00  0.00     0.344 HD
ATOM      4  H   UNL     1     -36.731  15.445 -30.757  1.00  0.00     0.344 HD
ATOM      5  H   UNL     1     -36.808  15.360 -29.058  1.00  0.00     0.344 HD
ENDBRANCH   1   2
BRANCH   1   6
ATOM      6  C   UNL     1     -38.457  17.644 -30.819  1.00  0.00     0.096 C 
ATOM      7  O   UNL     1     -39.344  16.862 -31.252  1.00  0.00    -0.544 OA
ATOM      8  O   UNL     1     -38.458  18.974 -31.217  1.00  0.00    -0.544 OA
ENDBRANCH   1   6
TORSDOF 2
ENDMDL
MODEL 3
REMARK VINA RESULT:    -2.715      4.635      5.021
REMARK INTER + INTRA:          -2.953
REMARK INTER:                  -2.953
REMARK INTRA:                   0.000
REMARK UNBOUND:                 0.000
REMARK SMILES [NH3+]CC(=O)[O-]
REMARK SMILES IDX 2 1 1 2 3 6 4 7 5 8
REMARK H PARENT 1 3 1 4 1 5
REMARK Flexibility Score: inf
ROOT
ATOM      1  C   UNL     1     -39.684  19.773 -28.577  1.00  0.00     0.312 C 
ENDROOT
BRANCH   1   2
ATOM      2  N   UNL     1     -40.860  19.693 -27.713  1.00  0.00    -0.353 N 
ATOM      3  H   UNL     1     -40.575  19.433 -26.741  1.00  0.00     0.344 HD
ATOM      4  H   UNL     1     -41.360  20.612 -27.702  1.00  0.00     0.344 HD
ATOM      5  H   UNL     1     -41.507  18.960 -28.084  1.00  0.00     0.344 HD
ENDBRANCH   1   2
BRANCH   1   6
ATOM      6  C   UNL     1     -39.435  21.188 -29.002  1.00  0.00     0.096 C 
ATOM      7  O   UNL     1     -38.293  21.699 -28.861  1.00  0.00    -0.544 OA
ATOM      8  O   UNL     1     -40.449  21.922 -29.601  1.00  0.00    -0.544 OA
ENDBRANCH   1   6
TORSDOF 2
ENDMDL
MODEL 4
REMARK VINA RESULT:    -2.699     11.053     11.384
REMARK INTER + INTRA:          -2.936
REMARK INTER:                  -2.936
REMARK INTRA:                   0.000
REMARK UNBOUND:                 0.000
REMARK SMILES [NH3+]CC(=O)[O-]
REMARK SMILES IDX 2 1 1 2 3 6 4 7 5 8
REMARK H PARENT 1 3 1 4 1 5
REMARK Flexibility Score: inf
ROOT
ATOM      1  C   UNL     1     -47.333  18.318 -24.242  1.00  0.00     0.312 C 
ENDROOT
BRANCH   1   2
ATOM      2  N   UNL     1     -48.305  18.601 -23.188  1.00  0.00    -0.353 N 
ATOM      3  H   UNL     1     -48.771  17.715 -22.882  1.00  0.00     0.344 HD
ATOM      4  H   UNL     1     -47.829  19.051 -22.372  1.00  0.00     0.344 HD
ATOM      5  H   UNL     1     -49.031  19.255 -23.560  1.00  0.00     0.344 HD
ENDBRANCH   1   2
BRANCH   1   6
ATOM      6  C   UNL     1     -46.499  17.125 -23.886  1.00  0.00     0.096 C 
ATOM      7  O   UNL     1     -45.247  17.230 -23.803  1.00  0.00    -0.544 OA
ATOM      8  O   UNL     1     -47.109  15.912 -23.596  1.00  0.00    -0.544 OA
ENDBRANCH   1   6
TORSDOF 2
ENDMDL
MODEL 5
REMARK VINA RESULT:    -2.659      4.514      4.634
REMARK INTER + INTRA:          -2.893
REMARK INTER:                  -2.893
REMARK INTRA:                   0.000
REMARK UNBOUND:                 0.000
REMARK SMILES [NH3+]CC(=O)[O-]
REMARK SMILES IDX 2 1 1 2 3 6 4 7 5 8
REMARK H PARENT 1 3 1 4 1 5
REMARK Flexibility Score: inf
ROOT
ATOM      1  C   UNL     1     -39.518  21.144 -29.303  1.00  0.00     0.312 C 
ENDROOT
BRANCH   1   2
ATOM      2  N   UNL     1     -40.692  22.012 -29.238  1.00  0.00    -0.353 N 
ATOM      3  H   UNL     1     -41.215  21.977 -30.143  1.00  0.00     0.344 HD
ATOM      4  H   UNL     1     -41.318  21.711 -28.455  1.00  0.00     0.344 HD
ATOM      5  H   UNL     1     -40.381  22.995 -29.063  1.00  0.00     0.344 HD
ENDBRANCH   1   2
BRANCH   1   6
ATOM      6  C   UNL     1     -39.718  19.921 -28.460  1.00  0.00     0.096 C 
ATOM      7  O   UNL     1     -38.724  19.262 -28.057  1.00  0.00    -0.544 OA
ATOM      8  O   UNL     1     -40.998  19.540 -28.080  1.00  0.00    -0.544 OA
ENDBRANCH   1   6
TORSDOF 2
ENDMDL
MODEL 6
REMARK VINA RESULT:    -2.648      6.108      6.375
REMARK INTER + INTRA:          -2.880
REMARK INTER:                  -2.880
REMARK INTRA:                   0.000
REMARK UNBOUND:                 0.000
REMARK SMILES [NH3+]CC(=O)[O-]
REMARK SMILES IDX 2 1 1 2 3 6 4 7 5 8
REMARK H PARENT 1 3 1 4 1 5
REMARK Flexibility Score: inf
ROOT
ATOM      1  C   UNL     1     -39.154  22.858 -28.443  1.00  0.00     0.312 C 
ENDROOT
BRANCH   1   2
ATOM      2  N   UNL     1     -39.902  23.850 -27.674  1.00  0.00    -0.353 N 
ATOM      3  H   UNL     1     -40.276  24.591 -28.310  1.00  0.00     0.344 HD
ATOM      4  H   UNL     1     -40.690  23.389 -27.164  1.00  0.00     0.344 HD
ATOM      5  H   UNL     1     -39.261  24.294 -26.976  1.00  0.00     0.344 HD
ENDBRANCH   1   2
BRANCH   1   6
ATOM      6  C   UNL     1     -40.088  21.951 -29.184  1.00  0.00     0.096 C 
ATOM      7  O   UNL     1     -40.959  22.433 -29.955  1.00  0.00    -0.544 OA
ATOM      8  O   UNL     1     -39.962  20.573 -29.063  1.00  0.00    -0.544 OA
ENDBRANCH   1   6
TORSDOF 2
ENDMDL
MODEL 7
REMARK VINA RESULT:    -2.645      2.220      2.609
REMARK INTER + INTRA:          -2.877
REMARK INTER:                  -2.877
REMARK INTRA:                   0.000
REMARK UNBOUND:                 0.000
REMARK SMILES [NH3+]CC(=O)[O-]
REMARK SMILES IDX 2 1 1 2 3 6 4 7 5 8
REMARK H PARENT 1 3 1 4 1 5
REMARK Flexibility Score: inf
ROOT
ATOM      1  C   UNL     1     -38.277  17.291 -30.440  1.00  0.00     0.312 C 
ENDROOT
BRANCH   1   2
ATOM      2  N   UNL     1     -39.125  16.750 -31.500  1.00  0.00    -0.353 N 
ATOM      3  H   UNL     1     -40.034  17.267 -31.533  1.00  0.00     0.344 HD
ATOM      4  H   UNL     1     -38.639  16.828 -32.423  1.00  0.00     0.344 HD
ATOM      5  H   UNL     1     -39.316  15.741 -31.302  1.00  0.00     0.344 HD
ENDBRANCH   1   2
BRANCH   1   6
ATOM      6  C   UNL     1     -38.509  18.763 -30.278  1.00  0.00     0.096 C 
ATOM      7  O   UNL     1     -39.122  19.199 -29.268  1.00  0.00    -0.544 OA
ATOM      8  O   UNL     1     -38.003  19.654 -31.215  1.00  0.00    -0.544 OA
ENDBRANCH   1   6
TORSDOF 2
ENDMDL
MODEL 8
REMARK VINA RESULT:    -2.615      3.421      3.566
REMARK INTER + INTRA:          -2.844
REMARK INTER:                  -2.844
REMARK INTRA:                   0.000
REMARK UNBOUND:                 0.000
REMARK SMILES [NH3+]CC(=O)[O-]
REMARK SMILES IDX 2 1 1 2 3 6 4 7 5 8
REMARK H PARENT 1 3 1 4 1 5
REMARK Flexibility Score: inf
ROOT
ATOM      1  C   UNL     1     -39.839  20.150 -28.647  1.00  0.00     0.312 C 
ENDROOT
BRANCH   1   2
ATOM      2  N   UNL     1     -40.862  19.692 -27.709  1.00  0.00    -0.353 N 
ATOM      3  H   UNL     1     -41.782  20.132 -27.937  1.00  0.00     0.344 HD
ATOM      4  H   UNL     1     -40.947  18.650 -27.752  1.00  0.00     0.344 HD
ATOM      5  H   UNL     1     -40.584  19.969 -26.739  1.00  0.00     0.344 HD
ENDBRANCH   1   2
BRANCH   1   6
ATOM      6  C   UNL     1     -38.695  19.183 -28.696  1.00  0.00     0.096 C 
ATOM      7  O   UNL     1     -37.965  19.016 -27.684  1.00  0.00    -0.544 OA
ATOM      8  O   UNL     1     -38.470  18.431 -29.840  1.00  0.00    -0.544 OA
ENDBRANCH   1   6
TORSDOF 2
ENDMDL
MODEL 9
REMARK VINA RESULT:    -2.611     12.343     12.732
REMARK INTER + INTRA:          -2.840
REMARK INTER:                  -2.840
REMARK INTRA:                   0.000
REMARK UNBOUND:                 0.000
REMARK SMILES [NH3+]CC(=O)[O-]
REMARK SMILES IDX 2 1 1 2 3 6 4 7 5 8
REMARK H PARENT 1 3 1 4 1 5
REMARK Flexibility Score: inf
ROOT
ATOM      1  C   UNL     1     -47.364   7.773 -29.526  1.00  0.00     0.312 C 
ENDROOT
BRANCH   1   2
ATOM      2  N   UNL     1     -46.182   7.516 -28.706  1.00  0.00    -0.353 N 
ATOM      3  H   UNL     1     -45.329   7.468 -29.310  1.00  0.00     0.344 HD
ATOM      4  H   UNL     1     -46.069   8.273 -27.993  1.00  0.00     0.344 HD
ATOM      5  H   UNL     1     -46.301   6.601 -28.214  1.00  0.00     0.344 HD
ENDBRANCH   1   2
BRANCH   1   6
ATOM      6  C   UNL     1     -47.206   9.049 -30.296  1.00  0.00     0.096 C 
ATOM      7  O   UNL     1     -47.055  10.140 -29.686  1.00  0.00    -0.544 OA
ATOM      8  O   UNL     1     -47.175   9.025 -31.683  1.00  0.00    -0.544 OA
ENDBRANCH   1   6
TORSDOF 2
ENDMDL
