MODEL 1
REMARK VINA RESULT:    -8.231      0.000      0.000
REMARK INTER + INTRA:          -9.716
REMARK INTER:                  -9.434
REMARK INTRA:                  -0.282
REMARK UNBOUND:                -0.282
REMARK SMILES CC1(C)CC[C@]23CO[C@@]4(C=C[C@@H]5[C@]6(C)CC[C@H](O)[C@](C)(CO)[C@@H]6CC[C@]5(C)[C@@]4(C)C[C@@H]2O)[C@H]3C1
REMARK SMILES IDX 1 1 2 2 4 3 5 4 6 5 7 6 8 7 9 8 33 9 34 10 10 11 11 12 12 13
REMARK SMILES IDX 13 14 15 15 16 16 17 17 19 18 23 19 24 20 25 21 26 22 28 23
REMARK SMILES IDX 30 24 31 25 29 26 27 27 20 28 14 29 3 30 32 31 21 33 22 34
REMARK SMILES IDX 18 36
REMARK H PARENT 32 32 22 35 18 37
REMARK Flexibility Score: inf
ROOT
ATOM      1  C   UNL     1      61.557  -5.412  75.364  1.00  0.00     0.011 C 
ATOM      2  C   UNL     1      61.106  -4.456  74.233  1.00  0.00    -0.035 C 
ATOM      3  C   UNL     1      60.163  -3.330  74.784  1.00  0.00     0.007 C 
ATOM      4  C   UNL     1      60.693  -1.890  74.636  1.00  0.00     0.013 C 
ATOM      5  C   UNL     1      62.194  -1.748  74.974  1.00  0.00     0.026 C 
ATOM      6  C   UNL     1      62.557  -2.237  76.387  1.00  0.00     0.171 C 
ATOM      7  O   UNL     1      63.743  -2.992  76.288  1.00  0.00    -0.369 OA
ATOM      8  C   UNL     1      64.284  -2.762  74.998  1.00  0.00     0.096 C 
ATOM      9  C   UNL     1      63.050  -2.612  74.079  1.00  0.00     0.037 C 
ATOM     10  C   UNL     1      62.354  -3.888  73.492  1.00  0.00     0.014 C 
ATOM     11  C   UNL     1      65.115  -3.968  74.654  1.00  0.00     0.005 C 
ATOM     12  C   UNL     1      66.288  -3.946  74.014  1.00  0.00    -0.024 C 
ATOM     13  C   UNL     1      67.034  -2.706  73.543  1.00  0.00     0.024 C 
ATOM     14  C   UNL     1      68.631  -2.843  73.774  1.00  0.00    -0.022 C 
ATOM     15  C   UNL     1      68.966  -3.551  75.131  1.00  0.00     0.010 C 
ATOM     16  C   UNL     1      70.465  -3.640  75.457  1.00  0.00     0.033 C 
ATOM     17  C   UNL     1      71.160  -2.269  75.444  1.00  0.00     0.123 C 
ATOM     18  C   UNL     1      70.931  -1.477  74.114  1.00  0.00     0.020 C 
ATOM     19  C   UNL     1      69.371  -1.444  73.729  1.00  0.00     0.006 C 
ATOM     20  C   UNL     1      68.574  -0.440  74.588  1.00  0.00     0.005 C 
ATOM     21  C   UNL     1      67.214  -0.123  73.986  1.00  0.00     0.008 C 
ATOM     22  C   UNL     1      66.233  -1.336  73.801  1.00  0.00    -0.017 C 
ATOM     23  C   UNL     1      65.168  -1.425  75.037  1.00  0.00     0.009 C 
ATOM     24  C   UNL     1      64.221  -0.131  75.135  1.00  0.00     0.043 C 
ATOM     25  C   UNL     1      62.700  -0.287  74.789  1.00  0.00     0.124 C 
ATOM     26  C   UNL     1      65.955  -1.458  76.388  1.00  0.00     0.015 C 
ATOM     27  C   UNL     1      65.476  -1.023  72.456  1.00  0.00     0.013 C 
ATOM     28  C   UNL     1      71.763  -2.126  72.957  1.00  0.00     0.017 C 
ATOM     29  C   UNL     1      69.149  -3.762  72.610  1.00  0.00     0.012 C 
ATOM     30  C   UNL     1      60.304  -5.318  73.226  1.00  0.00     0.011 C 
ENDROOT
BRANCH  25  31
ATOM     31  O   UNL     1      61.935   0.586  75.585  1.00  0.00    -0.392 OA
ATOM     32  H   UNL     1      62.562   1.016  76.224  1.00  0.00     0.210 HD
ENDBRANCH  25  31
BRANCH  18  33
ATOM     33  C   UNL     1      71.512  -0.023  74.290  1.00  0.00     0.165 C 
BRANCH  33  34
ATOM     34  O   UNL     1      72.702  -0.002  75.039  1.00  0.00    -0.396 OA
ATOM     35  H   UNL     1      73.064  -0.927  75.043  1.00  0.00     0.210 HD
ENDBRANCH  33  34
ENDBRANCH  18  33
BRANCH  17  36
ATOM     36  O   UNL     1      70.718  -1.519  76.550  1.00  0.00    -0.392 OA
ATOM     37  H   UNL     1      71.227  -0.667  76.548  1.00  0.00     0.210 HD
ENDBRANCH  17  36
TORSDOF 4
ENDMDL
MODEL 2
REMARK VINA RESULT:    -8.180      2.501      7.877
REMARK INTER + INTRA:          -9.657
REMARK INTER:                  -9.597
REMARK INTRA:                  -0.060
REMARK UNBOUND:                -0.282
REMARK SMILES CC1(C)CC[C@]23CO[C@@]4(C=C[C@@H]5[C@]6(C)CC[C@H](O)[C@](C)(CO)[C@@H]6CC[C@]5(C)[C@@]4(C)C[C@@H]2O)[C@H]3C1
REMARK SMILES IDX 1 1 2 2 4 3 5 4 6 5 7 6 8 7 9 8 33 9 34 10 10 11 11 12 12 13
REMARK SMILES IDX 13 14 15 15 16 16 17 17 19 18 23 19 24 20 25 21 26 22 28 23
REMARK SMILES IDX 30 24 31 25 29 26 27 27 20 28 14 29 3 30 32 31 21 33 22 34
REMARK SMILES IDX 18 36
REMARK H PARENT 32 32 22 35 18 37
REMARK Flexibility Score: inf
ROOT
ATOM      1  C   UNL     1      69.784   0.044  73.450  1.00  0.00     0.011 C 
ATOM      2  C   UNL     1      69.820   0.260  74.982  1.00  0.00    -0.035 C 
ATOM      3  C   UNL     1      69.774   1.787  75.343  1.00  0.00     0.007 C 
ATOM      4  C   UNL     1      68.547   2.238  76.159  1.00  0.00     0.013 C 
ATOM      5  C   UNL     1      67.220   1.613  75.675  1.00  0.00     0.026 C 
ATOM      6  C   UNL     1      66.918   1.878  74.190  1.00  0.00     0.171 C 
ATOM      7  O   UNL     1      66.458   0.673  73.623  1.00  0.00    -0.369 OA
ATOM      8  C   UNL     1      66.180  -0.217  74.691  1.00  0.00     0.096 C 
ATOM      9  C   UNL     1      67.254   0.104  75.756  1.00  0.00     0.037 C 
ATOM     10  C   UNL     1      68.674  -0.553  75.657  1.00  0.00     0.014 C 
ATOM     11  C   UNL     1      66.316  -1.612  74.141  1.00  0.00     0.005 C 
ATOM     12  C   UNL     1      65.527  -2.646  74.445  1.00  0.00    -0.024 C 
ATOM     13  C   UNL     1      64.319  -2.617  75.370  1.00  0.00     0.024 C 
ATOM     14  C   UNL     1      63.104  -3.523  74.800  1.00  0.00    -0.022 C 
ATOM     15  C   UNL     1      62.964  -3.400  73.245  1.00  0.00     0.010 C 
ATOM     16  C   UNL     1      61.777  -4.167  72.643  1.00  0.00     0.033 C 
ATOM     17  C   UNL     1      60.433  -3.780  73.279  1.00  0.00     0.123 C 
ATOM     18  C   UNL     1      60.435  -3.902  74.839  1.00  0.00     0.020 C 
ATOM     19  C   UNL     1      61.716  -3.163  75.469  1.00  0.00     0.006 C 
ATOM     20  C   UNL     1      61.561  -1.628  75.484  1.00  0.00     0.005 C 
ATOM     21  C   UNL     1      62.566  -0.959  76.409  1.00  0.00     0.008 C 
ATOM     22  C   UNL     1      64.083  -1.191  76.075  1.00  0.00    -0.017 C 
ATOM     23  C   UNL     1      64.698   0.065  75.230  1.00  0.00     0.009 C 
ATOM     24  C   UNL     1      64.655   1.446  76.051  1.00  0.00     0.043 C 
ATOM     25  C   UNL     1      66.008   2.072  76.537  1.00  0.00     0.124 C 
ATOM     26  C   UNL     1      63.811   0.314  73.967  1.00  0.00     0.015 C 
ATOM     27  C   UNL     1      64.782  -1.289  77.484  1.00  0.00     0.013 C 
ATOM     28  C   UNL     1      60.418  -5.412  75.257  1.00  0.00     0.017 C 
ATOM     29  C   UNL     1      63.492  -5.008  75.133  1.00  0.00     0.012 C 
ATOM     30  C   UNL     1      71.170  -0.320  75.475  1.00  0.00     0.011 C 
ENDROOT
BRANCH  25  31
ATOM     31  O   UNL     1      65.919   3.476  76.524  1.00  0.00    -0.392 OA
ATOM     32  H   UNL     1      66.008   3.761  75.577  1.00  0.00     0.210 HD
ENDBRANCH  25  31
BRANCH  18  33
ATOM     33  C   UNL     1      59.090  -3.296  75.391  1.00  0.00     0.165 C 
BRANCH  33  34
ATOM     34  O   UNL     1      58.329  -4.234  76.112  1.00  0.00    -0.396 OA
ATOM     35  H   UNL     1      57.498  -4.399  75.595  1.00  0.00     0.210 HD
ENDBRANCH  33  34
ENDBRANCH  18  33
BRANCH  17  36
ATOM     36  O   UNL     1      60.098  -2.471  72.885  1.00  0.00    -0.392 OA
ATOM     37  H   UNL     1      60.696  -2.230  72.131  1.00  0.00     0.210 HD
ENDBRANCH  17  36
TORSDOF 4
ENDMDL
MODEL 3
REMARK VINA RESULT:    -8.161      9.383     11.639
REMARK INTER + INTRA:          -9.635
REMARK INTER:                  -9.354
REMARK INTRA:                  -0.281
REMARK UNBOUND:                -0.282
REMARK SMILES CC1(C)CC[C@]23CO[C@@]4(C=C[C@@H]5[C@]6(C)CC[C@H](O)[C@](C)(CO)[C@@H]6CC[C@]5(C)[C@@]4(C)C[C@@H]2O)[C@H]3C1
REMARK SMILES IDX 1 1 2 2 4 3 5 4 6 5 7 6 8 7 9 8 33 9 34 10 10 11 11 12 12 13
REMARK SMILES IDX 13 14 15 15 16 16 17 17 19 18 23 19 24 20 25 21 26 22 28 23
REMARK SMILES IDX 30 24 31 25 29 26 27 27 20 28 14 29 3 30 32 31 21 33 22 34
REMARK SMILES IDX 18 36
REMARK H PARENT 32 32 22 35 18 37
REMARK Flexibility Score: inf
ROOT
ATOM      1  C   UNL     1      61.610  11.358  70.797  1.00  0.00     0.011 C 
ATOM      2  C   UNL     1      61.432  10.434  72.025  1.00  0.00    -0.035 C 
ATOM      3  C   UNL     1      60.325   9.351  71.767  1.00  0.00     0.007 C 
ATOM      4  C   UNL     1      60.810   7.889  71.798  1.00  0.00     0.013 C 
ATOM      5  C   UNL     1      62.159   7.670  71.077  1.00  0.00     0.026 C 
ATOM      6  C   UNL     1      62.156   8.130  69.609  1.00  0.00     0.171 C 
ATOM      7  O   UNL     1      63.359   8.827  69.375  1.00  0.00    -0.369 OA
ATOM      8  C   UNL     1      64.212   8.579  70.480  1.00  0.00     0.096 C 
ATOM      9  C   UNL     1      63.261   8.497  71.696  1.00  0.00     0.037 C 
ATOM     10  C   UNL     1      62.804   9.810  72.420  1.00  0.00     0.014 C 
ATOM     11  C   UNL     1      65.159   9.745  70.568  1.00  0.00     0.005 C 
ATOM     12  C   UNL     1      66.457   9.670  70.874  1.00  0.00    -0.024 C 
ATOM     13  C   UNL     1      67.244   8.399  71.156  1.00  0.00     0.024 C 
ATOM     14  C   UNL     1      68.727   8.455  70.507  1.00  0.00    -0.022 C 
ATOM     15  C   UNL     1      68.722   9.136  69.096  1.00  0.00     0.010 C 
ATOM     16  C   UNL     1      70.082   9.148  68.382  1.00  0.00     0.033 C 
ATOM     17  C   UNL     1      70.692   7.745  68.238  1.00  0.00     0.123 C 
ATOM     18  C   UNL     1      70.789   6.975  69.597  1.00  0.00     0.020 C 
ATOM     19  C   UNL     1      69.387   7.022  70.382  1.00  0.00     0.006 C 
ATOM     20  C   UNL     1      68.346   6.052  69.785  1.00  0.00     0.005 C 
ATOM     21  C   UNL     1      67.181   5.807  70.732  1.00  0.00     0.008 C 
ATOM     22  C   UNL     1      66.342   7.068  71.146  1.00  0.00    -0.017 C 
ATOM     23  C   UNL     1      64.992   7.201  70.235  1.00  0.00     0.009 C 
ATOM     24  C   UNL     1      63.994   5.954  70.417  1.00  0.00     0.043 C 
ATOM     25  C   UNL     1      62.629   6.187  71.150  1.00  0.00     0.124 C 
ATOM     26  C   UNL     1      65.392   7.185  68.724  1.00  0.00     0.015 C 
ATOM     27  C   UNL     1      65.955   6.802  72.650  1.00  0.00     0.013 C 
ATOM     28  C   UNL     1      71.927   7.590  70.479  1.00  0.00     0.017 C 
ATOM     29  C   UNL     1      69.577   9.355  71.473  1.00  0.00     0.012 C 
ATOM     30  C   UNL     1      60.966  11.341  73.192  1.00  0.00     0.011 C 
ENDROOT
BRANCH  25  31
ATOM     31  O   UNL     1      61.641   5.347  70.604  1.00  0.00    -0.392 OA
ATOM     32  H   UNL     1      61.892   5.188  69.656  1.00  0.00     0.210 HD
ENDBRANCH  25  31
BRANCH  18  33
ATOM     33  C   UNL     1      71.236   5.493  69.303  1.00  0.00     0.165 C 
BRANCH  33  34
ATOM     34  O   UNL     1      72.144   5.403  68.232  1.00  0.00    -0.396 OA
ATOM     35  H   UNL     1      72.992   5.037  68.596  1.00  0.00     0.210 HD
ENDBRANCH  33  34
ENDBRANCH  18  33
BRANCH  17  36
ATOM     36  O   UNL     1      69.939   7.010  67.304  1.00  0.00    -0.392 OA
ATOM     37  H   UNL     1      68.998   7.013  67.620  1.00  0.00     0.210 HD
ENDBRANCH  17  36
TORSDOF 4
ENDMDL
MODEL 4
REMARK VINA RESULT:    -8.108      5.265      9.918
REMARK INTER + INTRA:          -9.575
REMARK INTER:                  -9.293
REMARK INTRA:                  -0.282
REMARK UNBOUND:                -0.282
REMARK SMILES CC1(C)CC[C@]23CO[C@@]4(C=C[C@@H]5[C@]6(C)CC[C@H](O)[C@](C)(CO)[C@@H]6CC[C@]5(C)[C@@]4(C)C[C@@H]2O)[C@H]3C1
REMARK SMILES IDX 1 1 2 2 4 3 5 4 6 5 7 6 8 7 9 8 33 9 34 10 10 11 11 12 12 13
REMARK SMILES IDX 13 14 15 15 16 16 17 17 19 18 23 19 24 20 25 21 26 22 28 23
REMARK SMILES IDX 30 24 31 25 29 26 27 27 20 28 14 29 3 30 32 31 21 33 22 34
REMARK SMILES IDX 18 36
REMARK H PARENT 32 32 22 35 18 37
REMARK Flexibility Score: inf
ROOT
ATOM      1  C   UNL     1      71.169  -4.398  66.479  1.00  0.00     0.011 C 
ATOM      2  C   UNL     1      71.709  -3.995  67.872  1.00  0.00    -0.035 C 
ATOM      3  C   UNL     1      72.805  -2.877  67.756  1.00  0.00     0.007 C 
ATOM      4  C   UNL     1      72.461  -1.539  68.439  1.00  0.00     0.013 C 
ATOM      5  C   UNL     1      71.001  -1.088  68.213  1.00  0.00     0.026 C 
ATOM      6  C   UNL     1      70.615  -0.968  66.728  1.00  0.00     0.171 C 
ATOM      7  O   UNL     1      69.339  -1.545  66.568  1.00  0.00    -0.369 OA
ATOM      8  C   UNL     1      68.798  -1.741  67.864  1.00  0.00     0.096 C 
ATOM      9  C   UNL     1      70.016  -2.103  68.744  1.00  0.00     0.037 C 
ATOM     10  C   UNL     1      70.526  -3.585  68.800  1.00  0.00     0.014 C 
ATOM     11  C   UNL     1      67.810  -2.870  67.756  1.00  0.00     0.005 C 
ATOM     12  C   UNL     1      66.633  -2.934  68.385  1.00  0.00    -0.024 C 
ATOM     13  C   UNL     1      66.041  -1.872  69.299  1.00  0.00     0.024 C 
ATOM     14  C   UNL     1      64.446  -1.704  69.071  1.00  0.00    -0.022 C 
ATOM     15  C   UNL     1      64.059  -1.810  67.557  1.00  0.00     0.010 C 
ATOM     16  C   UNL     1      62.570  -1.576  67.256  1.00  0.00     0.033 C 
ATOM     17  C   UNL     1      62.059  -0.230  67.792  1.00  0.00     0.123 C 
ATOM     18  C   UNL     1      62.351  -0.023  69.314  1.00  0.00     0.020 C 
ATOM     19  C   UNL     1      63.892  -0.338  69.648  1.00  0.00     0.006 C 
ATOM     20  C   UNL     1      64.835   0.800  69.203  1.00  0.00     0.005 C 
ATOM     21  C   UNL     1      66.208   0.692  69.848  1.00  0.00     0.008 C 
ATOM     22  C   UNL     1      67.019  -0.620  69.548  1.00  0.00    -0.017 C 
ATOM     23  C   UNL     1      68.096  -0.382  68.343  1.00  0.00     0.009 C 
ATOM     24  C   UNL     1      69.205   0.722  68.709  1.00  0.00     0.043 C 
ATOM     25  C   UNL     1      70.683   0.253  68.937  1.00  0.00     0.124 C 
ATOM     26  C   UNL     1      67.348   0.189  67.095  1.00  0.00     0.015 C 
ATOM     27  C   UNL     1      67.774  -0.928  70.896  1.00  0.00     0.013 C 
ATOM     28  C   UNL     1      61.413  -0.941  70.168  1.00  0.00     0.017 C 
ATOM     29  C   UNL     1      63.783  -2.913  69.824  1.00  0.00     0.012 C 
ATOM     30  C   UNL     1      72.367  -5.265  68.470  1.00  0.00     0.011 C 
ENDROOT
BRANCH  25  31
ATOM     31  O   UNL     1      71.575   1.251  68.504  1.00  0.00    -0.392 OA
ATOM     32  H   UNL     1      71.189   1.641  67.676  1.00  0.00     0.210 HD
ENDBRANCH  25  31
BRANCH  18  33
ATOM     33  C   UNL     1      61.968   1.454  69.703  1.00  0.00     0.165 C 
BRANCH  33  34
ATOM     34  O   UNL     1      60.813   1.906  69.041  1.00  0.00    -0.396 OA
ATOM     35  H   UNL     1      61.094   2.624  68.416  1.00  0.00     0.210 HD
ENDBRANCH  33  34
ENDBRANCH  18  33
BRANCH  17  36
ATOM     36  O   UNL     1      62.623   0.812  67.032  1.00  0.00    -0.392 OA
ATOM     37  H   UNL     1      62.136   0.840  66.167  1.00  0.00     0.210 HD
ENDBRANCH  17  36
TORSDOF 4
ENDMDL
MODEL 5
REMARK VINA RESULT:    -8.047      8.889     12.704
REMARK INTER + INTRA:          -9.505
REMARK INTER:                  -9.444
REMARK INTRA:                  -0.061
REMARK UNBOUND:                -0.282
REMARK SMILES CC1(C)CC[C@]23CO[C@@]4(C=C[C@@H]5[C@]6(C)CC[C@H](O)[C@](C)(CO)[C@@H]6CC[C@]5(C)[C@@]4(C)C[C@@H]2O)[C@H]3C1
REMARK SMILES IDX 1 1 2 2 4 3 5 4 6 5 7 6 8 7 9 8 33 9 34 10 10 11 11 12 12 13
REMARK SMILES IDX 13 14 15 15 16 16 17 17 19 18 23 19 24 20 25 21 26 22 28 23
REMARK SMILES IDX 30 24 31 25 29 26 27 27 20 28 14 29 3 30 32 31 21 33 22 34
REMARK SMILES IDX 18 36
REMARK H PARENT 32 32 22 35 18 37
REMARK Flexibility Score: inf
ROOT
ATOM      1  C   UNL     1      69.740   5.499  70.568  1.00  0.00     0.011 C 
ATOM      2  C   UNL     1      69.352   5.302  69.082  1.00  0.00    -0.035 C 
ATOM      3  C   UNL     1      69.106   3.787  68.755  1.00  0.00     0.007 C 
ATOM      4  C   UNL     1      67.678   3.433  68.296  1.00  0.00     0.013 C 
ATOM      5  C   UNL     1      66.574   4.141  69.111  1.00  0.00     0.026 C 
ATOM      6  C   UNL     1      66.658   3.877  70.624  1.00  0.00     0.171 C 
ATOM      7  O   UNL     1      66.450   5.104  71.287  1.00  0.00    -0.369 OA
ATOM      8  C   UNL     1      65.963   6.025  70.326  1.00  0.00     0.096 C 
ATOM      9  C   UNL     1      66.691   5.645  69.016  1.00  0.00     0.037 C 
ATOM     10  C   UNL     1      68.129   6.201  68.731  1.00  0.00     0.014 C 
ATOM     11  C   UNL     1      66.336   7.399  70.813  1.00  0.00     0.005 C 
ATOM     12  C   UNL     1      65.570   8.490  70.724  1.00  0.00    -0.024 C 
ATOM     13  C   UNL     1      64.162   8.557  70.152  1.00  0.00     0.024 C 
ATOM     14  C   UNL     1      63.208   9.536  71.019  1.00  0.00    -0.022 C 
ATOM     15  C   UNL     1      63.477   9.402  72.557  1.00  0.00     0.010 C 
ATOM     16  C   UNL     1      62.548  10.241  73.448  1.00  0.00     0.033 C 
ATOM     17  C   UNL     1      61.060   9.956  73.193  1.00  0.00     0.123 C 
ATOM     18  C   UNL     1      60.656  10.100  71.688  1.00  0.00     0.020 C 
ATOM     19  C   UNL     1      61.670   9.283  70.744  1.00  0.00     0.006 C 
ATOM     20  C   UNL     1      61.409   7.762  70.779  1.00  0.00     0.005 C 
ATOM     21  C   UNL     1      62.084   7.038  69.624  1.00  0.00     0.008 C 
ATOM     22  C   UNL     1      63.648   7.160  69.542  1.00  0.00    -0.017 C 
ATOM     23  C   UNL     1      64.375   5.853  70.201  1.00  0.00     0.009 C 
ATOM     24  C   UNL     1      64.019   4.490  69.428  1.00  0.00     0.043 C 
ATOM     25  C   UNL     1      65.147   3.779  68.604  1.00  0.00     0.124 C 
ATOM     26  C   UNL     1      63.839   5.649  71.655  1.00  0.00     0.015 C 
ATOM     27  C   UNL     1      63.953   7.229  67.998  1.00  0.00     0.013 C 
ATOM     28  C   UNL     1      60.636  11.612  71.282  1.00  0.00     0.017 C 
ATOM     29  C   UNL     1      63.597  10.995  70.587  1.00  0.00     0.012 C 
ATOM     30  C   UNL     1      70.561   5.794  68.246  1.00  0.00     0.011 C 
ENDROOT
BRANCH  25  31
ATOM     31  O   UNL     1      64.967   2.385  68.647  1.00  0.00    -0.392 OA
ATOM     32  H   UNL     1      65.871   1.980  68.721  1.00  0.00     0.210 HD
ENDBRANCH  25  31
BRANCH  18  33
ATOM     33  C   UNL     1      59.175   9.595  71.515  1.00  0.00     0.165 C 
BRANCH  33  34
ATOM     34  O   UNL     1      58.349  10.544  70.885  1.00  0.00    -0.396 OA
ATOM     35  H   UNL     1      58.626  11.439  71.214  1.00  0.00     0.210 HD
ENDBRANCH  33  34
ENDBRANCH  18  33
BRANCH  17  36
ATOM     36  O   UNL     1      60.750   8.669  73.669  1.00  0.00    -0.392 OA
ATOM     37  H   UNL     1      60.226   8.213  72.960  1.00  0.00     0.210 HD
ENDBRANCH  17  36
TORSDOF 4
ENDMDL
MODEL 6
REMARK VINA RESULT:    -8.027      7.371     12.467
REMARK INTER + INTRA:          -9.482
REMARK INTER:                  -9.207
REMARK INTRA:                  -0.276
REMARK UNBOUND:                -0.282
REMARK SMILES CC1(C)CC[C@]23CO[C@@]4(C=C[C@@H]5[C@]6(C)CC[C@H](O)[C@](C)(CO)[C@@H]6CC[C@]5(C)[C@@]4(C)C[C@@H]2O)[C@H]3C1
REMARK SMILES IDX 1 1 2 2 4 3 5 4 6 5 7 6 8 7 9 8 33 9 34 10 10 11 11 12 12 13
REMARK SMILES IDX 13 14 15 15 16 16 17 17 19 18 23 19 24 20 25 21 26 22 28 23
REMARK SMILES IDX 30 24 31 25 29 26 27 27 20 28 14 29 3 30 32 31 21 33 22 34
REMARK SMILES IDX 18 36
REMARK H PARENT 32 32 22 35 18 37
REMARK Flexibility Score: inf
ROOT
ATOM      1  C   UNL     1      73.081   9.843  76.709  1.00  0.00     0.011 C 
ATOM      2  C   UNL     1      73.211   9.351  75.247  1.00  0.00    -0.035 C 
ATOM      3  C   UNL     1      74.241   8.172  75.134  1.00  0.00     0.007 C 
ATOM      4  C   UNL     1      73.661   6.832  74.640  1.00  0.00     0.013 C 
ATOM      5  C   UNL     1      72.293   6.483  75.267  1.00  0.00     0.026 C 
ATOM      6  C   UNL     1      72.310   6.448  76.805  1.00  0.00     0.171 C 
ATOM      7  O   UNL     1      71.153   7.110  77.263  1.00  0.00    -0.369 OA
ATOM      8  C   UNL     1      70.298   7.287  76.146  1.00  0.00     0.096 C 
ATOM      9  C   UNL     1      71.255   7.536  74.958  1.00  0.00     0.037 C 
ATOM     10  C   UNL     1      71.805   8.979  74.687  1.00  0.00     0.014 C 
ATOM     11  C   UNL     1      69.431   8.479  76.446  1.00  0.00     0.005 C 
ATOM     12  C   UNL     1      68.134   8.592  76.146  1.00  0.00    -0.024 C 
ATOM     13  C   UNL     1      67.268   7.533  75.480  1.00  0.00     0.024 C 
ATOM     14  C   UNL     1      65.785   7.476  76.128  1.00  0.00    -0.022 C 
ATOM     15  C   UNL     1      65.819   7.667  77.682  1.00  0.00     0.010 C 
ATOM     16  C   UNL     1      64.454   7.540  78.377  1.00  0.00     0.033 C 
ATOM     17  C   UNL     1      63.752   6.208  78.070  1.00  0.00     0.123 C 
ATOM     18  C   UNL     1      63.620   5.921  76.538  1.00  0.00     0.020 C 
ATOM     19  C   UNL     1      65.030   6.125  75.794  1.00  0.00     0.006 C 
ATOM     20  C   UNL     1      65.999   4.948  76.038  1.00  0.00     0.005 C 
ATOM     21  C   UNL     1      67.155   4.944  75.050  1.00  0.00     0.008 C 
ATOM     22  C   UNL     1      68.081   6.213  75.053  1.00  0.00    -0.017 C 
ATOM     23  C   UNL     1      69.426   5.957  75.945  1.00  0.00     0.009 C 
ATOM     24  C   UNL     1      70.341   4.771  75.362  1.00  0.00     0.043 C 
ATOM     25  C   UNL     1      71.728   5.137  74.728  1.00  0.00     0.124 C 
ATOM     26  C   UNL     1      69.009   5.485  77.375  1.00  0.00     0.015 C 
ATOM     27  C   UNL     1      68.466   6.418  73.539  1.00  0.00     0.013 C 
ATOM     28  C   UNL     1      62.535   6.860  75.910  1.00  0.00     0.017 C 
ATOM     29  C   UNL     1      65.007   8.692  75.510  1.00  0.00     0.012 C 
ATOM     30  C   UNL     1      73.748  10.552  74.428  1.00  0.00     0.011 C 
ENDROOT
BRANCH  25  31
ATOM     31  O   UNL     1      72.651   4.103  74.967  1.00  0.00    -0.392 OA
ATOM     32  H   UNL     1      73.554   4.477  74.787  1.00  0.00     0.210 HD
ENDBRANCH  25  31
BRANCH  18  33
ATOM     33  C   UNL     1      63.074   4.457  76.346  1.00  0.00     0.165 C 
BRANCH  33  34
ATOM     34  O   UNL     1      62.215   4.058  77.387  1.00  0.00    -0.396 OA
ATOM     35  H   UNL     1      62.774   3.605  78.071  1.00  0.00     0.210 HD
ENDBRANCH  33  34
ENDBRANCH  18  33
BRANCH  17  36
ATOM     36  O   UNL     1      64.445   5.164  78.711  1.00  0.00    -0.392 OA
ATOM     37  H   UNL     1      64.533   5.415  79.668  1.00  0.00     0.210 HD
ENDBRANCH  17  36
TORSDOF 4
ENDMDL
MODEL 7
REMARK VINA RESULT:    -7.978      6.751      9.732
REMARK INTER + INTRA:          -9.425
REMARK INTER:                  -9.365
REMARK INTRA:                  -0.060
REMARK UNBOUND:                -0.282
REMARK SMILES CC1(C)CC[C@]23CO[C@@]4(C=C[C@@H]5[C@]6(C)CC[C@H](O)[C@](C)(CO)[C@@H]6CC[C@]5(C)[C@@]4(C)C[C@@H]2O)[C@H]3C1
REMARK SMILES IDX 1 1 2 2 4 3 5 4 6 5 7 6 8 7 9 8 33 9 34 10 10 11 11 12 12 13
REMARK SMILES IDX 13 14 15 15 16 16 17 17 19 18 23 19 24 20 25 21 26 22 28 23
REMARK SMILES IDX 30 24 31 25 29 26 27 27 20 28 14 29 3 30 32 31 21 33 22 34
REMARK SMILES IDX 18 36
REMARK H PARENT 32 32 22 35 18 37
REMARK Flexibility Score: inf
ROOT
ATOM      1  C   UNL     1      64.410   5.035  75.029  1.00  0.00     0.011 C 
ATOM      2  C   UNL     1      64.721   4.257  76.331  1.00  0.00    -0.035 C 
ATOM      3  C   UNL     1      64.772   2.711  76.070  1.00  0.00     0.007 C 
ATOM      4  C   UNL     1      66.130   2.037  76.347  1.00  0.00     0.013 C 
ATOM      5  C   UNL     1      67.339   2.853  75.837  1.00  0.00     0.026 C 
ATOM      6  C   UNL     1      67.274   3.179  74.335  1.00  0.00     0.171 C 
ATOM      7  O   UNL     1      67.650   4.527  74.170  1.00  0.00    -0.369 OA
ATOM      8  C   UNL     1      68.213   4.961  75.398  1.00  0.00     0.096 C 
ATOM      9  C   UNL     1      67.401   4.217  76.483  1.00  0.00     0.037 C 
ATOM     10  C   UNL     1      66.031   4.804  76.973  1.00  0.00     0.014 C 
ATOM     11  C   UNL     1      68.024   6.452  75.459  1.00  0.00     0.005 C 
ATOM     12  C   UNL     1      68.913   7.329  75.935  1.00  0.00    -0.024 C 
ATOM     13  C   UNL     1      70.299   7.004  76.472  1.00  0.00     0.024 C 
ATOM     14  C   UNL     1      71.393   8.108  76.017  1.00  0.00    -0.022 C 
ATOM     15  C   UNL     1      71.162   8.585  74.543  1.00  0.00     0.010 C 
ATOM     16  C   UNL     1      72.214   9.571  74.013  1.00  0.00     0.033 C 
ATOM     17  C   UNL     1      73.648   9.029  74.125  1.00  0.00     0.123 C 
ATOM     18  C   UNL     1      74.014   8.556  75.570  1.00  0.00     0.020 C 
ATOM     19  C   UNL     1      72.879   7.581  76.158  1.00  0.00     0.006 C 
ATOM     20  C   UNL     1      72.955   6.161  75.559  1.00  0.00     0.005 C 
ATOM     21  C   UNL     1      72.160   5.152  76.372  1.00  0.00     0.008 C 
ATOM     22  C   UNL     1      70.620   5.429  76.515  1.00  0.00    -0.017 C 
ATOM     23  C   UNL     1      69.763   4.559  75.429  1.00  0.00     0.009 C 
ATOM     24  C   UNL     1      69.926   2.973  75.637  1.00  0.00     0.043 C 
ATOM     25  C   UNL     1      68.693   2.155  76.155  1.00  0.00     0.124 C 
ATOM     26  C   UNL     1      70.319   4.841  73.995  1.00  0.00     0.015 C 
ATOM     27  C   UNL     1      70.273   4.960  77.978  1.00  0.00     0.013 C 
ATOM     28  C   UNL     1      74.203   9.796  76.507  1.00  0.00     0.017 C 
ATOM     29  C   UNL     1      71.168   9.341  76.963  1.00  0.00     0.012 C 
ATOM     30  C   UNL     1      63.553   4.552  77.306  1.00  0.00     0.011 C 
ENDROOT
BRANCH  25  31
ATOM     31  O   UNL     1      68.706   0.864  75.596  1.00  0.00    -0.392 OA
ATOM     32  H   UNL     1      69.107   0.946  74.691  1.00  0.00     0.210 HD
ENDBRANCH  25  31
BRANCH  18  33
ATOM     33  C   UNL     1      75.418   7.843  75.523  1.00  0.00     0.165 C 
BRANCH  33  34
ATOM     34  O   UNL     1      76.355   8.436  76.389  1.00  0.00    -0.396 OA
ATOM     35  H   UNL     1      76.751   9.209  75.909  1.00  0.00     0.210 HD
ENDBRANCH  33  34
ENDBRANCH  18  33
BRANCH  17  36
ATOM     36  O   UNL     1      73.816   7.981  73.201  1.00  0.00    -0.392 OA
ATOM     37  H   UNL     1      74.660   8.156  72.710  1.00  0.00     0.210 HD
ENDBRANCH  17  36
TORSDOF 4
ENDMDL
MODEL 8
REMARK VINA RESULT:    -7.891      5.797      7.711
REMARK INTER + INTRA:          -9.326
REMARK INTER:                  -9.265
REMARK INTRA:                  -0.061
REMARK UNBOUND:                -0.282
REMARK SMILES CC1(C)CC[C@]23CO[C@@]4(C=C[C@@H]5[C@]6(C)CC[C@H](O)[C@](C)(CO)[C@@H]6CC[C@]5(C)[C@@]4(C)C[C@@H]2O)[C@H]3C1
REMARK SMILES IDX 1 1 2 2 4 3 5 4 6 5 7 6 8 7 9 8 33 9 34 10 10 11 11 12 12 13
REMARK SMILES IDX 13 14 15 15 16 16 17 17 19 18 23 19 24 20 25 21 26 22 28 23
REMARK SMILES IDX 30 24 31 25 29 26 27 27 20 28 14 29 3 30 32 31 21 33 22 34
REMARK SMILES IDX 18 36
REMARK H PARENT 32 32 22 35 18 37
REMARK Flexibility Score: inf
ROOT
ATOM      1  C   UNL     1      63.690   0.870  70.510  1.00  0.00     0.011 C 
ATOM      2  C   UNL     1      63.700   1.631  69.163  1.00  0.00    -0.035 C 
ATOM      3  C   UNL     1      63.920   3.170  69.381  1.00  0.00     0.007 C 
ATOM      4  C   UNL     1      65.200   3.752  68.751  1.00  0.00     0.013 C 
ATOM      5  C   UNL     1      66.443   2.853  68.937  1.00  0.00     0.026 C 
ATOM      6  C   UNL     1      66.753   2.525  70.408  1.00  0.00     0.171 C 
ATOM      7  O   UNL     1      67.068   1.154  70.485  1.00  0.00    -0.369 OA
ATOM      8  C   UNL     1      67.259   0.689  69.159  1.00  0.00     0.096 C 
ATOM      9  C   UNL     1      66.243   1.491  68.315  1.00  0.00     0.037 C 
ATOM     10  C   UNL     1      64.758   1.001  68.207  1.00  0.00     0.014 C 
ATOM     11  C   UNL     1      66.963  -0.786  69.168  1.00  0.00     0.005 C 
ATOM     12  C   UNL     1      67.636  -1.717  68.487  1.00  0.00    -0.024 C 
ATOM     13  C   UNL     1      68.852  -1.484  67.602  1.00  0.00     0.024 C 
ATOM     14  C   UNL     1      69.951  -2.661  67.770  1.00  0.00    -0.022 C 
ATOM     15  C   UNL     1      70.082  -3.130  69.259  1.00  0.00     0.010 C 
ATOM     16  C   UNL     1      71.169  -4.187  69.508  1.00  0.00     0.033 C 
ATOM     17  C   UNL     1      72.556  -3.743  69.019  1.00  0.00     0.123 C 
ATOM     18  C   UNL     1      72.562  -3.288  67.522  1.00  0.00     0.020 C 
ATOM     19  C   UNL     1      71.380  -2.236  67.239  1.00  0.00     0.006 C 
ATOM     20  C   UNL     1      71.704  -0.826  67.779  1.00  0.00     0.005 C 
ATOM     21  C   UNL     1      70.792   0.238  67.189  1.00  0.00     0.008 C 
ATOM     22  C   UNL     1      69.254   0.066  67.458  1.00  0.00    -0.017 C 
ATOM     23  C   UNL     1      68.771   0.986  68.719  1.00  0.00     0.009 C 
ATOM     24  C   UNL     1      68.979   2.558  68.455  1.00  0.00     0.043 C 
ATOM     25  C   UNL     1      67.710   3.460  68.267  1.00  0.00     0.124 C 
ATOM     26  C   UNL     1      69.663   0.660  69.960  1.00  0.00     0.015 C 
ATOM     27  C   UNL     1      68.568   0.564  66.130  1.00  0.00     0.013 C 
ATOM     28  C   UNL     1      72.416  -4.533  66.584  1.00  0.00     0.017 C 
ATOM     29  C   UNL     1      69.405  -3.872  66.931  1.00  0.00     0.012 C 
ATOM     30  C   UNL     1      62.301   1.421  68.531  1.00  0.00     0.011 C 
ENDROOT
BRANCH  25  31
ATOM     31  O   UNL     1      67.955   4.745  68.787  1.00  0.00    -0.392 OA
ATOM     32  H   UNL     1      68.573   5.198  68.155  1.00  0.00     0.210 HD
ENDBRANCH  25  31
BRANCH  18  33
ATOM     33  C   UNL     1      73.973  -2.671  67.191  1.00  0.00     0.165 C 
BRANCH  33  34
ATOM     34  O   UNL     1      74.570  -3.260  66.061  1.00  0.00    -0.396 OA
ATOM     35  H   UNL     1      73.983  -4.008  65.775  1.00  0.00     0.210 HD
ENDBRANCH  33  34
ENDBRANCH  18  33
BRANCH  17  36
ATOM     36  O   UNL     1      73.029  -2.712  69.852  1.00  0.00    -0.392 OA
ATOM     37  H   UNL     1      72.539  -1.886  69.603  1.00  0.00     0.210 HD
ENDBRANCH  17  36
TORSDOF 4
ENDMDL
MODEL 9
REMARK VINA RESULT:    -7.862      9.734     11.450
REMARK INTER + INTRA:          -9.293
REMARK INTER:                  -9.015
REMARK INTRA:                  -0.278
REMARK UNBOUND:                -0.282
REMARK SMILES CC1(C)CC[C@]23CO[C@@]4(C=C[C@@H]5[C@]6(C)CC[C@H](O)[C@](C)(CO)[C@@H]6CC[C@]5(C)[C@@]4(C)C[C@@H]2O)[C@H]3C1
REMARK SMILES IDX 1 1 2 2 4 3 5 4 6 5 7 6 8 7 9 8 33 9 34 10 10 11 11 12 12 13
REMARK SMILES IDX 13 14 15 15 16 16 17 17 19 18 23 19 24 20 25 21 26 22 28 23
REMARK SMILES IDX 30 24 31 25 29 26 27 27 20 28 14 29 3 30 32 31 21 33 22 34
REMARK SMILES IDX 18 36
REMARK H PARENT 32 32 22 35 18 37
REMARK Flexibility Score: inf
ROOT
ATOM      1  C   UNL     1      62.229  10.198  76.057  1.00  0.00     0.011 C 
ATOM      2  C   UNL     1      61.508   8.882  75.673  1.00  0.00    -0.035 C 
ATOM      3  C   UNL     1      60.196   9.170  74.861  1.00  0.00     0.007 C 
ATOM      4  C   UNL     1      60.170   8.610  73.426  1.00  0.00     0.013 C 
ATOM      5  C   UNL     1      61.499   8.805  72.663  1.00  0.00     0.026 C 
ATOM      6  C   UNL     1      61.956  10.272  72.585  1.00  0.00     0.171 C 
ATOM      7  O   UNL     1      63.339  10.306  72.855  1.00  0.00    -0.369 OA
ATOM      8  C   UNL     1      63.812   8.970  72.803  1.00  0.00     0.096 C 
ATOM      9  C   UNL     1      62.649   8.122  73.366  1.00  0.00     0.037 C 
ATOM     10  C   UNL     1      62.492   7.942  74.915  1.00  0.00     0.014 C 
ATOM     11  C   UNL     1      65.040   8.910  73.671  1.00  0.00     0.005 C 
ATOM     12  C   UNL     1      66.150   8.217  73.399  1.00  0.00    -0.024 C 
ATOM     13  C   UNL     1      66.411   7.387  72.152  1.00  0.00     0.024 C 
ATOM     14  C   UNL     1      67.936   7.548  71.632  1.00  0.00    -0.022 C 
ATOM     15  C   UNL     1      68.449   9.021  71.775  1.00  0.00     0.010 C 
ATOM     16  C   UNL     1      69.862   9.267  71.222  1.00  0.00     0.033 C 
ATOM     17  C   UNL     1      70.008   8.845  69.752  1.00  0.00     0.123 C 
ATOM     18  C   UNL     1      69.562   7.369  69.488  1.00  0.00     0.020 C 
ATOM     19  C   UNL     1      68.115   7.086  70.129  1.00  0.00     0.006 C 
ATOM     20  C   UNL     1      66.971   7.693  69.289  1.00  0.00     0.005 C 
ATOM     21  C   UNL     1      65.616   7.113  69.663  1.00  0.00     0.008 C 
ATOM     22  C   UNL     1      65.155   7.319  71.150  1.00  0.00    -0.017 C 
ATOM     23  C   UNL     1      64.145   8.597  71.281  1.00  0.00     0.009 C 
ATOM     24  C   UNL     1      62.787   8.404  70.443  1.00  0.00     0.043 C 
ATOM     25  C   UNL     1      61.444   8.206  71.227  1.00  0.00     0.124 C 
ATOM     26  C   UNL     1      64.832   9.856  70.659  1.00  0.00     0.015 C 
ATOM     27  C   UNL     1      64.392   5.988  71.509  1.00  0.00     0.013 C 
ATOM     28  C   UNL     1      70.621   6.378  70.079  1.00  0.00     0.017 C 
ATOM     29  C   UNL     1      68.802   6.642  72.579  1.00  0.00     0.012 C 
ATOM     30  C   UNL     1      61.118   8.193  77.005  1.00  0.00     0.011 C 
ENDROOT
BRANCH  25  31
ATOM     31  O   UNL     1      60.381   8.785  70.510  1.00  0.00    -0.392 OA
ATOM     32  H   UNL     1      59.562   8.659  71.058  1.00  0.00     0.210 HD
ENDBRANCH  25  31
BRANCH  18  33
ATOM     33  C   UNL     1      69.564   7.114  67.934  1.00  0.00     0.165 C 
BRANCH  33  34
ATOM     34  O   UNL     1      70.681   7.680  67.293  1.00  0.00    -0.396 OA
ATOM     35  H   UNL     1      70.346   8.183  66.506  1.00  0.00     0.210 HD
ENDBRANCH  33  34
ENDBRANCH  18  33
BRANCH  17  36
ATOM     36  O   UNL     1      69.277   9.736  68.943  1.00  0.00    -0.392 OA
ATOM     37  H   UNL     1      68.755   9.188  68.301  1.00  0.00     0.210 HD
ENDBRANCH  17  36
TORSDOF 4
ENDMDL
