MODEL 1
REMARK VINA RESULT:    11.435      0.000      0.000
REMARK INTER + INTRA:          19.425
REMARK INTER:                  20.126
REMARK INTRA:                  -0.700
REMARK UNBOUND:                -0.700
REMARK SMILES CCCCCCCCCCCCCCC(=O)[O-]
REMARK SMILES IDX 9 1 10 2 11 3 12 4 13 5 14 6 15 7 16 8 17 9 8 10 7 11 6 12
REMARK SMILES IDX 5 13 4 14 3 15 2 16 1 17
REMARK H PARENT
REMARK Flexibility Score: inf
ROOT
ATOM      1  C   UNL     1      18.494  17.890  20.908  1.00  0.00     0.000 C 
ENDROOT
BRANCH   1   2
ATOM      2  C   UNL     1      18.027  17.143  19.649  1.00  0.00     0.000 C 
BRANCH   2   3
ATOM      3  C   UNL     1      16.517  17.308  19.442  1.00  0.00     0.000 C 
BRANCH   3   4
ATOM      4  C   UNL     1      16.213  17.953  18.084  1.00  0.00     0.000 C 
BRANCH   4   5
ATOM      5  C   UNL     1      17.079  17.341  16.977  1.00  0.00     0.006 C 
BRANCH   5   6
ATOM      6  C   UNL     1      16.434  17.541  15.603  1.00  0.00     0.053 C 
BRANCH   6   7
ATOM      7  C   UNL     1      17.462  17.431  14.521  1.00  0.00     0.041 C 
ATOM      8  O   UNL     1      18.038  18.464  14.087  1.00  0.00    -0.550 OA
ATOM      9  O   UNL     1      17.747  16.195  13.956  1.00  0.00    -0.550 OA
ENDBRANCH   6   7
ENDBRANCH   5   6
ENDBRANCH   4   5
ENDBRANCH   3   4
ENDBRANCH   2   3
ENDBRANCH   1   2
BRANCH   1  10
ATOM     10  C   UNL     1      19.985  18.260  20.861  1.00  0.00     0.000 C 
BRANCH  10  11
ATOM     11  C   UNL     1      20.649  17.868  19.530  1.00  0.00    -0.000 C 
BRANCH  11  12
ATOM     12  C   UNL     1      22.186  17.829  19.618  1.00  0.00    -0.000 C 
BRANCH  12  13
ATOM     13  C   UNL     1      22.760  17.856  21.048  1.00  0.00    -0.000 C 
BRANCH  13  14
ATOM     14  C   UNL     1      24.282  18.084  21.140  1.00  0.00    -0.000 C 
BRANCH  14  15
ATOM     15  C   UNL     1      24.721  19.123  22.187  1.00  0.00    -0.000 C 
BRANCH  15  16
ATOM     16  C   UNL     1      25.563  18.512  23.316  1.00  0.00    -0.003 C 
ATOM     17  C   UNL     1      25.472  16.989  23.307  1.00  0.00     0.004 C 
ENDBRANCH  15  16
ENDBRANCH  14  15
ENDBRANCH  13  14
ENDBRANCH  12  13
ENDBRANCH  11  12
ENDBRANCH  10  11
ENDBRANCH   1  10
TORSDOF 13
ENDMDL
MODEL 2
REMARK VINA RESULT:    11.577      4.060      8.372
REMARK INTER + INTRA:          19.674
REMARK INTER:                  20.298
REMARK INTRA:                  -0.624
REMARK UNBOUND:                -0.700
REMARK SMILES CCCCCCCCCCCCCCC(=O)[O-]
REMARK SMILES IDX 9 1 10 2 11 3 12 4 13 5 14 6 15 7 16 8 17 9 8 10 7 11 6 12
REMARK SMILES IDX 5 13 4 14 3 15 2 16 1 17
REMARK H PARENT
REMARK Flexibility Score: inf
ROOT
ATOM      1  C   UNL     1      18.394  17.802  20.815  1.00  0.00     0.000 C 
ENDROOT
BRANCH   1   2
ATOM      2  C   UNL     1      19.777  18.456  20.668  1.00  0.00     0.000 C 
BRANCH   2   3
ATOM      3  C   UNL     1      20.729  17.552  19.876  1.00  0.00     0.000 C 
BRANCH   3   4
ATOM      4  C   UNL     1      22.145  18.139  19.838  1.00  0.00     0.000 C 
BRANCH   4   5
ATOM      5  C   UNL     1      22.991  17.612  21.002  1.00  0.00     0.006 C 
BRANCH   5   6
ATOM      6  C   UNL     1      24.390  18.237  20.991  1.00  0.00     0.053 C 
BRANCH   6   7
ATOM      7  C   UNL     1      24.897  18.411  22.387  1.00  0.00     0.041 C 
ATOM      8  O   UNL     1      25.008  19.564  22.883  1.00  0.00    -0.550 OA
ATOM      9  O   UNL     1      25.296  17.303  23.125  1.00  0.00    -0.550 OA
ENDBRANCH   6   7
ENDBRANCH   5   6
ENDBRANCH   4   5
ENDBRANCH   3   4
ENDBRANCH   2   3
ENDBRANCH   1   2
BRANCH   1  10
ATOM     10  C   UNL     1      17.878  17.203  19.497  1.00  0.00     0.000 C 
BRANCH  10  11
ATOM     11  C   UNL     1      16.417  17.587  19.206  1.00  0.00    -0.000 C 
BRANCH  11  12
ATOM     12  C   UNL     1      16.091  17.601  17.701  1.00  0.00    -0.000 C 
BRANCH  12  13
ATOM     13  C   UNL     1      17.305  17.424  16.767  1.00  0.00    -0.000 C 
BRANCH  13  14
ATOM     14  C   UNL     1      16.966  17.274  15.271  1.00  0.00    -0.000 C 
BRANCH  14  15
ATOM     15  C   UNL     1      17.968  17.936  14.309  1.00  0.00    -0.000 C 
BRANCH  15  16
ATOM     16  C   UNL     1      17.675  19.425  14.075  1.00  0.00    -0.003 C 
ATOM     17  C   UNL     1      18.952  20.256  14.159  1.00  0.00     0.004 C 
ENDBRANCH  15  16
ENDBRANCH  14  15
ENDBRANCH  13  14
ENDBRANCH  12  13
ENDBRANCH  11  12
ENDBRANCH  10  11
ENDBRANCH   1  10
TORSDOF 13
ENDMDL
MODEL 3
REMARK VINA RESULT:    11.701      4.861      8.566
REMARK INTER + INTRA:          19.893
REMARK INTER:                  20.588
REMARK INTRA:                  -0.695
REMARK UNBOUND:                -0.700
REMARK SMILES CCCCCCCCCCCCCCC(=O)[O-]
REMARK SMILES IDX 9 1 10 2 11 3 12 4 13 5 14 6 15 7 16 8 17 9 8 10 7 11 6 12
REMARK SMILES IDX 5 13 4 14 3 15 2 16 1 17
REMARK H PARENT
REMARK Flexibility Score: inf
ROOT
ATOM      1  C   UNL     1      18.079  17.116  20.242  1.00  0.00     0.000 C 
ENDROOT
BRANCH   1   2
ATOM      2  C   UNL     1      19.411  17.879  20.175  1.00  0.00     0.000 C 
BRANCH   2   3
ATOM      3  C   UNL     1      19.580  18.794  21.393  1.00  0.00     0.000 C 
BRANCH   3   4
ATOM      4  C   UNL     1      19.482  17.998  22.700  1.00  0.00     0.000 C 
BRANCH   4   5
ATOM      5  C   UNL     1      20.237  18.702  23.833  1.00  0.00     0.006 C 
BRANCH   5   6
ATOM      6  C   UNL     1      21.187  19.768  23.279  1.00  0.00     0.053 C 
BRANCH   6   7
ATOM      7  C   UNL     1      21.748  20.598  24.390  1.00  0.00     0.041 C 
ATOM      8  O   UNL     1      22.939  20.433  24.766  1.00  0.00    -0.550 OA
ATOM      9  O   UNL     1      20.941  21.520  25.046  1.00  0.00    -0.550 OA
ENDBRANCH   6   7
ENDBRANCH   5   6
ENDBRANCH   4   5
ENDBRANCH   3   4
ENDBRANCH   2   3
ENDBRANCH   1   2
BRANCH   1  10
ATOM     10  C   UNL     1      16.883  17.971  19.793  1.00  0.00     0.000 C 
BRANCH  10  11
ATOM     11  C   UNL     1      16.202  17.416  18.530  1.00  0.00    -0.000 C 
BRANCH  11  12
ATOM     12  C   UNL     1      17.117  17.455  17.292  1.00  0.00    -0.000 C 
BRANCH  12  13
ATOM     13  C   UNL     1      16.390  17.643  15.946  1.00  0.00    -0.000 C 
BRANCH  13  14
ATOM     14  C   UNL     1      17.093  17.015  14.727  1.00  0.00    -0.000 C 
BRANCH  14  15
ATOM     15  C   UNL     1      18.074  17.947  13.993  1.00  0.00    -0.000 C 
BRANCH  15  16
ATOM     16  C   UNL     1      17.705  19.430  14.133  1.00  0.00    -0.003 C 
ATOM     17  C   UNL     1      18.951  20.311  14.113  1.00  0.00     0.004 C 
ENDBRANCH  15  16
ENDBRANCH  14  15
ENDBRANCH  13  14
ENDBRANCH  12  13
ENDBRANCH  11  12
ENDBRANCH  10  11
ENDBRANCH   1  10
TORSDOF 13
ENDMDL
MODEL 4
REMARK VINA RESULT:    12.156      4.043      8.467
REMARK INTER + INTRA:          20.694
REMARK INTER:                  21.090
REMARK INTRA:                  -0.395
REMARK UNBOUND:                -0.700
REMARK SMILES CCCCCCCCCCCCCCC(=O)[O-]
REMARK SMILES IDX 9 1 10 2 11 3 12 4 13 5 14 6 15 7 16 8 17 9 8 10 7 11 6 12
REMARK SMILES IDX 5 13 4 14 3 15 2 16 1 17
REMARK H PARENT
REMARK Flexibility Score: inf
ROOT
ATOM      1  C   UNL     1      18.724  18.155  21.027  1.00  0.00     0.000 C 
ENDROOT
BRANCH   1   2
ATOM      2  C   UNL     1      20.246  18.356  21.078  1.00  0.00     0.000 C 
BRANCH   2   3
ATOM      3  C   UNL     1      20.912  17.817  19.806  1.00  0.00     0.000 C 
BRANCH   3   4
ATOM      4  C   UNL     1      22.437  17.967  19.875  1.00  0.00     0.000 C 
BRANCH   4   5
ATOM      5  C   UNL     1      22.936  17.867  21.321  1.00  0.00     0.006 C 
BRANCH   5   6
ATOM      6  C   UNL     1      24.437  17.569  21.364  1.00  0.00     0.053 C 
BRANCH   6   7
ATOM      7  C   UNL     1      25.081  18.286  22.508  1.00  0.00     0.041 C 
ATOM      8  O   UNL     1      25.135  19.544  22.519  1.00  0.00    -0.550 OA
ATOM      9  O   UNL     1      25.667  17.563  23.540  1.00  0.00    -0.550 OA
ENDBRANCH   6   7
ENDBRANCH   5   6
ENDBRANCH   4   5
ENDBRANCH   3   4
ENDBRANCH   2   3
ENDBRANCH   1   2
BRANCH   1  10
ATOM     10  C   UNL     1      18.263  17.429  19.753  1.00  0.00     0.000 C 
BRANCH  10  11
ATOM     11  C   UNL     1      16.985  16.603  19.974  1.00  0.00    -0.000 C 
BRANCH  11  12
ATOM     12  C   UNL     1      15.821  17.053  19.071  1.00  0.00    -0.000 C 
BRANCH  12  13
ATOM     13  C   UNL     1      16.218  17.979  17.904  1.00  0.00    -0.000 C 
BRANCH  13  14
ATOM     14  C   UNL     1      17.045  17.311  16.788  1.00  0.00    -0.000 C 
BRANCH  14  15
ATOM     15  C   UNL     1      16.592  17.645  15.356  1.00  0.00    -0.000 C 
BRANCH  15  16
ATOM     16  C   UNL     1      17.670  17.343  14.304  1.00  0.00    -0.003 C 
ATOM     17  C   UNL     1      17.671  15.864  13.929  1.00  0.00     0.004 C 
ENDBRANCH  15  16
ENDBRANCH  14  15
ENDBRANCH  13  14
ENDBRANCH  12  13
ENDBRANCH  11  12
ENDBRANCH  10  11
ENDBRANCH   1  10
TORSDOF 13
ENDMDL
MODEL 5
REMARK VINA RESULT:    12.351      2.397      3.005
REMARK INTER + INTRA:          21.038
REMARK INTER:                  21.435
REMARK INTRA:                  -0.397
REMARK UNBOUND:                -0.700
REMARK SMILES CCCCCCCCCCCCCCC(=O)[O-]
REMARK SMILES IDX 9 1 10 2 11 3 12 4 13 5 14 6 15 7 16 8 17 9 8 10 7 11 6 12
REMARK SMILES IDX 5 13 4 14 3 15 2 16 1 17
REMARK H PARENT
REMARK Flexibility Score: inf
ROOT
ATOM      1  C   UNL     1      17.169  16.811  19.443  1.00  0.00     0.000 C 
ENDROOT
BRANCH   1   2
ATOM      2  C   UNL     1      16.370  17.939  18.773  1.00  0.00     0.000 C 
BRANCH   2   3
ATOM      3  C   UNL     1      16.066  17.599  17.309  1.00  0.00     0.000 C 
BRANCH   3   4
ATOM      4  C   UNL     1      17.358  17.429  16.501  1.00  0.00     0.000 C 
BRANCH   4   5
ATOM      5  C   UNL     1      17.053  17.070  15.043  1.00  0.00     0.006 C 
BRANCH   5   6
ATOM      6  C   UNL     1      17.999  17.804  14.088  1.00  0.00     0.053 C 
BRANCH   6   7
ATOM      7  C   UNL     1      17.958  19.278  14.340  1.00  0.00     0.041 C 
ATOM      8  O   UNL     1      16.881  19.833  14.683  1.00  0.00    -0.550 OA
ATOM      9  O   UNL     1      19.099  20.048  14.147  1.00  0.00    -0.550 OA
ENDBRANCH   6   7
ENDBRANCH   5   6
ENDBRANCH   4   5
ENDBRANCH   3   4
ENDBRANCH   2   3
ENDBRANCH   1   2
BRANCH   1  10
ATOM     10  C   UNL     1      17.957  17.291  20.673  1.00  0.00     0.000 C 
BRANCH  10  11
ATOM     11  C   UNL     1      19.328  17.881  20.302  1.00  0.00    -0.000 C 
BRANCH  11  12
ATOM     12  C   UNL     1      19.781  18.993  21.267  1.00  0.00    -0.000 C 
BRANCH  12  13
ATOM     13  C   UNL     1      20.032  18.538  22.718  1.00  0.00    -0.000 C 
BRANCH  13  14
ATOM     14  C   UNL     1      21.236  19.201  23.415  1.00  0.00    -0.000 C 
BRANCH  14  15
ATOM     15  C   UNL     1      20.905  20.476  24.210  1.00  0.00    -0.000 C 
BRANCH  15  16
ATOM     16  C   UNL     1      22.158  21.262  24.624  1.00  0.00    -0.003 C 
ATOM     17  C   UNL     1      23.367  20.340  24.752  1.00  0.00     0.004 C 
ENDBRANCH  15  16
ENDBRANCH  14  15
ENDBRANCH  13  14
ENDBRANCH  12  13
ENDBRANCH  11  12
ENDBRANCH  10  11
ENDBRANCH   1  10
TORSDOF 13
ENDMDL
MODEL 6
REMARK VINA RESULT:    12.444      1.225      2.261
REMARK INTER + INTRA:          21.201
REMARK INTER:                  21.743
REMARK INTRA:                  -0.543
REMARK UNBOUND:                -0.700
REMARK SMILES CCCCCCCCCCCCCCC(=O)[O-]
REMARK SMILES IDX 9 1 10 2 11 3 12 4 13 5 14 6 15 7 16 8 17 9 8 10 7 11 6 12
REMARK SMILES IDX 5 13 4 14 3 15 2 16 1 17
REMARK H PARENT
REMARK Flexibility Score: inf
ROOT
ATOM      1  C   UNL     1      16.878  17.060  19.589  1.00  0.00     0.000 C 
ENDROOT
BRANCH   1   2
ATOM      2  C   UNL     1      16.459  18.153  18.594  1.00  0.00     0.000 C 
BRANCH   2   3
ATOM      3  C   UNL     1      16.077  17.544  17.240  1.00  0.00     0.000 C 
BRANCH   3   4
ATOM      4  C   UNL     1      17.322  17.270  16.386  1.00  0.00     0.000 C 
BRANCH   4   5
ATOM      5  C   UNL     1      16.955  17.139  14.904  1.00  0.00     0.006 C 
BRANCH   5   6
ATOM      6  C   UNL     1      17.994  17.833  14.018  1.00  0.00     0.053 C 
BRANCH   6   7
ATOM      7  C   UNL     1      17.927  19.317  14.197  1.00  0.00     0.041 C 
ATOM      8  O   UNL     1      18.916  20.037  13.897  1.00  0.00    -0.550 OA
ATOM      9  O   UNL     1      16.791  19.901  14.744  1.00  0.00    -0.550 OA
ENDBRANCH   6   7
ENDBRANCH   5   6
ENDBRANCH   4   5
ENDBRANCH   3   4
ENDBRANCH   2   3
ENDBRANCH   1   2
BRANCH   1  10
ATOM     10  C   UNL     1      18.386  17.074  19.887  1.00  0.00     0.000 C 
BRANCH  10  11
ATOM     11  C   UNL     1      18.763  18.089  20.979  1.00  0.00    -0.000 C 
BRANCH  11  12
ATOM     12  C   UNL     1      20.252  18.482  20.941  1.00  0.00    -0.000 C 
BRANCH  12  13
ATOM     13  C   UNL     1      21.081  17.798  19.835  1.00  0.00    -0.000 C 
BRANCH  13  14
ATOM     14  C   UNL     1      22.601  18.041  19.910  1.00  0.00    -0.000 C 
BRANCH  14  15
ATOM     15  C   UNL     1      23.270  17.571  21.214  1.00  0.00    -0.000 C 
BRANCH  15  16
ATOM     16  C   UNL     1      24.530  18.376  21.561  1.00  0.00    -0.003 C 
ATOM     17  C   UNL     1      25.211  17.821  22.809  1.00  0.00     0.004 C 
ENDBRANCH  15  16
ENDBRANCH  14  15
ENDBRANCH  13  14
ENDBRANCH  12  13
ENDBRANCH  11  12
ENDBRANCH  10  11
ENDBRANCH   1  10
TORSDOF 13
ENDMDL
MODEL 7
REMARK VINA RESULT:    12.559      1.811      2.475
REMARK INTER + INTRA:          21.404
REMARK INTER:                  21.982
REMARK INTRA:                  -0.578
REMARK UNBOUND:                -0.700
REMARK SMILES CCCCCCCCCCCCCCC(=O)[O-]
REMARK SMILES IDX 9 1 10 2 11 3 12 4 13 5 14 6 15 7 16 8 17 9 8 10 7 11 6 12
REMARK SMILES IDX 5 13 4 14 3 15 2 16 1 17
REMARK H PARENT
REMARK Flexibility Score: inf
ROOT
ATOM      1  C   UNL     1      18.636  17.761  21.212  1.00  0.00     0.000 C 
ENDROOT
BRANCH   1   2
ATOM      2  C   UNL     1      18.422  17.512  19.711  1.00  0.00     0.000 C 
BRANCH   2   3
ATOM      3  C   UNL     1      17.018  16.960  19.442  1.00  0.00     0.000 C 
BRANCH   3   4
ATOM      4  C   UNL     1      16.414  17.580  18.176  1.00  0.00     0.000 C 
BRANCH   4   5
ATOM      5  C   UNL     1      17.345  17.393  16.973  1.00  0.00     0.006 C 
BRANCH   5   6
ATOM      6  C   UNL     1      16.566  17.476  15.657  1.00  0.00     0.053 C 
BRANCH   6   7
ATOM      7  C   UNL     1      17.497  17.379  14.490  1.00  0.00     0.041 C 
ATOM      8  O   UNL     1      17.838  16.252  14.044  1.00  0.00    -0.550 OA
ATOM      9  O   UNL     1      18.027  18.532  13.926  1.00  0.00    -0.550 OA
ENDBRANCH   6   7
ENDBRANCH   5   6
ENDBRANCH   4   5
ENDBRANCH   3   4
ENDBRANCH   2   3
ENDBRANCH   1   2
BRANCH   1  10
ATOM     10  C   UNL     1      19.546  18.968  21.490  1.00  0.00     0.000 C 
BRANCH  10  11
ATOM     11  C   UNL     1      20.721  18.620  22.420  1.00  0.00    -0.000 C 
BRANCH  11  12
ATOM     12  C   UNL     1      20.551  19.200  23.837  1.00  0.00    -0.000 C 
BRANCH  12  13
ATOM     13  C   UNL     1      21.186  20.587  24.057  1.00  0.00    -0.000 C 
BRANCH  13  14
ATOM     14  C   UNL     1      22.529  20.582  24.813  1.00  0.00    -0.000 C 
BRANCH  14  15
ATOM     15  C   UNL     1      23.770  20.818  23.933  1.00  0.00    -0.000 C 
BRANCH  15  16
ATOM     16  C   UNL     1      24.331  19.521  23.334  1.00  0.00    -0.003 C 
ATOM     17  C   UNL     1      25.410  19.817  22.297  1.00  0.00     0.004 C 
ENDBRANCH  15  16
ENDBRANCH  14  15
ENDBRANCH  13  14
ENDBRANCH  12  13
ENDBRANCH  11  12
ENDBRANCH  10  11
ENDBRANCH   1  10
TORSDOF 13
ENDMDL
MODEL 8
REMARK VINA RESULT:    12.774      5.025      6.976
REMARK INTER + INTRA:          21.781
REMARK INTER:                  22.283
REMARK INTRA:                  -0.502
REMARK UNBOUND:                -0.700
REMARK SMILES CCCCCCCCCCCCCCC(=O)[O-]
REMARK SMILES IDX 9 1 10 2 11 3 12 4 13 5 14 6 15 7 16 8 17 9 8 10 7 11 6 12
REMARK SMILES IDX 5 13 4 14 3 15 2 16 1 17
REMARK H PARENT
REMARK Flexibility Score: inf
ROOT
ATOM      1  C   UNL     1      15.800  14.603  20.243  1.00  0.00     0.000 C 
ENDROOT
BRANCH   1   2
ATOM      2  C   UNL     1      15.471  16.056  19.866  1.00  0.00     0.000 C 
BRANCH   2   3
ATOM      3  C   UNL     1      16.726  16.796  19.389  1.00  0.00     0.000 C 
BRANCH   3   4
ATOM      4  C   UNL     1      16.410  17.705  18.195  1.00  0.00     0.000 C 
BRANCH   4   5
ATOM      5  C   UNL     1      17.313  17.378  17.000  1.00  0.00     0.006 C 
BRANCH   5   6
ATOM      6  C   UNL     1      16.567  17.580  15.678  1.00  0.00     0.053 C 
BRANCH   6   7
ATOM      7  C   UNL     1      17.483  17.344  14.518  1.00  0.00     0.041 C 
ATOM      8  O   UNL     1      17.958  18.319  13.877  1.00  0.00    -0.550 OA
ATOM      9  O   UNL     1      17.773  16.047  14.114  1.00  0.00    -0.550 OA
ENDBRANCH   6   7
ENDBRANCH   5   6
ENDBRANCH   4   5
ENDBRANCH   3   4
ENDBRANCH   2   3
ENDBRANCH   1   2
BRANCH   1  10
ATOM     10  C   UNL     1      14.543  13.758  20.505  1.00  0.00     0.000 C 
BRANCH  10  11
ATOM     11  C   UNL     1      14.571  12.413  19.761  1.00  0.00    -0.000 C 
BRANCH  11  12
ATOM     12  C   UNL     1      15.275  11.302  20.562  1.00  0.00    -0.000 C 
BRANCH  12  13
ATOM     13  C   UNL     1      15.903  10.180  19.712  1.00  0.00    -0.000 C 
BRANCH  13  14
ATOM     14  C   UNL     1      17.200   9.572  20.283  1.00  0.00    -0.000 C 
BRANCH  14  15
ATOM     15  C   UNL     1      18.225   9.121  19.227  1.00  0.00    -0.000 C 
BRANCH  15  16
ATOM     16  C   UNL     1      19.641   9.640  19.512  1.00  0.00    -0.003 C 
ATOM     17  C   UNL     1      19.664  10.516  20.762  1.00  0.00     0.004 C 
ENDBRANCH  15  16
ENDBRANCH  14  15
ENDBRANCH  13  14
ENDBRANCH  12  13
ENDBRANCH  11  12
ENDBRANCH  10  11
ENDBRANCH   1  10
TORSDOF 13
ENDMDL
MODEL 9
REMARK VINA RESULT:    13.424      5.647      7.749
REMARK INTER + INTRA:          22.925
REMARK INTER:                  23.554
REMARK INTRA:                  -0.628
REMARK UNBOUND:                -0.700
REMARK SMILES CCCCCCCCCCCCCCC(=O)[O-]
REMARK SMILES IDX 9 1 10 2 11 3 12 4 13 5 14 6 15 7 16 8 17 9 8 10 7 11 6 12
REMARK SMILES IDX 5 13 4 14 3 15 2 16 1 17
REMARK H PARENT
REMARK Flexibility Score: inf
ROOT
ATOM      1  C   UNL     1      14.006  12.459  19.817  1.00  0.00     0.000 C 
ENDROOT
BRANCH   1   2
ATOM      2  C   UNL     1      14.687  11.212  19.234  1.00  0.00     0.000 C 
BRANCH   2   3
ATOM      3  C   UNL     1      15.726  10.648  20.210  1.00  0.00     0.000 C 
BRANCH   3   4
ATOM      4  C   UNL     1      16.169   9.240  19.794  1.00  0.00     0.000 C 
BRANCH   4   5
ATOM      5  C   UNL     1      17.646   9.226  19.384  1.00  0.00     0.006 C 
BRANCH   5   6
ATOM      6  C   UNL     1      18.555   9.422  20.600  1.00  0.00     0.053 C 
BRANCH   6   7
ATOM      7  C   UNL     1      19.706  10.314  20.256  1.00  0.00     0.041 C 
ATOM      8  O   UNL     1      19.910  11.369  20.912  1.00  0.00    -0.550 OA
ATOM      9  O   UNL     1      20.525  10.006  19.176  1.00  0.00    -0.550 OA
ENDBRANCH   6   7
ENDBRANCH   5   6
ENDBRANCH   4   5
ENDBRANCH   3   4
ENDBRANCH   2   3
ENDBRANCH   1   2
BRANCH   1  10
ATOM     10  C   UNL     1      14.937  13.269  20.735  1.00  0.00     0.000 C 
BRANCH  10  11
ATOM     11  C   UNL     1      14.786  14.787  20.537  1.00  0.00    -0.000 C 
BRANCH  11  12
ATOM     12  C   UNL     1      16.103  15.468  20.122  1.00  0.00    -0.000 C 
BRANCH  12  13
ATOM     13  C   UNL     1      15.941  16.803  19.369  1.00  0.00    -0.000 C 
BRANCH  13  14
ATOM     14  C   UNL     1      17.210  17.675  19.297  1.00  0.00    -0.000 C 
BRANCH  14  15
ATOM     15  C   UNL     1      18.393  17.170  20.141  1.00  0.00    -0.000 C 
BRANCH  15  16
ATOM     16  C   UNL     1      19.369  18.290  20.529  1.00  0.00    -0.003 C 
ATOM     17  C   UNL     1      20.795  17.947  20.105  1.00  0.00     0.004 C 
ENDBRANCH  15  16
ENDBRANCH  14  15
ENDBRANCH  13  14
ENDBRANCH  12  13
ENDBRANCH  11  12
ENDBRANCH  10  11
ENDBRANCH   1  10
TORSDOF 13
ENDMDL
