MODEL 1
REMARK VINA RESULT:    -3.425      0.000      0.000
REMARK INTER + INTRA:          -6.304
REMARK INTER:                  -5.427
REMARK INTRA:                  -0.877
REMARK UNBOUND:                -0.877
REMARK SMILES CCCCCCCCCCCC(=O)[O-]
REMARK SMILES IDX 7 1 8 2 9 3 10 4 11 5 12 6 13 7 14 8 6 9 5 10 4 11 3 12 2 13
REMARK SMILES IDX 1 14
REMARK H PARENT
REMARK Flexibility Score: inf
ROOT
ATOM      1  C   UNL     1       4.074 -34.397  20.809  1.00  0.00     0.000 C 
ENDROOT
BRANCH   1   2
ATOM      2  C   UNL     1       5.397 -34.928  20.232  1.00  0.00     0.000 C 
BRANCH   2   3
ATOM      3  C   UNL     1       5.185 -36.091  19.248  1.00  0.00     0.000 C 
BRANCH   3   4
ATOM      4  C   UNL     1       4.608 -37.347  19.927  1.00  0.00     0.006 C 
BRANCH   4   5
ATOM      5  C   UNL     1       5.368 -37.794  21.186  1.00  0.00     0.053 C 
BRANCH   5   6
ATOM      6  C   UNL     1       5.475 -39.284  21.279  1.00  0.00     0.041 C 
ATOM      7  O   UNL     1       5.009 -39.892  22.279  1.00  0.00    -0.550 OA
ATOM      8  O   UNL     1       6.120 -40.000  20.277  1.00  0.00    -0.550 OA
ENDBRANCH   5   6
ENDBRANCH   4   5
ENDBRANCH   3   4
ENDBRANCH   2   3
ENDBRANCH   1   2
BRANCH   1   9
ATOM      9  C   UNL     1       4.160 -34.117  22.320  1.00  0.00     0.000 C 
BRANCH   9  10
ATOM     10  C   UNL     1       5.585 -33.762  22.774  1.00  0.00    -0.000 C 
BRANCH  10  11
ATOM     11  C   UNL     1       5.997 -34.488  24.067  1.00  0.00    -0.000 C 
BRANCH  11  12
ATOM     12  C   UNL     1       5.423 -35.919  24.139  1.00  0.00    -0.000 C 
BRANCH  12  13
ATOM     13  C   UNL     1       5.747 -36.647  25.455  1.00  0.00    -0.003 C 
ATOM     14  C   UNL     1       4.648 -37.614  25.890  1.00  0.00     0.004 C 
ENDBRANCH  12  13
ENDBRANCH  11  12
ENDBRANCH  10  11
ENDBRANCH   9  10
ENDBRANCH   1   9
TORSDOF 10
ENDMDL
MODEL 2
REMARK VINA RESULT:    -3.158      2.156      4.277
REMARK INTER + INTRA:          -5.881
REMARK INTER:                  -4.903
REMARK INTRA:                  -0.978
REMARK UNBOUND:                -0.877
REMARK SMILES CCCCCCCCCCCC(=O)[O-]
REMARK SMILES IDX 7 1 8 2 9 3 10 4 11 5 12 6 13 7 14 8 6 9 5 10 4 11 3 12 2 13
REMARK SMILES IDX 1 14
REMARK H PARENT
REMARK Flexibility Score: inf
ROOT
ATOM      1  C   UNL     1       3.827 -34.251  21.307  1.00  0.00     0.000 C 
ENDROOT
BRANCH   1   2
ATOM      2  C   UNL     1       4.705 -33.741  22.463  1.00  0.00     0.000 C 
BRANCH   2   3
ATOM      3  C   UNL     1       6.099 -34.393  22.476  1.00  0.00     0.000 C 
BRANCH   3   4
ATOM      4  C   UNL     1       6.076 -35.834  23.017  1.00  0.00     0.006 C 
BRANCH   4   5
ATOM      5  C   UNL     1       4.874 -36.154  23.921  1.00  0.00     0.053 C 
BRANCH   5   6
ATOM      6  C   UNL     1       5.299 -36.584  25.290  1.00  0.00     0.041 C 
ATOM      7  O   UNL     1       6.124 -35.894  25.945  1.00  0.00    -0.550 OA
ATOM      8  O   UNL     1       4.807 -37.766  25.832  1.00  0.00    -0.550 OA
ENDBRANCH   5   6
ENDBRANCH   4   5
ENDBRANCH   3   4
ENDBRANCH   2   3
ENDBRANCH   1   2
BRANCH   1   9
ATOM      9  C   UNL     1       4.591 -34.324  19.974  1.00  0.00     0.000 C 
BRANCH   9  10
ATOM     10  C   UNL     1       4.342 -35.641  19.222  1.00  0.00    -0.000 C 
BRANCH  10  11
ATOM     11  C   UNL     1       5.338 -36.748  19.613  1.00  0.00    -0.000 C 
BRANCH  11  12
ATOM     12  C   UNL     1       4.692 -37.817  20.520  1.00  0.00    -0.000 C 
BRANCH  12  13
ATOM     13  C   UNL     1       5.431 -39.166  20.505  1.00  0.00    -0.003 C 
ATOM     14  C   UNL     1       5.474 -39.840  21.874  1.00  0.00     0.004 C 
ENDBRANCH  12  13
ENDBRANCH  11  12
ENDBRANCH  10  11
ENDBRANCH   9  10
ENDBRANCH   1   9
TORSDOF 10
ENDMDL
MODEL 3
REMARK VINA RESULT:    -2.180      2.368      4.489
REMARK INTER + INTRA:          -4.331
REMARK INTER:                  -3.528
REMARK INTRA:                  -0.803
REMARK UNBOUND:                -0.877
REMARK SMILES CCCCCCCCCCCC(=O)[O-]
REMARK SMILES IDX 7 1 8 2 9 3 10 4 11 5 12 6 13 7 14 8 6 9 5 10 4 11 3 12 2 13
REMARK SMILES IDX 1 14
REMARK H PARENT
REMARK Flexibility Score: inf
ROOT
ATOM      1  C   UNL     1       6.064 -34.589  24.174  1.00  0.00     0.000 C 
ENDROOT
BRANCH   1   2
ATOM      2  C   UNL     1       5.864 -33.738  22.908  1.00  0.00     0.000 C 
BRANCH   2   3
ATOM      3  C   UNL     1       4.382 -33.601  22.518  1.00  0.00     0.000 C 
BRANCH   3   4
ATOM      4  C   UNL     1       4.090 -34.116  21.097  1.00  0.00     0.006 C 
BRANCH   4   5
ATOM      5  C   UNL     1       5.343 -34.484  20.286  1.00  0.00     0.053 C 
BRANCH   5   6
ATOM      6  C   UNL     1       5.038 -34.670  18.832  1.00  0.00     0.041 C 
ATOM      7  O   UNL     1       5.544 -33.899  17.974  1.00  0.00    -0.550 OA
ATOM      8  O   UNL     1       4.168 -35.675  18.426  1.00  0.00    -0.550 OA
ENDBRANCH   5   6
ENDBRANCH   4   5
ENDBRANCH   3   4
ENDBRANCH   2   3
ENDBRANCH   1   2
BRANCH   1   9
ATOM      9  C   UNL     1       5.459 -35.997  24.039  1.00  0.00     0.000 C 
BRANCH   9  10
ATOM     10  C   UNL     1       5.914 -36.715  22.758  1.00  0.00    -0.000 C 
BRANCH  10  11
ATOM     11  C   UNL     1       4.917 -37.791  22.291  1.00  0.00    -0.000 C 
BRANCH  11  12
ATOM     12  C   UNL     1       4.996 -38.036  20.770  1.00  0.00    -0.000 C 
BRANCH  12  13
ATOM     13  C   UNL     1       5.689 -39.357  20.394  1.00  0.00    -0.003 C 
ATOM     14  C   UNL     1       5.846 -40.309  21.578  1.00  0.00     0.004 C 
ENDBRANCH  12  13
ENDBRANCH  11  12
ENDBRANCH  10  11
ENDBRANCH   9  10
ENDBRANCH   1   9
TORSDOF 10
ENDMDL
MODEL 4
REMARK VINA RESULT:    -1.989      2.581      3.090
REMARK INTER + INTRA:          -4.029
REMARK INTER:                  -3.216
REMARK INTRA:                  -0.812
REMARK UNBOUND:                -0.877
REMARK SMILES CCCCCCCCCCCC(=O)[O-]
REMARK SMILES IDX 7 1 8 2 9 3 10 4 11 5 12 6 13 7 14 8 6 9 5 10 4 11 3 12 2 13
REMARK SMILES IDX 1 14
REMARK H PARENT
REMARK Flexibility Score: inf
ROOT
ATOM      1  C   UNL     1       4.088 -35.561  21.987  1.00  0.00     0.000 C 
ENDROOT
BRANCH   1   2
ATOM      2  C   UNL     1       5.137 -36.681  21.874  1.00  0.00     0.000 C 
BRANCH   2   3
ATOM      3  C   UNL     1       4.702 -37.800  20.911  1.00  0.00     0.000 C 
BRANCH   3   4
ATOM      4  C   UNL     1       4.738 -37.362  19.435  1.00  0.00     0.006 C 
BRANCH   4   5
ATOM      5  C   UNL     1       5.688 -36.189  19.144  1.00  0.00     0.053 C 
BRANCH   5   6
ATOM      6  C   UNL     1       4.971 -35.019  18.546  1.00  0.00     0.041 C 
ATOM      7  O   UNL     1       5.198 -33.854  18.968  1.00  0.00    -0.550 OA
ATOM      8  O   UNL     1       4.029 -35.218  17.544  1.00  0.00    -0.550 OA
ENDBRANCH   5   6
ENDBRANCH   4   5
ENDBRANCH   3   4
ENDBRANCH   2   3
ENDBRANCH   1   2
BRANCH   1   9
ATOM      9  C   UNL     1       4.704 -34.217  22.413  1.00  0.00     0.000 C 
BRANCH   9  10
ATOM     10  C   UNL     1       6.103 -34.377  23.028  1.00  0.00    -0.000 C 
BRANCH  10  11
ATOM     11  C   UNL     1       6.080 -34.395  24.567  1.00  0.00    -0.000 C 
BRANCH  11  12
ATOM     12  C   UNL     1       6.112 -35.831  25.132  1.00  0.00    -0.000 C 
BRANCH  12  13
ATOM     13  C   UNL     1       4.720 -36.385  25.483  1.00  0.00    -0.003 C 
ATOM     14  C   UNL     1       4.733 -37.878  25.803  1.00  0.00     0.004 C 
ENDBRANCH  12  13
ENDBRANCH  11  12
ENDBRANCH  10  11
ENDBRANCH   9  10
ENDBRANCH   1   9
TORSDOF 10
ENDMDL
MODEL 5
REMARK VINA RESULT:    -1.800      1.244      4.132
REMARK INTER + INTRA:          -3.729
REMARK INTER:                  -2.974
REMARK INTRA:                  -0.755
REMARK UNBOUND:                -0.877
REMARK SMILES CCCCCCCCCCCC(=O)[O-]
REMARK SMILES IDX 7 1 8 2 9 3 10 4 11 5 12 6 13 7 14 8 6 9 5 10 4 11 3 12 2 13
REMARK SMILES IDX 1 14
REMARK H PARENT
REMARK Flexibility Score: inf
ROOT
ATOM      1  C   UNL     1       5.752 -34.000  23.316  1.00  0.00     0.000 C 
ENDROOT
BRANCH   1   2
ATOM      2  C   UNL     1       6.125 -35.136  24.285  1.00  0.00     0.000 C 
BRANCH   2   3
ATOM      3  C   UNL     1       5.341 -36.430  24.004  1.00  0.00     0.000 C 
BRANCH   3   4
ATOM      4  C   UNL     1       5.815 -37.148  22.726  1.00  0.00     0.006 C 
BRANCH   4   5
ATOM      5  C   UNL     1       5.100 -38.479  22.444  1.00  0.00     0.053 C 
BRANCH   5   6
ATOM      6  C   UNL     1       5.416 -39.010  21.081  1.00  0.00     0.041 C 
ATOM      7  O   UNL     1       6.021 -40.107  20.952  1.00  0.00    -0.550 OA
ATOM      8  O   UNL     1       5.071 -38.278  19.951  1.00  0.00    -0.550 OA
ENDBRANCH   5   6
ENDBRANCH   4   5
ENDBRANCH   3   4
ENDBRANCH   2   3
ENDBRANCH   1   2
BRANCH   1   9
ATOM      9  C   UNL     1       4.265 -34.025  22.923  1.00  0.00     0.000 C 
BRANCH   9  10
ATOM     10  C   UNL     1       4.047 -33.794  21.419  1.00  0.00    -0.000 C 
BRANCH  10  11
ATOM     11  C   UNL     1       4.342 -35.047  20.575  1.00  0.00    -0.000 C 
BRANCH  11  12
ATOM     12  C   UNL     1       5.651 -34.910  19.768  1.00  0.00    -0.000 C 
BRANCH  12  13
ATOM     13  C   UNL     1       5.448 -34.325  18.360  1.00  0.00    -0.003 C 
ATOM     14  C   UNL     1       4.257 -34.936  17.624  1.00  0.00     0.004 C 
ENDBRANCH  12  13
ENDBRANCH  11  12
ENDBRANCH  10  11
ENDBRANCH   9  10
ENDBRANCH   1   9
TORSDOF 10
ENDMDL
MODEL 6
REMARK VINA RESULT:    -1.077      2.514      4.130
REMARK INTER + INTRA:          -2.583
REMARK INTER:                  -2.502
REMARK INTRA:                  -0.081
REMARK UNBOUND:                -0.877
REMARK SMILES CCCCCCCCCCCC(=O)[O-]
REMARK SMILES IDX 7 1 8 2 9 3 10 4 11 5 12 6 13 7 14 8 6 9 5 10 4 11 3 12 2 13
REMARK SMILES IDX 1 14
REMARK H PARENT
REMARK Flexibility Score: inf
ROOT
ATOM      1  C   UNL     1       4.977 -37.627  22.899  1.00  0.00     0.000 C 
ENDROOT
BRANCH   1   2
ATOM      2  C   UNL     1       5.346 -38.644  21.805  1.00  0.00     0.000 C 
BRANCH   2   3
ATOM      3  C   UNL     1       5.449 -37.999  20.412  1.00  0.00     0.000 C 
BRANCH   3   4
ATOM      4  C   UNL     1       4.687 -36.663  20.317  1.00  0.00     0.006 C 
BRANCH   4   5
ATOM      5  C   UNL     1       4.409 -36.193  18.881  1.00  0.00     0.053 C 
BRANCH   5   6
ATOM      6  C   UNL     1       5.058 -34.876  18.584  1.00  0.00     0.041 C 
ATOM      7  O   UNL     1       6.125 -34.550  19.168  1.00  0.00    -0.550 OA
ATOM      8  O   UNL     1       4.467 -33.995  17.687  1.00  0.00    -0.550 OA
ENDBRANCH   5   6
ENDBRANCH   4   5
ENDBRANCH   3   4
ENDBRANCH   2   3
ENDBRANCH   1   2
BRANCH   1   9
ATOM      9  C   UNL     1       6.052 -36.542  23.082  1.00  0.00     0.000 C 
BRANCH   9  10
ATOM     10  C   UNL     1       5.815 -35.679  24.331  1.00  0.00    -0.000 C 
BRANCH  10  11
ATOM     11  C   UNL     1       6.125 -34.190  24.096  1.00  0.00    -0.000 C 
BRANCH  11  12
ATOM     12  C   UNL     1       5.568 -33.686  22.748  1.00  0.00    -0.000 C 
BRANCH  12  13
ATOM     13  C   UNL     1       4.155 -34.204  22.433  1.00  0.00    -0.003 C 
ATOM     14  C   UNL     1       3.377 -33.287  21.492  1.00  0.00     0.004 C 
ENDBRANCH  12  13
ENDBRANCH  11  12
ENDBRANCH  10  11
ENDBRANCH   9  10
ENDBRANCH   1   9
TORSDOF 10
ENDMDL
MODEL 7
REMARK VINA RESULT:    -0.918      3.378      4.122
REMARK INTER + INTRA:          -2.332
REMARK INTER:                  -1.946
REMARK INTRA:                  -0.386
REMARK UNBOUND:                -0.877
REMARK SMILES CCCCCCCCCCCC(=O)[O-]
REMARK SMILES IDX 7 1 8 2 9 3 10 4 11 5 12 6 13 7 14 8 6 9 5 10 4 11 3 12 2 13
REMARK SMILES IDX 1 14
REMARK H PARENT
REMARK Flexibility Score: inf
ROOT
ATOM      1  C   UNL     1       4.075 -34.301  20.457  1.00  0.00     0.000 C 
ENDROOT
BRANCH   1   2
ATOM      2  C   UNL     1       4.809 -35.207  19.453  1.00  0.00     0.000 C 
BRANCH   2   3
ATOM      3  C   UNL     1       4.519 -34.822  17.992  1.00  0.00     0.000 C 
BRANCH   3   4
ATOM      4  C   UNL     1       3.958 -35.996  17.168  1.00  0.00     0.006 C 
BRANCH   4   5
ATOM      5  C   UNL     1       3.081 -35.575  15.978  1.00  0.00     0.053 C 
BRANCH   5   6
ATOM      6  C   UNL     1       2.944 -36.668  14.965  1.00  0.00     0.041 C 
ATOM      7  O   UNL     1       2.014 -36.633  14.117  1.00  0.00    -0.550 OA
ATOM      8  O   UNL     1       3.826 -37.742  14.976  1.00  0.00    -0.550 OA
ENDBRANCH   5   6
ENDBRANCH   4   5
ENDBRANCH   3   4
ENDBRANCH   2   3
ENDBRANCH   1   2
BRANCH   1   9
ATOM      9  C   UNL     1       4.855 -34.124  21.772  1.00  0.00     0.000 C 
BRANCH   9  10
ATOM     10  C   UNL     1       6.054 -35.079  21.880  1.00  0.00    -0.000 C 
BRANCH  10  11
ATOM     11  C   UNL     1       5.812 -36.229  22.874  1.00  0.00    -0.000 C 
BRANCH  11  12
ATOM     12  C   UNL     1       5.340 -35.718  24.252  1.00  0.00    -0.000 C 
BRANCH  12  13
ATOM     13  C   UNL     1       5.732 -36.640  25.418  1.00  0.00    -0.003 C 
ATOM     14  C   UNL     1       4.564 -37.472  25.943  1.00  0.00     0.004 C 
ENDBRANCH  12  13
ENDBRANCH  11  12
ENDBRANCH  10  11
ENDBRANCH   9  10
ENDBRANCH   1   9
TORSDOF 10
ENDMDL
MODEL 8
REMARK VINA RESULT:    -0.719      0.677      1.152
REMARK INTER + INTRA:          -2.016
REMARK INTER:                  -1.252
REMARK INTRA:                  -0.763
REMARK UNBOUND:                -0.877
REMARK SMILES CCCCCCCCCCCC(=O)[O-]
REMARK SMILES IDX 7 1 8 2 9 3 10 4 11 5 12 6 13 7 14 8 6 9 5 10 4 11 3 12 2 13
REMARK SMILES IDX 1 14
REMARK H PARENT
REMARK Flexibility Score: inf
ROOT
ATOM      1  C   UNL     1       4.021 -34.243  21.376  1.00  0.00     0.000 C 
ENDROOT
BRANCH   1   2
ATOM      2  C   UNL     1       4.907 -34.550  20.156  1.00  0.00     0.000 C 
BRANCH   2   3
ATOM      3  C   UNL     1       4.436 -35.795  19.385  1.00  0.00     0.000 C 
BRANCH   3   4
ATOM      4  C   UNL     1       5.249 -37.055  19.737  1.00  0.00     0.006 C 
BRANCH   4   5
ATOM      5  C   UNL     1       4.616 -37.934  20.828  1.00  0.00     0.053 C 
BRANCH   5   6
ATOM      6  C   UNL     1       5.384 -39.200  21.046  1.00  0.00     0.041 C 
ATOM      7  O   UNL     1       6.125 -39.658  20.136  1.00  0.00    -0.550 OA
ATOM      8  O   UNL     1       5.258 -39.893  22.244  1.00  0.00    -0.550 OA
ENDBRANCH   5   6
ENDBRANCH   4   5
ENDBRANCH   3   4
ENDBRANCH   2   3
ENDBRANCH   1   2
BRANCH   1   9
ATOM      9  C   UNL     1       4.766 -33.442  22.458  1.00  0.00     0.000 C 
BRANCH   9  10
ATOM     10  C   UNL     1       5.861 -34.266  23.154  1.00  0.00    -0.000 C 
BRANCH  10  11
ATOM     11  C   UNL     1       5.364 -35.648  23.618  1.00  0.00    -0.000 C 
BRANCH  11  12
ATOM     12  C   UNL     1       6.033 -36.094  24.935  1.00  0.00    -0.000 C 
BRANCH  12  13
ATOM     13  C   UNL     1       5.043 -36.658  25.968  1.00  0.00    -0.003 C 
ATOM     14  C   UNL     1       4.636 -38.101  25.682  1.00  0.00     0.004 C 
ENDBRANCH  12  13
ENDBRANCH  11  12
ENDBRANCH  10  11
ENDBRANCH   9  10
ENDBRANCH   1   9
TORSDOF 10
ENDMDL
