MODEL 1
REMARK VINA RESULT:    -3.787      0.000      0.000
REMARK INTER + INTRA:          -7.539
REMARK INTER:                  -5.780
REMARK INTRA:                  -1.760
REMARK UNBOUND:                -1.760
REMARK SMILES OC[C@H]1O[C@H](O[C@]2(CO)O[C@H](CO)[C@H](O)[C@H]2O)[C@H](O)[C@@H](O)[C@H]1O
REMARK SMILES IDX 6 1 5 2 3 3 22 4 4 5 20 6 18 7 2 8 1 9 23 11 21 13 19 15
REMARK SMILES IDX 7 17 16 18 10 19 14 20 11 21 8 22 9 23 17 25 15 27 12 29
REMARK SMILES IDX 13 30
REMARK H PARENT 1 10 23 12 21 14 19 16 9 24 17 26 15 28 13 31
REMARK Flexibility Score: inf
ROOT
ATOM      1  O   UNL     1     -10.363  32.526  -8.225  1.00  0.00    -0.313 OA
ENDROOT
BRANCH   1   2
ATOM      2  C   UNL     1     -10.286  33.619  -9.135  1.00  0.00     0.285 C 
ATOM      3  C   UNL     1      -8.919  32.416 -10.621  1.00  0.00     0.178 C 
ATOM      4  C   UNL     1     -10.002  32.343 -11.722  1.00  0.00     0.177 C 
ATOM      5  O   UNL     1      -9.057  33.600  -9.848  1.00  0.00    -0.341 OA
ATOM      6  C   UNL     1     -11.392  32.377 -11.058  1.00  0.00     0.179 C 
ATOM      7  C   UNL     1     -11.484  33.589 -10.110  1.00  0.00     0.202 C 
BRANCH   3   8
ATOM      8  C   UNL     1      -7.501  32.359 -11.207  1.00  0.00     0.191 C 
BRANCH   8   9
ATOM      9  O   UNL     1      -6.598  33.050 -10.388  1.00  0.00    -0.394 OA
ATOM     10  H   UNL     1      -6.182  32.367  -9.799  1.00  0.00     0.210 HD
ENDBRANCH   8   9
ENDBRANCH   3   8
BRANCH   4  11
ATOM     11  O   UNL     1      -9.861  33.424 -12.610  1.00  0.00    -0.387 OA
ATOM     12  H   UNL     1      -9.509  33.056 -13.461  1.00  0.00     0.211 HD
ENDBRANCH   4  11
BRANCH   6  13
ATOM     13  O   UNL     1     -12.402  32.463 -12.029  1.00  0.00    -0.387 OA
ATOM     14  H   UNL     1     -12.357  31.626 -12.561  1.00  0.00     0.211 HD
ENDBRANCH   6  13
BRANCH   7  15
ATOM     15  O   UNL     1     -12.707  33.602  -9.414  1.00  0.00    -0.385 OA
ATOM     16  H   UNL     1     -13.043  32.668  -9.368  1.00  0.00     0.211 HD
ENDBRANCH   7  15
ENDBRANCH   1   2
BRANCH   1  17
ATOM     17  C   UNL     1      -9.822  32.792  -6.932  1.00  0.00     0.224 C 
ATOM     18  C   UNL     1      -9.664  34.320  -6.706  1.00  0.00     0.208 C 
ATOM     19  O   UNL     1     -10.772  32.313  -5.995  1.00  0.00    -0.337 OA
ATOM     20  C   UNL     1     -10.264  34.537  -5.345  1.00  0.00     0.180 C 
ATOM     21  C   UNL     1     -11.278  33.401  -5.253  1.00  0.00     0.179 C 
BRANCH  17  22
ATOM     22  C   UNL     1      -8.518  31.982  -6.684  1.00  0.00     0.225 C 
BRANCH  22  23
ATOM     23  O   UNL     1      -7.532  32.313  -7.627  1.00  0.00    -0.391 OA
ATOM     24  H   UNL     1      -7.889  33.058  -8.176  1.00  0.00     0.210 HD
ENDBRANCH  22  23
ENDBRANCH  17  22
BRANCH  18  25
ATOM     25  O   UNL     1      -8.325  34.745  -6.745  1.00  0.00    -0.385 OA
ATOM     26  H   UNL     1      -8.338  35.731  -6.633  1.00  0.00     0.211 HD
ENDBRANCH  18  25
BRANCH  20  27
ATOM     27  O   UNL     1     -10.844  35.812  -5.247  1.00  0.00    -0.387 OA
ATOM     28  H   UNL     1     -11.741  35.679  -4.840  1.00  0.00     0.211 HD
ENDBRANCH  20  27
BRANCH  21  29
ATOM     29  C   UNL     1     -12.682  33.756  -5.786  1.00  0.00     0.191 C 
BRANCH  29  30
ATOM     30  O   UNL     1     -13.120  32.809  -6.724  1.00  0.00    -0.394 OA
ATOM     31  H   UNL     1     -13.926  32.376  -6.337  1.00  0.00     0.210 HD
ENDBRANCH  29  30
ENDBRANCH  21  29
ENDBRANCH   1  17
TORSDOF 13
ENDMDL
MODEL 2
REMARK VINA RESULT:    -3.596      1.540      5.640
REMARK INTER + INTRA:          -7.248
REMARK INTER:                  -5.811
REMARK INTRA:                  -1.437
REMARK UNBOUND:                -1.760
REMARK SMILES OC[C@H]1O[C@H](O[C@]2(CO)O[C@H](CO)[C@H](O)[C@H]2O)[C@H](O)[C@@H](O)[C@H]1O
REMARK SMILES IDX 6 1 5 2 3 3 22 4 4 5 20 6 18 7 2 8 1 9 23 11 21 13 19 15
REMARK SMILES IDX 7 17 16 18 10 19 14 20 11 21 8 22 9 23 17 25 15 27 12 29
REMARK SMILES IDX 13 30
REMARK H PARENT 1 10 23 12 21 14 19 16 9 24 17 26 15 28 13 31
REMARK Flexibility Score: inf
ROOT
ATOM      1  O   UNL     1     -10.318  33.755  -8.024  1.00  0.00    -0.313 OA
ENDROOT
BRANCH   1   2
ATOM      2  C   UNL     1     -10.370  33.110  -6.755  1.00  0.00     0.285 C 
ATOM      3  C   UNL     1      -8.157  33.720  -6.243  1.00  0.00     0.178 C 
ATOM      4  C   UNL     1      -8.575  34.684  -5.110  1.00  0.00     0.177 C 
ATOM      5  O   UNL     1      -9.082  32.648  -6.368  1.00  0.00    -0.341 OA
ATOM      6  C   UNL     1      -9.980  35.237  -5.417  1.00  0.00     0.179 C 
ATOM      7  C   UNL     1     -10.949  34.069  -5.690  1.00  0.00     0.202 C 
BRANCH   3   8
ATOM      8  C   UNL     1      -6.750  33.148  -6.020  1.00  0.00     0.191 C 
BRANCH   8   9
ATOM      9  O   UNL     1      -6.129  33.773  -4.931  1.00  0.00    -0.394 OA
ATOM     10  H   UNL     1      -6.622  33.473  -4.123  1.00  0.00     0.210 HD
ENDBRANCH   8   9
ENDBRANCH   3   8
BRANCH   4  11
ATOM     11  O   UNL     1      -8.578  34.007  -3.877  1.00  0.00    -0.387 OA
ATOM     12  H   UNL     1      -8.892  34.654  -3.193  1.00  0.00     0.211 HD
ENDBRANCH   4  11
BRANCH   6  13
ATOM     13  O   UNL     1     -10.458  36.000  -4.340  1.00  0.00    -0.387 OA
ATOM     14  H   UNL     1     -11.371  35.665  -4.137  1.00  0.00     0.211 HD
ENDBRANCH   6  13
BRANCH   7  15
ATOM     15  O   UNL     1     -12.221  34.537  -6.066  1.00  0.00    -0.385 OA
ATOM     16  H   UNL     1     -12.630  33.861  -6.668  1.00  0.00     0.211 HD
ENDBRANCH   7  15
ENDBRANCH   1   2
BRANCH   1  17
ATOM     17  C   UNL     1     -10.771  32.954  -9.114  1.00  0.00     0.224 C 
ATOM     18  C   UNL     1     -10.752  33.765 -10.438  1.00  0.00     0.208 C 
ATOM     19  O   UNL     1      -9.841  31.892  -9.245  1.00  0.00    -0.337 OA
ATOM     20  C   UNL     1     -10.076  32.837 -11.407  1.00  0.00     0.180 C 
ATOM     21  C   UNL     1      -9.189  32.000 -10.491  1.00  0.00     0.179 C 
BRANCH  17  22
ATOM     22  C   UNL     1     -12.144  32.295  -8.801  1.00  0.00     0.225 C 
BRANCH  22  23
ATOM     23  O   UNL     1     -13.125  33.268  -8.548  1.00  0.00    -0.391 OA
ATOM     24  H   UNL     1     -12.651  34.115  -8.344  1.00  0.00     0.210 HD
ENDBRANCH  22  23
ENDBRANCH  17  22
BRANCH  18  25
ATOM     25  O   UNL     1     -12.038  34.118 -10.884  1.00  0.00    -0.385 OA
ATOM     26  H   UNL     1     -12.615  33.323 -10.740  1.00  0.00     0.211 HD
ENDBRANCH  18  25
BRANCH  20  27
ATOM     27  O   UNL     1      -9.356  33.556 -12.376  1.00  0.00    -0.387 OA
ATOM     28  H   UNL     1      -8.395  33.385 -12.193  1.00  0.00     0.211 HD
ENDBRANCH  20  27
BRANCH  21  29
ATOM     29  C   UNL     1      -7.778  32.583 -10.264  1.00  0.00     0.191 C 
BRANCH  29  30
ATOM     30  O   UNL     1      -6.956  32.366 -11.380  1.00  0.00    -0.394 OA
ATOM     31  H   UNL     1      -7.206  33.050 -12.055  1.00  0.00     0.210 HD
ENDBRANCH  29  30
ENDBRANCH  21  29
ENDBRANCH   1  17
TORSDOF 13
ENDMDL
MODEL 3
REMARK VINA RESULT:    -2.930      1.485      3.031
REMARK INTER + INTRA:          -6.231
REMARK INTER:                  -4.877
REMARK INTRA:                  -1.354
REMARK UNBOUND:                -1.760
REMARK SMILES OC[C@H]1O[C@H](O[C@]2(CO)O[C@H](CO)[C@H](O)[C@H]2O)[C@H](O)[C@@H](O)[C@H]1O
REMARK SMILES IDX 6 1 5 2 3 3 22 4 4 5 20 6 18 7 2 8 1 9 23 11 21 13 19 15
REMARK SMILES IDX 7 17 16 18 10 19 14 20 11 21 8 22 9 23 17 25 15 27 12 29
REMARK SMILES IDX 13 30
REMARK H PARENT 1 10 23 12 21 14 19 16 9 24 17 26 15 28 13 31
REMARK Flexibility Score: inf
ROOT
ATOM      1  O   UNL     1     -10.446  32.781  -7.568  1.00  0.00    -0.313 OA
ENDROOT
BRANCH   1   2
ATOM      2  C   UNL     1     -10.125  33.695  -8.613  1.00  0.00     0.285 C 
ATOM      3  C   UNL     1      -8.699  32.148  -9.663  1.00  0.00     0.178 C 
ATOM      4  C   UNL     1      -9.618  31.980 -10.894  1.00  0.00     0.177 C 
ATOM      5  O   UNL     1      -8.817  33.453  -9.114  1.00  0.00    -0.341 OA
ATOM      6  C   UNL     1     -11.076  32.241 -10.470  1.00  0.00     0.179 C 
ATOM      7  C   UNL     1     -11.170  33.599  -9.747  1.00  0.00     0.202 C 
BRANCH   3   8
ATOM      8  C   UNL     1      -7.228  31.875 -10.003  1.00  0.00     0.191 C 
BRANCH   8   9
ATOM      9  O   UNL     1      -6.825  32.638 -11.108  1.00  0.00    -0.394 OA
ATOM     10  H   UNL     1      -7.656  33.011 -11.502  1.00  0.00     0.210 HD
ENDBRANCH   8   9
ENDBRANCH   3   8
BRANCH   4  11
ATOM     11  O   UNL     1      -9.238  32.880 -11.906  1.00  0.00    -0.387 OA
ATOM     12  H   UNL     1      -8.294  32.678 -12.133  1.00  0.00     0.211 HD
ENDBRANCH   4  11
BRANCH   6  13
ATOM     13  O   UNL     1     -11.924  32.245 -11.589  1.00  0.00    -0.387 OA
ATOM     14  H   UNL     1     -12.756  32.710 -11.313  1.00  0.00     0.211 HD
ENDBRANCH   6  13
BRANCH   7  15
ATOM     15  O   UNL     1     -12.470  33.831  -9.262  1.00  0.00    -0.385 OA
ATOM     16  H   UNL     1     -13.056  33.100  -9.593  1.00  0.00     0.211 HD
ENDBRANCH   7  15
ENDBRANCH   1   2
BRANCH   1  17
ATOM     17  C   UNL     1     -10.415  33.345  -6.258  1.00  0.00     0.224 C 
ATOM     18  C   UNL     1     -10.047  32.266  -5.204  1.00  0.00     0.208 C 
ATOM     19  O   UNL     1      -9.380  34.314  -6.264  1.00  0.00    -0.337 OA
ATOM     20  C   UNL     1      -8.985  32.933  -4.377  1.00  0.00     0.180 C 
ATOM     21  C   UNL     1      -8.366  33.911  -5.370  1.00  0.00     0.179 C 
BRANCH  17  22
ATOM     22  C   UNL     1     -11.730  34.112  -5.940  1.00  0.00     0.225 C 
BRANCH  22  23
ATOM     23  O   UNL     1     -12.856  33.351  -6.291  1.00  0.00    -0.391 OA
ATOM     24  H   UNL     1     -12.539  32.607  -6.866  1.00  0.00     0.210 HD
ENDBRANCH  22  23
ENDBRANCH  17  22
BRANCH  18  25
ATOM     25  O   UNL     1     -11.141  31.878  -4.411  1.00  0.00    -0.385 OA
ATOM     26  H   UNL     1     -11.911  32.434  -4.701  1.00  0.00     0.211 HD
ENDBRANCH  18  25
BRANCH  20  27
ATOM     27  O   UNL     1      -8.070  31.992  -3.876  1.00  0.00    -0.387 OA
ATOM     28  H   UNL     1      -8.073  32.099  -2.889  1.00  0.00     0.211 HD
ENDBRANCH  20  27
BRANCH  21  29
ATOM     29  C   UNL     1      -7.188  33.334  -6.183  1.00  0.00     0.191 C 
BRANCH  29  30
ATOM     30  O   UNL     1      -6.019  33.279  -5.410  1.00  0.00    -0.394 OA
ATOM     31  H   UNL     1      -6.304  33.091  -4.477  1.00  0.00     0.210 HD
ENDBRANCH  29  30
ENDBRANCH  21  29
ENDBRANCH   1  17
TORSDOF 13
ENDMDL
MODEL 4
REMARK VINA RESULT:    -2.654      1.431      3.822
REMARK INTER + INTRA:          -5.810
REMARK INTER:                  -4.375
REMARK INTRA:                  -1.436
REMARK UNBOUND:                -1.760
REMARK SMILES OC[C@H]1O[C@H](O[C@]2(CO)O[C@H](CO)[C@H](O)[C@H]2O)[C@H](O)[C@@H](O)[C@H]1O
REMARK SMILES IDX 6 1 5 2 3 3 22 4 4 5 20 6 18 7 2 8 1 9 23 11 21 13 19 15
REMARK SMILES IDX 7 17 16 18 10 19 14 20 11 21 8 22 9 23 17 25 15 27 12 29
REMARK SMILES IDX 13 30
REMARK H PARENT 1 10 23 12 21 14 19 16 9 24 17 26 15 28 13 31
REMARK Flexibility Score: inf
ROOT
ATOM      1  O   UNL     1     -10.300  34.000  -7.609  1.00  0.00    -0.313 OA
ENDROOT
BRANCH   1   2
ATOM      2  C   UNL     1     -10.440  32.741  -8.261  1.00  0.00     0.285 C 
ATOM      3  C   UNL     1     -11.263  33.740 -10.225  1.00  0.00     0.178 C 
ATOM      4  C   UNL     1     -10.016  33.367 -11.060  1.00  0.00     0.177 C 
ATOM      5  O   UNL     1     -11.501  32.777  -9.208  1.00  0.00    -0.341 OA
ATOM      6  C   UNL     1      -8.795  33.280 -10.124  1.00  0.00     0.179 C 
ATOM      7  C   UNL     1      -9.113  32.341  -8.944  1.00  0.00     0.202 C 
BRANCH   3   8
ATOM      8  C   UNL     1     -12.518  33.872 -11.097  1.00  0.00     0.191 C 
BRANCH   8   9
ATOM      9  O   UNL     1     -12.998  32.610 -11.470  1.00  0.00    -0.394 OA
ATOM     10  H   UNL     1     -12.215  32.000 -11.448  1.00  0.00     0.210 HD
ENDBRANCH   8   9
ENDBRANCH   3   8
BRANCH   4  11
ATOM     11  O   UNL     1     -10.220  32.136 -11.708  1.00  0.00    -0.387 OA
ATOM     12  H   UNL     1      -9.746  32.186 -12.579  1.00  0.00     0.211 HD
ENDBRANCH   4  11
BRANCH   6  13
ATOM     13  O   UNL     1      -7.674  32.799 -10.818  1.00  0.00    -0.387 OA
ATOM     14  H   UNL     1      -6.882  33.255 -10.429  1.00  0.00     0.211 HD
ENDBRANCH   6  13
BRANCH   7  15
ATOM     15  O   UNL     1      -8.054  32.308  -8.017  1.00  0.00    -0.385 OA
ATOM     16  H   UNL     1      -8.298  31.670  -7.296  1.00  0.00     0.211 HD
ENDBRANCH   7  15
ENDBRANCH   1   2
BRANCH   1  17
ATOM     17  C   UNL     1     -10.714  34.008  -6.244  1.00  0.00     0.224 C 
ATOM     18  C   UNL     1     -10.409  32.644  -5.568  1.00  0.00     0.208 C 
ATOM     19  O   UNL     1      -9.930  34.996  -5.594  1.00  0.00    -0.337 OA
ATOM     20  C   UNL     1      -9.747  33.033  -4.277  1.00  0.00     0.180 C 
ATOM     21  C   UNL     1      -9.112  34.374  -4.628  1.00  0.00     0.179 C 
BRANCH  17  22
ATOM     22  C   UNL     1     -12.194  34.463  -6.103  1.00  0.00     0.225 C 
BRANCH  22  23
ATOM     23  O   UNL     1     -13.007  33.839  -7.063  1.00  0.00    -0.391 OA
ATOM     24  H   UNL     1     -13.869  34.329  -7.078  1.00  0.00     0.210 HD
ENDBRANCH  22  23
ENDBRANCH  17  22
BRANCH  18  25
ATOM     25  O   UNL     1     -11.564  31.876  -5.337  1.00  0.00    -0.385 OA
ATOM     26  H   UNL     1     -11.303  30.927  -5.469  1.00  0.00     0.211 HD
ENDBRANCH  18  25
BRANCH  20  27
ATOM     27  O   UNL     1      -8.815  32.062  -3.875  1.00  0.00    -0.387 OA
ATOM     28  H   UNL     1      -8.288  31.831  -4.685  1.00  0.00     0.211 HD
ENDBRANCH  20  27
BRANCH  21  29
ATOM     29  C   UNL     1      -7.676  34.273  -5.184  1.00  0.00     0.191 C 
BRANCH  29  30
ATOM     30  O   UNL     1      -7.645  34.557  -6.557  1.00  0.00    -0.394 OA
ATOM     31  H   UNL     1      -6.827  34.127  -6.919  1.00  0.00     0.210 HD
ENDBRANCH  29  30
ENDBRANCH  21  29
ENDBRANCH   1  17
TORSDOF 13
ENDMDL
MODEL 5
REMARK VINA RESULT:    -2.614      1.306      3.157
REMARK INTER + INTRA:          -5.749
REMARK INTER:                  -4.260
REMARK INTRA:                  -1.489
REMARK UNBOUND:                -1.760
REMARK SMILES OC[C@H]1O[C@H](O[C@]2(CO)O[C@H](CO)[C@H](O)[C@H]2O)[C@H](O)[C@@H](O)[C@H]1O
REMARK SMILES IDX 6 1 5 2 3 3 22 4 4 5 20 6 18 7 2 8 1 9 23 11 21 13 19 15
REMARK SMILES IDX 7 17 16 18 10 19 14 20 11 21 8 22 9 23 17 25 15 27 12 29
REMARK SMILES IDX 13 30
REMARK H PARENT 1 10 23 12 21 14 19 16 9 24 17 26 15 28 13 31
REMARK Flexibility Score: inf
ROOT
ATOM      1  O   UNL     1      -9.650  33.995  -7.176  1.00  0.00    -0.313 OA
ENDROOT
BRANCH   1   2
ATOM      2  C   UNL     1      -9.569  32.738  -7.842  1.00  0.00     0.285 C 
ATOM      3  C   UNL     1     -10.518  33.609  -9.810  1.00  0.00     0.178 C 
ATOM      4  C   UNL     1      -9.215  33.459 -10.628  1.00  0.00     0.177 C 
ATOM      5  O   UNL     1     -10.607  32.608  -8.805  1.00  0.00    -0.341 OA
ATOM      6  C   UNL     1      -8.010  33.565  -9.673  1.00  0.00     0.179 C 
ATOM      7  C   UNL     1      -8.184  32.572  -8.507  1.00  0.00     0.202 C 
BRANCH   3   8
ATOM      8  C   UNL     1     -11.766  33.541 -10.701  1.00  0.00     0.191 C 
BRANCH   8   9
ATOM      9  O   UNL     1     -12.849  34.184 -10.086  1.00  0.00    -0.394 OA
ATOM     10  H   UNL     1     -13.025  35.001 -10.622  1.00  0.00     0.210 HD
ENDBRANCH   8   9
ENDBRANCH   3   8
BRANCH   4  11
ATOM     11  O   UNL     1      -9.202  32.218 -11.290  1.00  0.00    -0.387 OA
ATOM     12  H   UNL     1      -8.738  32.358 -12.156  1.00  0.00     0.211 HD
ENDBRANCH   4  11
BRANCH   6  13
ATOM     13  O   UNL     1      -6.814  33.285 -10.353  1.00  0.00    -0.387 OA
ATOM     14  H   UNL     1      -7.070  32.936 -11.247  1.00  0.00     0.211 HD
ENDBRANCH   6  13
BRANCH   7  15
ATOM     15  O   UNL     1      -7.149  32.705  -7.564  1.00  0.00    -0.385 OA
ATOM     16  H   UNL     1      -7.129  31.879  -7.013  1.00  0.00     0.211 HD
ENDBRANCH   7  15
ENDBRANCH   1   2
BRANCH   1  17
ATOM     17  C   UNL     1      -9.891  33.907  -5.773  1.00  0.00     0.224 C 
ATOM     18  C   UNL     1     -10.860  35.028  -5.310  1.00  0.00     0.208 C 
ATOM     19  O   UNL     1     -10.535  32.663  -5.555  1.00  0.00    -0.337 OA
ATOM     20  C   UNL     1     -11.864  34.297  -4.465  1.00  0.00     0.180 C 
ATOM     21  C   UNL     1     -11.838  32.897  -5.069  1.00  0.00     0.179 C 
BRANCH  17  22
ATOM     22  C   UNL     1      -8.560  33.856  -4.971  1.00  0.00     0.225 C 
BRANCH  22  23
ATOM     23  O   UNL     1      -7.648  34.814  -5.444  1.00  0.00    -0.391 OA
ATOM     24  H   UNL     1      -7.159  34.403  -6.202  1.00  0.00     0.210 HD
ENDBRANCH  22  23
ENDBRANCH  17  22
BRANCH  18  25
ATOM     25  O   UNL     1     -10.217  36.040  -4.576  1.00  0.00    -0.385 OA
ATOM     26  H   UNL     1      -9.245  35.947  -4.757  1.00  0.00     0.211 HD
ENDBRANCH  18  25
BRANCH  20  27
ATOM     27  O   UNL     1     -13.125  34.911  -4.534  1.00  0.00    -0.387 OA
ATOM     28  H   UNL     1     -13.114  35.645  -3.864  1.00  0.00     0.211 HD
ENDBRANCH  20  27
BRANCH  21  29
ATOM     29  C   UNL     1     -12.843  32.681  -6.220  1.00  0.00     0.191 C 
BRANCH  29  30
ATOM     30  O   UNL     1     -12.815  33.755  -7.123  1.00  0.00    -0.394 OA
ATOM     31  H   UNL     1     -11.916  33.746  -7.546  1.00  0.00     0.210 HD
ENDBRANCH  29  30
ENDBRANCH  21  29
ENDBRANCH   1  17
TORSDOF 13
ENDMDL
MODEL 6
REMARK VINA RESULT:    -2.280     11.031     14.581
REMARK INTER + INTRA:          -5.239
REMARK INTER:                  -5.383
REMARK INTRA:                   0.144
REMARK UNBOUND:                -1.760
REMARK SMILES OC[C@H]1O[C@H](O[C@]2(CO)O[C@H](CO)[C@H](O)[C@H]2O)[C@H](O)[C@@H](O)[C@H]1O
REMARK SMILES IDX 6 1 5 2 3 3 22 4 4 5 20 6 18 7 2 8 1 9 23 11 21 13 19 15
REMARK SMILES IDX 7 17 16 18 10 19 14 20 11 21 8 22 9 23 17 25 15 27 12 29
REMARK SMILES IDX 13 30
REMARK H PARENT 1 10 23 12 21 14 19 16 9 24 17 26 15 28 13 31
REMARK Flexibility Score: inf
ROOT
ATOM      1  O   UNL     1     -10.386  37.576 -21.856  1.00  0.00    -0.313 OA
ENDROOT
BRANCH   1   2
ATOM      2  C   UNL     1     -11.684  37.863 -21.344  1.00  0.00     0.285 C 
ATOM      3  C   UNL     1     -10.809  38.741 -19.346  1.00  0.00     0.178 C 
ATOM      4  C   UNL     1     -11.260  40.185 -19.661  1.00  0.00     0.177 C 
ATOM      5  O   UNL     1     -11.695  37.792 -19.924  1.00  0.00    -0.341 OA
ATOM      6  C   UNL     1     -11.304  40.372 -21.190  1.00  0.00     0.179 C 
ATOM      7  C   UNL     1     -12.154  39.254 -21.825  1.00  0.00     0.202 C 
BRANCH   3   8
ATOM      8  C   UNL     1     -10.714  38.486 -17.835  1.00  0.00     0.191 C 
BRANCH   8   9
ATOM      9  O   UNL     1      -9.395  38.640 -17.388  1.00  0.00    -0.394 OA
ATOM     10  H   UNL     1      -9.294  38.030 -16.612  1.00  0.00     0.210 HD
ENDBRANCH   8   9
ENDBRANCH   3   8
BRANCH   4  11
ATOM     11  O   UNL     1     -12.529  40.426 -19.106  1.00  0.00    -0.387 OA
ATOM     12  H   UNL     1     -13.186  39.926 -19.657  1.00  0.00     0.211 HD
ENDBRANCH   4  11
BRANCH   6  13
ATOM     13  O   UNL     1     -11.852  41.622 -21.519  1.00  0.00    -0.387 OA
ATOM     14  H   UNL     1     -11.264  42.015 -22.216  1.00  0.00     0.211 HD
ENDBRANCH   6  13
BRANCH   7  15
ATOM     15  O   UNL     1     -12.141  39.337 -23.230  1.00  0.00    -0.385 OA
ATOM     16  H   UNL     1     -11.222  39.125 -23.540  1.00  0.00     0.211 HD
ENDBRANCH   7  15
ENDBRANCH   1   2
BRANCH   1  17
ATOM     17  C   UNL     1     -10.368  36.648 -22.939  1.00  0.00     0.224 C 
ATOM     18  C   UNL     1      -9.955  35.235 -22.446  1.00  0.00     0.208 C 
ATOM     19  O   UNL     1     -11.701  36.565 -23.417  1.00  0.00    -0.337 OA
ATOM     20  C   UNL     1     -10.983  34.332 -23.067  1.00  0.00     0.180 C 
ATOM     21  C   UNL     1     -12.187  35.258 -23.205  1.00  0.00     0.179 C 
BRANCH  17  22
ATOM     22  C   UNL     1      -9.512  37.175 -24.125  1.00  0.00     0.225 C 
BRANCH  22  23
ATOM     23  O   UNL     1      -8.209  37.489 -23.706  1.00  0.00    -0.391 OA
ATOM     24  H   UNL     1      -7.844  38.145 -24.354  1.00  0.00     0.210 HD
ENDBRANCH  22  23
ENDBRANCH  17  22
BRANCH  18  25
ATOM     25  O   UNL     1      -8.655  34.874 -22.843  1.00  0.00    -0.385 OA
ATOM     26  H   UNL     1      -8.593  35.066 -23.815  1.00  0.00     0.211 HD
ENDBRANCH  18  25
BRANCH  20  27
ATOM     27  O   UNL     1     -11.229  33.213 -22.254  1.00  0.00    -0.387 OA
ATOM     28  H   UNL     1     -12.115  32.858 -22.530  1.00  0.00     0.211 HD
ENDBRANCH  20  27
BRANCH  21  29
ATOM     29  C   UNL     1     -13.125  35.269 -21.979  1.00  0.00     0.191 C 
BRANCH  29  30
ATOM     30  O   UNL     1     -12.430  34.933 -20.808  1.00  0.00    -0.394 OA
ATOM     31  H   UNL     1     -13.114  34.786 -20.103  1.00  0.00     0.210 HD
ENDBRANCH  29  30
ENDBRANCH  21  29
ENDBRANCH   1  17
TORSDOF 13
ENDMDL
MODEL 7
REMARK VINA RESULT:    -2.267     11.256     14.498
REMARK INTER + INTRA:          -5.220
REMARK INTER:                  -3.931
REMARK INTRA:                  -1.289
REMARK UNBOUND:                -1.760
REMARK SMILES OC[C@H]1O[C@H](O[C@]2(CO)O[C@H](CO)[C@H](O)[C@H]2O)[C@H](O)[C@@H](O)[C@H]1O
REMARK SMILES IDX 6 1 5 2 3 3 22 4 4 5 20 6 18 7 2 8 1 9 23 11 21 13 19 15
REMARK SMILES IDX 7 17 16 18 10 19 14 20 11 21 8 22 9 23 17 25 15 27 12 29
REMARK SMILES IDX 13 30
REMARK H PARENT 1 10 23 12 21 14 19 16 9 24 17 26 15 28 13 31
REMARK Flexibility Score: inf
ROOT
ATOM      1  O   UNL     1      -9.806  37.120 -21.427  1.00  0.00    -0.313 OA
ENDROOT
BRANCH   1   2
ATOM      2  C   UNL     1     -10.522  38.346 -21.304  1.00  0.00     0.285 C 
ATOM      3  C   UNL     1     -11.720  37.573 -19.434  1.00  0.00     0.178 C 
ATOM      4  C   UNL     1     -11.036  38.558 -18.459  1.00  0.00     0.177 C 
ATOM      5  O   UNL     1     -11.808  38.127 -20.739  1.00  0.00    -0.341 OA
ATOM      6  C   UNL     1      -9.626  38.886 -18.986  1.00  0.00     0.179 C 
ATOM      7  C   UNL     1      -9.716  39.353 -20.452  1.00  0.00     0.202 C 
BRANCH   3   8
ATOM      8  C   UNL     1     -13.124  37.177 -18.959  1.00  0.00     0.191 C 
BRANCH   8   9
ATOM      9  O   UNL     1     -13.125  36.910 -17.583  1.00  0.00    -0.394 OA
ATOM     10  H   UNL     1     -13.954  36.394 -17.403  1.00  0.00     0.210 HD
ENDBRANCH   8   9
ENDBRANCH   3   8
BRANCH   4  11
ATOM     11  O   UNL     1     -11.799  39.735 -18.348  1.00  0.00    -0.387 OA
ATOM     12  H   UNL     1     -11.188  40.445 -18.022  1.00  0.00     0.211 HD
ENDBRANCH   4  11
BRANCH   6  13
ATOM     13  O   UNL     1      -9.029  39.891 -18.209  1.00  0.00    -0.387 OA
ATOM     14  H   UNL     1      -8.763  40.614 -18.836  1.00  0.00     0.211 HD
ENDBRANCH   6  13
BRANCH   7  15
ATOM     15  O   UNL     1      -8.439  39.573 -20.998  1.00  0.00    -0.385 OA
ATOM     16  H   UNL     1      -8.551  40.072 -21.850  1.00  0.00     0.211 HD
ENDBRANCH   7  15
ENDBRANCH   1   2
BRANCH   1  17
ATOM     17  C   UNL     1      -9.652  36.657 -22.767  1.00  0.00     0.224 C 
ATOM     18  C   UNL     1      -9.861  35.120 -22.845  1.00  0.00     0.208 C 
ATOM     19  O   UNL     1     -10.682  37.271 -23.524  1.00  0.00    -0.337 OA
ATOM     20  C   UNL     1     -10.798  34.953 -24.008  1.00  0.00     0.180 C 
ATOM     21  C   UNL     1     -11.556  36.276 -24.008  1.00  0.00     0.179 C 
BRANCH  17  22
ATOM     22  C   UNL     1      -8.310  37.140 -23.384  1.00  0.00     0.225 C 
BRANCH  22  23
ATOM     23  O   UNL     1      -7.295  37.182 -22.414  1.00  0.00    -0.391 OA
ATOM     24  H   UNL     1      -6.462  36.864 -22.849  1.00  0.00     0.210 HD
ENDBRANCH  22  23
ENDBRANCH  17  22
BRANCH  18  25
ATOM     25  O   UNL     1      -8.663  34.414 -23.050  1.00  0.00    -0.385 OA
ATOM     26  H   UNL     1      -8.294  34.729 -23.916  1.00  0.00     0.211 HD
ENDBRANCH  18  25
BRANCH  20  27
ATOM     27  O   UNL     1     -11.628  33.833 -23.831  1.00  0.00    -0.387 OA
ATOM     28  H   UNL     1     -11.056  33.036 -23.986  1.00  0.00     0.211 HD
ENDBRANCH  20  27
BRANCH  21  29
ATOM     29  C   UNL     1     -12.836  36.276 -23.144  1.00  0.00     0.191 C 
BRANCH  29  30
ATOM     30  O   UNL     1     -12.647  35.544 -21.962  1.00  0.00    -0.394 OA
ATOM     31  H   UNL     1     -13.541  35.449 -21.541  1.00  0.00     0.210 HD
ENDBRANCH  29  30
ENDBRANCH  21  29
ENDBRANCH   1  17
TORSDOF 13
ENDMDL
MODEL 8
REMARK VINA RESULT:    -2.063      1.559      5.123
REMARK INTER + INTRA:          -4.908
REMARK INTER:                  -4.290
REMARK INTRA:                  -0.618
REMARK UNBOUND:                -1.760
REMARK SMILES OC[C@H]1O[C@H](O[C@]2(CO)O[C@H](CO)[C@H](O)[C@H]2O)[C@H](O)[C@@H](O)[C@H]1O
REMARK SMILES IDX 6 1 5 2 3 3 22 4 4 5 20 6 18 7 2 8 1 9 23 11 21 13 19 15
REMARK SMILES IDX 7 17 16 18 10 19 14 20 11 21 8 22 9 23 17 25 15 27 12 29
REMARK SMILES IDX 13 30
REMARK H PARENT 1 10 23 12 21 14 19 16 9 24 17 26 15 28 13 31
REMARK Flexibility Score: inf
ROOT
ATOM      1  O   UNL     1     -10.703  33.704  -8.974  1.00  0.00    -0.313 OA
ENDROOT
BRANCH   1   2
ATOM      2  C   UNL     1     -10.248  32.716  -8.054  1.00  0.00     0.285 C 
ATOM      3  C   UNL     1      -8.059  32.784  -8.911  1.00  0.00     0.178 C 
ATOM      4  C   UNL     1      -7.464  33.405  -7.626  1.00  0.00     0.177 C 
ATOM      5  O   UNL     1      -9.178  31.961  -8.609  1.00  0.00    -0.341 OA
ATOM      6  C   UNL     1      -8.553  34.238  -6.924  1.00  0.00     0.179 C 
ATOM      7  C   UNL     1      -9.817  33.378  -6.726  1.00  0.00     0.202 C 
BRANCH   3   8
ATOM      8  C   UNL     1      -7.021  31.958  -9.683  1.00  0.00     0.191 C 
BRANCH   8   9
ATOM      9  O   UNL     1      -6.781  32.518 -10.945  1.00  0.00    -0.394 OA
ATOM     10  H   UNL     1      -7.044  31.827 -11.607  1.00  0.00     0.210 HD
ENDBRANCH   8   9
ENDBRANCH   3   8
BRANCH   4  11
ATOM     11  O   UNL     1      -7.001  32.390  -6.770  1.00  0.00    -0.387 OA
ATOM     12  H   UNL     1      -7.062  31.537  -7.273  1.00  0.00     0.211 HD
ENDBRANCH   4  11
BRANCH   6  13
ATOM     13  O   UNL     1      -8.098  34.696  -5.677  1.00  0.00    -0.387 OA
ATOM     14  H   UNL     1      -7.603  35.540  -5.848  1.00  0.00     0.211 HD
ENDBRANCH   6  13
BRANCH   7  15
ATOM     15  O   UNL     1     -10.867  34.133  -6.170  1.00  0.00    -0.385 OA
ATOM     16  H   UNL     1     -10.681  35.092  -6.347  1.00  0.00     0.211 HD
ENDBRANCH   7  15
ENDBRANCH   1   2
BRANCH   1  17
ATOM     17  C   UNL     1     -11.902  33.361  -9.666  1.00  0.00     0.224 C 
ATOM     18  C   UNL     1     -12.096  34.266 -10.912  1.00  0.00     0.208 C 
ATOM     19  O   UNL     1     -11.734  32.029 -10.122  1.00  0.00    -0.337 OA
ATOM     20  C   UNL     1     -12.430  33.291 -12.005  1.00  0.00     0.180 C 
ATOM     21  C   UNL     1     -11.730  32.021 -11.533  1.00  0.00     0.179 C 
BRANCH  17  22
ATOM     22  C   UNL     1     -13.125  33.342  -8.707  1.00  0.00     0.225 C 
BRANCH  22  23
ATOM     23  O   UNL     1     -13.016  32.302  -7.770  1.00  0.00    -0.391 OA
ATOM     24  H   UNL     1     -12.054  32.210  -7.546  1.00  0.00     0.210 HD
ENDBRANCH  22  23
ENDBRANCH  17  22
BRANCH  18  25
ATOM     25  O   UNL     1     -13.119  35.216 -10.747  1.00  0.00    -0.385 OA
ATOM     26  H   UNL     1     -13.081  35.813 -11.540  1.00  0.00     0.211 HD
ENDBRANCH  18  25
BRANCH  20  27
ATOM     27  O   UNL     1     -11.971  33.751 -13.250  1.00  0.00    -0.387 OA
ATOM     28  H   UNL     1     -11.062  34.120 -13.093  1.00  0.00     0.211 HD
ENDBRANCH  20  27
BRANCH  21  29
ATOM     29  C   UNL     1     -10.275  31.875 -12.025  1.00  0.00     0.191 C 
BRANCH  29  30
ATOM     30  O   UNL     1      -9.575  33.084 -11.898  1.00  0.00    -0.394 OA
ATOM     31  H   UNL     1      -8.819  32.912 -11.278  1.00  0.00     0.210 HD
ENDBRANCH  29  30
ENDBRANCH  21  29
ENDBRANCH   1  17
TORSDOF 13
ENDMDL
