MODEL 1
REMARK VINA RESULT:    -5.409      0.000      0.000
REMARK INTER + INTRA:          -9.990
REMARK INTER:                  -8.255
REMARK INTRA:                  -1.735
REMARK UNBOUND:                -1.735
REMARK SMILES OC[C@H]1O[C@@H](O[C@@]2(CO)O[C@H](CO)[C@@H](O)[C@@H]2O)[C@H](O)[C@@H](O)[C@H]1O
REMARK SMILES IDX 6 1 5 2 3 3 22 4 4 5 20 6 18 7 2 8 1 9 23 11 21 13 19 15
REMARK SMILES IDX 7 17 16 18 10 19 14 20 11 21 8 22 9 23 17 25 15 27 12 29
REMARK SMILES IDX 13 30
REMARK H PARENT 1 10 23 12 21 14 19 16 9 24 17 26 15 28 13 31
REMARK Flexibility Score: inf
ROOT
ATOM      1  O   UNL     1       3.114  -1.045 -25.620  1.00  0.00    -0.313 OA
ENDROOT
BRANCH   1   2
ATOM      2  C   UNL     1       2.730   0.189 -26.214  1.00  0.00     0.285 C 
ATOM      3  C   UNL     1       4.532   0.291 -27.790  1.00  0.00     0.178 C 
ATOM      4  C   UNL     1       5.219   1.441 -27.006  1.00  0.00     0.177 C 
ATOM      5  O   UNL     1       3.123   0.232 -27.582  1.00  0.00    -0.341 OA
ATOM      6  C   UNL     1       4.820   1.450 -25.523  1.00  0.00     0.179 C 
ATOM      7  C   UNL     1       3.296   1.374 -25.401  1.00  0.00     0.202 C 
BRANCH   3   8
ATOM      8  C   UNL     1       5.222  -1.084 -27.644  1.00  0.00     0.191 C 
BRANCH   8   9
ATOM      9  O   UNL     1       4.394  -2.108 -28.125  1.00  0.00    -0.394 OA
ATOM     10  H   UNL     1       3.835  -1.709 -28.843  1.00  0.00     0.210 HD
ENDBRANCH   8   9
ENDBRANCH   3   8
BRANCH   4  11
ATOM     11  O   UNL     1       6.618   1.377 -27.126  1.00  0.00    -0.387 OA
ATOM     12  H   UNL     1       6.811   0.741 -27.865  1.00  0.00     0.211 HD
ENDBRANCH   4  11
BRANCH   6  13
ATOM     13  O   UNL     1       5.410   0.379 -24.829  1.00  0.00    -0.387 OA
ATOM     14  H   UNL     1       6.347   0.641 -24.630  1.00  0.00     0.211 HD
ENDBRANCH   6  13
BRANCH   7  15
ATOM     15  O   UNL     1       2.736   2.580 -25.859  1.00  0.00    -0.385 OA
ATOM     16  H   UNL     1       1.920   2.345 -26.373  1.00  0.00     0.211 HD
ENDBRANCH   7  15
ENDBRANCH   1   2
BRANCH   1  17
ATOM     17  C   UNL     1       2.245  -1.522 -24.592  1.00  0.00     0.224 C 
ATOM     18  C   UNL     1       2.834  -1.212 -23.194  1.00  0.00     0.208 C 
ATOM     19  O   UNL     1       2.204  -2.928 -24.725  1.00  0.00    -0.337 OA
ATOM     20  C   UNL     1       3.718  -2.409 -22.927  1.00  0.00     0.180 C 
ATOM     21  C   UNL     1       3.127  -3.506 -23.824  1.00  0.00     0.179 C 
BRANCH  17  22
ATOM     22  C   UNL     1       0.788  -1.009 -24.780  1.00  0.00     0.225 C 
BRANCH  22  23
ATOM     23  O   UNL     1      -0.123  -1.878 -24.163  1.00  0.00    -0.391 OA
ATOM     24  H   UNL     1      -0.042  -2.747 -24.635  1.00  0.00     0.210 HD
ENDBRANCH  22  23
ENDBRANCH  17  22
BRANCH  18  25
ATOM     25  O   UNL     1       1.831  -1.159 -22.209  1.00  0.00    -0.385 OA
ATOM     26  H   UNL     1       2.135  -1.724 -21.454  1.00  0.00     0.211 HD
ENDBRANCH  18  25
BRANCH  20  27
ATOM     27  O   UNL     1       5.062  -2.142 -23.255  1.00  0.00    -0.387 OA
ATOM     28  H   UNL     1       5.272  -1.210 -22.984  1.00  0.00     0.211 HD
ENDBRANCH  20  27
BRANCH  21  29
ATOM     29  C   UNL     1       2.405  -4.592 -23.013  1.00  0.00     0.191 C 
BRANCH  29  30
ATOM     30  O   UNL     1       1.183  -4.107 -22.521  1.00  0.00    -0.394 OA
ATOM     31  H   UNL     1       1.211  -4.191 -21.533  1.00  0.00     0.210 HD
ENDBRANCH  29  30
ENDBRANCH  21  29
ENDBRANCH   1  17
TORSDOF 13
ENDMDL
MODEL 2
REMARK VINA RESULT:    -5.283      1.651      2.487
REMARK INTER + INTRA:          -9.798
REMARK INTER:                  -8.491
REMARK INTRA:                  -1.307
REMARK UNBOUND:                -1.735
REMARK SMILES OC[C@H]1O[C@@H](O[C@@]2(CO)O[C@H](CO)[C@@H](O)[C@@H]2O)[C@H](O)[C@@H](O)[C@H]1O
REMARK SMILES IDX 6 1 5 2 3 3 22 4 4 5 20 6 18 7 2 8 1 9 23 11 21 13 19 15
REMARK SMILES IDX 7 17 16 18 10 19 14 20 11 21 8 22 9 23 17 25 15 27 12 29
REMARK SMILES IDX 13 30
REMARK H PARENT 1 10 23 12 21 14 19 16 9 24 17 26 15 28 13 31
REMARK Flexibility Score: inf
ROOT
ATOM      1  O   UNL     1       3.423  -1.645 -24.085  1.00  0.00    -0.313 OA
ENDROOT
BRANCH   1   2
ATOM      2  C   UNL     1       2.859  -1.289 -25.342  1.00  0.00     0.285 C 
ATOM      3  C   UNL     1       4.797  -1.804 -26.653  1.00  0.00     0.178 C 
ATOM      4  C   UNL     1       5.087  -0.300 -26.906  1.00  0.00     0.177 C 
ATOM      5  O   UNL     1       3.423  -2.074 -26.386  1.00  0.00    -0.341 OA
ATOM      6  C   UNL     1       4.489   0.598 -25.812  1.00  0.00     0.179 C 
ATOM      7  C   UNL     1       3.020   0.227 -25.591  1.00  0.00     0.202 C 
BRANCH   3   8
ATOM      8  C   UNL     1       5.753  -2.479 -25.643  1.00  0.00     0.191 C 
BRANCH   8   9
ATOM      9  O   UNL     1       5.199  -3.672 -25.157  1.00  0.00    -0.394 OA
ATOM     10  H   UNL     1       5.912  -4.124 -24.634  1.00  0.00     0.210 HD
ENDBRANCH   8   9
ENDBRANCH   3   8
BRANCH   4  11
ATOM     11  O   UNL     1       6.466  -0.059 -27.024  1.00  0.00    -0.387 OA
ATOM     12  H   UNL     1       6.565   0.791 -27.529  1.00  0.00     0.211 HD
ENDBRANCH   4  11
BRANCH   6  13
ATOM     13  O   UNL     1       5.201   0.475 -24.606  1.00  0.00    -0.387 OA
ATOM     14  H   UNL     1       5.640   1.350 -24.437  1.00  0.00     0.211 HD
ENDBRANCH   6  13
BRANCH   7  15
ATOM     15  O   UNL     1       2.273   0.609 -26.719  1.00  0.00    -0.385 OA
ATOM     16  H   UNL     1       1.379   0.189 -26.631  1.00  0.00     0.211 HD
ENDBRANCH   7  15
ENDBRANCH   1   2
BRANCH   1  17
ATOM     17  C   UNL     1       2.482  -1.849 -23.031  1.00  0.00     0.224 C 
ATOM     18  C   UNL     1       2.755  -3.193 -22.311  1.00  0.00     0.208 C 
ATOM     19  O   UNL     1       1.214  -1.955 -23.644  1.00  0.00    -0.337 OA
ATOM     20  C   UNL     1       1.965  -4.184 -23.135  1.00  0.00     0.180 C 
ATOM     21  C   UNL     1       0.894  -3.320 -23.815  1.00  0.00     0.179 C 
BRANCH  17  22
ATOM     22  C   UNL     1       2.418  -0.629 -22.067  1.00  0.00     0.225 C 
BRANCH  22  23
ATOM     23  O   UNL     1       3.650   0.040 -22.039  1.00  0.00    -0.391 OA
ATOM     24  H   UNL     1       3.617   0.650 -21.257  1.00  0.00     0.210 HD
ENDBRANCH  22  23
ENDBRANCH  17  22
BRANCH  18  25
ATOM     25  O   UNL     1       2.250  -3.188 -20.998  1.00  0.00    -0.385 OA
ATOM     26  H   UNL     1       1.274  -3.353 -21.061  1.00  0.00     0.211 HD
ENDBRANCH  18  25
BRANCH  20  27
ATOM     27  O   UNL     1       2.782  -4.835 -24.081  1.00  0.00    -0.387 OA
ATOM     28  H   UNL     1       2.196  -5.332 -24.710  1.00  0.00     0.211 HD
ENDBRANCH  20  27
BRANCH  21  29
ATOM     29  C   UNL     1      -0.507  -3.571 -23.237  1.00  0.00     0.191 C 
BRANCH  29  30
ATOM     30  O   UNL     1      -1.450  -2.734 -23.854  1.00  0.00    -0.394 OA
ATOM     31  H   UNL     1      -2.348  -3.103 -23.649  1.00  0.00     0.210 HD
ENDBRANCH  29  30
ENDBRANCH  21  29
ENDBRANCH   1  17
TORSDOF 13
ENDMDL
MODEL 3
REMARK VINA RESULT:    -5.232      1.649      5.653
REMARK INTER + INTRA:          -9.719
REMARK INTER:                  -7.901
REMARK INTRA:                  -1.818
REMARK UNBOUND:                -1.735
REMARK SMILES OC[C@H]1O[C@@H](O[C@@]2(CO)O[C@H](CO)[C@@H](O)[C@@H]2O)[C@H](O)[C@@H](O)[C@H]1O
REMARK SMILES IDX 6 1 5 2 3 3 22 4 4 5 20 6 18 7 2 8 1 9 23 11 21 13 19 15
REMARK SMILES IDX 7 17 16 18 10 19 14 20 11 21 8 22 9 23 17 25 15 27 12 29
REMARK SMILES IDX 13 30
REMARK H PARENT 1 10 23 12 21 14 19 16 9 24 17 26 15 28 13 31
REMARK Flexibility Score: inf
ROOT
ATOM      1  O   UNL     1       4.519   0.039 -24.745  1.00  0.00    -0.313 OA
ENDROOT
BRANCH   1   2
ATOM      2  C   UNL     1       4.228  -0.311 -23.396  1.00  0.00     0.285 C 
ATOM      3  C   UNL     1       4.941  -2.592 -23.559  1.00  0.00     0.178 C 
ATOM      4  C   UNL     1       3.478  -3.107 -23.497  1.00  0.00     0.177 C 
ATOM      5  O   UNL     1       5.118  -1.322 -22.937  1.00  0.00    -0.341 OA
ATOM      6  C   UNL     1       2.471  -2.049 -23.972  1.00  0.00     0.179 C 
ATOM      7  C   UNL     1       2.745  -0.722 -23.258  1.00  0.00     0.202 C 
BRANCH   3   8
ATOM      8  C   UNL     1       5.589  -2.673 -24.961  1.00  0.00     0.191 C 
BRANCH   8   9
ATOM      9  O   UNL     1       6.095  -3.958 -25.200  1.00  0.00    -0.394 OA
ATOM     10  H   UNL     1       5.553  -4.345 -25.937  1.00  0.00     0.210 HD
ENDBRANCH   8   9
ENDBRANCH   3   8
BRANCH   4  11
ATOM     11  O   UNL     1       3.320  -4.288 -24.241  1.00  0.00    -0.387 OA
ATOM     12  H   UNL     1       4.099  -4.344 -24.856  1.00  0.00     0.211 HD
ENDBRANCH   4  11
BRANCH   6  13
ATOM     13  O   UNL     1       2.541  -1.866 -25.364  1.00  0.00    -0.387 OA
ATOM     14  H   UNL     1       1.814  -1.236 -25.612  1.00  0.00     0.211 HD
ENDBRANCH   6  13
BRANCH   7  15
ATOM     15  O   UNL     1       2.410  -0.853 -21.899  1.00  0.00    -0.385 OA
ATOM     16  H   UNL     1       1.426  -0.972 -21.853  1.00  0.00     0.211 HD
ENDBRANCH   7  15
ENDBRANCH   1   2
BRANCH   1  17
ATOM     17  C   UNL     1       4.500   1.439 -25.028  1.00  0.00     0.224 C 
ATOM     18  C   UNL     1       3.162   1.841 -25.697  1.00  0.00     0.208 C 
ATOM     19  O   UNL     1       5.524   1.667 -25.974  1.00  0.00    -0.337 OA
ATOM     20  C   UNL     1       3.433   1.602 -27.164  1.00  0.00     0.180 C 
ATOM     21  C   UNL     1       4.963   1.683 -27.270  1.00  0.00     0.179 C 
BRANCH  17  22
ATOM     22  C   UNL     1       4.848   2.288 -23.772  1.00  0.00     0.225 C 
BRANCH  22  23
ATOM     23  O   UNL     1       5.352   3.541 -24.151  1.00  0.00    -0.391 OA
ATOM     24  H   UNL     1       5.590   3.467 -25.111  1.00  0.00     0.210 HD
ENDBRANCH  22  23
ENDBRANCH  17  22
BRANCH  18  25
ATOM     25  O   UNL     1       2.876   3.204 -25.503  1.00  0.00    -0.385 OA
ATOM     26  H   UNL     1       1.966   3.364 -25.864  1.00  0.00     0.211 HD
ENDBRANCH  18  25
BRANCH  20  27
ATOM     27  O   UNL     1       2.952   0.345 -27.581  1.00  0.00    -0.387 OA
ATOM     28  H   UNL     1       2.864   0.355 -28.569  1.00  0.00     0.211 HD
ENDBRANCH  20  27
BRANCH  21  29
ATOM     29  C   UNL     1       5.428   2.957 -27.990  1.00  0.00     0.191 C 
BRANCH  29  30
ATOM     30  O   UNL     1       5.228   4.083 -27.175  1.00  0.00    -0.394 OA
ATOM     31  H   UNL     1       4.420   3.906 -26.626  1.00  0.00     0.210 HD
ENDBRANCH  29  30
ENDBRANCH  21  29
ENDBRANCH   1  17
TORSDOF 13
ENDMDL
MODEL 4
REMARK VINA RESULT:    -5.134      1.660      2.888
REMARK INTER + INTRA:          -9.570
REMARK INTER:                  -8.226
REMARK INTRA:                  -1.344
REMARK UNBOUND:                -1.735
REMARK SMILES OC[C@H]1O[C@@H](O[C@@]2(CO)O[C@H](CO)[C@@H](O)[C@@H]2O)[C@H](O)[C@@H](O)[C@H]1O
REMARK SMILES IDX 6 1 5 2 3 3 22 4 4 5 20 6 18 7 2 8 1 9 23 11 21 13 19 15
REMARK SMILES IDX 7 17 16 18 10 19 14 20 11 21 8 22 9 23 17 25 15 27 12 29
REMARK SMILES IDX 13 30
REMARK H PARENT 1 10 23 12 21 14 19 16 9 24 17 26 15 28 13 31
REMARK Flexibility Score: inf
ROOT
ATOM      1  O   UNL     1       4.087  -1.138 -25.070  1.00  0.00    -0.313 OA
ENDROOT
BRANCH   1   2
ATOM      2  C   UNL     1       3.668   0.107 -24.523  1.00  0.00     0.285 C 
ATOM      3  C   UNL     1       2.772   0.997 -26.560  1.00  0.00     0.178 C 
ATOM      4  C   UNL     1       3.945   2.004 -26.695  1.00  0.00     0.177 C 
ATOM      5  O   UNL     1       2.524   0.599 -25.213  1.00  0.00    -0.341 OA
ATOM      6  C   UNL     1       5.205   1.529 -25.957  1.00  0.00     0.179 C 
ATOM      7  C   UNL     1       4.839   1.116 -24.529  1.00  0.00     0.202 C 
BRANCH   3   8
ATOM      8  C   UNL     1       2.838  -0.197 -27.539  1.00  0.00     0.191 C 
BRANCH   8   9
ATOM      9  O   UNL     1       1.888  -1.171 -27.199  1.00  0.00    -0.394 OA
ATOM     10  H   UNL     1       2.389  -2.014 -27.042  1.00  0.00     0.210 HD
ENDBRANCH   8   9
ENDBRANCH   3   8
BRANCH   4  11
ATOM     11  O   UNL     1       4.246   2.260 -28.043  1.00  0.00    -0.387 OA
ATOM     12  H   UNL     1       5.190   2.568 -28.071  1.00  0.00     0.211 HD
ENDBRANCH   4  11
BRANCH   6  13
ATOM     13  O   UNL     1       5.812   0.452 -26.626  1.00  0.00    -0.387 OA
ATOM     14  H   UNL     1       6.387  -0.016 -25.964  1.00  0.00     0.211 HD
ENDBRANCH   6  13
BRANCH   7  15
ATOM     15  O   UNL     1       4.487   2.261 -23.794  1.00  0.00    -0.385 OA
ATOM     16  H   UNL     1       5.239   2.449 -23.173  1.00  0.00     0.211 HD
ENDBRANCH   7  15
ENDBRANCH   1   2
BRANCH   1  17
ATOM     17  C   UNL     1       4.103  -2.231 -24.151  1.00  0.00     0.224 C 
ATOM     18  C   UNL     1       3.024  -3.275 -24.528  1.00  0.00     0.208 C 
ATOM     19  O   UNL     1       3.746  -1.699 -22.892  1.00  0.00    -0.337 OA
ATOM     20  C   UNL     1       1.795  -2.764 -23.814  1.00  0.00     0.180 C 
ATOM     21  C   UNL     1       2.365  -1.904 -22.677  1.00  0.00     0.179 C 
BRANCH  17  22
ATOM     22  C   UNL     1       5.528  -2.837 -23.997  1.00  0.00     0.225 C 
BRANCH  22  23
ATOM     23  O   UNL     1       5.841  -3.644 -25.100  1.00  0.00    -0.391 OA
ATOM     24  H   UNL     1       5.018  -4.155 -25.314  1.00  0.00     0.210 HD
ENDBRANCH  22  23
ENDBRANCH  17  22
BRANCH  18  25
ATOM     25  O   UNL     1       3.342  -4.552 -24.030  1.00  0.00    -0.385 OA
ATOM     26  H   UNL     1       4.135  -4.445 -23.443  1.00  0.00     0.211 HD
ENDBRANCH  18  25
BRANCH  20  27
ATOM     27  O   UNL     1       0.976  -2.005 -24.674  1.00  0.00    -0.387 OA
ATOM     28  H   UNL     1       1.546  -1.345 -25.148  1.00  0.00     0.211 HD
ENDBRANCH  20  27
BRANCH  21  29
ATOM     29  C   UNL     1       2.176  -2.562 -21.302  1.00  0.00     0.191 C 
BRANCH  29  30
ATOM     30  O   UNL     1       2.078  -3.956 -21.434  1.00  0.00    -0.394 OA
ATOM     31  H   UNL     1       1.113  -4.176 -21.511  1.00  0.00     0.210 HD
ENDBRANCH  29  30
ENDBRANCH  21  29
ENDBRANCH   1  17
TORSDOF 13
ENDMDL
MODEL 5
REMARK VINA RESULT:    -5.094      1.514      5.541
REMARK INTER + INTRA:          -9.509
REMARK INTER:                  -7.674
REMARK INTRA:                  -1.836
REMARK UNBOUND:                -1.735
REMARK SMILES OC[C@H]1O[C@@H](O[C@@]2(CO)O[C@H](CO)[C@@H](O)[C@@H]2O)[C@H](O)[C@@H](O)[C@H]1O
REMARK SMILES IDX 6 1 5 2 3 3 22 4 4 5 20 6 18 7 2 8 1 9 23 11 21 13 19 15
REMARK SMILES IDX 7 17 16 18 10 19 14 20 11 21 8 22 9 23 17 25 15 27 12 29
REMARK SMILES IDX 13 30
REMARK H PARENT 1 10 23 12 21 14 19 16 9 24 17 26 15 28 13 31
REMARK Flexibility Score: inf
ROOT
ATOM      1  O   UNL     1       3.186  -0.327 -25.120  1.00  0.00    -0.313 OA
ENDROOT
BRANCH   1   2
ATOM      2  C   UNL     1       3.506  -1.646 -25.548  1.00  0.00     0.285 C 
ATOM      3  C   UNL     1       1.894  -2.766 -24.174  1.00  0.00     0.178 C 
ATOM      4  C   UNL     1       3.003  -3.323 -23.241  1.00  0.00     0.177 C 
ATOM      5  O   UNL     1       2.357  -2.485 -25.492  1.00  0.00    -0.341 OA
ATOM      6  C   UNL     1       4.273  -2.461 -23.272  1.00  0.00     0.179 C 
ATOM      7  C   UNL     1       4.686  -2.206 -24.724  1.00  0.00     0.202 C 
BRANCH   3   8
ATOM      8  C   UNL     1       1.068  -1.610 -23.565  1.00  0.00     0.191 C 
BRANCH   8   9
ATOM      9  O   UNL     1       0.271  -1.001 -24.545  1.00  0.00    -0.394 OA
ATOM     10  H   UNL     1       0.846  -0.336 -25.007  1.00  0.00     0.210 HD
ENDBRANCH   8   9
ENDBRANCH   3   8
BRANCH   4  11
ATOM     11  O   UNL     1       2.542  -3.452 -21.920  1.00  0.00    -0.387 OA
ATOM     12  H   UNL     1       1.793  -4.105 -21.941  1.00  0.00     0.211 HD
ENDBRANCH   4  11
BRANCH   6  13
ATOM     13  O   UNL     1       4.076  -1.237 -22.608  1.00  0.00    -0.387 OA
ATOM     14  H   UNL     1       4.085  -1.429 -21.634  1.00  0.00     0.211 HD
ENDBRANCH   6  13
BRANCH   7  15
ATOM     15  O   UNL     1       5.139  -3.409 -25.292  1.00  0.00    -0.385 OA
ATOM     16  H   UNL     1       5.446  -3.986 -24.545  1.00  0.00     0.211 HD
ENDBRANCH   7  15
ENDBRANCH   1   2
BRANCH   1  17
ATOM     17  C   UNL     1       3.599   0.717 -26.001  1.00  0.00     0.224 C 
ATOM     18  C   UNL     1       5.131   0.926 -25.916  1.00  0.00     0.208 C 
ATOM     19  O   UNL     1       2.990   1.901 -25.530  1.00  0.00    -0.337 OA
ATOM     20  C   UNL     1       5.276   1.906 -24.775  1.00  0.00     0.180 C 
ATOM     21  C   UNL     1       3.910   2.604 -24.719  1.00  0.00     0.179 C 
BRANCH  17  22
ATOM     22  C   UNL     1       3.082   0.490 -27.451  1.00  0.00     0.225 C 
BRANCH  22  23
ATOM     23  O   UNL     1       2.935   1.715 -28.118  1.00  0.00    -0.391 OA
ATOM     24  H   UNL     1       3.842   1.976 -28.423  1.00  0.00     0.210 HD
ENDBRANCH  22  23
ENDBRANCH  17  22
BRANCH  18  25
ATOM     25  O   UNL     1       5.639   1.514 -27.089  1.00  0.00    -0.385 OA
ATOM     26  H   UNL     1       5.360   0.939 -27.847  1.00  0.00     0.211 HD
ENDBRANCH  18  25
BRANCH  20  27
ATOM     27  O   UNL     1       5.570   1.249 -23.564  1.00  0.00    -0.387 OA
ATOM     28  H   UNL     1       5.004   1.641 -22.849  1.00  0.00     0.211 HD
ENDBRANCH  20  27
BRANCH  21  29
ATOM     29  C   UNL     1       3.981   4.059 -25.207  1.00  0.00     0.191 C 
BRANCH  29  30
ATOM     30  O   UNL     1       4.048   4.103 -26.609  1.00  0.00    -0.394 OA
ATOM     31  H   UNL     1       4.942   4.461 -26.848  1.00  0.00     0.210 HD
ENDBRANCH  29  30
ENDBRANCH  21  29
ENDBRANCH   1  17
TORSDOF 13
ENDMDL
MODEL 6
REMARK VINA RESULT:    -5.024      1.573      5.545
REMARK INTER + INTRA:          -9.402
REMARK INTER:                  -7.593
REMARK INTRA:                  -1.808
REMARK UNBOUND:                -1.735
REMARK SMILES OC[C@H]1O[C@@H](O[C@@]2(CO)O[C@H](CO)[C@@H](O)[C@@H]2O)[C@H](O)[C@@H](O)[C@H]1O
REMARK SMILES IDX 6 1 5 2 3 3 22 4 4 5 20 6 18 7 2 8 1 9 23 11 21 13 19 15
REMARK SMILES IDX 7 17 16 18 10 19 14 20 11 21 8 22 9 23 17 25 15 27 12 29
REMARK SMILES IDX 13 30
REMARK H PARENT 1 10 23 12 21 14 19 16 9 24 17 26 15 28 13 31
REMARK Flexibility Score: inf
ROOT
ATOM      1  O   UNL     1       3.672  -0.129 -25.189  1.00  0.00    -0.313 OA
ENDROOT
BRANCH   1   2
ATOM      2  C   UNL     1       2.629  -0.130 -24.222  1.00  0.00     0.285 C 
ATOM      3  C   UNL     1       3.720  -1.588 -22.664  1.00  0.00     0.178 C 
ATOM      4  C   UNL     1       2.750  -2.753 -22.998  1.00  0.00     0.177 C 
ATOM      5  O   UNL     1       3.159  -0.301 -22.912  1.00  0.00    -0.341 OA
ATOM      6  C   UNL     1       2.138  -2.613 -24.400  1.00  0.00     0.179 C 
ATOM      7  C   UNL     1       1.572  -1.201 -24.574  1.00  0.00     0.202 C 
BRANCH   3   8
ATOM      8  C   UNL     1       5.141  -1.750 -23.250  1.00  0.00     0.191 C 
BRANCH   8   9
ATOM      9  O   UNL     1       5.875  -0.564 -23.107  1.00  0.00    -0.394 OA
ATOM     10  H   UNL     1       5.849  -0.105 -23.988  1.00  0.00     0.210 HD
ENDBRANCH   8   9
ENDBRANCH   3   8
BRANCH   4  11
ATOM     11  O   UNL     1       3.388  -3.999 -22.875  1.00  0.00    -0.387 OA
ATOM     12  H   UNL     1       4.365  -3.820 -22.870  1.00  0.00     0.211 HD
ENDBRANCH   4  11
BRANCH   6  13
ATOM     13  O   UNL     1       3.089  -2.875 -25.401  1.00  0.00    -0.387 OA
ATOM     14  H   UNL     1       3.716  -2.105 -25.416  1.00  0.00     0.211 HD
ENDBRANCH   6  13
BRANCH   7  15
ATOM     15  O   UNL     1       0.445  -1.050 -23.749  1.00  0.00    -0.385 OA
ATOM     16  H   UNL     1       0.751  -0.602 -22.918  1.00  0.00     0.211 HD
ENDBRANCH   7  15
ENDBRANCH   1   2
BRANCH   1  17
ATOM     17  C   UNL     1       3.648   0.963 -26.110  1.00  0.00     0.224 C 
ATOM     18  C   UNL     1       5.073   1.529 -26.321  1.00  0.00     0.208 C 
ATOM     19  O   UNL     1       2.881   1.980 -25.500  1.00  0.00    -0.337 OA
ATOM     20  C   UNL     1       5.203   2.541 -25.207  1.00  0.00     0.180 C 
ATOM     21  C   UNL     1       3.749   2.899 -24.868  1.00  0.00     0.179 C 
BRANCH  17  22
ATOM     22  C   UNL     1       2.925   0.586 -27.435  1.00  0.00     0.225 C 
BRANCH  22  23
ATOM     23  O   UNL     1       2.371   1.727 -28.034  1.00  0.00    -0.391 OA
ATOM     24  H   UNL     1       1.416   1.517 -28.203  1.00  0.00     0.210 HD
ENDBRANCH  22  23
ENDBRANCH  17  22
BRANCH  18  25
ATOM     25  O   UNL     1       5.189   2.193 -27.555  1.00  0.00    -0.385 OA
ATOM     26  H   UNL     1       4.278   2.486 -27.814  1.00  0.00     0.211 HD
ENDBRANCH  18  25
BRANCH  20  27
ATOM     27  O   UNL     1       5.875   2.000 -24.092  1.00  0.00    -0.387 OA
ATOM     28  H   UNL     1       5.206   1.812 -23.384  1.00  0.00     0.211 HD
ENDBRANCH  20  27
BRANCH  21  29
ATOM     29  C   UNL     1       3.379   4.318 -25.326  1.00  0.00     0.191 C 
BRANCH  29  30
ATOM     30  O   UNL     1       3.081   4.328 -26.698  1.00  0.00    -0.394 OA
ATOM     31  H   UNL     1       2.114   4.536 -26.786  1.00  0.00     0.210 HD
ENDBRANCH  29  30
ENDBRANCH  21  29
ENDBRANCH   1  17
TORSDOF 13
ENDMDL
MODEL 7
REMARK VINA RESULT:    -5.003      1.357      5.665
REMARK INTER + INTRA:          -9.370
REMARK INTER:                  -7.782
REMARK INTRA:                  -1.588
REMARK UNBOUND:                -1.735
REMARK SMILES OC[C@H]1O[C@@H](O[C@@]2(CO)O[C@H](CO)[C@@H](O)[C@@H]2O)[C@H](O)[C@@H](O)[C@H]1O
REMARK SMILES IDX 6 1 5 2 3 3 22 4 4 5 20 6 18 7 2 8 1 9 23 11 21 13 19 15
REMARK SMILES IDX 7 17 16 18 10 19 14 20 11 21 8 22 9 23 17 25 15 27 12 29
REMARK SMILES IDX 13 30
REMARK H PARENT 1 10 23 12 21 14 19 16 9 24 17 26 15 28 13 31
REMARK Flexibility Score: inf
ROOT
ATOM      1  O   UNL     1       2.989  -0.417 -24.262  1.00  0.00    -0.313 OA
ENDROOT
BRANCH   1   2
ATOM      2  C   UNL     1       3.449  -1.725 -24.579  1.00  0.00     0.285 C 
ATOM      3  C   UNL     1       1.318  -2.805 -24.391  1.00  0.00     0.178 C 
ATOM      4  C   UNL     1       1.734  -3.506 -23.070  1.00  0.00     0.177 C 
ATOM      5  O   UNL     1       2.426  -2.475 -25.226  1.00  0.00    -0.341 OA
ATOM      6  C   UNL     1       2.847  -2.744 -22.335  1.00  0.00     0.179 C 
ATOM      7  C   UNL     1       3.983  -2.428 -23.311  1.00  0.00     0.202 C 
BRANCH   3   8
ATOM      8  C   UNL     1       0.330  -1.630 -24.209  1.00  0.00     0.191 C 
BRANCH   8   9
ATOM      9  O   UNL     1       0.152  -0.939 -25.415  1.00  0.00    -0.394 OA
ATOM     10  H   UNL     1       0.133  -1.623 -26.135  1.00  0.00     0.210 HD
ENDBRANCH   8   9
ENDBRANCH   3   8
BRANCH   4  11
ATOM     11  O   UNL     1       0.631  -3.685 -22.218  1.00  0.00    -0.387 OA
ATOM     12  H   UNL     1       0.995  -3.946 -21.331  1.00  0.00     0.211 HD
ENDBRANCH   4  11
BRANCH   6  13
ATOM     13  O   UNL     1       2.361  -1.556 -21.765  1.00  0.00    -0.387 OA
ATOM     14  H   UNL     1       3.065  -0.865 -21.883  1.00  0.00     0.211 HD
ENDBRANCH   6  13
BRANCH   7  15
ATOM     15  O   UNL     1       4.634  -3.623 -23.664  1.00  0.00    -0.385 OA
ATOM     16  H   UNL     1       5.092  -3.459 -24.529  1.00  0.00     0.211 HD
ENDBRANCH   7  15
ENDBRANCH   1   2
BRANCH   1  17
ATOM     17  C   UNL     1       3.827   0.649 -24.710  1.00  0.00     0.224 C 
ATOM     18  C   UNL     1       2.999   1.702 -25.487  1.00  0.00     0.208 C 
ATOM     19  O   UNL     1       4.741   0.080 -25.624  1.00  0.00    -0.337 OA
ATOM     20  C   UNL     1       3.015   1.167 -26.901  1.00  0.00     0.180 C 
ATOM     21  C   UNL     1       4.265   0.276 -26.939  1.00  0.00     0.179 C 
BRANCH  17  22
ATOM     22  C   UNL     1       4.667   1.253 -23.548  1.00  0.00     0.225 C 
BRANCH  22  23
ATOM     23  O   UNL     1       5.861   1.801 -24.038  1.00  0.00    -0.391 OA
ATOM     24  H   UNL     1       6.509   1.052 -24.094  1.00  0.00     0.210 HD
ENDBRANCH  22  23
ENDBRANCH  17  22
BRANCH  18  25
ATOM     25  O   UNL     1       3.620   2.964 -25.471  1.00  0.00    -0.385 OA
ATOM     26  H   UNL     1       4.004   3.087 -24.565  1.00  0.00     0.211 HD
ENDBRANCH  18  25
BRANCH  20  27
ATOM     27  O   UNL     1       1.848   0.432 -27.188  1.00  0.00    -0.387 OA
ATOM     28  H   UNL     1       1.084   1.064 -27.240  1.00  0.00     0.211 HD
ENDBRANCH  20  27
BRANCH  21  29
ATOM     29  C   UNL     1       5.391   0.893 -27.781  1.00  0.00     0.191 C 
BRANCH  29  30
ATOM     30  O   UNL     1       6.537   1.094 -26.996  1.00  0.00    -0.394 OA
ATOM     31  H   UNL     1       7.077   0.263 -27.048  1.00  0.00     0.210 HD
ENDBRANCH  29  30
ENDBRANCH  21  29
ENDBRANCH   1  17
TORSDOF 13
ENDMDL
MODEL 8
REMARK VINA RESULT:    -4.891      1.660      3.077
REMARK INTER + INTRA:          -9.199
REMARK INTER:                  -7.776
REMARK INTRA:                  -1.423
REMARK UNBOUND:                -1.735
REMARK SMILES OC[C@H]1O[C@@H](O[C@@]2(CO)O[C@H](CO)[C@@H](O)[C@@H]2O)[C@H](O)[C@@H](O)[C@H]1O
REMARK SMILES IDX 6 1 5 2 3 3 22 4 4 5 20 6 18 7 2 8 1 9 23 11 21 13 19 15
REMARK SMILES IDX 7 17 16 18 10 19 14 20 11 21 8 22 9 23 17 25 15 27 12 29
REMARK SMILES IDX 13 30
REMARK H PARENT 1 10 23 12 21 14 19 16 9 24 17 26 15 28 13 31
REMARK Flexibility Score: inf
ROOT
ATOM      1  O   UNL     1       2.829  -0.450 -24.286  1.00  0.00    -0.313 OA
ENDROOT
BRANCH   1   2
ATOM      2  C   UNL     1       4.162  -0.669 -24.734  1.00  0.00     0.285 C 
ATOM      3  C   UNL     1       5.189   0.960 -23.308  1.00  0.00     0.178 C 
ATOM      4  C   UNL     1       5.460   1.910 -24.505  1.00  0.00     0.177 C 
ATOM      5  O   UNL     1       5.092  -0.411 -23.688  1.00  0.00    -0.341 OA
ATOM      6  C   UNL     1       4.490   1.666 -25.670  1.00  0.00     0.179 C 
ATOM      7  C   UNL     1       4.447   0.171 -25.998  1.00  0.00     0.202 C 
BRANCH   3   8
ATOM      8  C   UNL     1       4.036   1.411 -22.381  1.00  0.00     0.191 C 
BRANCH   8   9
ATOM      9  O   UNL     1       3.809   0.462 -21.374  1.00  0.00    -0.394 OA
ATOM     10  H   UNL     1       2.855   0.548 -21.112  1.00  0.00     0.210 HD
ENDBRANCH   8   9
ENDBRANCH   3   8
BRANCH   4  11
ATOM     11  O   UNL     1       5.407   3.257 -24.109  1.00  0.00    -0.387 OA
ATOM     12  H   UNL     1       5.151   3.781 -24.915  1.00  0.00     0.211 HD
ENDBRANCH   4  11
BRANCH   6  13
ATOM     13  O   UNL     1       3.197   2.125 -25.362  1.00  0.00    -0.387 OA
ATOM     14  H   UNL     1       3.229   3.118 -25.379  1.00  0.00     0.211 HD
ENDBRANCH   6  13
BRANCH   7  15
ATOM     15  O   UNL     1       5.677  -0.213 -26.560  1.00  0.00    -0.385 OA
ATOM     16  H   UNL     1       5.720  -1.203 -26.517  1.00  0.00     0.211 HD
ENDBRANCH   7  15
ENDBRANCH   1   2
BRANCH   1  17
ATOM     17  C   UNL     1       1.927  -1.535 -24.501  1.00  0.00     0.224 C 
ATOM     18  C   UNL     1       0.996  -1.721 -23.279  1.00  0.00     0.208 C 
ATOM     19  O   UNL     1       2.722  -2.699 -24.601  1.00  0.00    -0.337 OA
ATOM     20  C   UNL     1       1.797  -2.635 -22.380  1.00  0.00     0.180 C 
ATOM     21  C   UNL     1       2.756  -3.346 -23.345  1.00  0.00     0.179 C 
BRANCH  17  22
ATOM     22  C   UNL     1       1.163  -1.394 -25.849  1.00  0.00     0.225 C 
BRANCH  22  23
ATOM     23  O   UNL     1       0.017  -0.604 -25.684  1.00  0.00    -0.391 OA
ATOM     24  H   UNL     1      -0.260  -0.320 -26.594  1.00  0.00     0.210 HD
ENDBRANCH  22  23
ENDBRANCH  17  22
BRANCH  18  25
ATOM     25  O   UNL     1      -0.202  -2.367 -23.634  1.00  0.00    -0.385 OA
ATOM     26  H   UNL     1       0.019  -3.016 -24.350  1.00  0.00     0.211 HD
ENDBRANCH  18  25
BRANCH  20  27
ATOM     27  O   UNL     1       2.497  -1.909 -21.396  1.00  0.00    -0.387 OA
ATOM     28  H   UNL     1       2.332  -0.942 -21.544  1.00  0.00     0.211 HD
ENDBRANCH  20  27
BRANCH  21  29
ATOM     29  C   UNL     1       2.389  -4.824 -23.545  1.00  0.00     0.191 C 
BRANCH  29  30
ATOM     30  O   UNL     1       1.188  -5.125 -22.884  1.00  0.00    -0.394 OA
ATOM     31  H   UNL     1       0.573  -5.515 -23.558  1.00  0.00     0.210 HD
ENDBRANCH  29  30
ENDBRANCH  21  29
ENDBRANCH   1  17
TORSDOF 13
ENDMDL
MODEL 9
REMARK VINA RESULT:    -4.769      1.779      2.200
REMARK INTER + INTRA:          -9.013
REMARK INTER:                  -7.085
REMARK INTRA:                  -1.927
REMARK UNBOUND:                -1.735
REMARK SMILES OC[C@H]1O[C@@H](O[C@@]2(CO)O[C@H](CO)[C@@H](O)[C@@H]2O)[C@H](O)[C@@H](O)[C@H]1O
REMARK SMILES IDX 6 1 5 2 3 3 22 4 4 5 20 6 18 7 2 8 1 9 23 11 21 13 19 15
REMARK SMILES IDX 7 17 16 18 10 19 14 20 11 21 8 22 9 23 17 25 15 27 12 29
REMARK SMILES IDX 13 30
REMARK H PARENT 1 10 23 12 21 14 19 16 9 24 17 26 15 28 13 31
REMARK Flexibility Score: inf
ROOT
ATOM      1  O   UNL     1       3.620   0.883 -25.172  1.00  0.00    -0.313 OA
ENDROOT
BRANCH   1   2
ATOM      2  C   UNL     1       2.813   1.307 -26.265  1.00  0.00     0.285 C 
ATOM      3  C   UNL     1       4.625   1.757 -27.767  1.00  0.00     0.178 C 
ATOM      4  C   UNL     1       4.411   3.290 -27.646  1.00  0.00     0.177 C 
ATOM      5  O   UNL     1       3.445   1.002 -27.504  1.00  0.00    -0.341 OA
ATOM      6  C   UNL     1       3.720   3.676 -26.329  1.00  0.00     0.179 C 
ATOM      7  C   UNL     1       2.474   2.808 -26.129  1.00  0.00     0.202 C 
BRANCH   3   8
ATOM      8  C   UNL     1       5.865   1.222 -27.015  1.00  0.00     0.191 C 
BRANCH   8   9
ATOM      9  O   UNL     1       5.911  -0.178 -27.067  1.00  0.00    -0.394 OA
ATOM     10  H   UNL     1       5.659  -0.505 -26.163  1.00  0.00     0.210 HD
ENDBRANCH   8   9
ENDBRANCH   3   8
BRANCH   4  11
ATOM     11  O   UNL     1       5.624   3.987 -27.773  1.00  0.00    -0.387 OA
ATOM     12  H   UNL     1       5.505   4.855 -27.304  1.00  0.00     0.211 HD
ENDBRANCH   4  11
BRANCH   6  13
ATOM     13  O   UNL     1       4.589   3.525 -25.234  1.00  0.00    -0.387 OA
ATOM     14  H   UNL     1       5.014   4.409 -25.076  1.00  0.00     0.211 HD
ENDBRANCH   6  13
BRANCH   7  15
ATOM     15  O   UNL     1       1.505   3.168 -27.081  1.00  0.00    -0.385 OA
ATOM     16  H   UNL     1       1.865   2.916 -27.972  1.00  0.00     0.211 HD
ENDBRANCH   7  15
ENDBRANCH   1   2
BRANCH   1  17
ATOM     17  C   UNL     1       3.201  -0.327 -24.540  1.00  0.00     0.224 C 
ATOM     18  C   UNL     1       3.440  -0.253 -23.012  1.00  0.00     0.208 C 
ATOM     19  O   UNL     1       4.036  -1.349 -25.043  1.00  0.00    -0.337 OA
ATOM     20  C   UNL     1       4.865  -0.736 -22.869  1.00  0.00     0.180 C 
ATOM     21  C   UNL     1       5.096  -1.573 -24.135  1.00  0.00     0.179 C 
BRANCH  17  22
ATOM     22  C   UNL     1       1.742  -0.706 -24.924  1.00  0.00     0.225 C 
BRANCH  22  23
ATOM     23  O   UNL     1       1.586  -2.100 -24.947  1.00  0.00    -0.391 OA
ATOM     24  H   UNL     1       0.942  -2.295 -25.676  1.00  0.00     0.210 HD
ENDBRANCH  22  23
ENDBRANCH  17  22
BRANCH  18  25
ATOM     25  O   UNL     1       2.591  -1.130 -22.312  1.00  0.00    -0.385 OA
ATOM     26  H   UNL     1       1.938  -1.487 -22.968  1.00  0.00     0.211 HD
ENDBRANCH  18  25
BRANCH  20  27
ATOM     27  O   UNL     1       5.770   0.342 -22.790  1.00  0.00    -0.387 OA
ATOM     28  H   UNL     1       6.027   0.603 -23.712  1.00  0.00     0.211 HD
ENDBRANCH  20  27
BRANCH  21  29
ATOM     29  C   UNL     1       5.172  -3.076 -23.831  1.00  0.00     0.191 C 
BRANCH  29  30
ATOM     30  O   UNL     1       3.887  -3.601 -23.623  1.00  0.00    -0.394 OA
ATOM     31  H   UNL     1       3.309  -3.258 -24.352  1.00  0.00     0.210 HD
ENDBRANCH  29  30
ENDBRANCH  21  29
ENDBRANCH   1  17
TORSDOF 13
ENDMDL
