MODEL 1
REMARK VINA RESULT:    -2.922      0.000      0.000
REMARK INTER + INTRA:          -3.924
REMARK INTER:                  -3.690
REMARK INTRA:                  -0.234
REMARK UNBOUND:                -0.234
REMARK SMILES CSCC[C@@H]([NH3+])C(=O)[O-]
REMARK SMILES IDX 4 1 5 2 6 3 7 7 8 8 9 9 3 10 2 11 1 12
REMARK H PARENT 6 4 6 5 6 6
REMARK Flexibility Score: inf
ROOT
ATOM      1  C   UNL     1      -0.191  14.164  -9.242  1.00  0.00     0.082 C 
ENDROOT
BRANCH   1   2
ATOM      2  C   UNL     1      -1.444  13.269  -9.126  1.00  0.00     0.228 C 
BRANCH   2   3
ATOM      3  N   UNL     1      -1.937  12.849 -10.445  1.00  0.00    -0.350 N 
ATOM      4  H   UNL     1      -2.489  11.964 -10.353  1.00  0.00     0.345 HD
ATOM      5  H   UNL     1      -1.142  12.687 -11.105  1.00  0.00     0.345 HD
ATOM      6  H   UNL     1      -2.573  13.577 -10.839  1.00  0.00     0.345 HD
ENDBRANCH   2   3
BRANCH   2   7
ATOM      7  C   UNL     1      -1.120  12.061  -8.288  1.00  0.00     0.099 C 
ATOM      8  O   UNL     1      -0.170  11.300  -8.614  1.00  0.00    -0.544 OA
ATOM      9  O   UNL     1      -1.878  11.765  -7.162  1.00  0.00    -0.544 OA
ENDBRANCH   2   7
ENDBRANCH   1   2
BRANCH   1  10
ATOM     10  C   UNL     1       0.135  14.895  -7.934  1.00  0.00     0.076 C 
BRANCH  10  11
ATOM     11  S   UNL     1       1.822  14.473  -7.368  1.00  0.00    -0.165 SA
ATOM     12  C   UNL     1       2.348  13.672  -8.918  1.00  0.00     0.085 C 
ENDBRANCH  10  11
ENDBRANCH   1  10
TORSDOF 5
ENDMDL
MODEL 2
REMARK VINA RESULT:    -2.817      3.544      4.377
REMARK INTER + INTRA:          -3.792
REMARK INTER:                  -3.703
REMARK INTRA:                  -0.089
REMARK UNBOUND:                -0.234
REMARK SMILES CSCC[C@@H]([NH3+])C(=O)[O-]
REMARK SMILES IDX 4 1 5 2 6 3 7 7 8 8 9 9 3 10 2 11 1 12
REMARK H PARENT 6 4 6 5 6 6
REMARK Flexibility Score: inf
ROOT
ATOM      1  C   UNL     1       1.205  13.864  -8.697  1.00  0.00     0.082 C 
ENDROOT
BRANCH   1   2
ATOM      2  C   UNL     1       2.474  14.706  -8.949  1.00  0.00     0.228 C 
BRANCH   2   3
ATOM      3  N   UNL     1       2.821  15.531  -7.784  1.00  0.00    -0.350 N 
ATOM      4  H   UNL     1       3.861  15.591  -7.687  1.00  0.00     0.345 HD
ATOM      5  H   UNL     1       2.421  15.123  -6.907  1.00  0.00     0.345 HD
ATOM      6  H   UNL     1       2.459  16.502  -7.910  1.00  0.00     0.345 HD
ENDBRANCH   2   3
BRANCH   2   7
ATOM      7  C   UNL     1       3.621  13.793  -9.293  1.00  0.00     0.099 C 
ATOM      8  O   UNL     1       4.132  13.824 -10.444  1.00  0.00    -0.544 OA
ATOM      9  O   UNL     1       4.109  12.896  -8.352  1.00  0.00    -0.544 OA
ENDBRANCH   2   7
ENDBRANCH   1   2
BRANCH   1  10
ATOM     10  C   UNL     1       0.715  13.954  -7.247  1.00  0.00     0.076 C 
BRANCH  10  11
ATOM     11  S   UNL     1      -0.427  12.576  -6.870  1.00  0.00    -0.165 SA
ATOM     12  C   UNL     1      -0.676  12.056  -8.599  1.00  0.00     0.085 C 
ENDBRANCH  10  11
ENDBRANCH   1  10
TORSDOF 5
ENDMDL
MODEL 3
REMARK VINA RESULT:    -2.764      1.881      1.970
REMARK INTER + INTRA:          -3.725
REMARK INTER:                  -3.639
REMARK INTRA:                  -0.086
REMARK UNBOUND:                -0.234
REMARK SMILES CSCC[C@@H]([NH3+])C(=O)[O-]
REMARK SMILES IDX 4 1 5 2 6 3 7 7 8 8 9 9 3 10 2 11 1 12
REMARK H PARENT 6 4 6 5 6 6
REMARK Flexibility Score: inf
ROOT
ATOM      1  C   UNL     1       1.278  13.574  -8.602  1.00  0.00     0.082 C 
ENDROOT
BRANCH   1   2
ATOM      2  C   UNL     1       0.217  13.475  -7.485  1.00  0.00     0.228 C 
BRANCH   2   3
ATOM      3  N   UNL     1      -0.731  14.597  -7.533  1.00  0.00    -0.350 N 
ATOM      4  H   UNL     1      -0.710  15.119  -6.626  1.00  0.00     0.345 HD
ATOM      5  H   UNL     1      -1.704  14.254  -7.706  1.00  0.00     0.345 HD
ATOM      6  H   UNL     1      -0.459  15.265  -8.288  1.00  0.00     0.345 HD
ENDBRANCH   2   3
BRANCH   2   7
ATOM      7  C   UNL     1      -0.523  12.170  -7.612  1.00  0.00     0.099 C 
ATOM      8  O   UNL     1      -0.294  11.403  -8.584  1.00  0.00    -0.544 OA
ATOM      9  O   UNL     1      -1.478  11.811  -6.668  1.00  0.00    -0.544 OA
ENDBRANCH   2   7
ENDBRANCH   1   2
BRANCH   1  10
ATOM     10  C   UNL     1       1.391  14.988  -9.185  1.00  0.00     0.076 C 
BRANCH  10  11
ATOM     11  S   UNL     1       3.146  15.452  -9.404  1.00  0.00    -0.165 SA
ATOM     12  C   UNL     1       3.813  13.765  -9.225  1.00  0.00     0.085 C 
ENDBRANCH  10  11
ENDBRANCH   1  10
TORSDOF 5
ENDMDL
MODEL 4
REMARK VINA RESULT:    -2.699      3.996      4.969
REMARK INTER + INTRA:          -3.643
REMARK INTER:                  -3.571
REMARK INTRA:                  -0.071
REMARK UNBOUND:                -0.234
REMARK SMILES CSCC[C@@H]([NH3+])C(=O)[O-]
REMARK SMILES IDX 4 1 5 2 6 3 7 7 8 8 9 9 3 10 2 11 1 12
REMARK H PARENT 6 4 6 5 6 6
REMARK Flexibility Score: inf
ROOT
ATOM      1  C   UNL     1       1.855  13.545  -8.872  1.00  0.00     0.082 C 
ENDROOT
BRANCH   1   2
ATOM      2  C   UNL     1       3.217  14.246  -8.677  1.00  0.00     0.228 C 
BRANCH   2   3
ATOM      3  N   UNL     1       4.311  13.278  -8.517  1.00  0.00    -0.350 N 
ATOM      4  H   UNL     1       4.914  13.552  -7.707  1.00  0.00     0.345 HD
ATOM      5  H   UNL     1       4.899  13.236  -9.381  1.00  0.00     0.345 HD
ATOM      6  H   UNL     1       3.924  12.329  -8.315  1.00  0.00     0.345 HD
ENDBRANCH   2   3
BRANCH   2   7
ATOM      7  C   UNL     1       3.491  15.143  -9.855  1.00  0.00     0.099 C 
ATOM      8  O   UNL     1       3.039  16.318  -9.875  1.00  0.00    -0.544 OA
ATOM      9  O   UNL     1       4.228  14.675 -10.936  1.00  0.00    -0.544 OA
ENDBRANCH   2   7
ENDBRANCH   1   2
BRANCH   1  10
ATOM     10  C   UNL     1       0.762  14.115  -7.960  1.00  0.00     0.076 C 
BRANCH  10  11
ATOM     11  S   UNL     1      -0.054  12.774  -7.022  1.00  0.00    -0.165 SA
ATOM     12  C   UNL     1      -0.998  12.104  -8.429  1.00  0.00     0.085 C 
ENDBRANCH  10  11
ENDBRANCH   1  10
TORSDOF 5
ENDMDL
MODEL 5
REMARK VINA RESULT:    -2.692     10.494     11.804
REMARK INTER + INTRA:          -3.634
REMARK INTER:                  -3.452
REMARK INTRA:                  -0.182
REMARK UNBOUND:                -0.234
REMARK SMILES CSCC[C@@H]([NH3+])C(=O)[O-]
REMARK SMILES IDX 4 1 5 2 6 3 7 7 8 8 9 9 3 10 2 11 1 12
REMARK H PARENT 6 4 6 5 6 6
REMARK Flexibility Score: inf
ROOT
ATOM      1  C   UNL     1       9.664   5.649 -10.350  1.00  0.00     0.082 C 
ENDROOT
BRANCH   1   2
ATOM      2  C   UNL     1       9.554   7.011 -11.070  1.00  0.00     0.228 C 
BRANCH   2   3
ATOM      3  N   UNL     1      10.855   7.463 -11.581  1.00  0.00    -0.350 N 
ATOM      4  H   UNL     1      10.830   8.495 -11.754  1.00  0.00     0.345 HD
ATOM      5  H   UNL     1      11.093   6.974 -12.475  1.00  0.00     0.345 HD
ATOM      6  H   UNL     1      11.602   7.280 -10.875  1.00  0.00     0.345 HD
ENDBRANCH   2   3
BRANCH   2   7
ATOM      7  C   UNL     1       8.566   6.901 -12.201  1.00  0.00     0.099 C 
ATOM      8  O   UNL     1       7.769   7.846 -12.441  1.00  0.00    -0.544 OA
ATOM      9  O   UNL     1       8.513   5.748 -12.976  1.00  0.00    -0.544 OA
ENDBRANCH   2   7
ENDBRANCH   1   2
BRANCH   1  10
ATOM     10  C   UNL     1       8.606   5.475  -9.254  1.00  0.00     0.076 C 
BRANCH  10  11
ATOM     11  S   UNL     1       8.486   6.987  -8.234  1.00  0.00    -0.165 SA
ATOM     12  C   UNL     1       6.822   7.469  -8.802  1.00  0.00     0.085 C 
ENDBRANCH  10  11
ENDBRANCH   1  10
TORSDOF 5
ENDMDL
MODEL 6
REMARK VINA RESULT:    -2.611      1.555      1.600
REMARK INTER + INTRA:          -3.532
REMARK INTER:                  -3.435
REMARK INTRA:                  -0.097
REMARK UNBOUND:                -0.234
REMARK SMILES CSCC[C@@H]([NH3+])C(=O)[O-]
REMARK SMILES IDX 4 1 5 2 6 3 7 7 8 8 9 9 3 10 2 11 1 12
REMARK H PARENT 6 4 6 5 6 6
REMARK Flexibility Score: inf
ROOT
ATOM      1  C   UNL     1       0.928  13.849  -8.774  1.00  0.00     0.082 C 
ENDROOT
BRANCH   1   2
ATOM      2  C   UNL     1      -0.577  13.545  -8.616  1.00  0.00     0.228 C 
BRANCH   2   3
ATOM      3  N   UNL     1      -1.298  13.687  -9.889  1.00  0.00    -0.350 N 
ATOM      4  H   UNL     1      -2.111  14.335  -9.767  1.00  0.00     0.345 HD
ATOM      5  H   UNL     1      -1.648  12.759 -10.222  1.00  0.00     0.345 HD
ATOM      6  H   UNL     1      -0.670  14.101 -10.613  1.00  0.00     0.345 HD
ENDBRANCH   2   3
BRANCH   2   7
ATOM      7  C   UNL     1      -0.753  12.150  -8.077  1.00  0.00     0.099 C 
ATOM      8  O   UNL     1      -0.241  11.169  -8.679  1.00  0.00    -0.544 OA
ATOM      9  O   UNL     1      -1.498  11.932  -6.925  1.00  0.00    -0.544 OA
ENDBRANCH   2   7
ENDBRANCH   1   2
BRANCH   1  10
ATOM     10  C   UNL     1       1.678  13.825  -7.436  1.00  0.00     0.076 C 
BRANCH  10  11
ATOM     11  S   UNL     1       3.485  13.816  -7.715  1.00  0.00    -0.165 SA
ATOM     12  C   UNL     1       3.950  14.007  -5.963  1.00  0.00     0.085 C 
ENDBRANCH  10  11
ENDBRANCH   1  10
TORSDOF 5
ENDMDL
MODEL 7
REMARK VINA RESULT:    -2.586      3.254      4.335
REMARK INTER + INTRA:          -3.500
REMARK INTER:                  -3.427
REMARK INTRA:                  -0.073
REMARK UNBOUND:                -0.234
REMARK SMILES CSCC[C@@H]([NH3+])C(=O)[O-]
REMARK SMILES IDX 4 1 5 2 6 3 7 7 8 8 9 9 3 10 2 11 1 12
REMARK H PARENT 6 4 6 5 6 6
REMARK Flexibility Score: inf
ROOT
ATOM      1  C   UNL     1      -2.160  12.955 -10.092  1.00  0.00     0.082 C 
ENDROOT
BRANCH   1   2
ATOM      2  C   UNL     1      -1.082  13.603  -9.196  1.00  0.00     0.228 C 
BRANCH   2   3
ATOM      3  N   UNL     1      -1.660  14.162  -7.967  1.00  0.00    -0.350 N 
ATOM      4  H   UNL     1      -2.570  14.631  -8.182  1.00  0.00     0.345 HD
ATOM      5  H   UNL     1      -1.011  14.860  -7.535  1.00  0.00     0.345 HD
ATOM      6  H   UNL     1      -1.854  13.398  -7.281  1.00  0.00     0.345 HD
ENDBRANCH   2   3
BRANCH   2   7
ATOM      7  C   UNL     1      -0.033  12.579  -8.853  1.00  0.00     0.099 C 
ATOM      8  O   UNL     1      -0.373  11.431  -8.461  1.00  0.00    -0.544 OA
ATOM      9  O   UNL     1       1.316  12.898  -8.948  1.00  0.00    -0.544 OA
ENDBRANCH   2   7
ENDBRANCH   1   2
BRANCH   1  10
ATOM     10  C   UNL     1      -3.100  13.987 -10.726  1.00  0.00     0.076 C 
BRANCH  10  11
ATOM     11  S   UNL     1      -4.792  13.808 -10.055  1.00  0.00    -0.165 SA
ATOM     12  C   UNL     1      -5.446  12.831 -11.448  1.00  0.00     0.085 C 
ENDBRANCH  10  11
ENDBRANCH   1  10
TORSDOF 5
ENDMDL
MODEL 8
REMARK VINA RESULT:    -2.572      4.094      4.432
REMARK INTER + INTRA:          -3.483
REMARK INTER:                  -3.369
REMARK INTRA:                  -0.114
REMARK UNBOUND:                -0.234
REMARK SMILES CSCC[C@@H]([NH3+])C(=O)[O-]
REMARK SMILES IDX 4 1 5 2 6 3 7 7 8 8 9 9 3 10 2 11 1 12
REMARK H PARENT 6 4 6 5 6 6
REMARK Flexibility Score: inf
ROOT
ATOM      1  C   UNL     1       2.913  15.674  -8.734  1.00  0.00     0.082 C 
ENDROOT
BRANCH   1   2
ATOM      2  C   UNL     1       2.469  14.393  -7.996  1.00  0.00     0.228 C 
BRANCH   2   3
ATOM      3  N   UNL     1       1.623  13.542  -8.843  1.00  0.00    -0.350 N 
ATOM      4  H   UNL     1       1.886  12.537  -8.714  1.00  0.00     0.345 HD
ATOM      5  H   UNL     1       1.732  13.796  -9.852  1.00  0.00     0.345 HD
ATOM      6  H   UNL     1       0.621  13.642  -8.566  1.00  0.00     0.345 HD
ENDBRANCH   2   3
BRANCH   2   7
ATOM      7  C   UNL     1       3.686  13.626  -7.548  1.00  0.00     0.099 C 
ATOM      8  O   UNL     1       4.416  13.046  -8.395  1.00  0.00    -0.544 OA
ATOM      9  O   UNL     1       3.999  13.537  -6.198  1.00  0.00    -0.544 OA
ENDBRANCH   2   7
ENDBRANCH   1   2
BRANCH   1  10
ATOM     10  C   UNL     1       1.780  16.308  -9.550  1.00  0.00     0.076 C 
BRANCH  10  11
ATOM     11  S   UNL     1       2.386  16.818 -11.198  1.00  0.00    -0.165 SA
ATOM     12  C   UNL     1       4.127  16.361 -10.912  1.00  0.00     0.085 C 
ENDBRANCH  10  11
ENDBRANCH   1  10
TORSDOF 5
ENDMDL
MODEL 9
REMARK VINA RESULT:    -2.542      3.224      4.106
REMARK INTER + INTRA:          -3.444
REMARK INTER:                  -3.313
REMARK INTRA:                  -0.132
REMARK UNBOUND:                -0.234
REMARK SMILES CSCC[C@@H]([NH3+])C(=O)[O-]
REMARK SMILES IDX 4 1 5 2 6 3 7 7 8 8 9 9 3 10 2 11 1 12
REMARK H PARENT 6 4 6 5 6 6
REMARK Flexibility Score: inf
ROOT
ATOM      1  C   UNL     1       1.493  15.324  -9.292  1.00  0.00     0.082 C 
ENDROOT
BRANCH   1   2
ATOM      2  C   UNL     1       1.884  13.953  -8.697  1.00  0.00     0.228 C 
BRANCH   2   3
ATOM      3  N   UNL     1       0.987  12.884  -9.156  1.00  0.00    -0.350 N 
ATOM      4  H   UNL     1       1.514  12.216  -9.766  1.00  0.00     0.345 HD
ATOM      5  H   UNL     1       0.185  13.280  -9.698  1.00  0.00     0.345 HD
ATOM      6  H   UNL     1       0.623  12.345  -8.340  1.00  0.00     0.345 HD
ENDBRANCH   2   3
BRANCH   2   7
ATOM      7  C   UNL     1       3.306  13.631  -9.074  1.00  0.00     0.099 C 
ATOM      8  O   UNL     1       4.007  12.894  -8.330  1.00  0.00    -0.544 OA
ATOM      9  O   UNL     1       3.860  14.158 -10.233  1.00  0.00    -0.544 OA
ENDBRANCH   2   7
ENDBRANCH   1   2
BRANCH   1  10
ATOM     10  C   UNL     1      -0.012  15.445  -9.556  1.00  0.00     0.076 C 
BRANCH  10  11
ATOM     11  S   UNL     1      -0.894  15.925  -8.028  1.00  0.00    -0.165 SA
ATOM     12  C   UNL     1      -2.162  14.619  -8.120  1.00  0.00     0.085 C 
ENDBRANCH  10  11
ENDBRANCH   1  10
TORSDOF 5
ENDMDL
