MODEL 1
REMARK VINA RESULT:    -8.909      0.000      0.000
REMARK INTER + INTRA:         -11.060
REMARK INTER:                 -10.732
REMARK INTRA:                  -0.328
REMARK UNBOUND:                -0.328
REMARK SMILES O=c1c(O)c(-c2ccc(O)c(O)c2)oc2cc(O)cc(O)c12
REMARK SMILES IDX 5 1 3 2 2 3 1 4 22 5 20 6 19 7 17 8 16 9 15 10 14 11 6 12
REMARK SMILES IDX 7 13 8 14 9 15 13 16 11 17 10 18 12 20 4 22 21 24 18 26
REMARK H PARENT 10 19 12 21 4 23 21 25 18 27
REMARK Flexibility Score: inf
ROOT
ATOM      1  C   UNL     1      -3.242  -0.202   9.631  1.00  0.00     0.180 A 
ATOM      2  C   UNL     1      -3.828  -1.439   9.314  1.00  0.00     0.208 A 
ATOM      3  C   UNL     1      -4.401  -2.205  10.343  1.00  0.00     0.238 A 
ATOM      4  O   UNL     1      -4.856  -3.344  10.063  1.00  0.00    -0.285 OA
ATOM      5  C   UNL     1      -4.431  -1.699  11.665  1.00  0.00     0.111 A 
ATOM      6  C   UNL     1      -5.026  -2.369  12.778  1.00  0.00     0.134 A 
ATOM      7  C   UNL     1      -4.901  -1.822  14.060  1.00  0.00     0.093 A 
ATOM      8  C   UNL     1      -4.262  -0.600  14.263  1.00  0.00     0.123 A 
ATOM      9  C   UNL     1      -3.726   0.091  13.175  1.00  0.00     0.094 A 
ATOM     10  C   UNL     1      -3.799  -0.448  11.889  1.00  0.00     0.146 A 
ATOM     11  O   UNL     1      -3.257   0.232  10.886  1.00  0.00    -0.452 OA
ENDROOT
BRANCH   1  12
ATOM     12  C   UNL     1      -2.607   0.656   8.605  1.00  0.00     0.025 A 
ATOM     13  C   UNL     1      -3.336   1.713   8.041  1.00  0.00     0.016 A 
ATOM     14  C   UNL     1      -2.750   2.549   7.087  1.00  0.00     0.051 A 
ATOM     15  C   UNL     1      -1.423   2.350   6.694  1.00  0.00     0.157 A 
ATOM     16  C   UNL     1      -1.265   0.471   8.224  1.00  0.00     0.062 A 
ATOM     17  C   UNL     1      -0.674   1.309   7.268  1.00  0.00     0.158 A 
BRANCH  15  18
ATOM     18  O   UNL     1      -0.865   3.198   5.737  1.00  0.00    -0.504 OA
ATOM     19  H   UNL     1      -0.996   3.049   4.744  1.00  0.00     0.293 HD
ENDBRANCH  15  18
BRANCH  17  20
ATOM     20  O   UNL     1       0.654   1.115   6.890  1.00  0.00    -0.504 OA
ATOM     21  H   UNL     1       1.053   0.187   6.813  1.00  0.00     0.293 HD
ENDBRANCH  17  20
ENDBRANCH   1  12
BRANCH   2  22
ATOM     22  O   UNL     1      -3.856  -1.885   7.991  1.00  0.00    -0.502 OA
ATOM     23  H   UNL     1      -4.661  -2.353   7.590  1.00  0.00     0.293 HD
ENDBRANCH   2  22
BRANCH   6  24
ATOM     24  O   UNL     1      -5.764  -3.552  12.675  1.00  0.00    -0.507 OA
ATOM     25  H   UNL     1      -5.500  -4.353  12.122  1.00  0.00     0.293 HD
ENDBRANCH   6  24
BRANCH   8  26
ATOM     26  O   UNL     1      -4.173  -0.077  15.551  1.00  0.00    -0.508 OA
ATOM     27  H   UNL     1      -4.344  -0.650  16.370  1.00  0.00     0.293 HD
ENDBRANCH   8  26
TORSDOF 6
ENDMDL
MODEL 2
REMARK VINA RESULT:    -8.860      1.881      2.971
REMARK INTER + INTRA:         -11.001
REMARK INTER:                 -10.671
REMARK INTRA:                  -0.330
REMARK UNBOUND:                -0.328
REMARK SMILES O=c1c(O)c(-c2ccc(O)c(O)c2)oc2cc(O)cc(O)c12
REMARK SMILES IDX 5 1 3 2 2 3 1 4 22 5 20 6 19 7 17 8 16 9 15 10 14 11 6 12
REMARK SMILES IDX 7 13 8 14 9 15 13 16 11 17 10 18 12 20 4 22 21 24 18 26
REMARK H PARENT 10 19 12 21 4 23 21 25 18 27
REMARK Flexibility Score: inf
ROOT
ATOM      1  C   UNL     1      -2.715  -0.011  10.230  1.00  0.00     0.180 A 
ATOM      2  C   UNL     1      -2.039  -0.610  11.307  1.00  0.00     0.208 A 
ATOM      3  C   UNL     1      -2.738  -1.502  12.137  1.00  0.00     0.238 A 
ATOM      4  O   UNL     1      -2.148  -1.976  13.143  1.00  0.00    -0.285 OA
ATOM      5  C   UNL     1      -4.086  -1.826  11.849  1.00  0.00     0.111 A 
ATOM      6  C   UNL     1      -4.877  -2.751  12.596  1.00  0.00     0.134 A 
ATOM      7  C   UNL     1      -6.232  -2.912  12.282  1.00  0.00     0.093 A 
ATOM      8  C   UNL     1      -6.809  -2.233  11.209  1.00  0.00     0.123 A 
ATOM      9  C   UNL     1      -6.031  -1.369  10.437  1.00  0.00     0.094 A 
ATOM     10  C   UNL     1      -4.687  -1.157  10.750  1.00  0.00     0.146 A 
ATOM     11  O   UNL     1      -3.989  -0.309  10.004  1.00  0.00    -0.452 OA
ENDROOT
BRANCH   1  12
ATOM     12  C   UNL     1      -2.051   0.949   9.319  1.00  0.00     0.025 A 
ATOM     13  C   UNL     1      -1.526   0.493   8.100  1.00  0.00     0.016 A 
ATOM     14  C   UNL     1      -0.915   1.385   7.215  1.00  0.00     0.051 A 
ATOM     15  C   UNL     1      -0.832   2.745   7.527  1.00  0.00     0.157 A 
ATOM     16  C   UNL     1      -1.986   2.321   9.621  1.00  0.00     0.062 A 
ATOM     17  C   UNL     1      -1.375   3.218   8.734  1.00  0.00     0.158 A 
BRANCH  15  18
ATOM     18  O   UNL     1      -0.213   3.611   6.625  1.00  0.00    -0.504 OA
ATOM     19  H   UNL     1       0.446   3.284   5.930  1.00  0.00     0.293 HD
ENDBRANCH  15  18
BRANCH  17  20
ATOM     20  O   UNL     1      -1.308   4.576   9.044  1.00  0.00    -0.504 OA
ATOM     21  H   UNL     1      -0.421   5.055   9.141  1.00  0.00     0.293 HD
ENDBRANCH  17  20
ENDBRANCH   1  12
BRANCH   2  22
ATOM     22  O   UNL     1      -0.688  -0.336  11.529  1.00  0.00    -0.502 OA
ATOM     23  H   UNL     1      -0.371   0.513  11.983  1.00  0.00     0.293 HD
ENDBRANCH   2  22
BRANCH   6  24
ATOM     24  O   UNL     1      -4.380  -3.547  13.632  1.00  0.00    -0.507 OA
ATOM     25  H   UNL     1      -4.709  -4.473  13.859  1.00  0.00     0.293 HD
ENDBRANCH   6  24
BRANCH   8  26
ATOM     26  O   UNL     1      -8.155  -2.432  10.915  1.00  0.00    -0.508 OA
ATOM     27  H   UNL     1      -8.744  -1.674  10.587  1.00  0.00     0.293 HD
ENDBRANCH   8  26
TORSDOF 6
ENDMDL
MODEL 3
REMARK VINA RESULT:    -8.766      1.931      2.902
REMARK INTER + INTRA:         -10.888
REMARK INTER:                 -10.596
REMARK INTRA:                  -0.292
REMARK UNBOUND:                -0.328
REMARK SMILES O=c1c(O)c(-c2ccc(O)c(O)c2)oc2cc(O)cc(O)c12
REMARK SMILES IDX 5 1 3 2 2 3 1 4 22 5 20 6 19 7 17 8 16 9 15 10 14 11 6 12
REMARK SMILES IDX 7 13 8 14 9 15 13 16 11 17 10 18 12 20 4 22 21 24 18 26
REMARK H PARENT 10 19 12 21 4 23 21 25 18 27
REMARK Flexibility Score: inf
ROOT
ATOM      1  C   UNL     1      -3.553   0.290  10.054  1.00  0.00     0.180 A 
ATOM      2  C   UNL     1      -4.745   0.516  10.764  1.00  0.00     0.208 A 
ATOM      3  C   UNL     1      -5.208  -0.472  11.648  1.00  0.00     0.238 A 
ATOM      4  O   UNL     1      -6.313  -0.295  12.224  1.00  0.00    -0.285 OA
ATOM      5  C   UNL     1      -4.446  -1.647  11.855  1.00  0.00     0.111 A 
ATOM      6  C   UNL     1      -4.796  -2.695  12.761  1.00  0.00     0.134 A 
ATOM      7  C   UNL     1      -4.021  -3.859  12.802  1.00  0.00     0.093 A 
ATOM      8  C   UNL     1      -2.873  -3.990  12.021  1.00  0.00     0.123 A 
ATOM      9  C   UNL     1      -2.490  -2.950  11.173  1.00  0.00     0.094 A 
ATOM     10  C   UNL     1      -3.265  -1.792  11.080  1.00  0.00     0.146 A 
ATOM     11  O   UNL     1      -2.877  -0.836  10.244  1.00  0.00    -0.452 OA
ENDROOT
BRANCH   1  12
ATOM     12  C   UNL     1      -3.008   1.278   9.095  1.00  0.00     0.025 A 
ATOM     13  C   UNL     1      -1.889   2.044   9.453  1.00  0.00     0.016 A 
ATOM     14  C   UNL     1      -1.345   2.966   8.556  1.00  0.00     0.051 A 
ATOM     15  C   UNL     1      -1.900   3.125   7.282  1.00  0.00     0.157 A 
ATOM     16  C   UNL     1      -3.552   1.423   7.805  1.00  0.00     0.062 A 
ATOM     17  C   UNL     1      -3.007   2.347   6.902  1.00  0.00     0.158 A 
BRANCH  15  18
ATOM     18  O   UNL     1      -1.337   4.055   6.408  1.00  0.00    -0.504 OA
ATOM     19  H   UNL     1      -0.434   3.909   5.975  1.00  0.00     0.293 HD
ENDBRANCH  15  18
BRANCH  17  20
ATOM     20  O   UNL     1      -3.556   2.490   5.629  1.00  0.00    -0.504 OA
ATOM     21  H   UNL     1      -3.721   1.691   5.029  1.00  0.00     0.293 HD
ENDBRANCH  17  20
ENDBRANCH   1  12
BRANCH   2  22
ATOM     22  O   UNL     1      -5.442   1.716  10.604  1.00  0.00    -0.502 OA
ATOM     23  H   UNL     1      -6.102   2.058  11.293  1.00  0.00     0.293 HD
ENDBRANCH   2  22
BRANCH   6  24
ATOM     24  O   UNL     1      -5.872  -2.632  13.651  1.00  0.00    -0.507 OA
ATOM     25  H   UNL     1      -6.010  -3.248  14.437  1.00  0.00     0.293 HD
ENDBRANCH   6  24
BRANCH   8  26
ATOM     26  O   UNL     1      -2.116  -5.157  12.102  1.00  0.00    -0.508 OA
ATOM     27  H   UNL     1      -1.284  -5.289  11.538  1.00  0.00     0.293 HD
ENDBRANCH   8  26
TORSDOF 6
ENDMDL
MODEL 4
REMARK VINA RESULT:    -8.396      1.965      2.588
REMARK INTER + INTRA:         -10.442
REMARK INTER:                 -10.263
REMARK INTRA:                  -0.179
REMARK UNBOUND:                -0.328
REMARK SMILES O=c1c(O)c(-c2ccc(O)c(O)c2)oc2cc(O)cc(O)c12
REMARK SMILES IDX 5 1 3 2 2 3 1 4 22 5 20 6 19 7 17 8 16 9 15 10 14 11 6 12
REMARK SMILES IDX 7 13 8 14 9 15 13 16 11 17 10 18 12 20 4 22 21 24 18 26
REMARK H PARENT 10 19 12 21 4 23 21 25 18 27
REMARK Flexibility Score: inf
ROOT
ATOM      1  C   UNL     1      -3.188   0.120  10.040  1.00  0.00     0.180 A 
ATOM      2  C   UNL     1      -4.570   0.288  10.233  1.00  0.00     0.208 A 
ATOM      3  C   UNL     1      -5.262  -0.633  11.035  1.00  0.00     0.238 A 
ATOM      4  O   UNL     1      -6.512  -0.519  11.142  1.00  0.00    -0.285 OA
ATOM      5  C   UNL     1      -4.557  -1.678  11.679  1.00  0.00     0.111 A 
ATOM      6  C   UNL     1      -5.150  -2.642  12.551  1.00  0.00     0.134 A 
ATOM      7  C   UNL     1      -4.372  -3.694  13.047  1.00  0.00     0.093 A 
ATOM      8  C   UNL     1      -3.011  -3.784  12.758  1.00  0.00     0.123 A 
ATOM      9  C   UNL     1      -2.409  -2.816  11.953  1.00  0.00     0.094 A 
ATOM     10  C   UNL     1      -3.166  -1.776  11.410  1.00  0.00     0.146 A 
ATOM     11  O   UNL     1      -2.559  -0.889  10.631  1.00  0.00    -0.452 OA
ENDROOT
BRANCH   1  12
ATOM     12  C   UNL     1      -2.391   1.041   9.198  1.00  0.00     0.025 A 
ATOM     13  C   UNL     1      -1.860   0.581   7.984  1.00  0.00     0.016 A 
ATOM     14  C   UNL     1      -1.123   1.438   7.163  1.00  0.00     0.051 A 
ATOM     15  C   UNL     1      -0.920   2.771   7.534  1.00  0.00     0.157 A 
ATOM     16  C   UNL     1      -2.204   2.387   9.560  1.00  0.00     0.062 A 
ATOM     17  C   UNL     1      -1.467   3.250   8.737  1.00  0.00     0.158 A 
BRANCH  15  18
ATOM     18  O   UNL     1      -0.178   3.603   6.696  1.00  0.00    -0.504 OA
ATOM     19  H   UNL     1       0.364   4.381   7.052  1.00  0.00     0.293 HD
ENDBRANCH  15  18
BRANCH  17  20
ATOM     20  O   UNL     1      -1.279   4.582   9.106  1.00  0.00    -0.504 OA
ATOM     21  H   UNL     1      -0.500   4.867   9.687  1.00  0.00     0.293 HD
ENDBRANCH  17  20
ENDBRANCH   1  12
BRANCH   2  22
ATOM     22  O   UNL     1      -5.234   1.370   9.650  1.00  0.00    -0.502 OA
ATOM     23  H   UNL     1      -6.245   1.434   9.615  1.00  0.00     0.293 HD
ENDBRANCH   2  22
BRANCH   6  24
ATOM     24  O   UNL     1      -6.481  -2.598  12.977  1.00  0.00    -0.507 OA
ATOM     25  H   UNL     1      -7.247  -2.221  12.441  1.00  0.00     0.293 HD
ENDBRANCH   6  24
BRANCH   8  26
ATOM     26  O   UNL     1      -2.264  -4.835  13.284  1.00  0.00    -0.508 OA
ATOM     27  H   UNL     1      -2.709  -5.651  13.690  1.00  0.00     0.293 HD
ENDBRANCH   8  26
TORSDOF 6
ENDMDL
MODEL 5
REMARK VINA RESULT:    -8.325      1.350      2.788
REMARK INTER + INTRA:         -10.357
REMARK INTER:                 -10.108
REMARK INTRA:                  -0.249
REMARK UNBOUND:                -0.328
REMARK SMILES O=c1c(O)c(-c2ccc(O)c(O)c2)oc2cc(O)cc(O)c12
REMARK SMILES IDX 5 1 3 2 2 3 1 4 22 5 20 6 19 7 17 8 16 9 15 10 14 11 6 12
REMARK SMILES IDX 7 13 8 14 9 15 13 16 11 17 10 18 12 20 4 22 21 24 18 26
REMARK H PARENT 10 19 12 21 4 23 21 25 18 27
REMARK Flexibility Score: inf
ROOT
ATOM      1  C   UNL     1      -2.969   0.283  10.088  1.00  0.00     0.180 A 
ATOM      2  C   UNL     1      -2.474   0.399  11.398  1.00  0.00     0.208 A 
ATOM      3  C   UNL     1      -3.101  -0.321  12.428  1.00  0.00     0.238 A 
ATOM      4  O   UNL     1      -2.699  -0.154  13.610  1.00  0.00    -0.285 OA
ATOM      5  C   UNL     1      -4.177  -1.190  12.128  1.00  0.00     0.111 A 
ATOM      6  C   UNL     1      -4.858  -2.002  13.086  1.00  0.00     0.134 A 
ATOM      7  C   UNL     1      -5.979  -2.741  12.692  1.00  0.00     0.093 A 
ATOM      8  C   UNL     1      -6.406  -2.752  11.365  1.00  0.00     0.123 A 
ATOM      9  C   UNL     1      -5.714  -2.006  10.409  1.00  0.00     0.094 A 
ATOM     10  C   UNL     1      -4.616  -1.227  10.778  1.00  0.00     0.146 A 
ATOM     11  O   UNL     1      -4.001  -0.515   9.842  1.00  0.00    -0.452 OA
ENDROOT
BRANCH   1  12
ATOM     12  C   UNL     1      -2.370   1.020   8.951  1.00  0.00     0.025 A 
ATOM     13  C   UNL     1      -3.026   2.149   8.440  1.00  0.00     0.016 A 
ATOM     14  C   UNL     1      -2.469   2.873   7.382  1.00  0.00     0.051 A 
ATOM     15  C   UNL     1      -1.243   2.488   6.830  1.00  0.00     0.157 A 
ATOM     16  C   UNL     1      -1.127   0.647   8.410  1.00  0.00     0.062 A 
ATOM     17  C   UNL     1      -0.565   1.372   7.349  1.00  0.00     0.158 A 
BRANCH  15  18
ATOM     18  O   UNL     1      -0.713   3.227   5.773  1.00  0.00    -0.504 OA
ATOM     19  H   UNL     1       0.266   3.479   5.730  1.00  0.00     0.293 HD
ENDBRANCH  15  18
BRANCH  17  20
ATOM     20  O   UNL     1       0.665   0.992   6.813  1.00  0.00    -0.504 OA
ATOM     21  H   UNL     1       0.747   0.204   6.182  1.00  0.00     0.293 HD
ENDBRANCH  17  20
ENDBRANCH   1  12
BRANCH   2  22
ATOM     22  O   UNL     1      -1.362   1.202  11.661  1.00  0.00    -0.502 OA
ATOM     23  H   UNL     1      -0.445   0.816  11.856  1.00  0.00     0.293 HD
ENDBRANCH   2  22
BRANCH   6  24
ATOM     24  O   UNL     1      -4.464  -2.134  14.421  1.00  0.00    -0.507 OA
ATOM     25  H   UNL     1      -4.029  -2.953  14.817  1.00  0.00     0.293 HD
ENDBRANCH   6  24
BRANCH   8  26
ATOM     26  O   UNL     1      -7.514  -3.515  11.005  1.00  0.00    -0.508 OA
ATOM     27  H   UNL     1      -7.488  -4.150  10.215  1.00  0.00     0.293 HD
ENDBRANCH   8  26
TORSDOF 6
ENDMDL
MODEL 6
REMARK VINA RESULT:    -8.296      1.256      1.631
REMARK INTER + INTRA:         -10.322
REMARK INTER:                 -10.089
REMARK INTRA:                  -0.232
REMARK UNBOUND:                -0.328
REMARK SMILES O=c1c(O)c(-c2ccc(O)c(O)c2)oc2cc(O)cc(O)c12
REMARK SMILES IDX 5 1 3 2 2 3 1 4 22 5 20 6 19 7 17 8 16 9 15 10 14 11 6 12
REMARK SMILES IDX 7 13 8 14 9 15 13 16 11 17 10 18 12 20 4 22 21 24 18 26
REMARK H PARENT 10 19 12 21 4 23 21 25 18 27
REMARK Flexibility Score: inf
ROOT
ATOM      1  C   UNL     1      -3.099  -0.039   9.987  1.00  0.00     0.180 A 
ATOM      2  C   UNL     1      -2.962  -1.410   9.712  1.00  0.00     0.208 A 
ATOM      3  C   UNL     1      -3.371  -2.342  10.679  1.00  0.00     0.238 A 
ATOM      4  O   UNL     1      -3.177  -3.566  10.456  1.00  0.00    -0.285 OA
ATOM      5  C   UNL     1      -3.964  -1.894  11.884  1.00  0.00     0.111 A 
ATOM      6  C   UNL     1      -4.456  -2.751  12.916  1.00  0.00     0.134 A 
ATOM      7  C   UNL     1      -4.924  -2.194  14.111  1.00  0.00     0.093 A 
ATOM      8  C   UNL     1      -4.980  -0.813  14.290  1.00  0.00     0.123 A 
ATOM      9  C   UNL     1      -4.553   0.036  13.267  1.00  0.00     0.094 A 
ATOM     10  C   UNL     1      -4.044  -0.490  12.078  1.00  0.00     0.146 A 
ATOM     11  O   UNL     1      -3.628   0.352  11.140  1.00  0.00    -0.452 OA
ENDROOT
BRANCH   1  12
ATOM     12  C   UNL     1      -2.678   1.004   9.024  1.00  0.00     0.025 A 
ATOM     13  C   UNL     1      -1.507   1.737   9.268  1.00  0.00     0.016 A 
ATOM     14  C   UNL     1      -1.078   2.711   8.363  1.00  0.00     0.051 A 
ATOM     15  C   UNL     1      -1.804   2.956   7.193  1.00  0.00     0.157 A 
ATOM     16  C   UNL     1      -3.395   1.237   7.836  1.00  0.00     0.062 A 
ATOM     17  C   UNL     1      -2.966   2.213   6.925  1.00  0.00     0.158 A 
BRANCH  15  18
ATOM     18  O   UNL     1      -1.354   3.937   6.308  1.00  0.00    -0.504 OA
ATOM     19  H   UNL     1      -1.973   4.641   5.926  1.00  0.00     0.293 HD
ENDBRANCH  15  18
BRANCH  17  20
ATOM     20  O   UNL     1      -3.686   2.443   5.753  1.00  0.00    -0.504 OA
ATOM     21  H   UNL     1      -3.284   2.950   4.974  1.00  0.00     0.293 HD
ENDBRANCH  17  20
ENDBRANCH   1  12
BRANCH   2  22
ATOM     22  O   UNL     1      -2.446  -1.833   8.484  1.00  0.00    -0.502 OA
ATOM     23  H   UNL     1      -1.819  -1.261   7.930  1.00  0.00     0.293 HD
ENDBRANCH   2  22
BRANCH   6  24
ATOM     24  O   UNL     1      -4.530  -4.143  12.807  1.00  0.00    -0.507 OA
ATOM     25  H   UNL     1      -4.519  -4.785  13.585  1.00  0.00     0.293 HD
ENDBRANCH   6  24
BRANCH   8  26
ATOM     26  O   UNL     1      -5.469  -0.293  15.486  1.00  0.00    -0.508 OA
ATOM     27  H   UNL     1      -6.458  -0.310  15.707  1.00  0.00     0.293 HD
ENDBRANCH   8  26
TORSDOF 6
ENDMDL
MODEL 7
REMARK VINA RESULT:    -7.501      1.968      7.132
REMARK INTER + INTRA:          -9.364
REMARK INTER:                  -9.066
REMARK INTRA:                  -0.298
REMARK UNBOUND:                -0.328
REMARK SMILES O=c1c(O)c(-c2ccc(O)c(O)c2)oc2cc(O)cc(O)c12
REMARK SMILES IDX 5 1 3 2 2 3 1 4 22 5 20 6 19 7 17 8 16 9 15 10 14 11 6 12
REMARK SMILES IDX 7 13 8 14 9 15 13 16 11 17 10 18 12 20 4 22 21 24 18 26
REMARK H PARENT 10 19 12 21 4 23 21 25 18 27
REMARK Flexibility Score: inf
ROOT
ATOM      1  C   UNL     1      -3.831   0.149  10.927  1.00  0.00     0.180 A 
ATOM      2  C   UNL     1      -3.198   1.148  11.686  1.00  0.00     0.208 A 
ATOM      3  C   UNL     1      -2.502   2.170  11.019  1.00  0.00     0.238 A 
ATOM      4  O   UNL     1      -1.875   3.019  11.706  1.00  0.00    -0.285 OA
ATOM      5  C   UNL     1      -2.495   2.213   9.604  1.00  0.00     0.111 A 
ATOM      6  C   UNL     1      -1.861   3.227   8.824  1.00  0.00     0.134 A 
ATOM      7  C   UNL     1      -1.828   3.107   7.430  1.00  0.00     0.093 A 
ATOM      8  C   UNL     1      -2.462   2.048   6.783  1.00  0.00     0.123 A 
ATOM      9  C   UNL     1      -3.133   1.080   7.532  1.00  0.00     0.094 A 
ATOM     10  C   UNL     1      -3.149   1.150   8.926  1.00  0.00     0.146 A 
ATOM     11  O   UNL     1      -3.780   0.197   9.601  1.00  0.00    -0.452 OA
ENDROOT
BRANCH   1  12
ATOM     12  C   UNL     1      -4.572  -0.968  11.557  1.00  0.00     0.025 A 
ATOM     13  C   UNL     1      -5.975  -0.957  11.548  1.00  0.00     0.016 A 
ATOM     14  C   UNL     1      -6.695  -2.010  12.117  1.00  0.00     0.051 A 
ATOM     15  C   UNL     1      -6.026  -3.097  12.688  1.00  0.00     0.157 A 
ATOM     16  C   UNL     1      -3.900  -2.072  12.112  1.00  0.00     0.062 A 
ATOM     17  C   UNL     1      -4.621  -3.131  12.682  1.00  0.00     0.158 A 
BRANCH  15  18
ATOM     18  O   UNL     1      -6.770  -4.133  13.251  1.00  0.00    -0.504 OA
ATOM     19  H   UNL     1      -7.679  -3.977  13.669  1.00  0.00     0.293 HD
ENDBRANCH  15  18
BRANCH  17  20
ATOM     20  O   UNL     1      -3.947  -4.219  13.237  1.00  0.00    -0.504 OA
ATOM     21  H   UNL     1      -3.684  -4.237  14.215  1.00  0.00     0.293 HD
ENDBRANCH  17  20
ENDBRANCH   1  12
BRANCH   2  22
ATOM     22  O   UNL     1      -3.281   1.132  13.080  1.00  0.00    -0.502 OA
ATOM     23  H   UNL     1      -2.905   0.375  13.639  1.00  0.00     0.293 HD
ENDBRANCH   2  22
BRANCH   6  24
ATOM     24  O   UNL     1      -1.273   4.375   9.363  1.00  0.00    -0.507 OA
ATOM     25  H   UNL     1      -0.535   4.379  10.051  1.00  0.00     0.293 HD
ENDBRANCH   6  24
BRANCH   8  26
ATOM     26  O   UNL     1      -2.424   1.970   5.392  1.00  0.00    -0.508 OA
ATOM     27  H   UNL     1      -2.405   1.078   4.911  1.00  0.00     0.293 HD
ENDBRANCH   8  26
TORSDOF 6
ENDMDL
MODEL 8
REMARK VINA RESULT:    -7.497      1.709      6.877
REMARK INTER + INTRA:          -9.360
REMARK INTER:                  -9.065
REMARK INTRA:                  -0.294
REMARK UNBOUND:                -0.328
REMARK SMILES O=c1c(O)c(-c2ccc(O)c(O)c2)oc2cc(O)cc(O)c12
REMARK SMILES IDX 5 1 3 2 2 3 1 4 22 5 20 6 19 7 17 8 16 9 15 10 14 11 6 12
REMARK SMILES IDX 7 13 8 14 9 15 13 16 11 17 10 18 12 20 4 22 21 24 18 26
REMARK H PARENT 10 19 12 21 4 23 21 25 18 27
REMARK Flexibility Score: inf
ROOT
ATOM      1  C   UNL     1      -3.799  -0.884   9.955  1.00  0.00     0.180 A 
ATOM      2  C   UNL     1      -4.871  -0.416   9.178  1.00  0.00     0.208 A 
ATOM      3  C   UNL     1      -4.621   0.537   8.177  1.00  0.00     0.238 A 
ATOM      4  O   UNL     1      -5.597   1.008   7.536  1.00  0.00    -0.285 OA
ATOM      5  C   UNL     1      -3.296   0.968   7.928  1.00  0.00     0.111 A 
ATOM      6  C   UNL     1      -2.920   1.896   6.909  1.00  0.00     0.134 A 
ATOM      7  C   UNL     1      -1.592   2.330   6.826  1.00  0.00     0.093 A 
ATOM      8  C   UNL     1      -0.613   1.822   7.679  1.00  0.00     0.123 A 
ATOM      9  C   UNL     1      -0.958   0.873   8.643  1.00  0.00     0.094 A 
ATOM     10  C   UNL     1      -2.282   0.450   8.777  1.00  0.00     0.146 A 
ATOM     11  O   UNL     1      -2.570  -0.438   9.721  1.00  0.00    -0.452 OA
ENDROOT
BRANCH   1  12
ATOM     12  C   UNL     1      -3.984  -1.878  11.037  1.00  0.00     0.025 A 
ATOM     13  C   UNL     1      -3.580  -3.206  10.832  1.00  0.00     0.016 A 
ATOM     14  C   UNL     1      -3.725  -4.155  11.846  1.00  0.00     0.051 A 
ATOM     15  C   UNL     1      -4.262  -3.790  13.084  1.00  0.00     0.157 A 
ATOM     16  C   UNL     1      -4.504  -1.508  12.291  1.00  0.00     0.062 A 
ATOM     17  C   UNL     1      -4.649  -2.459  13.311  1.00  0.00     0.158 A 
BRANCH  15  18
ATOM     18  O   UNL     1      -4.398  -4.761  14.077  1.00  0.00    -0.504 OA
ATOM     19  H   UNL     1      -5.076  -5.509  14.009  1.00  0.00     0.293 HD
ENDBRANCH  15  18
BRANCH  17  20
ATOM     20  O   UNL     1      -5.172  -2.085  14.549  1.00  0.00    -0.504 OA
ATOM     21  H   UNL     1      -5.799  -2.691  15.064  1.00  0.00     0.293 HD
ENDBRANCH  17  20
ENDBRANCH   1  12
BRANCH   2  22
ATOM     22  O   UNL     1      -6.161  -0.910   9.388  1.00  0.00    -0.502 OA
ATOM     23  H   UNL     1      -6.488  -1.773   8.969  1.00  0.00     0.293 HD
ENDBRANCH   2  22
BRANCH   6  24
ATOM     24  O   UNL     1      -3.800   2.400   5.947  1.00  0.00    -0.507 OA
ATOM     25  H   UNL     1      -4.064   1.925   5.098  1.00  0.00     0.293 HD
ENDBRANCH   6  24
BRANCH   8  26
ATOM     26  O   UNL     1       0.702   2.264   7.556  1.00  0.00    -0.508 OA
ATOM     27  H   UNL     1       1.157   2.790   8.294  1.00  0.00     0.293 HD
ENDBRANCH   8  26
TORSDOF 6
ENDMDL
MODEL 9
REMARK VINA RESULT:    -7.466      1.673      6.875
REMARK INTER + INTRA:          -9.322
REMARK INTER:                  -9.000
REMARK INTRA:                  -0.322
REMARK UNBOUND:                -0.328
REMARK SMILES O=c1c(O)c(-c2ccc(O)c(O)c2)oc2cc(O)cc(O)c12
REMARK SMILES IDX 5 1 3 2 2 3 1 4 22 5 20 6 19 7 17 8 16 9 15 10 14 11 6 12
REMARK SMILES IDX 7 13 8 14 9 15 13 16 11 17 10 18 12 20 4 22 21 24 18 26
REMARK H PARENT 10 19 12 21 4 23 21 25 18 27
REMARK Flexibility Score: inf
ROOT
ATOM      1  C   UNL     1      -2.762  -0.863  10.745  1.00  0.00     0.180 A 
ATOM      2  C   UNL     1      -1.766  -1.602  10.085  1.00  0.00     0.208 A 
ATOM      3  C   UNL     1      -1.016  -0.981   9.072  1.00  0.00     0.238 A 
ATOM      4  O   UNL     1      -0.178  -1.671   8.435  1.00  0.00    -0.285 OA
ATOM      5  C   UNL     1      -1.234   0.385   8.770  1.00  0.00     0.111 A 
ATOM      6  C   UNL     1      -0.502   1.128   7.794  1.00  0.00     0.134 A 
ATOM      7  C   UNL     1      -0.878   2.445   7.506  1.00  0.00     0.093 A 
ATOM      8  C   UNL     1      -1.912   3.069   8.200  1.00  0.00     0.123 A 
ATOM      9  C   UNL     1      -2.598   2.370   9.196  1.00  0.00     0.094 A 
ATOM     10  C   UNL     1      -2.274   1.042   9.479  1.00  0.00     0.146 A 
ATOM     11  O   UNL     1      -2.966   0.408  10.417  1.00  0.00    -0.452 OA
ENDROOT
BRANCH   1  12
ATOM     12  C   UNL     1      -3.602  -1.451  11.814  1.00  0.00     0.025 A 
ATOM     13  C   UNL     1      -3.285  -1.200  13.157  1.00  0.00     0.016 A 
ATOM     14  C   UNL     1      -4.076  -1.726  14.181  1.00  0.00     0.051 A 
ATOM     15  C   UNL     1      -5.203  -2.497  13.879  1.00  0.00     0.157 A 
ATOM     16  C   UNL     1      -4.748  -2.208  11.511  1.00  0.00     0.062 A 
ATOM     17  C   UNL     1      -5.544  -2.736  12.537  1.00  0.00     0.158 A 
BRANCH  15  18
ATOM     18  O   UNL     1      -5.972  -3.012  14.923  1.00  0.00    -0.504 OA
ATOM     19  H   UNL     1      -5.887  -3.972  15.231  1.00  0.00     0.293 HD
ENDBRANCH  15  18
BRANCH  17  20
ATOM     20  O   UNL     1      -6.675  -3.492  12.230  1.00  0.00    -0.504 OA
ATOM     21  H   UNL     1      -7.470  -3.537  12.857  1.00  0.00     0.293 HD
ENDBRANCH  17  20
ENDBRANCH   1  12
BRANCH   2  22
ATOM     22  O   UNL     1      -1.514  -2.926  10.451  1.00  0.00    -0.502 OA
ATOM     23  H   UNL     1      -1.850  -3.325  11.320  1.00  0.00     0.293 HD
ENDBRANCH   2  22
BRANCH   6  24
ATOM     24  O   UNL     1       0.607   0.632   7.102  1.00  0.00    -0.507 OA
ATOM     25  H   UNL     1       0.900  -0.333   7.096  1.00  0.00     0.293 HD
ENDBRANCH   6  24
BRANCH   8  26
ATOM     26  O   UNL     1      -2.247   4.387   7.899  1.00  0.00    -0.508 OA
ATOM     27  H   UNL     1      -2.925   4.611   7.179  1.00  0.00     0.293 HD
ENDBRANCH   8  26
TORSDOF 6
ENDMDL
