MODEL 1
REMARK VINA RESULT:    -4.268      0.000      0.000
REMARK INTER + INTRA:         -13.330
REMARK INTER:                  -9.258
REMARK INTRA:                  -4.072
REMARK UNBOUND:                -4.072
REMARK SMILES CCCCCCCCCCCCCCCCCCCCCC(=O)[O-]
REMARK SMILES IDX 12 1 11 2 10 3 9 4 8 5 7 6 6 7 5 8 4 9 3 10 2 11 1 12 13 13
REMARK SMILES IDX 14 14 15 15 16 16 17 17 18 18 19 19 20 20 21 21 22 22 23 23
REMARK SMILES IDX 24 24
REMARK H PARENT
REMARK Flexibility Score: inf
ROOT
ATOM      1  C   UNL     1       6.478  34.442  66.755  1.00  0.00     0.000 C 
ENDROOT
BRANCH   1   2
ATOM      2  C   UNL     1       5.135  33.706  66.581  1.00  0.00     0.000 C 
BRANCH   2   3
ATOM      3  C   UNL     1       4.328  33.489  67.877  1.00  0.00     0.000 C 
BRANCH   3   4
ATOM      4  C   UNL     1       3.129  32.534  67.741  1.00  0.00    -0.000 C 
BRANCH   4   5
ATOM      5  C   UNL     1       2.227  32.531  68.984  1.00  0.00    -0.000 C 
BRANCH   5   6
ATOM      6  C   UNL     1       0.863  33.164  68.668  1.00  0.00    -0.000 C 
BRANCH   6   7
ATOM      7  C   UNL     1       0.544  34.369  69.569  1.00  0.00    -0.000 C 
BRANCH   7   8
ATOM      8  C   UNL     1       1.066  35.695  68.988  1.00  0.00    -0.000 C 
BRANCH   8   9
ATOM      9  C   UNL     1       2.345  36.183  69.687  1.00  0.00    -0.000 C 
BRANCH   9  10
ATOM     10  C   UNL     1       2.479  35.637  71.116  1.00  0.00    -0.000 C 
BRANCH  10  11
ATOM     11  C   UNL     1       3.870  35.032  71.344  1.00  0.00    -0.003 C 
ATOM     12  C   UNL     1       4.942  35.818  70.598  1.00  0.00     0.004 C 
ENDBRANCH  10  11
ENDBRANCH   9  10
ENDBRANCH   8   9
ENDBRANCH   7   8
ENDBRANCH   6   7
ENDBRANCH   5   6
ENDBRANCH   4   5
ENDBRANCH   3   4
ENDBRANCH   2   3
ENDBRANCH   1   2
BRANCH   1  13
ATOM     13  C   UNL     1       7.126  34.309  68.145  1.00  0.00     0.000 C 
BRANCH  13  14
ATOM     14  C   UNL     1       8.516  33.652  68.098  1.00  0.00     0.000 C 
BRANCH  14  15
ATOM     15  C   UNL     1       8.553  32.390  67.216  1.00  0.00     0.000 C 
BRANCH  15  16
ATOM     16  C   UNL     1       8.276  31.082  67.987  1.00  0.00     0.000 C 
BRANCH  16  17
ATOM     17  C   UNL     1       6.820  30.609  67.825  1.00  0.00     0.000 C 
BRANCH  17  18
ATOM     18  C   UNL     1       6.043  30.614  69.150  1.00  0.00     0.000 C 
BRANCH  18  19
ATOM     19  C   UNL     1       6.914  31.027  70.349  1.00  0.00     0.000 C 
BRANCH  19  20
ATOM     20  C   UNL     1       6.335  32.223  71.121  1.00  0.00     0.006 C 
BRANCH  20  21
ATOM     21  C   UNL     1       7.422  33.080  71.787  1.00  0.00     0.053 C 
BRANCH  21  22
ATOM     22  C   UNL     1       7.571  32.729  73.235  1.00  0.00     0.041 C 
ATOM     23  O   UNL     1       6.667  32.081  73.828  1.00  0.00    -0.550 OA
ATOM     24  O   UNL     1       8.701  33.131  73.937  1.00  0.00    -0.550 OA
ENDBRANCH  21  22
ENDBRANCH  20  21
ENDBRANCH  19  20
ENDBRANCH  18  19
ENDBRANCH  17  18
ENDBRANCH  16  17
ENDBRANCH  15  16
ENDBRANCH  14  15
ENDBRANCH  13  14
ENDBRANCH   1  13
TORSDOF 20
ENDMDL
MODEL 2
REMARK VINA RESULT:    -4.205      3.335      6.269
REMARK INTER + INTRA:         -13.194
REMARK INTER:                  -9.456
REMARK INTRA:                  -3.738
REMARK UNBOUND:                -4.072
REMARK SMILES CCCCCCCCCCCCCCCCCCCCCC(=O)[O-]
REMARK SMILES IDX 12 1 11 2 10 3 9 4 8 5 7 6 6 7 5 8 4 9 3 10 2 11 1 12 13 13
REMARK SMILES IDX 14 14 15 15 16 16 17 17 18 18 19 19 20 20 21 21 22 22 23 23
REMARK SMILES IDX 24 24
REMARK H PARENT
REMARK Flexibility Score: inf
ROOT
ATOM      1  C   UNL     1       7.588  33.353  68.381  1.00  0.00     0.000 C 
ENDROOT
BRANCH   1   2
ATOM      2  C   UNL     1       6.678  32.787  67.272  1.00  0.00     0.000 C 
BRANCH   2   3
ATOM      3  C   UNL     1       5.545  33.722  66.806  1.00  0.00     0.000 C 
BRANCH   3   4
ATOM      4  C   UNL     1       4.161  33.410  67.403  1.00  0.00    -0.000 C 
BRANCH   4   5
ATOM      5  C   UNL     1       4.085  32.009  68.030  1.00  0.00    -0.000 C 
BRANCH   5   6
ATOM      6  C   UNL     1       3.261  32.038  69.326  1.00  0.00    -0.000 C 
BRANCH   6   7
ATOM      7  C   UNL     1       4.098  31.694  70.570  1.00  0.00    -0.000 C 
BRANCH   7   8
ATOM      8  C   UNL     1       5.399  30.952  70.218  1.00  0.00    -0.000 C 
BRANCH   8   9
ATOM      9  C   UNL     1       6.244  30.621  71.459  1.00  0.00    -0.000 C 
BRANCH   9  10
ATOM     10  C   UNL     1       7.433  31.576  71.634  1.00  0.00    -0.000 C 
BRANCH  10  11
ATOM     11  C   UNL     1       7.764  31.775  73.118  1.00  0.00    -0.003 C 
ATOM     12  C   UNL     1       6.708  32.632  73.808  1.00  0.00     0.004 C 
ENDBRANCH  10  11
ENDBRANCH   9  10
ENDBRANCH   8   9
ENDBRANCH   7   8
ENDBRANCH   6   7
ENDBRANCH   5   6
ENDBRANCH   4   5
ENDBRANCH   3   4
ENDBRANCH   2   3
ENDBRANCH   1   2
BRANCH   1  13
ATOM     13  C   UNL     1       7.215  34.760  68.883  1.00  0.00     0.000 C 
BRANCH  13  14
ATOM     14  C   UNL     1       6.524  34.743  70.256  1.00  0.00     0.000 C 
BRANCH  14  15
ATOM     15  C   UNL     1       5.076  35.264  70.205  1.00  0.00     0.000 C 
BRANCH  15  16
ATOM     16  C   UNL     1       4.259  34.968  71.482  1.00  0.00     0.000 C 
BRANCH  16  17
ATOM     17  C   UNL     1       2.931  35.745  71.517  1.00  0.00     0.000 C 
BRANCH  17  18
ATOM     18  C   UNL     1       2.479  36.211  70.124  1.00  0.00     0.000 C 
BRANCH  18  19
ATOM     19  C   UNL     1       1.073  35.705  69.756  1.00  0.00     0.000 C 
BRANCH  19  20
ATOM     20  C   UNL     1       1.068  34.830  68.492  1.00  0.00     0.006 C 
BRANCH  20  21
ATOM     21  C   UNL     1       0.057  35.315  67.441  1.00  0.00     0.053 C 
BRANCH  21  22
ATOM     22  C   UNL     1       0.652  36.383  66.577  1.00  0.00     0.041 C 
ATOM     23  O   UNL     1      -0.077  37.293  66.099  1.00  0.00    -0.550 OA
ATOM     24  O   UNL     1       2.011  36.367  66.285  1.00  0.00    -0.550 OA
ENDBRANCH  21  22
ENDBRANCH  20  21
ENDBRANCH  19  20
ENDBRANCH  18  19
ENDBRANCH  17  18
ENDBRANCH  16  17
ENDBRANCH  15  16
ENDBRANCH  14  15
ENDBRANCH  13  14
ENDBRANCH   1  13
TORSDOF 20
ENDMDL
MODEL 3
REMARK VINA RESULT:    -4.080      2.651      5.925
REMARK INTER + INTRA:         -12.922
REMARK INTER:                  -9.057
REMARK INTRA:                  -3.865
REMARK UNBOUND:                -4.072
REMARK SMILES CCCCCCCCCCCCCCCCCCCCCC(=O)[O-]
REMARK SMILES IDX 12 1 11 2 10 3 9 4 8 5 7 6 6 7 5 8 4 9 3 10 2 11 1 12 13 13
REMARK SMILES IDX 14 14 15 15 16 16 17 17 18 18 19 19 20 20 21 21 22 22 23 23
REMARK SMILES IDX 24 24
REMARK H PARENT
REMARK Flexibility Score: inf
ROOT
ATOM      1  C   UNL     1       7.021  34.587  69.781  1.00  0.00     0.000 C 
ENDROOT
BRANCH   1   2
ATOM      2  C   UNL     1       7.443  34.769  68.309  1.00  0.00     0.000 C 
BRANCH   2   3
ATOM      3  C   UNL     1       6.437  34.247  67.264  1.00  0.00     0.000 C 
BRANCH   3   4
ATOM      4  C   UNL     1       6.529  32.739  66.973  1.00  0.00    -0.000 C 
BRANCH   4   5
ATOM      5  C   UNL     1       7.936  32.170  67.216  1.00  0.00    -0.000 C 
BRANCH   5   6
ATOM      6  C   UNL     1       7.891  31.031  68.246  1.00  0.00    -0.000 C 
BRANCH   6   7
ATOM      7  C   UNL     1       6.457  30.587  68.579  1.00  0.00    -0.000 C 
BRANCH   7   8
ATOM      8  C   UNL     1       6.228  30.421  70.092  1.00  0.00    -0.000 C 
BRANCH   8   9
ATOM      9  C   UNL     1       7.393  30.972  70.929  1.00  0.00    -0.000 C 
BRANCH   9  10
ATOM     10  C   UNL     1       6.937  31.500  72.297  1.00  0.00    -0.000 C 
BRANCH  10  11
ATOM     11  C   UNL     1       7.559  32.871  72.591  1.00  0.00    -0.003 C 
ATOM     12  C   UNL     1       8.363  32.845  73.886  1.00  0.00     0.004 C 
ENDBRANCH  10  11
ENDBRANCH   9  10
ENDBRANCH   8   9
ENDBRANCH   7   8
ENDBRANCH   6   7
ENDBRANCH   5   6
ENDBRANCH   4   5
ENDBRANCH   3   4
ENDBRANCH   2   3
ENDBRANCH   1   2
BRANCH   1  13
ATOM     13  C   UNL     1       5.869  35.494  70.251  1.00  0.00     0.000 C 
BRANCH  13  14
ATOM     14  C   UNL     1       4.695  34.706  70.857  1.00  0.00     0.000 C 
BRANCH  14  15
ATOM     15  C   UNL     1       4.377  33.414  70.082  1.00  0.00     0.000 C 
BRANCH  15  16
ATOM     16  C   UNL     1       3.210  32.598  70.679  1.00  0.00     0.000 C 
BRANCH  16  17
ATOM     17  C   UNL     1       2.642  31.577  69.677  1.00  0.00     0.000 C 
BRANCH  17  18
ATOM     18  C   UNL     1       2.994  31.914  68.220  1.00  0.00     0.000 C 
BRANCH  18  19
ATOM     19  C   UNL     1       1.749  32.101  67.335  1.00  0.00     0.000 C 
BRANCH  19  20
ATOM     20  C   UNL     1       0.891  33.302  67.762  1.00  0.00     0.006 C 
BRANCH  20  21
ATOM     21  C   UNL     1       1.692  34.613  67.812  1.00  0.00     0.053 C 
BRANCH  21  22
ATOM     22  C   UNL     1       1.285  35.446  68.989  1.00  0.00     0.041 C 
ATOM     23  O   UNL     1       0.236  35.169  69.631  1.00  0.00    -0.550 OA
ATOM     24  O   UNL     1       2.055  36.539  69.369  1.00  0.00    -0.550 OA
ENDBRANCH  21  22
ENDBRANCH  20  21
ENDBRANCH  19  20
ENDBRANCH  18  19
ENDBRANCH  17  18
ENDBRANCH  16  17
ENDBRANCH  15  16
ENDBRANCH  14  15
ENDBRANCH  13  14
ENDBRANCH   1  13
TORSDOF 20
ENDMDL
MODEL 4
REMARK VINA RESULT:    -4.053      2.168      4.550
REMARK INTER + INTRA:         -12.864
REMARK INTER:                  -8.856
REMARK INTRA:                  -4.008
REMARK UNBOUND:                -4.072
REMARK SMILES CCCCCCCCCCCCCCCCCCCCCC(=O)[O-]
REMARK SMILES IDX 12 1 11 2 10 3 9 4 8 5 7 6 6 7 5 8 4 9 3 10 2 11 1 12 13 13
REMARK SMILES IDX 14 14 15 15 16 16 17 17 18 18 19 19 20 20 21 21 22 22 23 23
REMARK SMILES IDX 24 24
REMARK H PARENT
REMARK Flexibility Score: inf
ROOT
ATOM      1  C   UNL     1       7.126  33.192  71.934  1.00  0.00     0.000 C 
ENDROOT
BRANCH   1   2
ATOM      2  C   UNL     1       6.943  34.032  70.655  1.00  0.00     0.000 C 
BRANCH   2   3
ATOM      3  C   UNL     1       5.749  35.008  70.670  1.00  0.00     0.000 C 
BRANCH   3   4
ATOM      4  C   UNL     1       4.608  34.620  71.627  1.00  0.00    -0.000 C 
BRANCH   4   5
ATOM      5  C   UNL     1       3.382  35.536  71.494  1.00  0.00    -0.000 C 
BRANCH   5   6
ATOM      6  C   UNL     1       3.195  35.985  70.037  1.00  0.00    -0.000 C 
BRANCH   6   7
ATOM      7  C   UNL     1       1.725  36.272  69.688  1.00  0.00    -0.000 C 
BRANCH   7   8
ATOM      8  C   UNL     1       1.407  35.997  68.207  1.00  0.00    -0.000 C 
BRANCH   8   9
ATOM      9  C   UNL     1       0.360  34.888  68.024  1.00  0.00    -0.000 C 
BRANCH   9  10
ATOM     10  C   UNL     1       0.100  34.104  69.319  1.00  0.00    -0.000 C 
BRANCH  10  11
ATOM     11  C   UNL     1       0.026  32.597  69.042  1.00  0.00    -0.003 C 
ATOM     12  C   UNL     1       0.569  32.263  67.658  1.00  0.00     0.004 C 
ENDBRANCH  10  11
ENDBRANCH   9  10
ENDBRANCH   8   9
ENDBRANCH   7   8
ENDBRANCH   6   7
ENDBRANCH   5   6
ENDBRANCH   4   5
ENDBRANCH   3   4
ENDBRANCH   2   3
ENDBRANCH   1   2
BRANCH   1  13
ATOM     13  C   UNL     1       7.026  31.668  71.741  1.00  0.00     0.000 C 
BRANCH  13  14
ATOM     14  C   UNL     1       7.197  31.238  70.274  1.00  0.00     0.000 C 
BRANCH  14  15
ATOM     15  C   UNL     1       5.918  30.626  69.676  1.00  0.00     0.000 C 
BRANCH  15  16
ATOM     16  C   UNL     1       4.625  31.037  70.412  1.00  0.00     0.000 C 
BRANCH  16  17
ATOM     17  C   UNL     1       3.713  31.918  69.540  1.00  0.00     0.000 C 
BRANCH  17  18
ATOM     18  C   UNL     1       4.240  32.082  68.107  1.00  0.00     0.000 C 
BRANCH  18  19
ATOM     19  C   UNL     1       4.423  33.557  67.706  1.00  0.00     0.000 C 
BRANCH  19  20
ATOM     20  C   UNL     1       5.412  33.739  66.543  1.00  0.00     0.006 C 
BRANCH  20  21
ATOM     21  C   UNL     1       6.788  34.237  67.010  1.00  0.00     0.053 C 
BRANCH  21  22
ATOM     22  C   UNL     1       7.733  33.093  67.215  1.00  0.00     0.041 C 
ATOM     23  O   UNL     1       8.804  33.261  67.857  1.00  0.00    -0.550 OA
ATOM     24  O   UNL     1       7.439  31.843  66.683  1.00  0.00    -0.550 OA
ENDBRANCH  21  22
ENDBRANCH  20  21
ENDBRANCH  19  20
ENDBRANCH  18  19
ENDBRANCH  17  18
ENDBRANCH  16  17
ENDBRANCH  15  16
ENDBRANCH  14  15
ENDBRANCH  13  14
ENDBRANCH   1  13
TORSDOF 20
ENDMDL
MODEL 5
REMARK VINA RESULT:    -4.008      2.630      6.323
REMARK INTER + INTRA:         -12.766
REMARK INTER:                  -9.229
REMARK INTRA:                  -3.537
REMARK UNBOUND:                -4.072
REMARK SMILES CCCCCCCCCCCCCCCCCCCCCC(=O)[O-]
REMARK SMILES IDX 12 1 11 2 10 3 9 4 8 5 7 6 6 7 5 8 4 9 3 10 2 11 1 12 13 13
REMARK SMILES IDX 14 14 15 15 16 16 17 17 18 18 19 19 20 20 21 21 22 22 23 23
REMARK SMILES IDX 24 24
REMARK H PARENT
REMARK Flexibility Score: inf
ROOT
ATOM      1  C   UNL     1       2.131  36.264  70.641  1.00  0.00     0.000 C 
ENDROOT
BRANCH   1   2
ATOM      2  C   UNL     1       2.560  34.870  71.142  1.00  0.00     0.000 C 
BRANCH   2   3
ATOM      3  C   UNL     1       4.081  34.623  71.182  1.00  0.00     0.000 C 
BRANCH   3   4
ATOM      4  C   UNL     1       4.940  35.783  70.650  1.00  0.00    -0.000 C 
BRANCH   4   5
ATOM      5  C   UNL     1       6.250  35.306  70.003  1.00  0.00    -0.000 C 
BRANCH   5   6
ATOM      6  C   UNL     1       6.882  34.174  70.827  1.00  0.00    -0.000 C 
BRANCH   6   7
ATOM      7  C   UNL     1       7.371  33.006  69.955  1.00  0.00    -0.000 C 
BRANCH   7   8
ATOM      8  C   UNL     1       7.227  31.645  70.658  1.00  0.00    -0.000 C 
BRANCH   8   9
ATOM      9  C   UNL     1       6.228  31.686  71.825  1.00  0.00    -0.000 C 
BRANCH   9  10
ATOM     10  C   UNL     1       6.712  30.887  73.044  1.00  0.00    -0.000 C 
BRANCH  10  11
ATOM     11  C   UNL     1       8.129  31.308  73.449  1.00  0.00    -0.003 C 
ATOM     12  C   UNL     1       8.160  32.758  73.922  1.00  0.00     0.004 C 
ENDBRANCH  10  11
ENDBRANCH   9  10
ENDBRANCH   8   9
ENDBRANCH   7   8
ENDBRANCH   6   7
ENDBRANCH   5   6
ENDBRANCH   4   5
ENDBRANCH   3   4
ENDBRANCH   2   3
ENDBRANCH   1   2
BRANCH   1  13
ATOM     13  C   UNL     1       1.074  36.264  69.521  1.00  0.00     0.000 C 
BRANCH  13  14
ATOM     14  C   UNL     1       1.664  35.929  68.141  1.00  0.00     0.000 C 
BRANCH  14  15
ATOM     15  C   UNL     1       0.709  35.095  67.267  1.00  0.00     0.000 C 
BRANCH  15  16
ATOM     16  C   UNL     1       0.041  33.922  68.017  1.00  0.00     0.000 C 
BRANCH  16  17
ATOM     17  C   UNL     1       0.800  32.598  67.822  1.00  0.00     0.000 C 
BRANCH  17  18
ATOM     18  C   UNL     1       1.511  32.126  69.100  1.00  0.00     0.000 C 
BRANCH  18  19
ATOM     19  C   UNL     1       3.022  31.921  68.898  1.00  0.00     0.000 C 
BRANCH  19  20
ATOM     20  C   UNL     1       3.505  32.383  67.514  1.00  0.00     0.006 C 
BRANCH  20  21
ATOM     21  C   UNL     1       4.287  33.704  67.571  1.00  0.00     0.053 C 
BRANCH  21  22
ATOM     22  C   UNL     1       5.607  33.577  66.875  1.00  0.00     0.041 C 
ATOM     23  O   UNL     1       6.200  34.603  66.444  1.00  0.00    -0.550 OA
ATOM     24  O   UNL     1       6.179  32.324  66.687  1.00  0.00    -0.550 OA
ENDBRANCH  21  22
ENDBRANCH  20  21
ENDBRANCH  19  20
ENDBRANCH  18  19
ENDBRANCH  17  18
ENDBRANCH  16  17
ENDBRANCH  15  16
ENDBRANCH  14  15
ENDBRANCH  13  14
ENDBRANCH   1  13
TORSDOF 20
ENDMDL
MODEL 6
REMARK VINA RESULT:    -3.948     11.406     13.947
REMARK INTER + INTRA:         -12.636
REMARK INTER:                 -10.805
REMARK INTRA:                  -1.831
REMARK UNBOUND:                -4.072
REMARK SMILES CCCCCCCCCCCCCCCCCCCCCC(=O)[O-]
REMARK SMILES IDX 12 1 11 2 10 3 9 4 8 5 7 6 6 7 5 8 4 9 3 10 2 11 1 12 13 13
REMARK SMILES IDX 14 14 15 15 16 16 17 17 18 18 19 19 20 20 21 21 22 22 23 23
REMARK SMILES IDX 24 24
REMARK H PARENT
REMARK Flexibility Score: inf
ROOT
ATOM      1  C   UNL     1       3.440  46.853  65.081  1.00  0.00     0.000 C 
ENDROOT
BRANCH   1   2
ATOM      2  C   UNL     1       3.345  48.360  64.766  1.00  0.00     0.000 C 
BRANCH   2   3
ATOM      3  C   UNL     1       4.238  49.272  65.630  1.00  0.00     0.000 C 
BRANCH   3   4
ATOM      4  C   UNL     1       5.713  48.842  65.715  1.00  0.00    -0.000 C 
BRANCH   4   5
ATOM      5  C   UNL     1       6.085  48.257  67.086  1.00  0.00    -0.000 C 
BRANCH   5   6
ATOM      6  C   UNL     1       7.284  49.004  67.689  1.00  0.00    -0.000 C 
BRANCH   6   7
ATOM      7  C   UNL     1       6.890  49.907  68.869  1.00  0.00    -0.000 C 
BRANCH   7   8
ATOM      8  C   UNL     1       7.852  49.771  70.062  1.00  0.00    -0.000 C 
BRANCH   8   9
ATOM      9  C   UNL     1       8.314  48.322  70.286  1.00  0.00    -0.000 C 
BRANCH   9  10
ATOM     10  C   UNL     1       9.829  48.215  70.514  1.00  0.00    -0.000 C 
BRANCH  10  11
ATOM     11  C   UNL     1      10.558  47.879  69.208  1.00  0.00    -0.003 C 
ATOM     12  C   UNL     1       9.863  46.744  68.465  1.00  0.00     0.004 C 
ENDBRANCH  10  11
ENDBRANCH   9  10
ENDBRANCH   8   9
ENDBRANCH   7   8
ENDBRANCH   6   7
ENDBRANCH   5   6
ENDBRANCH   4   5
ENDBRANCH   3   4
ENDBRANCH   2   3
ENDBRANCH   1   2
BRANCH   1  13
ATOM     13  C   UNL     1       4.044  45.984  63.963  1.00  0.00     0.000 C 
BRANCH  13  14
ATOM     14  C   UNL     1       3.467  44.559  63.935  1.00  0.00     0.000 C 
BRANCH  14  15
ATOM     15  C   UNL     1       2.793  44.158  65.261  1.00  0.00     0.000 C 
BRANCH  15  16
ATOM     16  C   UNL     1       3.469  42.965  65.970  1.00  0.00     0.000 C 
BRANCH  16  17
ATOM     17  C   UNL     1       3.182  42.947  67.481  1.00  0.00     0.000 C 
BRANCH  17  18
ATOM     18  C   UNL     1       2.256  44.091  67.924  1.00  0.00     0.000 C 
BRANCH  18  19
ATOM     19  C   UNL     1       1.589  43.823  69.284  1.00  0.00     0.000 C 
BRANCH  19  20
ATOM     20  C   UNL     1       2.433  42.915  70.192  1.00  0.00     0.006 C 
BRANCH  20  21
ATOM     21  C   UNL     1       3.189  43.700  71.275  1.00  0.00     0.053 C 
BRANCH  21  22
ATOM     22  C   UNL     1       4.658  43.740  70.983  1.00  0.00     0.041 C 
ATOM     23  O   UNL     1       5.349  42.689  71.057  1.00  0.00    -0.550 OA
ATOM     24  O   UNL     1       5.268  44.942  70.643  1.00  0.00    -0.550 OA
ENDBRANCH  21  22
ENDBRANCH  20  21
ENDBRANCH  19  20
ENDBRANCH  18  19
ENDBRANCH  17  18
ENDBRANCH  16  17
ENDBRANCH  15  16
ENDBRANCH  14  15
ENDBRANCH  13  14
ENDBRANCH   1  13
TORSDOF 20
ENDMDL
MODEL 7
REMARK VINA RESULT:    -3.847     11.408     13.925
REMARK INTER + INTRA:         -12.417
REMARK INTER:                 -10.624
REMARK INTRA:                  -1.794
REMARK UNBOUND:                -4.072
REMARK SMILES CCCCCCCCCCCCCCCCCCCCCC(=O)[O-]
REMARK SMILES IDX 12 1 11 2 10 3 9 4 8 5 7 6 6 7 5 8 4 9 3 10 2 11 1 12 13 13
REMARK SMILES IDX 14 14 15 15 16 16 17 17 18 18 19 19 20 20 21 21 22 22 23 23
REMARK SMILES IDX 24 24
REMARK H PARENT
REMARK Flexibility Score: inf
ROOT
ATOM      1  C   UNL     1       4.723  43.334  70.951  1.00  0.00     0.000 C 
ENDROOT
BRANCH   1   2
ATOM      2  C   UNL     1       3.241  43.061  70.627  1.00  0.00     0.000 C 
BRANCH   2   3
ATOM      3  C   UNL     1       2.917  42.863  69.133  1.00  0.00     0.000 C 
BRANCH   3   4
ATOM      4  C   UNL     1       2.077  43.985  68.497  1.00  0.00    -0.000 C 
BRANCH   4   5
ATOM      5  C   UNL     1       2.171  44.004  66.964  1.00  0.00    -0.000 C 
BRANCH   5   6
ATOM      6  C   UNL     1       3.307  43.091  66.478  1.00  0.00    -0.000 C 
BRANCH   6   7
ATOM      7  C   UNL     1       3.591  43.246  64.974  1.00  0.00    -0.000 C 
BRANCH   7   8
ATOM      8  C   UNL     1       2.899  44.479  64.367  1.00  0.00    -0.000 C 
BRANCH   8   9
ATOM      9  C   UNL     1       3.891  45.594  64.003  1.00  0.00    -0.000 C 
BRANCH   9  10
ATOM     10  C   UNL     1       4.174  46.539  65.180  1.00  0.00    -0.000 C 
BRANCH  10  11
ATOM     11  C   UNL     1       5.425  47.385  64.917  1.00  0.00    -0.003 C 
ATOM     12  C   UNL     1       5.080  48.867  64.828  1.00  0.00     0.004 C 
ENDBRANCH  10  11
ENDBRANCH   9  10
ENDBRANCH   8   9
ENDBRANCH   7   8
ENDBRANCH   6   7
ENDBRANCH   5   6
ENDBRANCH   4   5
ENDBRANCH   3   4
ENDBRANCH   2   3
ENDBRANCH   1   2
BRANCH   1  13
ATOM     13  C   UNL     1       5.104  44.819  71.092  1.00  0.00     0.000 C 
BRANCH  13  14
ATOM     14  C   UNL     1       5.114  45.565  69.748  1.00  0.00     0.000 C 
BRANCH  14  15
ATOM     15  C   UNL     1       6.111  46.739  69.722  1.00  0.00     0.000 C 
BRANCH  15  16
ATOM     16  C   UNL     1       5.834  47.769  68.606  1.00  0.00     0.000 C 
BRANCH  16  17
ATOM     17  C   UNL     1       7.089  48.581  68.239  1.00  0.00     0.000 C 
BRANCH  17  18
ATOM     18  C   UNL     1       7.184  49.908  69.008  1.00  0.00     0.000 C 
BRANCH  18  19
ATOM     19  C   UNL     1       8.090  49.813  70.248  1.00  0.00     0.000 C 
BRANCH  19  20
ATOM     20  C   UNL     1       8.926  48.523  70.277  1.00  0.00     0.006 C 
BRANCH  20  21
ATOM     21  C   UNL     1      10.246  48.656  69.501  1.00  0.00     0.053 C 
BRANCH  21  22
ATOM     22  C   UNL     1      10.696  47.328  68.976  1.00  0.00     0.041 C 
ATOM     23  O   UNL     1      11.839  46.884  69.267  1.00  0.00    -0.550 OA
ATOM     24  O   UNL     1       9.861  46.585  68.150  1.00  0.00    -0.550 OA
ENDBRANCH  21  22
ENDBRANCH  20  21
ENDBRANCH  19  20
ENDBRANCH  18  19
ENDBRANCH  17  18
ENDBRANCH  16  17
ENDBRANCH  15  16
ENDBRANCH  14  15
ENDBRANCH  13  14
ENDBRANCH   1  13
TORSDOF 20
ENDMDL
MODEL 8
REMARK VINA RESULT:    -3.820      2.998      6.397
REMARK INTER + INTRA:         -12.357
REMARK INTER:                  -8.894
REMARK INTRA:                  -3.464
REMARK UNBOUND:                -4.072
REMARK SMILES CCCCCCCCCCCCCCCCCCCCCC(=O)[O-]
REMARK SMILES IDX 12 1 11 2 10 3 9 4 8 5 7 6 6 7 5 8 4 9 3 10 2 11 1 12 13 13
REMARK SMILES IDX 14 14 15 15 16 16 17 17 18 18 19 19 20 20 21 21 22 22 23 23
REMARK SMILES IDX 24 24
REMARK H PARENT
REMARK Flexibility Score: inf
ROOT
ATOM      1  C   UNL     1       6.239  32.979  71.732  1.00  0.00     0.000 C 
ENDROOT
BRANCH   1   2
ATOM      2  C   UNL     1       7.238  31.846  71.426  1.00  0.00     0.000 C 
BRANCH   2   3
ATOM      3  C   UNL     1       6.918  31.003  70.176  1.00  0.00     0.000 C 
BRANCH   3   4
ATOM      4  C   UNL     1       5.418  30.795  69.902  1.00  0.00    -0.000 C 
BRANCH   4   5
ATOM      5  C   UNL     1       5.086  30.757  68.402  1.00  0.00    -0.000 C 
BRANCH   5   6
ATOM      6  C   UNL     1       4.476  32.091  67.947  1.00  0.00    -0.000 C 
BRANCH   6   7
ATOM      7  C   UNL     1       5.295  32.772  66.838  1.00  0.00    -0.000 C 
BRANCH   7   8
ATOM      8  C   UNL     1       5.888  34.120  67.286  1.00  0.00    -0.000 C 
BRANCH   8   9
ATOM      9  C   UNL     1       7.410  34.191  67.086  1.00  0.00    -0.000 C 
BRANCH   9  10
ATOM     10  C   UNL     1       8.158  33.099  67.863  1.00  0.00    -0.000 C 
BRANCH  10  11
ATOM     11  C   UNL     1       8.833  32.109  66.906  1.00  0.00    -0.003 C 
ATOM     12  C   UNL     1      10.319  31.970  67.215  1.00  0.00     0.004 C 
ENDBRANCH  10  11
ENDBRANCH   9  10
ENDBRANCH   8   9
ENDBRANCH   7   8
ENDBRANCH   6   7
ENDBRANCH   5   6
ENDBRANCH   4   5
ENDBRANCH   3   4
ENDBRANCH   2   3
ENDBRANCH   1   2
BRANCH   1  13
ATOM     13  C   UNL     1       6.402  34.249  70.878  1.00  0.00     0.000 C 
BRANCH  13  14
ATOM     14  C   UNL     1       5.126  35.105  70.827  1.00  0.00     0.000 C 
BRANCH  14  15
ATOM     15  C   UNL     1       3.969  34.412  70.085  1.00  0.00     0.000 C 
BRANCH  15  16
ATOM     16  C   UNL     1       2.671  34.305  70.914  1.00  0.00     0.000 C 
BRANCH  16  17
ATOM     17  C   UNL     1       2.055  32.895  70.852  1.00  0.00     0.000 C 
BRANCH  17  18
ATOM     18  C   UNL     1       0.677  32.878  70.174  1.00  0.00     0.000 C 
BRANCH  18  19
ATOM     19  C   UNL     1       0.760  32.584  68.666  1.00  0.00     0.000 C 
BRANCH  19  20
ATOM     20  C   UNL     1       0.410  33.806  67.802  1.00  0.00     0.006 C 
BRANCH  20  21
ATOM     21  C   UNL     1       1.655  34.513  67.245  1.00  0.00     0.053 C 
BRANCH  21  22
ATOM     22  C   UNL     1       1.522  36.001  67.354  1.00  0.00     0.041 C 
ATOM     23  O   UNL     1       1.356  36.701  66.319  1.00  0.00    -0.550 OA
ATOM     24  O   UNL     1       1.598  36.618  68.597  1.00  0.00    -0.550 OA
ENDBRANCH  21  22
ENDBRANCH  20  21
ENDBRANCH  19  20
ENDBRANCH  18  19
ENDBRANCH  17  18
ENDBRANCH  16  17
ENDBRANCH  15  16
ENDBRANCH  14  15
ENDBRANCH  13  14
ENDBRANCH   1  13
TORSDOF 20
ENDMDL
MODEL 9
REMARK VINA RESULT:    -3.790      2.520      6.206
REMARK INTER + INTRA:         -12.293
REMARK INTER:                  -9.318
REMARK INTRA:                  -2.975
REMARK UNBOUND:                -4.072
REMARK SMILES CCCCCCCCCCCCCCCCCCCCCC(=O)[O-]
REMARK SMILES IDX 12 1 11 2 10 3 9 4 8 5 7 6 6 7 5 8 4 9 3 10 2 11 1 12 13 13
REMARK SMILES IDX 14 14 15 15 16 16 17 17 18 18 19 19 20 20 21 21 22 22 23 23
REMARK SMILES IDX 24 24
REMARK H PARENT
REMARK Flexibility Score: inf
ROOT
ATOM      1  C   UNL     1       7.461  34.724  68.568  1.00  0.00     0.000 C 
ENDROOT
BRANCH   1   2
ATOM      2  C   UNL     1       6.875  34.375  67.186  1.00  0.00     0.000 C 
BRANCH   2   3
ATOM      3  C   UNL     1       5.598  33.513  67.210  1.00  0.00     0.000 C 
BRANCH   3   4
ATOM      4  C   UNL     1       5.782  32.098  67.787  1.00  0.00    -0.000 C 
BRANCH   4   5
ATOM      5  C   UNL     1       6.958  31.343  67.148  1.00  0.00    -0.000 C 
BRANCH   5   6
ATOM      6  C   UNL     1       7.786  30.620  68.221  1.00  0.00    -0.000 C 
BRANCH   6   7
ATOM      7  C   UNL     1       7.685  31.290  69.602  1.00  0.00    -0.000 C 
BRANCH   7   8
ATOM      8  C   UNL     1       7.375  30.283  70.724  1.00  0.00    -0.000 C 
BRANCH   8   9
ATOM      9  C   UNL     1       6.485  30.881  71.825  1.00  0.00    -0.000 C 
BRANCH   9  10
ATOM     10  C   UNL     1       7.231  31.056  73.155  1.00  0.00    -0.000 C 
BRANCH  10  11
ATOM     11  C   UNL     1       7.126  32.500  73.659  1.00  0.00    -0.003 C 
ATOM     12  C   UNL     1       8.500  33.067  74.000  1.00  0.00     0.004 C 
ENDBRANCH  10  11
ENDBRANCH   9  10
ENDBRANCH   8   9
ENDBRANCH   7   8
ENDBRANCH   6   7
ENDBRANCH   5   6
ENDBRANCH   4   5
ENDBRANCH   3   4
ENDBRANCH   2   3
ENDBRANCH   1   2
BRANCH   1  13
ATOM     13  C   UNL     1       6.463  35.326  69.574  1.00  0.00     0.000 C 
BRANCH  13  14
ATOM     14  C   UNL     1       6.117  34.364  70.723  1.00  0.00     0.000 C 
BRANCH  14  15
ATOM     15  C   UNL     1       4.614  34.345  71.056  1.00  0.00     0.000 C 
BRANCH  15  16
ATOM     16  C   UNL     1       3.975  35.748  71.143  1.00  0.00     0.000 C 
BRANCH  16  17
ATOM     17  C   UNL     1       2.727  35.876  70.253  1.00  0.00     0.000 C 
BRANCH  17  18
ATOM     18  C   UNL     1       1.918  34.572  70.172  1.00  0.00     0.000 C 
BRANCH  18  19
ATOM     19  C   UNL     1       0.596  34.738  69.404  1.00  0.00     0.000 C 
BRANCH  19  20
ATOM     20  C   UNL     1       0.493  33.805  68.187  1.00  0.00     0.006 C 
BRANCH  20  21
ATOM     21  C   UNL     1       1.860  33.260  67.743  1.00  0.00     0.053 C 
BRANCH  21  22
ATOM     22  C   UNL     1       1.887  31.763  67.804  1.00  0.00     0.041 C 
ATOM     23  O   UNL     1       1.377  31.081  66.875  1.00  0.00    -0.550 OA
ATOM     24  O   UNL     1       2.461  31.120  68.894  1.00  0.00    -0.550 OA
ENDBRANCH  21  22
ENDBRANCH  20  21
ENDBRANCH  19  20
ENDBRANCH  18  19
ENDBRANCH  17  18
ENDBRANCH  16  17
ENDBRANCH  15  16
ENDBRANCH  14  15
ENDBRANCH  13  14
ENDBRANCH   1  13
TORSDOF 20
ENDMDL
