MODEL 1
REMARK VINA RESULT:    -4.512      0.000      0.000
REMARK INTER + INTRA:          -7.497
REMARK INTER:                  -6.886
REMARK INTRA:                  -0.611
REMARK UNBOUND:                -0.611
REMARK SMILES CCCCCCCCCC=CC(=O)[O-]
REMARK SMILES IDX 7 1 8 2 9 3 10 4 11 5 12 6 13 7 14 8 6 9 5 10 4 11 3 12 2 13
REMARK SMILES IDX 1 14
REMARK H PARENT
REMARK Flexibility Score: inf
ROOT
ATOM      1  C   UNL     1     100.167 -69.454   5.657  1.00  0.00     0.000 C 
ENDROOT
BRANCH   1   2
ATOM      2  C   UNL     1      99.863 -68.193   4.841  1.00  0.00     0.004 C 
BRANCH   2   3
ATOM      3  C   UNL     1      98.545 -68.341   4.069  1.00  0.00     0.027 C 
BRANCH   3   4
ATOM      4  C   UNL     1      98.376 -67.238   3.061  1.00  0.00    -0.025 C 
ATOM      5  C   UNL     1      98.838 -67.242   1.800  1.00  0.00     0.020 C 
BRANCH   5   6
ATOM      6  C   UNL     1      99.569 -68.340   1.132  1.00  0.00     0.064 C 
ATOM      7  O   UNL     1     100.808 -68.219   0.941  1.00  0.00    -0.545 OA
ATOM      8  O   UNL     1      98.932 -69.490   0.683  1.00  0.00    -0.545 OA
ENDBRANCH   5   6
ENDBRANCH   3   4
ENDBRANCH   2   3
ENDBRANCH   1   2
BRANCH   1   9
ATOM      9  C   UNL     1     100.944 -69.108   6.936  1.00  0.00     0.000 C 
BRANCH   9  10
ATOM     10  C   UNL     1     100.938 -67.601   7.244  1.00  0.00     0.000 C 
BRANCH  10  11
ATOM     11  C   UNL     1     100.949 -67.305   8.751  1.00  0.00    -0.000 C 
BRANCH  11  12
ATOM     12  C   UNL     1     100.778 -68.593   9.565  1.00  0.00    -0.000 C 
BRANCH  12  13
ATOM     13  C   UNL     1     100.189 -68.296  10.949  1.00  0.00    -0.003 C 
ATOM     14  C   UNL     1     100.053 -66.794  11.179  1.00  0.00     0.004 C 
ENDBRANCH  12  13
ENDBRANCH  11  12
ENDBRANCH  10  11
ENDBRANCH   9  10
ENDBRANCH   1   9
TORSDOF 9
ENDMDL
MODEL 2
REMARK VINA RESULT:    -4.338      0.929      1.760
REMARK INTER + INTRA:          -7.231
REMARK INTER:                  -6.494
REMARK INTRA:                  -0.737
REMARK UNBOUND:                -0.611
REMARK SMILES CCCCCCCCCC=CC(=O)[O-]
REMARK SMILES IDX 7 1 8 2 9 3 10 4 11 5 12 6 13 7 14 8 6 9 5 10 4 11 3 12 2 13
REMARK SMILES IDX 1 14
REMARK H PARENT
REMARK Flexibility Score: inf
ROOT
ATOM      1  C   UNL     1     100.637 -69.026   7.057  1.00  0.00     0.000 C 
ENDROOT
BRANCH   1   2
ATOM      2  C   UNL     1     100.546 -69.780   5.725  1.00  0.00     0.004 C 
BRANCH   2   3
ATOM      3  C   UNL     1     100.329 -68.809   4.557  1.00  0.00     0.027 C 
BRANCH   3   4
ATOM      4  C   UNL     1      98.865 -68.580   4.302  1.00  0.00    -0.025 C 
ATOM      5  C   UNL     1      98.311 -68.251   3.124  1.00  0.00     0.020 C 
BRANCH   5   6
ATOM      6  C   UNL     1      99.013 -68.088   1.833  1.00  0.00     0.064 C 
ATOM      7  O   UNL     1      99.268 -69.111   1.145  1.00  0.00    -0.545 OA
ATOM      8  O   UNL     1      99.426 -66.847   1.365  1.00  0.00    -0.545 OA
ENDBRANCH   5   6
ENDBRANCH   3   4
ENDBRANCH   2   3
ENDBRANCH   1   2
BRANCH   1   9
ATOM      9  C   UNL     1     101.531 -67.784   6.926  1.00  0.00     0.000 C 
BRANCH   9  10
ATOM     10  C   UNL     1     101.015 -66.593   7.749  1.00  0.00     0.000 C 
BRANCH  10  11
ATOM     11  C   UNL     1     101.411 -66.680   9.231  1.00  0.00    -0.000 C 
BRANCH  11  12
ATOM     12  C   UNL     1     100.232 -66.308  10.137  1.00  0.00    -0.000 C 
BRANCH  12  13
ATOM     13  C   UNL     1      99.980 -67.396  11.187  1.00  0.00    -0.003 C 
ATOM     14  C   UNL     1     100.515 -68.746  10.721  1.00  0.00     0.004 C 
ENDBRANCH  12  13
ENDBRANCH  11  12
ENDBRANCH  10  11
ENDBRANCH   9  10
ENDBRANCH   1   9
TORSDOF 9
ENDMDL
MODEL 3
REMARK VINA RESULT:    -4.235      1.227      2.067
REMARK INTER + INTRA:          -7.074
REMARK INTER:                  -6.710
REMARK INTRA:                  -0.363
REMARK UNBOUND:                -0.611
REMARK SMILES CCCCCCCCCC=CC(=O)[O-]
REMARK SMILES IDX 7 1 8 2 9 3 10 4 11 5 12 6 13 7 14 8 6 9 5 10 4 11 3 12 2 13
REMARK SMILES IDX 1 14
REMARK H PARENT
REMARK Flexibility Score: inf
ROOT
ATOM      1  C   UNL     1      99.507 -67.674   4.933  1.00  0.00     0.000 C 
ENDROOT
BRANCH   1   2
ATOM      2  C   UNL     1      98.496 -67.302   3.843  1.00  0.00     0.004 C 
BRANCH   2   3
ATOM      3  C   UNL     1      98.512 -68.330   2.704  1.00  0.00     0.027 C 
BRANCH   3   4
ATOM      4  C   UNL     1      99.438 -67.906   1.598  1.00  0.00    -0.025 C 
ATOM      5  C   UNL     1      99.481 -68.426   0.360  1.00  0.00     0.020 C 
BRANCH   5   6
ATOM      6  C   UNL     1      98.607 -69.489  -0.181  1.00  0.00     0.064 C 
ATOM      7  O   UNL     1      98.484 -70.563   0.464  1.00  0.00    -0.545 OA
ATOM      8  O   UNL     1      97.937 -69.354  -1.391  1.00  0.00    -0.545 OA
ENDBRANCH   5   6
ENDBRANCH   3   4
ENDBRANCH   2   3
ENDBRANCH   1   2
BRANCH   1   9
ATOM      9  C   UNL     1      99.657 -69.198   5.048  1.00  0.00     0.000 C 
BRANCH   9  10
ATOM     10  C   UNL     1     100.705 -69.614   6.093  1.00  0.00     0.000 C 
BRANCH  10  11
ATOM     11  C   UNL     1     101.209 -68.429   6.930  1.00  0.00    -0.000 C 
BRANCH  11  12
ATOM     12  C   UNL     1     100.870 -68.621   8.413  1.00  0.00    -0.000 C 
BRANCH  12  13
ATOM     13  C   UNL     1     100.770 -67.272   9.134  1.00  0.00    -0.003 C 
ATOM     14  C   UNL     1     100.275 -67.448  10.567  1.00  0.00     0.004 C 
ENDBRANCH  12  13
ENDBRANCH  11  12
ENDBRANCH  10  11
ENDBRANCH   9  10
ENDBRANCH   1   9
TORSDOF 9
ENDMDL
MODEL 4
REMARK VINA RESULT:    -4.117      1.231      2.591
REMARK INTER + INTRA:          -6.894
REMARK INTER:                  -6.051
REMARK INTRA:                  -0.843
REMARK UNBOUND:                -0.611
REMARK SMILES CCCCCCCCCC=CC(=O)[O-]
REMARK SMILES IDX 7 1 8 2 9 3 10 4 11 5 12 6 13 7 14 8 6 9 5 10 4 11 3 12 2 13
REMARK SMILES IDX 1 14
REMARK H PARENT
REMARK Flexibility Score: inf
ROOT
ATOM      1  C   UNL     1      98.128 -68.133   3.980  1.00  0.00     0.000 C 
ENDROOT
BRANCH   1   2
ATOM      2  C   UNL     1      98.083 -66.635   3.662  1.00  0.00     0.004 C 
BRANCH   2   3
ATOM      3  C   UNL     1      99.217 -66.241   2.705  1.00  0.00     0.027 C 
BRANCH   3   4
ATOM      4  C   UNL     1      98.722 -66.131   1.289  1.00  0.00    -0.025 C 
ATOM      5  C   UNL     1      98.926 -67.025   0.309  1.00  0.00     0.020 C 
BRANCH   5   6
ATOM      6  C   UNL     1      99.640 -68.315   0.426  1.00  0.00     0.064 C 
ATOM      7  O   UNL     1     100.895 -68.326   0.330  1.00  0.00    -0.545 OA
ATOM      8  O   UNL     1      98.973 -69.519   0.612  1.00  0.00    -0.545 OA
ENDBRANCH   5   6
ENDBRANCH   3   4
ENDBRANCH   2   3
ENDBRANCH   1   2
BRANCH   1   9
ATOM      9  C   UNL     1      99.576 -68.617   4.150  1.00  0.00     0.000 C 
BRANCH   9  10
ATOM     10  C   UNL     1      99.805 -69.344   5.485  1.00  0.00     0.000 C 
BRANCH  10  11
ATOM     11  C   UNL     1     101.243 -69.863   5.638  1.00  0.00    -0.000 C 
BRANCH  11  12
ATOM     12  C   UNL     1     101.957 -69.165   6.802  1.00  0.00    -0.000 C 
BRANCH  12  13
ATOM     13  C   UNL     1     101.000 -68.237   7.559  1.00  0.00    -0.003 C 
ATOM     14  C   UNL     1     100.867 -68.655   9.020  1.00  0.00     0.004 C 
ENDBRANCH  12  13
ENDBRANCH  11  12
ENDBRANCH  10  11
ENDBRANCH   9  10
ENDBRANCH   1   9
TORSDOF 9
ENDMDL
MODEL 5
REMARK VINA RESULT:    -4.116      1.606      3.187
REMARK INTER + INTRA:          -6.893
REMARK INTER:                  -6.014
REMARK INTRA:                  -0.879
REMARK UNBOUND:                -0.611
REMARK SMILES CCCCCCCCCC=CC(=O)[O-]
REMARK SMILES IDX 7 1 8 2 9 3 10 4 11 5 12 6 13 7 14 8 6 9 5 10 4 11 3 12 2 13
REMARK SMILES IDX 1 14
REMARK H PARENT
REMARK Flexibility Score: inf
ROOT
ATOM      1  C   UNL     1     100.933 -68.530   8.111  1.00  0.00     0.000 C 
ENDROOT
BRANCH   1   2
ATOM      2  C   UNL     1     102.117 -68.623   7.142  1.00  0.00     0.004 C 
BRANCH   2   3
ATOM      3  C   UNL     1     101.746 -69.438   5.895  1.00  0.00     0.027 C 
BRANCH   3   4
ATOM      4  C   UNL     1     100.258 -69.638   5.797  1.00  0.00    -0.025 C 
ATOM      5  C   UNL     1      99.442 -69.068   4.896  1.00  0.00     0.020 C 
BRANCH   5   6
ATOM      6  C   UNL     1      99.838 -68.164   3.795  1.00  0.00     0.064 C 
ATOM      7  O   UNL     1      99.532 -66.945   3.868  1.00  0.00    -0.545 OA
ATOM      8  O   UNL     1     100.512 -68.618   2.668  1.00  0.00    -0.545 OA
ENDBRANCH   5   6
ENDBRANCH   3   4
ENDBRANCH   2   3
ENDBRANCH   1   2
BRANCH   1   9
ATOM      9  C   UNL     1     101.345 -68.965   9.525  1.00  0.00     0.000 C 
BRANCH   9  10
ATOM     10  C   UNL     1     100.329 -68.535  10.596  1.00  0.00     0.000 C 
BRANCH  10  11
ATOM     11  C   UNL     1     100.783 -67.293  11.379  1.00  0.00    -0.000 C 
BRANCH  11  12
ATOM     12  C   UNL     1      99.835 -66.113  11.135  1.00  0.00    -0.000 C 
BRANCH  12  13
ATOM     13  C   UNL     1     100.205 -65.366   9.848  1.00  0.00    -0.003 C 
ATOM     14  C   UNL     1     101.711 -65.137   9.758  1.00  0.00     0.004 C 
ENDBRANCH  12  13
ENDBRANCH  11  12
ENDBRANCH  10  11
ENDBRANCH   9  10
ENDBRANCH   1   9
TORSDOF 9
ENDMDL
MODEL 6
REMARK VINA RESULT:    -4.011      2.271      4.240
REMARK INTER + INTRA:          -6.733
REMARK INTER:                  -5.627
REMARK INTRA:                  -1.105
REMARK UNBOUND:                -0.611
REMARK SMILES CCCCCCCCCC=CC(=O)[O-]
REMARK SMILES IDX 7 1 8 2 9 3 10 4 11 5 12 6 13 7 14 8 6 9 5 10 4 11 3 12 2 13
REMARK SMILES IDX 1 14
REMARK H PARENT
REMARK Flexibility Score: inf
ROOT
ATOM      1  C   UNL     1      98.789 -65.484   2.763  1.00  0.00     0.000 C 
ENDROOT
BRANCH   1   2
ATOM      2  C   UNL     1      97.803 -65.686   1.608  1.00  0.00     0.004 C 
BRANCH   2   3
ATOM      3  C   UNL     1      98.537 -66.096   0.323  1.00  0.00     0.027 C 
BRANCH   3   4
ATOM      4  C   UNL     1      99.738 -66.946   0.629  1.00  0.00    -0.025 C 
ATOM      5  C   UNL     1      99.845 -68.268   0.417  1.00  0.00     0.020 C 
BRANCH   5   6
ATOM      6  C   UNL     1      98.826 -69.149  -0.193  1.00  0.00     0.064 C 
ATOM      7  O   UNL     1      98.358 -70.100   0.485  1.00  0.00    -0.545 OA
ATOM      8  O   UNL     1      98.386 -68.980  -1.500  1.00  0.00    -0.545 OA
ENDBRANCH   5   6
ENDBRANCH   3   4
ENDBRANCH   2   3
ENDBRANCH   1   2
BRANCH   1   9
ATOM      9  C   UNL     1      98.257 -66.116   4.058  1.00  0.00     0.000 C 
BRANCH   9  10
ATOM     10  C   UNL     1      97.620 -67.496   3.825  1.00  0.00     0.000 C 
BRANCH  10  11
ATOM     11  C   UNL     1      98.654 -68.632   3.821  1.00  0.00    -0.000 C 
BRANCH  11  12
ATOM     12  C   UNL     1      99.806 -68.330   4.787  1.00  0.00    -0.000 C 
BRANCH  12  13
ATOM     13  C   UNL     1     100.111 -69.541   5.676  1.00  0.00    -0.003 C 
ATOM     14  C   UNL     1     100.856 -69.123   6.940  1.00  0.00     0.004 C 
ENDBRANCH  12  13
ENDBRANCH  11  12
ENDBRANCH  10  11
ENDBRANCH   9  10
ENDBRANCH   1   9
TORSDOF 9
ENDMDL
MODEL 7
REMARK VINA RESULT:    -3.867      2.110      3.565
REMARK INTER + INTRA:          -6.513
REMARK INTER:                  -5.938
REMARK INTRA:                  -0.575
REMARK UNBOUND:                -0.611
REMARK SMILES CCCCCCCCCC=CC(=O)[O-]
REMARK SMILES IDX 7 1 8 2 9 3 10 4 11 5 12 6 13 7 14 8 6 9 5 10 4 11 3 12 2 13
REMARK SMILES IDX 1 14
REMARK H PARENT
REMARK Flexibility Score: inf
ROOT
ATOM      1  C   UNL     1      98.370 -68.485   2.790  1.00  0.00     0.000 C 
ENDROOT
BRANCH   1   2
ATOM      2  C   UNL     1      98.832 -67.311   1.919  1.00  0.00     0.004 C 
BRANCH   2   3
ATOM      3  C   UNL     1      99.540 -67.812   0.652  1.00  0.00     0.027 C 
BRANCH   3   4
ATOM      4  C   UNL     1      98.886 -69.055   0.117  1.00  0.00    -0.025 C 
ATOM      5  C   UNL     1      98.340 -69.199  -1.102  1.00  0.00     0.020 C 
BRANCH   5   6
ATOM      6  C   UNL     1      98.304 -68.185  -2.177  1.00  0.00     0.064 C 
ATOM      7  O   UNL     1      97.393 -67.317  -2.165  1.00  0.00    -0.545 OA
ATOM      8  O   UNL     1      99.226 -68.173  -3.217  1.00  0.00    -0.545 OA
ENDBRANCH   5   6
ENDBRANCH   3   4
ENDBRANCH   2   3
ENDBRANCH   1   2
BRANCH   1   9
ATOM      9  C   UNL     1      98.721 -68.245   4.266  1.00  0.00     0.000 C 
BRANCH   9  10
ATOM     10  C   UNL     1     100.159 -68.666   4.609  1.00  0.00     0.000 C 
BRANCH  10  11
ATOM     11  C   UNL     1     100.226 -69.622   5.811  1.00  0.00    -0.000 C 
BRANCH  11  12
ATOM     12  C   UNL     1     101.421 -69.288   6.712  1.00  0.00    -0.000 C 
BRANCH  12  13
ATOM     13  C   UNL     1     100.957 -68.651   8.027  1.00  0.00    -0.003 C 
ATOM     14  C   UNL     1     101.070 -67.131   7.974  1.00  0.00     0.004 C 
ENDBRANCH  12  13
ENDBRANCH  11  12
ENDBRANCH  10  11
ENDBRANCH   9  10
ENDBRANCH   1   9
TORSDOF 9
ENDMDL
MODEL 8
REMARK VINA RESULT:    -3.842      2.252      2.632
REMARK INTER + INTRA:          -6.475
REMARK INTER:                  -5.893
REMARK INTRA:                  -0.583
REMARK UNBOUND:                -0.611
REMARK SMILES CCCCCCCCCC=CC(=O)[O-]
REMARK SMILES IDX 7 1 8 2 9 3 10 4 11 5 12 6 13 7 14 8 6 9 5 10 4 11 3 12 2 13
REMARK SMILES IDX 1 14
REMARK H PARENT
REMARK Flexibility Score: inf
ROOT
ATOM      1  C   UNL     1     100.347 -69.232   5.315  1.00  0.00     0.000 C 
ENDROOT
BRANCH   1   2
ATOM      2  C   UNL     1     100.727 -67.790   4.961  1.00  0.00     0.004 C 
BRANCH   2   3
ATOM      3  C   UNL     1      99.726 -67.185   3.967  1.00  0.00     0.027 C 
BRANCH   3   4
ATOM      4  C   UNL     1      98.428 -67.943   3.970  1.00  0.00    -0.025 C 
ATOM      5  C   UNL     1      97.206 -67.417   3.789  1.00  0.00     0.020 C 
BRANCH   5   6
ATOM      6  C   UNL     1      96.887 -66.001   3.510  1.00  0.00     0.064 C 
ATOM      7  O   UNL     1      96.090 -65.395   4.273  1.00  0.00    -0.545 OA
ATOM      8  O   UNL     1      97.416 -65.321   2.420  1.00  0.00    -0.545 OA
ENDBRANCH   5   6
ENDBRANCH   3   4
ENDBRANCH   2   3
ENDBRANCH   1   2
BRANCH   1   9
ATOM      9  C   UNL     1     100.332 -69.440   6.837  1.00  0.00     0.000 C 
BRANCH   9  10
ATOM     10  C   UNL     1     101.445 -68.658   7.553  1.00  0.00     0.000 C 
BRANCH  10  11
ATOM     11  C   UNL     1     100.931 -67.875   8.771  1.00  0.00    -0.000 C 
BRANCH  11  12
ATOM     12  C   UNL     1     100.658 -68.815   9.951  1.00  0.00    -0.000 C 
BRANCH  12  13
ATOM     13  C   UNL     1     100.311 -68.022  11.217  1.00  0.00    -0.003 C 
ATOM     14  C   UNL     1      99.969 -66.573  10.884  1.00  0.00     0.004 C 
ENDBRANCH  12  13
ENDBRANCH  11  12
ENDBRANCH  10  11
ENDBRANCH   9  10
ENDBRANCH   1   9
TORSDOF 9
ENDMDL
MODEL 9
REMARK VINA RESULT:    -3.777      4.141      7.039
REMARK INTER + INTRA:          -6.376
REMARK INTER:                  -5.443
REMARK INTRA:                  -0.933
REMARK UNBOUND:                -0.611
REMARK SMILES CCCCCCCCCC=CC(=O)[O-]
REMARK SMILES IDX 7 1 8 2 9 3 10 4 11 5 12 6 13 7 14 8 6 9 5 10 4 11 3 12 2 13
REMARK SMILES IDX 1 14
REMARK H PARENT
REMARK Flexibility Score: inf
ROOT
ATOM      1  C   UNL     1     101.994 -69.474   6.856  1.00  0.00     0.000 C 
ENDROOT
BRANCH   1   2
ATOM      2  C   UNL     1     101.036 -68.710   7.777  1.00  0.00     0.004 C 
BRANCH   2   3
ATOM      3  C   UNL     1     101.641 -68.536   9.177  1.00  0.00     0.027 C 
BRANCH   3   4
ATOM      4  C   UNL     1     100.619 -68.797  10.249  1.00  0.00    -0.025 C 
ATOM      5  C   UNL     1     100.117 -67.887  11.100  1.00  0.00     0.020 C 
BRANCH   5   6
ATOM      6  C   UNL     1     100.432 -66.442  11.133  1.00  0.00     0.064 C 
ATOM      7  O   UNL     1     101.199 -66.007  12.031  1.00  0.00    -0.545 OA
ATOM      8  O   UNL     1      99.888 -65.543  10.225  1.00  0.00    -0.545 OA
ENDBRANCH   5   6
ENDBRANCH   3   4
ENDBRANCH   2   3
ENDBRANCH   1   2
BRANCH   1   9
ATOM      9  C   UNL     1     101.408 -69.606   5.442  1.00  0.00     0.000 C 
BRANCH   9  10
ATOM     10  C   UNL     1      99.871 -69.654   5.439  1.00  0.00     0.000 C 
BRANCH  10  11
ATOM     11  C   UNL     1      99.247 -68.574   4.541  1.00  0.00    -0.000 C 
BRANCH  11  12
ATOM     12  C   UNL     1     100.326 -67.834   3.742  1.00  0.00    -0.000 C 
BRANCH  12  13
ATOM     13  C   UNL     1     100.212 -66.318   3.937  1.00  0.00    -0.003 C 
ATOM     14  C   UNL     1     100.207 -65.952   5.418  1.00  0.00     0.004 C 
ENDBRANCH  12  13
ENDBRANCH  11  12
ENDBRANCH  10  11
ENDBRANCH   9  10
ENDBRANCH   1   9
TORSDOF 9
ENDMDL
