MODEL 1
REMARK VINA RESULT:    -3.874      0.000      0.000
REMARK INTER + INTRA:          -5.098
REMARK INTER:                  -4.667
REMARK INTRA:                  -0.431
REMARK UNBOUND:                -0.431
REMARK SMILES NC(=O)C[C@H]([NH3+])C(=O)[O-]
REMARK SMILES IDX 4 1 5 2 6 3 7 7 8 8 9 9 2 10 3 11 1 12
REMARK H PARENT 6 4 6 5 6 6 1 13 1 14
REMARK Flexibility Score: inf
ROOT
ATOM      1  C   UNL     1     163.615 177.716 182.337  1.00  0.00     0.171 C 
ENDROOT
BRANCH   1   2
ATOM      2  C   UNL     1     163.729 176.813 183.582  1.00  0.00     0.237 C 
BRANCH   2   3
ATOM      3  N   UNL     1     163.073 177.441 184.734  1.00  0.00    -0.350 N 
ATOM      4  H   UNL     1     162.508 178.264 184.418  1.00  0.00     0.345 HD
ATOM      5  H   UNL     1     162.445 176.760 185.221  1.00  0.00     0.345 HD
ATOM      6  H   UNL     1     163.795 177.784 185.410  1.00  0.00     0.345 HD
ENDBRANCH   2   3
BRANCH   2   7
ATOM      7  C   UNL     1     165.171 176.514 183.904  1.00  0.00     0.100 C 
ATOM      8  O   UNL     1     165.480 175.935 184.979  1.00  0.00    -0.544 OA
ATOM      9  O   UNL     1     166.173 176.893 183.018  1.00  0.00    -0.544 OA
ENDBRANCH   2   7
ENDBRANCH   1   2
BRANCH   1  10
ATOM     10  C   UNL     1     163.523 179.168 182.713  1.00  0.00     0.223 C 
ATOM     11  O   UNL     1     162.395 179.727 182.777  1.00  0.00    -0.275 OA
ATOM     12  N   UNL     1     164.706 179.929 182.959  1.00  0.00    -0.369 N 
ATOM     13  H   UNL     1     164.638 180.941 183.205  1.00  0.00     0.159 HD
ATOM     14  H   UNL     1     165.649 179.487 182.892  1.00  0.00     0.159 HD
ENDBRANCH   1  10
TORSDOF 4
ENDMDL
MODEL 2
REMARK VINA RESULT:    -3.712     18.368     19.740
REMARK INTER + INTRA:          -4.903
REMARK INTER:                  -4.589
REMARK INTRA:                  -0.313
REMARK UNBOUND:                -0.431
REMARK SMILES NC(=O)C[C@H]([NH3+])C(=O)[O-]
REMARK SMILES IDX 4 1 5 2 6 3 7 7 8 8 9 9 2 10 3 11 1 12
REMARK H PARENT 6 4 6 5 6 6 1 13 1 14
REMARK Flexibility Score: inf
ROOT
ATOM      1  C   UNL     1     180.641 166.799 182.340  1.00  0.00     0.171 C 
ENDROOT
BRANCH   1   2
ATOM      2  C   UNL     1     180.737 167.800 183.509  1.00  0.00     0.237 C 
BRANCH   2   3
ATOM      3  N   UNL     1     181.369 167.169 184.674  1.00  0.00    -0.350 N 
ATOM      4  H   UNL     1     182.390 167.394 184.690  1.00  0.00     0.345 HD
ATOM      5  H   UNL     1     180.928 167.504 185.562  1.00  0.00     0.345 HD
ATOM      6  H   UNL     1     181.266 166.130 184.613  1.00  0.00     0.345 HD
ENDBRANCH   2   3
BRANCH   2   7
ATOM      7  C   UNL     1     179.377 168.334 183.879  1.00  0.00     0.100 C 
ATOM      8  O   UNL     1     178.829 167.995 184.962  1.00  0.00    -0.544 OA
ATOM      9  O   UNL     1     178.710 169.193 183.015  1.00  0.00    -0.544 OA
ENDBRANCH   2   7
ENDBRANCH   1   2
BRANCH   1  10
ATOM     10  C   UNL     1     180.879 165.388 182.798  1.00  0.00     0.223 C 
ATOM     11  O   UNL     1     182.056 164.939 182.852  1.00  0.00    -0.275 OA
ATOM     12  N   UNL     1     179.781 164.540 183.135  1.00  0.00    -0.369 N 
ATOM     13  H   UNL     1     179.951 163.555 183.438  1.00  0.00     0.159 HD
ATOM     14  H   UNL     1     178.799 164.889 183.077  1.00  0.00     0.159 HD
ENDBRANCH   1  10
TORSDOF 4
ENDMDL
MODEL 3
REMARK VINA RESULT:    -3.683      3.993      5.871
REMARK INTER + INTRA:          -4.868
REMARK INTER:                  -4.586
REMARK INTRA:                  -0.282
REMARK UNBOUND:                -0.431
REMARK SMILES NC(=O)C[C@H]([NH3+])C(=O)[O-]
REMARK SMILES IDX 4 1 5 2 6 3 7 7 8 8 9 9 2 10 3 11 1 12
REMARK H PARENT 6 4 6 5 6 6 1 13 1 14
REMARK Flexibility Score: inf
ROOT
ATOM      1  C   UNL     1     167.815 174.705 185.260  1.00  0.00     0.171 C 
ENDROOT
BRANCH   1   2
ATOM      2  C   UNL     1     166.390 175.125 185.671  1.00  0.00     0.237 C 
BRANCH   2   3
ATOM      3  N   UNL     1     165.672 173.993 186.267  1.00  0.00    -0.350 N 
ATOM      4  H   UNL     1     165.308 174.259 187.211  1.00  0.00     0.345 HD
ATOM      5  H   UNL     1     164.872 173.699 185.660  1.00  0.00     0.345 HD
ATOM      6  H   UNL     1     166.325 173.184 186.387  1.00  0.00     0.345 HD
ENDBRANCH   2   3
BRANCH   2   7
ATOM      7  C   UNL     1     165.623 175.665 184.492  1.00  0.00     0.100 C 
ATOM      8  O   UNL     1     164.756 176.566 184.650  1.00  0.00    -0.544 OA
ATOM      9  O   UNL     1     165.856 175.156 183.220  1.00  0.00    -0.544 OA
ENDBRANCH   2   7
ENDBRANCH   1   2
BRANCH   1  10
ATOM     10  C   UNL     1     168.184 173.366 185.835  1.00  0.00     0.223 C 
ATOM     11  O   UNL     1     167.792 172.312 185.265  1.00  0.00    -0.275 OA
ATOM     12  N   UNL     1     168.942 173.279 187.042  1.00  0.00    -0.369 N 
ATOM     13  H   UNL     1     169.182 172.348 187.446  1.00  0.00     0.159 HD
ATOM     14  H   UNL     1     169.258 174.142 187.537  1.00  0.00     0.159 HD
ENDBRANCH   1  10
TORSDOF 4
ENDMDL
MODEL 4
REMARK VINA RESULT:    -3.666     14.404     15.640
REMARK INTER + INTRA:          -4.847
REMARK INTER:                  -4.566
REMARK INTRA:                  -0.281
REMARK UNBOUND:                -0.431
REMARK SMILES NC(=O)C[C@H]([NH3+])C(=O)[O-]
REMARK SMILES IDX 4 1 5 2 6 3 7 7 8 8 9 9 2 10 3 11 1 12
REMARK H PARENT 6 4 6 5 6 6 1 13 1 14
REMARK Flexibility Score: inf
ROOT
ATOM      1  C   UNL     1     176.388 169.838 185.275  1.00  0.00     0.171 C 
ENDROOT
BRANCH   1   2
ATOM      2  C   UNL     1     177.744 169.288 185.763  1.00  0.00     0.237 C 
BRANCH   2   3
ATOM      3  N   UNL     1     178.469 170.311 186.526  1.00  0.00    -0.350 N 
ATOM      4  H   UNL     1     177.789 170.927 187.030  1.00  0.00     0.345 HD
ATOM      5  H   UNL     1     179.114 169.869 187.220  1.00  0.00     0.345 HD
ATOM      6  H   UNL     1     179.027 170.909 185.874  1.00  0.00     0.345 HD
ENDBRANCH   2   3
BRANCH   2   7
ATOM      7  C   UNL     1     178.583 168.809 184.607  1.00  0.00     0.100 C 
ATOM      8  O   UNL     1     178.361 169.226 183.439  1.00  0.00    -0.544 OA
ATOM      9  O   UNL     1     179.599 167.886 184.822  1.00  0.00    -0.544 OA
ENDBRANCH   2   7
ENDBRANCH   1   2
BRANCH   1  10
ATOM     10  C   UNL     1     175.973 171.055 186.052  1.00  0.00     0.223 C 
ATOM     11  O   UNL     1     176.408 172.189 185.716  1.00  0.00    -0.275 OA
ATOM     12  N   UNL     1     175.122 170.932 187.192  1.00  0.00    -0.369 N 
ATOM     13  H   UNL     1     174.849 171.778 187.738  1.00  0.00     0.159 HD
ATOM     14  H   UNL     1     174.768 169.998 187.496  1.00  0.00     0.159 HD
ENDBRANCH   1  10
TORSDOF 4
ENDMDL
MODEL 5
REMARK VINA RESULT:    -3.577     15.288     16.679
REMARK INTER + INTRA:          -4.740
REMARK INTER:                  -4.634
REMARK INTRA:                  -0.106
REMARK UNBOUND:                -0.431
REMARK SMILES NC(=O)C[C@H]([NH3+])C(=O)[O-]
REMARK SMILES IDX 4 1 5 2 6 3 7 7 8 8 9 9 2 10 3 11 1 12
REMARK H PARENT 6 4 6 5 6 6 1 13 1 14
REMARK Flexibility Score: inf
ROOT
ATOM      1  C   UNL     1     178.243 168.367 185.424  1.00  0.00     0.171 C 
ENDROOT
BRANCH   1   2
ATOM      2  C   UNL     1     177.924 169.874 185.501  1.00  0.00     0.237 C 
BRANCH   2   3
ATOM      3  N   UNL     1     178.571 170.476 186.673  1.00  0.00    -0.350 N 
ATOM      4  H   UNL     1     179.612 170.416 186.575  1.00  0.00     0.345 HD
ATOM      5  H   UNL     1     178.292 171.479 186.776  1.00  0.00     0.345 HD
ATOM      6  H   UNL     1     178.296 169.954 187.537  1.00  0.00     0.345 HD
ENDBRANCH   2   3
BRANCH   2   7
ATOM      7  C   UNL     1     176.437 170.112 185.548  1.00  0.00     0.100 C 
ATOM      8  O   UNL     1     175.687 169.658 184.644  1.00  0.00    -0.544 OA
ATOM      9  O   UNL     1     175.885 170.854 186.586  1.00  0.00    -0.544 OA
ENDBRANCH   2   7
ENDBRANCH   1   2
BRANCH   1  10
ATOM     10  C   UNL     1     179.268 168.072 184.366  1.00  0.00     0.223 C 
ATOM     11  O   UNL     1     179.205 168.661 183.253  1.00  0.00    -0.275 OA
ATOM     12  N   UNL     1     180.289 167.101 184.597  1.00  0.00    -0.369 N 
ATOM     13  H   UNL     1     180.990 166.888 183.854  1.00  0.00     0.159 HD
ATOM     14  H   UNL     1     180.344 166.590 185.506  1.00  0.00     0.159 HD
ENDBRANCH   1  10
TORSDOF 4
ENDMDL
MODEL 6
REMARK VINA RESULT:    -3.471      2.003      2.312
REMARK INTER + INTRA:          -4.613
REMARK INTER:                  -4.304
REMARK INTRA:                  -0.309
REMARK UNBOUND:                -0.431
REMARK SMILES NC(=O)C[C@H]([NH3+])C(=O)[O-]
REMARK SMILES IDX 4 1 5 2 6 3 7 7 8 8 9 9 2 10 3 11 1 12
REMARK H PARENT 6 4 6 5 6 6 1 13 1 14
REMARK Flexibility Score: inf
ROOT
ATOM      1  C   UNL     1     163.366 178.388 183.578  1.00  0.00     0.171 C 
ENDROOT
BRANCH   1   2
ATOM      2  C   UNL     1     163.907 176.951 183.717  1.00  0.00     0.237 C 
BRANCH   2   3
ATOM      3  N   UNL     1     165.246 176.962 184.317  1.00  0.00    -0.350 N 
ATOM      4  H   UNL     1     165.670 177.914 184.225  1.00  0.00     0.345 HD
ATOM      5  H   UNL     1     165.201 176.701 185.329  1.00  0.00     0.345 HD
ATOM      6  H   UNL     1     165.864 176.282 183.817  1.00  0.00     0.345 HD
ENDBRANCH   2   3
BRANCH   2   7
ATOM      7  C   UNL     1     163.941 176.253 182.382  1.00  0.00     0.100 C 
ATOM      8  O   UNL     1     165.027 175.821 181.912  1.00  0.00    -0.544 OA
ATOM      9  O   UNL     1     162.770 176.097 181.650  1.00  0.00    -0.544 OA
ENDBRANCH   2   7
ENDBRANCH   1   2
BRANCH   1  10
ATOM     10  C   UNL     1     164.165 179.186 182.587  1.00  0.00     0.223 C 
ATOM     11  O   UNL     1     165.421 179.229 182.686  1.00  0.00    -0.275 OA
ATOM     12  N   UNL     1     163.509 179.929 181.558  1.00  0.00    -0.369 N 
ATOM     13  H   UNL     1     164.067 180.494 180.881  1.00  0.00     0.159 HD
ATOM     14  H   UNL     1     162.469 179.920 181.473  1.00  0.00     0.159 HD
ENDBRANCH   1  10
TORSDOF 4
ENDMDL
MODEL 7
REMARK VINA RESULT:    -3.462      5.054      6.421
REMARK INTER + INTRA:          -4.601
REMARK INTER:                  -4.415
REMARK INTRA:                  -0.186
REMARK UNBOUND:                -0.431
REMARK SMILES NC(=O)C[C@H]([NH3+])C(=O)[O-]
REMARK SMILES IDX 4 1 5 2 6 3 7 7 8 8 9 9 2 10 3 11 1 12
REMARK H PARENT 6 4 6 5 6 6 1 13 1 14
REMARK Flexibility Score: inf
ROOT
ATOM      1  C   UNL     1     167.922 174.438 185.241  1.00  0.00     0.171 C 
ENDROOT
BRANCH   1   2
ATOM      2  C   UNL     1     168.488 173.331 186.154  1.00  0.00     0.237 C 
BRANCH   2   3
ATOM      3  N   UNL     1     169.837 173.683 186.611  1.00  0.00    -0.350 N 
ATOM      4  H   UNL     1     170.379 174.110 185.825  1.00  0.00     0.345 HD
ATOM      5  H   UNL     1     169.795 174.359 187.408  1.00  0.00     0.345 HD
ATOM      6  H   UNL     1     170.341 172.820 186.921  1.00  0.00     0.345 HD
ENDBRANCH   2   3
BRANCH   2   7
ATOM      7  C   UNL     1     168.507 172.001 185.447  1.00  0.00     0.100 C 
ATOM      8  O   UNL     1     167.604 171.701 184.621  1.00  0.00    -0.544 OA
ATOM      9  O   UNL     1     169.518 171.086 185.717  1.00  0.00    -0.544 OA
ENDBRANCH   2   7
ENDBRANCH   1   2
BRANCH   1  10
ATOM     10  C   UNL     1     166.567 174.896 185.701  1.00  0.00     0.223 C 
ATOM     11  O   UNL     1     166.276 176.122 185.663  1.00  0.00    -0.275 OA
ATOM     12  N   UNL     1     165.622 173.958 186.217  1.00  0.00    -0.369 N 
ATOM     13  H   UNL     1     164.687 174.283 186.550  1.00  0.00     0.159 HD
ATOM     14  H   UNL     1     165.854 172.942 186.273  1.00  0.00     0.159 HD
ENDBRANCH   1  10
TORSDOF 4
ENDMDL
MODEL 8
REMARK VINA RESULT:    -3.437      3.070      4.272
REMARK INTER + INTRA:          -4.571
REMARK INTER:                  -4.480
REMARK INTRA:                  -0.091
REMARK UNBOUND:                -0.431
REMARK SMILES NC(=O)C[C@H]([NH3+])C(=O)[O-]
REMARK SMILES IDX 4 1 5 2 6 3 7 7 8 8 9 9 2 10 3 11 1 12
REMARK H PARENT 6 4 6 5 6 6 1 13 1 14
REMARK Flexibility Score: inf
ROOT
ATOM      1  C   UNL     1     166.239 175.841 185.146  1.00  0.00     0.171 C 
ENDROOT
BRANCH   1   2
ATOM      2  C   UNL     1     166.396 174.315 185.295  1.00  0.00     0.237 C 
BRANCH   2   3
ATOM      3  N   UNL     1     165.658 173.835 186.470  1.00  0.00    -0.350 N 
ATOM      4  H   UNL     1     166.144 174.141 187.345  1.00  0.00     0.345 HD
ATOM      5  H   UNL     1     164.680 174.208 186.471  1.00  0.00     0.345 HD
ATOM      6  H   UNL     1     165.625 172.789 186.465  1.00  0.00     0.345 HD
ENDBRANCH   2   3
BRANCH   2   7
ATOM      7  C   UNL     1     167.848 173.925 185.398  1.00  0.00     0.100 C 
ATOM      8  O   UNL     1     168.753 174.733 185.059  1.00  0.00    -0.544 OA
ATOM      9  O   UNL     1     168.197 172.660 185.854  1.00  0.00    -0.544 OA
ENDBRANCH   2   7
ENDBRANCH   1   2
BRANCH   1  10
ATOM     10  C   UNL     1     165.164 176.193 184.158  1.00  0.00     0.223 C 
ATOM     11  O   UNL     1     165.232 175.756 182.978  1.00  0.00    -0.275 OA
ATOM     12  N   UNL     1     164.086 177.051 184.534  1.00  0.00    -0.369 N 
ATOM     13  H   UNL     1     163.349 177.306 183.840  1.00  0.00     0.159 HD
ATOM     14  H   UNL     1     164.025 177.438 185.502  1.00  0.00     0.159 HD
ENDBRANCH   1  10
TORSDOF 4
ENDMDL
MODEL 9
REMARK VINA RESULT:    -3.421     16.243     17.455
REMARK INTER + INTRA:          -4.552
REMARK INTER:                  -4.318
REMARK INTRA:                  -0.234
REMARK UNBOUND:                -0.431
REMARK SMILES NC(=O)C[C@H]([NH3+])C(=O)[O-]
REMARK SMILES IDX 4 1 5 2 6 3 7 7 8 8 9 9 2 10 3 11 1 12
REMARK H PARENT 6 4 6 5 6 6 1 13 1 14
REMARK Flexibility Score: inf
ROOT
ATOM      1  C   UNL     1     178.343 168.285 185.323  1.00  0.00     0.171 C 
ENDROOT
BRANCH   1   2
ATOM      2  C   UNL     1     179.065 168.510 183.979  1.00  0.00     0.237 C 
BRANCH   2   3
ATOM      3  N   UNL     1     178.095 168.792 182.915  1.00  0.00    -0.350 N 
ATOM      4  H   UNL     1     178.594 169.120 182.056  1.00  0.00     0.345 HD
ATOM      5  H   UNL     1     177.537 167.937 182.685  1.00  0.00     0.345 HD
ATOM      6  H   UNL     1     177.444 169.552 183.223  1.00  0.00     0.345 HD
ENDBRANCH   2   3
BRANCH   2   7
ATOM      7  C   UNL     1     179.909 167.316 183.611  1.00  0.00     0.100 C 
ATOM      8  O   UNL     1     179.580 166.572 182.649  1.00  0.00    -0.544 OA
ATOM      9  O   UNL     1     181.050 167.019 184.346  1.00  0.00    -0.544 OA
ENDBRANCH   2   7
ENDBRANCH   1   2
BRANCH   1  10
ATOM     10  C   UNL     1     177.750 169.560 185.851  1.00  0.00     0.223 C 
ATOM     11  O   UNL     1     176.569 169.876 185.541  1.00  0.00    -0.275 OA
ATOM     12  N   UNL     1     178.525 170.437 186.670  1.00  0.00    -0.369 N 
ATOM     13  H   UNL     1     178.114 171.329 187.022  1.00  0.00     0.159 HD
ATOM     14  H   UNL     1     179.510 170.200 186.921  1.00  0.00     0.159 HD
ENDBRANCH   1  10
TORSDOF 4
ENDMDL
