MODEL 1
REMARK VINA RESULT:    -5.116      0.000      0.000
REMARK INTER + INTRA:         -16.095
REMARK INTER:                 -13.491
REMARK INTRA:                  -2.604
REMARK UNBOUND:                -2.604
REMARK SMILES CCCCCCCCCCCCCCCCCCCCCCCCCCCCCC(=O)[O-]
REMARK SMILES IDX 16 1 17 2 18 3 19 4 20 5 21 6 22 7 23 8 24 9 25 10 26 11
REMARK SMILES IDX 27 12 28 13 29 14 30 15 31 16 32 17 15 18 14 19 13 20 12 21
REMARK SMILES IDX 11 22 10 23 9 24 8 25 7 26 6 27 5 28 4 29 3 30 2 31 1 32
REMARK H PARENT
REMARK Flexibility Score: inf
ROOT
ATOM      1  C   UNL     1       6.084  47.446  67.944  1.00  0.00     0.000 C 
ENDROOT
BRANCH   1   2
ATOM      2  C   UNL     1       6.243  48.283  69.227  1.00  0.00     0.000 C 
BRANCH   2   3
ATOM      3  C   UNL     1       7.277  47.711  70.224  1.00  0.00     0.000 C 
BRANCH   3   4
ATOM      4  C   UNL     1       8.422  48.681  70.574  1.00  0.00     0.000 C 
BRANCH   4   5
ATOM      5  C   UNL     1       9.599  48.591  69.591  1.00  0.00     0.000 C 
BRANCH   5   6
ATOM      6  C   UNL     1      10.798  47.879  70.236  1.00  0.00     0.000 C 
BRANCH   6   7
ATOM      7  C   UNL     1      11.471  48.720  71.332  1.00  0.00     0.000 C 
BRANCH   7   8
ATOM      8  C   UNL     1      12.800  48.117  71.814  1.00  0.00     0.000 C 
BRANCH   8   9
ATOM      9  C   UNL     1      13.340  48.886  73.028  1.00  0.00     0.000 C 
BRANCH   9  10
ATOM     10  C   UNL     1      12.953  48.241  74.371  1.00  0.00     0.000 C 
BRANCH  10  11
ATOM     11  C   UNL     1      13.524  46.830  74.603  1.00  0.00     0.000 C 
BRANCH  11  12
ATOM     12  C   UNL     1      12.433  45.757  74.742  1.00  0.00     0.000 C 
BRANCH  12  13
ATOM     13  C   UNL     1      13.002  44.476  75.369  1.00  0.00     0.006 C 
BRANCH  13  14
ATOM     14  C   UNL     1      14.526  44.378  75.211  1.00  0.00     0.053 C 
BRANCH  14  15
ATOM     15  C   UNL     1      14.922  43.420  74.128  1.00  0.00     0.041 C 
ATOM     16  O   UNL     1      15.898  43.679  73.375  1.00  0.00    -0.550 OA
ATOM     17  O   UNL     1      14.223  42.230  73.963  1.00  0.00    -0.550 OA
ENDBRANCH  14  15
ENDBRANCH  13  14
ENDBRANCH  12  13
ENDBRANCH  11  12
ENDBRANCH  10  11
ENDBRANCH   9  10
ENDBRANCH   8   9
ENDBRANCH   7   8
ENDBRANCH   6   7
ENDBRANCH   5   6
ENDBRANCH   4   5
ENDBRANCH   3   4
ENDBRANCH   2   3
ENDBRANCH   1   2
BRANCH   1  18
ATOM     18  C   UNL     1       6.961  47.898  66.762  1.00  0.00     0.000 C 
BRANCH  18  19
ATOM     19  C   UNL     1       7.064  49.426  66.572  1.00  0.00     0.000 C 
BRANCH  19  20
ATOM     20  C   UNL     1       6.085  50.025  65.543  1.00  0.00     0.000 C 
BRANCH  20  21
ATOM     21  C   UNL     1       5.392  48.995  64.633  1.00  0.00     0.000 C 
BRANCH  21  22
ATOM     22  C   UNL     1       3.862  49.159  64.615  1.00  0.00     0.000 C 
BRANCH  22  23
ATOM     23  C   UNL     1       3.124  47.814  64.700  1.00  0.00     0.000 C 
BRANCH  23  24
ATOM     24  C   UNL     1       4.085  46.619  64.821  1.00  0.00    -0.000 C 
BRANCH  24  25
ATOM     25  C   UNL     1       3.628  45.605  65.882  1.00  0.00    -0.000 C 
BRANCH  25  26
ATOM     26  C   UNL     1       3.491  44.182  65.314  1.00  0.00    -0.000 C 
BRANCH  26  27
ATOM     27  C   UNL     1       3.122  43.151  66.395  1.00  0.00    -0.000 C 
BRANCH  27  28
ATOM     28  C   UNL     1       2.771  43.812  67.740  1.00  0.00    -0.000 C 
BRANCH  28  29
ATOM     29  C   UNL     1       3.204  42.965  68.947  1.00  0.00    -0.000 C 
BRANCH  29  30
ATOM     30  C   UNL     1       2.466  43.355  70.236  1.00  0.00    -0.000 C 
BRANCH  30  31
ATOM     31  C   UNL     1       3.454  43.553  71.392  1.00  0.00    -0.003 C 
ATOM     32  C   UNL     1       4.685  44.333  70.941  1.00  0.00     0.004 C 
ENDBRANCH  30  31
ENDBRANCH  29  30
ENDBRANCH  28  29
ENDBRANCH  27  28
ENDBRANCH  26  27
ENDBRANCH  25  26
ENDBRANCH  24  25
ENDBRANCH  23  24
ENDBRANCH  22  23
ENDBRANCH  21  22
ENDBRANCH  20  21
ENDBRANCH  19  20
ENDBRANCH  18  19
ENDBRANCH   1  18
TORSDOF 28
ENDMDL
MODEL 2
REMARK VINA RESULT:    -4.962      1.652      3.069
REMARK INTER + INTRA:         -15.688
REMARK INTER:                 -13.652
REMARK INTRA:                  -2.036
REMARK UNBOUND:                -2.604
REMARK SMILES CCCCCCCCCCCCCCCCCCCCCCCCCCCCCC(=O)[O-]
REMARK SMILES IDX 16 1 17 2 18 3 19 4 20 5 21 6 22 7 23 8 24 9 25 10 26 11
REMARK SMILES IDX 27 12 28 13 29 14 30 15 31 16 32 17 15 18 14 19 13 20 12 21
REMARK SMILES IDX 11 22 10 23 9 24 8 25 7 26 6 27 5 28 4 29 3 30 2 31 1 32
REMARK H PARENT
REMARK Flexibility Score: inf
ROOT
ATOM      1  C   UNL     1       8.122  48.454  70.473  1.00  0.00     0.000 C 
ENDROOT
BRANCH   1   2
ATOM      2  C   UNL     1       9.249  48.422  71.523  1.00  0.00     0.000 C 
BRANCH   2   3
ATOM      3  C   UNL     1      10.671  48.427  70.915  1.00  0.00     0.000 C 
BRANCH   3   4
ATOM      4  C   UNL     1      11.795  48.169  71.934  1.00  0.00     0.000 C 
BRANCH   4   5
ATOM      5  C   UNL     1      11.263  47.878  73.346  1.00  0.00     0.000 C 
BRANCH   5   6
ATOM      6  C   UNL     1      12.382  47.346  74.255  1.00  0.00     0.000 C 
BRANCH   6   7
ATOM      7  C   UNL     1      13.345  48.447  74.723  1.00  0.00     0.000 C 
BRANCH   7   8
ATOM      8  C   UNL     1      14.815  48.123  74.417  1.00  0.00     0.000 C 
BRANCH   8   9
ATOM      9  C   UNL     1      14.936  46.792  73.660  1.00  0.00     0.000 C 
BRANCH   9  10
ATOM     10  C   UNL     1      15.600  45.683  74.494  1.00  0.00     0.000 C 
BRANCH  10  11
ATOM     11  C   UNL     1      14.636  44.612  75.035  1.00  0.00     0.000 C 
BRANCH  11  12
ATOM     12  C   UNL     1      14.746  43.273  74.289  1.00  0.00     0.000 C 
BRANCH  12  13
ATOM     13  C   UNL     1      16.150  43.094  73.692  1.00  0.00     0.006 C 
BRANCH  13  14
ATOM     14  C   UNL     1      16.837  41.817  74.196  1.00  0.00     0.053 C 
BRANCH  14  15
ATOM     15  C   UNL     1      17.733  42.083  75.369  1.00  0.00     0.041 C 
ATOM     16  O   UNL     1      17.505  43.056  76.135  1.00  0.00    -0.550 OA
ATOM     17  O   UNL     1      18.809  41.242  75.626  1.00  0.00    -0.550 OA
ENDBRANCH  14  15
ENDBRANCH  13  14
ENDBRANCH  12  13
ENDBRANCH  11  12
ENDBRANCH  10  11
ENDBRANCH   9  10
ENDBRANCH   8   9
ENDBRANCH   7   8
ENDBRANCH   6   7
ENDBRANCH   5   6
ENDBRANCH   4   5
ENDBRANCH   3   4
ENDBRANCH   2   3
ENDBRANCH   1   2
BRANCH   1  18
ATOM     18  C   UNL     1       7.703  49.863  70.015  1.00  0.00     0.000 C 
BRANCH  18  19
ATOM     19  C   UNL     1       7.141  49.943  68.580  1.00  0.00     0.000 C 
BRANCH  19  20
ATOM     20  C   UNL     1       7.949  49.174  67.517  1.00  0.00     0.000 C 
BRANCH  20  21
ATOM     21  C   UNL     1       7.316  47.850  67.054  1.00  0.00     0.000 C 
BRANCH  21  22
ATOM     22  C   UNL     1       6.122  48.066  66.107  1.00  0.00     0.000 C 
BRANCH  22  23
ATOM     23  C   UNL     1       4.895  47.232  66.504  1.00  0.00     0.000 C 
BRANCH  23  24
ATOM     24  C   UNL     1       3.877  47.096  65.359  1.00  0.00    -0.000 C 
BRANCH  24  25
ATOM     25  C   UNL     1       4.213  45.935  64.410  1.00  0.00    -0.000 C 
BRANCH  25  26
ATOM     26  C   UNL     1       3.117  44.855  64.391  1.00  0.00    -0.000 C 
BRANCH  26  27
ATOM     27  C   UNL     1       3.306  43.806  65.500  1.00  0.00    -0.000 C 
BRANCH  27  28
ATOM     28  C   UNL     1       2.347  44.026  66.684  1.00  0.00    -0.000 C 
BRANCH  28  29
ATOM     29  C   UNL     1       3.086  44.214  68.018  1.00  0.00    -0.000 C 
BRANCH  29  30
ATOM     30  C   UNL     1       3.172  42.916  68.833  1.00  0.00    -0.000 C 
BRANCH  30  31
ATOM     31  C   UNL     1       3.491  43.213  70.303  1.00  0.00    -0.003 C 
ATOM     32  C   UNL     1       2.217  43.348  71.130  1.00  0.00     0.004 C 
ENDBRANCH  30  31
ENDBRANCH  29  30
ENDBRANCH  28  29
ENDBRANCH  27  28
ENDBRANCH  26  27
ENDBRANCH  25  26
ENDBRANCH  24  25
ENDBRANCH  23  24
ENDBRANCH  22  23
ENDBRANCH  21  22
ENDBRANCH  20  21
ENDBRANCH  19  20
ENDBRANCH  18  19
ENDBRANCH   1  18
TORSDOF 28
ENDMDL
MODEL 3
REMARK VINA RESULT:    -4.906      3.361     12.016
REMARK INTER + INTRA:         -15.542
REMARK INTER:                 -13.765
REMARK INTRA:                  -1.777
REMARK UNBOUND:                -2.604
REMARK SMILES CCCCCCCCCCCCCCCCCCCCCCCCCCCCCC(=O)[O-]
REMARK SMILES IDX 16 1 17 2 18 3 19 4 20 5 21 6 22 7 23 8 24 9 25 10 26 11
REMARK SMILES IDX 27 12 28 13 29 14 30 15 31 16 32 17 15 18 14 19 13 20 12 21
REMARK SMILES IDX 11 22 10 23 9 24 8 25 7 26 6 27 5 28 4 29 3 30 2 31 1 32
REMARK H PARENT
REMARK Flexibility Score: inf
ROOT
ATOM      1  C   UNL     1      11.028  47.593  70.179  1.00  0.00     0.000 C 
ENDROOT
BRANCH   1   2
ATOM      2  C   UNL     1       9.794  47.944  69.327  1.00  0.00     0.000 C 
BRANCH   2   3
ATOM      3  C   UNL     1       8.687  48.691  70.107  1.00  0.00     0.000 C 
BRANCH   3   4
ATOM      4  C   UNL     1       7.435  47.842  70.396  1.00  0.00     0.000 C 
BRANCH   4   5
ATOM      5  C   UNL     1       6.944  47.067  69.163  1.00  0.00     0.000 C 
BRANCH   5   6
ATOM      6  C   UNL     1       5.834  47.841  68.435  1.00  0.00     0.000 C 
BRANCH   6   7
ATOM      7  C   UNL     1       5.906  47.692  66.908  1.00  0.00     0.000 C 
BRANCH   7   8
ATOM      8  C   UNL     1       4.527  47.483  66.264  1.00  0.00     0.000 C 
BRANCH   8   9
ATOM      9  C   UNL     1       4.274  45.995  65.982  1.00  0.00     0.000 C 
BRANCH   9  10
ATOM     10  C   UNL     1       2.779  45.649  65.867  1.00  0.00     0.000 C 
BRANCH  10  11
ATOM     11  C   UNL     1       2.278  44.594  66.869  1.00  0.00     0.000 C 
BRANCH  11  12
ATOM     12  C   UNL     1       3.166  44.482  68.117  1.00  0.00     0.000 C 
BRANCH  12  13
ATOM     13  C   UNL     1       3.096  43.068  68.714  1.00  0.00     0.006 C 
BRANCH  13  14
ATOM     14  C   UNL     1       2.648  43.077  70.182  1.00  0.00     0.053 C 
BRANCH  14  15
ATOM     15  C   UNL     1       3.746  43.516  71.105  1.00  0.00     0.041 C 
ATOM     16  O   UNL     1       3.538  44.423  71.954  1.00  0.00    -0.550 OA
ATOM     17  O   UNL     1       4.993  42.907  71.039  1.00  0.00    -0.550 OA
ENDBRANCH  14  15
ENDBRANCH  13  14
ENDBRANCH  12  13
ENDBRANCH  11  12
ENDBRANCH  10  11
ENDBRANCH   9  10
ENDBRANCH   8   9
ENDBRANCH   7   8
ENDBRANCH   6   7
ENDBRANCH   5   6
ENDBRANCH   4   5
ENDBRANCH   3   4
ENDBRANCH   2   3
ENDBRANCH   1   2
BRANCH   1  18
ATOM     18  C   UNL     1      11.398  48.639  71.246  1.00  0.00     0.000 C 
BRANCH  18  19
ATOM     19  C   UNL     1      12.217  48.097  72.436  1.00  0.00     0.000 C 
BRANCH  19  20
ATOM     20  C   UNL     1      11.393  47.731  73.685  1.00  0.00     0.000 C 
BRANCH  20  21
ATOM     21  C   UNL     1      12.181  47.010  74.793  1.00  0.00     0.000 C 
BRANCH  21  22
ATOM     22  C   UNL     1      11.888  45.500  74.839  1.00  0.00     0.000 C 
BRANCH  22  23
ATOM     23  C   UNL     1      13.013  44.701  75.514  1.00  0.00     0.000 C 
BRANCH  23  24
ATOM     24  C   UNL     1      14.312  44.697  74.689  1.00  0.00    -0.000 C 
BRANCH  24  25
ATOM     25  C   UNL     1      15.255  43.551  75.086  1.00  0.00    -0.000 C 
BRANCH  25  26
ATOM     26  C   UNL     1      16.047  43.000  73.888  1.00  0.00    -0.000 C 
BRANCH  26  27
ATOM     27  C   UNL     1      16.441  41.524  74.072  1.00  0.00    -0.000 C 
BRANCH  27  28
ATOM     28  C   UNL     1      17.937  41.352  74.388  1.00  0.00    -0.000 C 
BRANCH  28  29
ATOM     29  C   UNL     1      18.189  40.904  75.837  1.00  0.00    -0.000 C 
BRANCH  29  30
ATOM     30  C   UNL     1      18.371  42.088  76.797  1.00  0.00    -0.000 C 
BRANCH  30  31
ATOM     31  C   UNL     1      18.518  41.601  78.244  1.00  0.00    -0.003 C 
ATOM     32  C   UNL     1      17.943  42.613  79.229  1.00  0.00     0.004 C 
ENDBRANCH  30  31
ENDBRANCH  29  30
ENDBRANCH  28  29
ENDBRANCH  27  28
ENDBRANCH  26  27
ENDBRANCH  25  26
ENDBRANCH  24  25
ENDBRANCH  23  24
ENDBRANCH  22  23
ENDBRANCH  21  22
ENDBRANCH  20  21
ENDBRANCH  19  20
ENDBRANCH  18  19
ENDBRANCH   1  18
TORSDOF 28
ENDMDL
MODEL 4
REMARK VINA RESULT:    -4.887      3.220      8.884
REMARK INTER + INTRA:         -15.492
REMARK INTER:                 -12.830
REMARK INTRA:                  -2.663
REMARK UNBOUND:                -2.604
REMARK SMILES CCCCCCCCCCCCCCCCCCCCCCCCCCCCCC(=O)[O-]
REMARK SMILES IDX 16 1 17 2 18 3 19 4 20 5 21 6 22 7 23 8 24 9 25 10 26 11
REMARK SMILES IDX 27 12 28 13 29 14 30 15 31 16 32 17 15 18 14 19 13 20 12 21
REMARK SMILES IDX 11 22 10 23 9 24 8 25 7 26 6 27 5 28 4 29 3 30 2 31 1 32
REMARK H PARENT
REMARK Flexibility Score: inf
ROOT
ATOM      1  C   UNL     1      13.702  44.078  75.302  1.00  0.00     0.000 C 
ENDROOT
BRANCH   1   2
ATOM      2  C   UNL     1      15.133  44.595  75.061  1.00  0.00     0.000 C 
BRANCH   2   3
ATOM      3  C   UNL     1      15.792  44.038  73.778  1.00  0.00     0.000 C 
BRANCH   3   4
ATOM      4  C   UNL     1      16.680  42.801  74.010  1.00  0.00     0.000 C 
BRANCH   4   5
ATOM      5  C   UNL     1      18.032  42.895  73.286  1.00  0.00     0.000 C 
BRANCH   5   6
ATOM      6  C   UNL     1      18.794  44.160  73.711  1.00  0.00     0.000 C 
BRANCH   6   7
ATOM      7  C   UNL     1      19.609  43.960  74.998  1.00  0.00     0.000 C 
BRANCH   7   8
ATOM      8  C   UNL     1      19.002  44.688  76.207  1.00  0.00     0.000 C 
BRANCH   8   9
ATOM      9  C   UNL     1      18.994  43.781  77.446  1.00  0.00     0.000 C 
BRANCH   9  10
ATOM     10  C   UNL     1      17.905  42.695  77.391  1.00  0.00     0.000 C 
BRANCH  10  11
ATOM     11  C   UNL     1      18.393  41.270  77.704  1.00  0.00     0.000 C 
BRANCH  11  12
ATOM     12  C   UNL     1      19.402  40.741  76.674  1.00  0.00     0.000 C 
BRANCH  12  13
ATOM     13  C   UNL     1      18.976  39.362  76.147  1.00  0.00     0.006 C 
BRANCH  13  14
ATOM     14  C   UNL     1      17.457  39.258  75.952  1.00  0.00     0.053 C 
BRANCH  14  15
ATOM     15  C   UNL     1      17.073  39.240  74.502  1.00  0.00     0.041 C 
ATOM     16  O   UNL     1      17.958  39.150  73.611  1.00  0.00    -0.550 OA
ATOM     17  O   UNL     1      15.734  39.302  74.138  1.00  0.00    -0.550 OA
ENDBRANCH  14  15
ENDBRANCH  13  14
ENDBRANCH  12  13
ENDBRANCH  11  12
ENDBRANCH  10  11
ENDBRANCH   9  10
ENDBRANCH   8   9
ENDBRANCH   7   8
ENDBRANCH   6   7
ENDBRANCH   5   6
ENDBRANCH   4   5
ENDBRANCH   3   4
ENDBRANCH   2   3
ENDBRANCH   1   2
BRANCH   1  18
ATOM     18  C   UNL     1      12.589  44.936  74.675  1.00  0.00     0.000 C 
BRANCH  18  19
ATOM     19  C   UNL     1      11.722  45.720  75.682  1.00  0.00     0.000 C 
BRANCH  19  20
ATOM     20  C   UNL     1      11.411  47.176  75.284  1.00  0.00     0.000 C 
BRANCH  20  21
ATOM     21  C   UNL     1      12.048  47.635  73.960  1.00  0.00     0.000 C 
BRANCH  21  22
ATOM     22  C   UNL     1      11.003  47.888  72.859  1.00  0.00     0.000 C 
BRANCH  22  23
ATOM     23  C   UNL     1      11.644  48.228  71.505  1.00  0.00     0.000 C 
BRANCH  23  24
ATOM     24  C   UNL     1      10.642  48.150  70.340  1.00  0.00    -0.000 C 
BRANCH  24  25
ATOM     25  C   UNL     1      11.068  47.135  69.268  1.00  0.00    -0.000 C 
BRANCH  25  26
ATOM     26  C   UNL     1       9.895  46.699  68.373  1.00  0.00    -0.000 C 
BRANCH  26  27
ATOM     27  C   UNL     1       8.809  47.783  68.257  1.00  0.00    -0.000 C 
BRANCH  27  28
ATOM     28  C   UNL     1       7.986  47.652  66.963  1.00  0.00    -0.000 C 
BRANCH  28  29
ATOM     29  C   UNL     1       6.730  48.537  66.967  1.00  0.00    -0.000 C 
BRANCH  29  30
ATOM     30  C   UNL     1       5.489  47.802  66.442  1.00  0.00    -0.000 C 
BRANCH  30  31
ATOM     31  C   UNL     1       5.574  47.601  64.925  1.00  0.00    -0.003 C 
ATOM     32  C   UNL     1       4.613  48.530  64.189  1.00  0.00     0.004 C 
ENDBRANCH  30  31
ENDBRANCH  29  30
ENDBRANCH  28  29
ENDBRANCH  27  28
ENDBRANCH  26  27
ENDBRANCH  25  26
ENDBRANCH  24  25
ENDBRANCH  23  24
ENDBRANCH  22  23
ENDBRANCH  21  22
ENDBRANCH  20  21
ENDBRANCH  19  20
ENDBRANCH  18  19
ENDBRANCH   1  18
TORSDOF 28
ENDMDL
MODEL 5
REMARK VINA RESULT:    -4.831      8.323     14.620
REMARK INTER + INTRA:         -15.343
REMARK INTER:                 -12.079
REMARK INTRA:                  -3.264
REMARK UNBOUND:                -2.604
REMARK SMILES CCCCCCCCCCCCCCCCCCCCCCCCCCCCCC(=O)[O-]
REMARK SMILES IDX 16 1 17 2 18 3 19 4 20 5 21 6 22 7 23 8 24 9 25 10 26 11
REMARK SMILES IDX 27 12 28 13 29 14 30 15 31 16 32 17 15 18 14 19 13 20 12 21
REMARK SMILES IDX 11 22 10 23 9 24 8 25 7 26 6 27 5 28 4 29 3 30 2 31 1 32
REMARK H PARENT
REMARK Flexibility Score: inf
ROOT
ATOM      1  C   UNL     1      18.033  42.235  73.780  1.00  0.00     0.000 C 
ENDROOT
BRANCH   1   2
ATOM      2  C   UNL     1      19.259  42.522  74.669  1.00  0.00     0.000 C 
BRANCH   2   3
ATOM      3  C   UNL     1      19.623  44.022  74.766  1.00  0.00     0.000 C 
BRANCH   3   4
ATOM      4  C   UNL     1      18.505  44.907  75.347  1.00  0.00     0.000 C 
BRANCH   4   5
ATOM      5  C   UNL     1      17.657  45.586  74.260  1.00  0.00     0.000 C 
BRANCH   5   6
ATOM      6  C   UNL     1      16.203  45.756  74.725  1.00  0.00     0.000 C 
BRANCH   6   7
ATOM      7  C   UNL     1      15.645  44.499  75.409  1.00  0.00     0.000 C 
BRANCH   7   8
ATOM      8  C   UNL     1      14.436  43.905  74.669  1.00  0.00     0.000 C 
BRANCH   8   9
ATOM      9  C   UNL     1      13.145  44.118  75.472  1.00  0.00     0.000 C 
BRANCH   9  10
ATOM     10  C   UNL     1      12.200  45.150  74.832  1.00  0.00     0.000 C 
BRANCH  10  11
ATOM     11  C   UNL     1      11.480  46.077  75.827  1.00  0.00     0.000 C 
BRANCH  11  12
ATOM     12  C   UNL     1      11.716  47.567  75.535  1.00  0.00     0.000 C 
BRANCH  12  13
ATOM     13  C   UNL     1      12.142  47.779  74.075  1.00  0.00     0.006 C 
BRANCH  13  14
ATOM     14  C   UNL     1      13.571  48.326  73.959  1.00  0.00     0.053 C 
BRANCH  14  15
ATOM     15  C   UNL     1      13.924  48.691  72.548  1.00  0.00     0.041 C 
ATOM     16  O   UNL     1      13.466  49.743  72.029  1.00  0.00    -0.550 OA
ATOM     17  O   UNL     1      14.777  47.877  71.813  1.00  0.00    -0.550 OA
ENDBRANCH  14  15
ENDBRANCH  13  14
ENDBRANCH  12  13
ENDBRANCH  11  12
ENDBRANCH  10  11
ENDBRANCH   9  10
ENDBRANCH   8   9
ENDBRANCH   7   8
ENDBRANCH   6   7
ENDBRANCH   5   6
ENDBRANCH   4   5
ENDBRANCH   3   4
ENDBRANCH   2   3
ENDBRANCH   1   2
BRANCH   1  18
ATOM     18  C   UNL     1      17.062  41.178  74.338  1.00  0.00     0.000 C 
BRANCH  18  19
ATOM     19  C   UNL     1      17.555  39.719  74.237  1.00  0.00     0.000 C 
BRANCH  19  20
ATOM     20  C   UNL     1      17.441  38.899  75.536  1.00  0.00     0.000 C 
BRANCH  20  21
ATOM     21  C   UNL     1      18.567  39.141  76.557  1.00  0.00     0.000 C 
BRANCH  21  22
ATOM     22  C   UNL     1      18.084  39.912  77.797  1.00  0.00     0.000 C 
BRANCH  22  23
ATOM     23  C   UNL     1      18.895  41.193  78.049  1.00  0.00     0.000 C 
BRANCH  23  24
ATOM     24  C   UNL     1      18.000  42.427  78.256  1.00  0.00    -0.000 C 
BRANCH  24  25
ATOM     25  C   UNL     1      18.134  43.018  79.668  1.00  0.00    -0.000 C 
BRANCH  25  26
ATOM     26  C   UNL     1      18.778  44.415  79.663  1.00  0.00    -0.000 C 
BRANCH  26  27
ATOM     27  C   UNL     1      18.488  45.201  80.953  1.00  0.00    -0.000 C 
BRANCH  27  28
ATOM     28  C   UNL     1      18.255  46.698  80.687  1.00  0.00    -0.000 C 
BRANCH  28  29
ATOM     29  C   UNL     1      17.486  47.390  81.824  1.00  0.00    -0.000 C 
BRANCH  29  30
ATOM     30  C   UNL     1      17.430  46.539  83.100  1.00  0.00    -0.000 C 
BRANCH  30  31
ATOM     31  C   UNL     1      16.005  46.033  83.357  1.00  0.00    -0.003 C 
ATOM     32  C   UNL     1      15.982  44.521  83.555  1.00  0.00     0.004 C 
ENDBRANCH  30  31
ENDBRANCH  29  30
ENDBRANCH  28  29
ENDBRANCH  27  28
ENDBRANCH  26  27
ENDBRANCH  25  26
ENDBRANCH  24  25
ENDBRANCH  23  24
ENDBRANCH  22  23
ENDBRANCH  21  22
ENDBRANCH  20  21
ENDBRANCH  19  20
ENDBRANCH  18  19
ENDBRANCH   1  18
TORSDOF 28
ENDMDL
MODEL 6
REMARK VINA RESULT:    -4.817      8.601     12.347
REMARK INTER + INTRA:         -15.305
REMARK INTER:                 -10.513
REMARK INTRA:                  -4.792
REMARK UNBOUND:                -2.604
REMARK SMILES CCCCCCCCCCCCCCCCCCCCCCCCCCCCCC(=O)[O-]
REMARK SMILES IDX 16 1 17 2 18 3 19 4 20 5 21 6 22 7 23 8 24 9 25 10 26 11
REMARK SMILES IDX 27 12 28 13 29 14 30 15 31 16 32 17 15 18 14 19 13 20 12 21
REMARK SMILES IDX 11 22 10 23 9 24 8 25 7 26 6 27 5 28 4 29 3 30 2 31 1 32
REMARK H PARENT
REMARK Flexibility Score: inf
ROOT
ATOM      1  C   UNL     1      16.647  39.570  74.745  1.00  0.00     0.000 C 
ENDROOT
BRANCH   1   2
ATOM      2  C   UNL     1      17.847  38.802  74.158  1.00  0.00     0.000 C 
BRANCH   2   3
ATOM      3  C   UNL     1      18.870  38.335  75.219  1.00  0.00     0.000 C 
BRANCH   3   4
ATOM      4  C   UNL     1      18.288  38.189  76.637  1.00  0.00     0.000 C 
BRANCH   4   5
ATOM      5  C   UNL     1      18.964  39.119  77.657  1.00  0.00     0.000 C 
BRANCH   5   6
ATOM      6  C   UNL     1      17.965  40.152  78.202  1.00  0.00     0.000 C 
BRANCH   6   7
ATOM      7  C   UNL     1      18.487  41.594  78.105  1.00  0.00     0.000 C 
BRANCH   7   8
ATOM      8  C   UNL     1      18.298  42.204  76.708  1.00  0.00     0.000 C 
BRANCH   8   9
ATOM      9  C   UNL     1      19.631  42.252  75.947  1.00  0.00     0.000 C 
BRANCH   9  10
ATOM     10  C   UNL     1      19.456  42.191  74.420  1.00  0.00     0.000 C 
BRANCH  10  11
ATOM     11  C   UNL     1      19.790  43.496  73.675  1.00  0.00     0.000 C 
BRANCH  11  12
ATOM     12  C   UNL     1      18.596  44.064  72.893  1.00  0.00     0.000 C 
BRANCH  12  13
ATOM     13  C   UNL     1      17.825  45.089  73.739  1.00  0.00     0.006 C 
BRANCH  13  14
ATOM     14  C   UNL     1      18.742  46.181  74.307  1.00  0.00     0.053 C 
BRANCH  14  15
ATOM     15  C   UNL     1      18.506  46.414  75.770  1.00  0.00     0.041 C 
ATOM     16  O   UNL     1      17.580  47.179  76.150  1.00  0.00    -0.550 OA
ATOM     17  O   UNL     1      19.297  45.770  76.713  1.00  0.00    -0.550 OA
ENDBRANCH  14  15
ENDBRANCH  13  14
ENDBRANCH  12  13
ENDBRANCH  11  12
ENDBRANCH  10  11
ENDBRANCH   9  10
ENDBRANCH   8   9
ENDBRANCH   7   8
ENDBRANCH   6   7
ENDBRANCH   5   6
ENDBRANCH   4   5
ENDBRANCH   3   4
ENDBRANCH   2   3
ENDBRANCH   1   2
BRANCH   1  18
ATOM     18  C   UNL     1      15.884  40.448  73.736  1.00  0.00     0.000 C 
BRANCH  18  19
ATOM     19  C   UNL     1      15.880  41.957  74.056  1.00  0.00     0.000 C 
BRANCH  19  20
ATOM     20  C   UNL     1      14.487  42.615  74.089  1.00  0.00     0.000 C 
BRANCH  20  21
ATOM     21  C   UNL     1      14.445  44.010  74.738  1.00  0.00     0.000 C 
BRANCH  21  22
ATOM     22  C   UNL     1      13.191  44.220  75.605  1.00  0.00     0.000 C 
BRANCH  22  23
ATOM     23  C   UNL     1      12.182  45.182  74.961  1.00  0.00     0.000 C 
BRANCH  23  24
ATOM     24  C   UNL     1      11.341  45.942  76.001  1.00  0.00    -0.000 C 
BRANCH  24  25
ATOM     25  C   UNL     1      11.256  47.447  75.700  1.00  0.00    -0.000 C 
BRANCH  25  26
ATOM     26  C   UNL     1      12.240  47.883  74.601  1.00  0.00    -0.000 C 
BRANCH  26  27
ATOM     27  C   UNL     1      13.179  49.009  75.066  1.00  0.00    -0.000 C 
BRANCH  27  28
ATOM     28  C   UNL     1      14.630  48.793  74.599  1.00  0.00    -0.000 C 
BRANCH  28  29
ATOM     29  C   UNL     1      14.852  47.404  73.979  1.00  0.00    -0.000 C 
BRANCH  29  30
ATOM     30  C   UNL     1      15.072  47.465  72.461  1.00  0.00    -0.000 C 
BRANCH  30  31
ATOM     31  C   UNL     1      15.641  48.826  72.045  1.00  0.00    -0.003 C 
ATOM     32  C   UNL     1      17.166  48.814  72.049  1.00  0.00     0.004 C 
ENDBRANCH  30  31
ENDBRANCH  29  30
ENDBRANCH  28  29
ENDBRANCH  27  28
ENDBRANCH  26  27
ENDBRANCH  25  26
ENDBRANCH  24  25
ENDBRANCH  23  24
ENDBRANCH  22  23
ENDBRANCH  21  22
ENDBRANCH  20  21
ENDBRANCH  19  20
ENDBRANCH  18  19
ENDBRANCH   1  18
TORSDOF 28
ENDMDL
MODEL 7
REMARK VINA RESULT:    -4.741      1.414      2.123
REMARK INTER + INTRA:         -15.105
REMARK INTER:                 -13.202
REMARK INTRA:                  -1.903
REMARK UNBOUND:                -2.604
REMARK SMILES CCCCCCCCCCCCCCCCCCCCCCCCCCCCCC(=O)[O-]
REMARK SMILES IDX 16 1 17 2 18 3 19 4 20 5 21 6 22 7 23 8 24 9 25 10 26 11
REMARK SMILES IDX 27 12 28 13 29 14 30 15 31 16 32 17 15 18 14 19 13 20 12 21
REMARK SMILES IDX 11 22 10 23 9 24 8 25 7 26 6 27 5 28 4 29 3 30 2 31 1 32
REMARK H PARENT
REMARK Flexibility Score: inf
ROOT
ATOM      1  C   UNL     1       7.239  47.547  69.863  1.00  0.00     0.000 C 
ENDROOT
BRANCH   1   2
ATOM      2  C   UNL     1       8.149  48.184  70.931  1.00  0.00     0.000 C 
BRANCH   2   3
ATOM      3  C   UNL     1       8.801  49.514  70.485  1.00  0.00     0.000 C 
BRANCH   3   4
ATOM      4  C   UNL     1      10.264  49.378  70.026  1.00  0.00     0.000 C 
BRANCH   4   5
ATOM      5  C   UNL     1      10.981  48.180  70.668  1.00  0.00     0.000 C 
BRANCH   5   6
ATOM      6  C   UNL     1      11.605  48.573  72.016  1.00  0.00     0.000 C 
BRANCH   6   7
ATOM      7  C   UNL     1      13.099  48.226  72.104  1.00  0.00     0.000 C 
BRANCH   7   8
ATOM      8  C   UNL     1      13.862  49.123  73.091  1.00  0.00     0.000 C 
BRANCH   8   9
ATOM      9  C   UNL     1      14.501  48.286  74.209  1.00  0.00     0.000 C 
BRANCH   9  10
ATOM     10  C   UNL     1      14.150  46.791  74.118  1.00  0.00     0.000 C 
BRANCH  10  11
ATOM     11  C   UNL     1      15.359  45.847  73.983  1.00  0.00     0.000 C 
BRANCH  11  12
ATOM     12  C   UNL     1      15.023  44.389  74.334  1.00  0.00     0.000 C 
BRANCH  12  13
ATOM     13  C   UNL     1      16.251  43.667  74.908  1.00  0.00     0.006 C 
BRANCH  13  14
ATOM     14  C   UNL     1      16.838  42.645  73.925  1.00  0.00     0.053 C 
BRANCH  14  15
ATOM     15  C   UNL     1      17.230  41.367  74.605  1.00  0.00     0.041 C 
ATOM     16  O   UNL     1      16.702  40.276  74.262  1.00  0.00    -0.550 OA
ATOM     17  O   UNL     1      18.195  41.380  75.604  1.00  0.00    -0.550 OA
ENDBRANCH  14  15
ENDBRANCH  13  14
ENDBRANCH  12  13
ENDBRANCH  11  12
ENDBRANCH  10  11
ENDBRANCH   9  10
ENDBRANCH   8   9
ENDBRANCH   7   8
ENDBRANCH   6   7
ENDBRANCH   5   6
ENDBRANCH   4   5
ENDBRANCH   3   4
ENDBRANCH   2   3
ENDBRANCH   1   2
BRANCH   1  18
ATOM     18  C   UNL     1       6.709  48.523  68.797  1.00  0.00     0.000 C 
BRANCH  18  19
ATOM     19  C   UNL     1       7.258  48.296  67.373  1.00  0.00     0.000 C 
BRANCH  19  20
ATOM     20  C   UNL     1       7.083  49.484  66.407  1.00  0.00     0.000 C 
BRANCH  20  21
ATOM     21  C   UNL     1       5.909  49.349  65.421  1.00  0.00     0.000 C 
BRANCH  21  22
ATOM     22  C   UNL     1       5.087  48.069  65.654  1.00  0.00     0.000 C 
BRANCH  22  23
ATOM     23  C   UNL     1       4.909  47.241  64.373  1.00  0.00     0.000 C 
BRANCH  23  24
ATOM     24  C   UNL     1       4.055  45.981  64.597  1.00  0.00    -0.000 C 
BRANCH  24  25
ATOM     25  C   UNL     1       3.492  45.901  66.025  1.00  0.00    -0.000 C 
BRANCH  25  26
ATOM     26  C   UNL     1       2.441  44.789  66.180  1.00  0.00    -0.000 C 
BRANCH  26  27
ATOM     27  C   UNL     1       2.378  44.235  67.614  1.00  0.00    -0.000 C 
BRANCH  27  28
ATOM     28  C   UNL     1       3.272  42.996  67.803  1.00  0.00    -0.000 C 
BRANCH  28  29
ATOM     29  C   UNL     1       3.298  42.501  69.257  1.00  0.00    -0.000 C 
BRANCH  29  30
ATOM     30  C   UNL     1       2.456  43.378  70.194  1.00  0.00    -0.000 C 
BRANCH  30  31
ATOM     31  C   UNL     1       3.258  43.773  71.440  1.00  0.00    -0.003 C 
ATOM     32  C   UNL     1       4.727  44.005  71.102  1.00  0.00     0.004 C 
ENDBRANCH  30  31
ENDBRANCH  29  30
ENDBRANCH  28  29
ENDBRANCH  27  28
ENDBRANCH  26  27
ENDBRANCH  25  26
ENDBRANCH  24  25
ENDBRANCH  23  24
ENDBRANCH  22  23
ENDBRANCH  21  22
ENDBRANCH  20  21
ENDBRANCH  19  20
ENDBRANCH  18  19
ENDBRANCH   1  18
TORSDOF 28
ENDMDL
MODEL 8
REMARK VINA RESULT:    -4.685      3.216      8.664
REMARK INTER + INTRA:         -14.958
REMARK INTER:                 -12.061
REMARK INTRA:                  -2.897
REMARK UNBOUND:                -2.604
REMARK SMILES CCCCCCCCCCCCCCCCCCCCCCCCCCCCCC(=O)[O-]
REMARK SMILES IDX 16 1 17 2 18 3 19 4 20 5 21 6 22 7 23 8 24 9 25 10 26 11
REMARK SMILES IDX 27 12 28 13 29 14 30 15 31 16 32 17 15 18 14 19 13 20 12 21
REMARK SMILES IDX 11 22 10 23 9 24 8 25 7 26 6 27 5 28 4 29 3 30 2 31 1 32
REMARK H PARENT
REMARK Flexibility Score: inf
ROOT
ATOM      1  C   UNL     1      13.289  44.059  75.457  1.00  0.00     0.000 C 
ENDROOT
BRANCH   1   2
ATOM      2  C   UNL     1      14.766  44.357  75.134  1.00  0.00     0.000 C 
BRANCH   2   3
ATOM      3  C   UNL     1      14.980  45.657  74.326  1.00  0.00     0.000 C 
BRANCH   3   4
ATOM      4  C   UNL     1      16.160  46.517  74.813  1.00  0.00     0.000 C 
BRANCH   4   5
ATOM      5  C   UNL     1      16.906  47.212  73.663  1.00  0.00     0.000 C 
BRANCH   5   6
ATOM      6  C   UNL     1      18.415  46.936  73.743  1.00  0.00     0.000 C 
BRANCH   6   7
ATOM      7  C   UNL     1      18.739  45.576  74.380  1.00  0.00     0.000 C 
BRANCH   7   8
ATOM      8  C   UNL     1      19.324  44.572  73.375  1.00  0.00     0.000 C 
BRANCH   8   9
ATOM      9  C   UNL     1      18.275  43.525  72.973  1.00  0.00     0.000 C 
BRANCH   9  10
ATOM     10  C   UNL     1      18.509  42.154  73.630  1.00  0.00     0.000 C 
BRANCH  10  11
ATOM     11  C   UNL     1      17.302  41.587  74.399  1.00  0.00     0.000 C 
BRANCH  11  12
ATOM     12  C   UNL     1      17.525  40.148  74.888  1.00  0.00     0.000 C 
BRANCH  12  13
ATOM     13  C   UNL     1      18.625  40.098  75.959  1.00  0.00     0.006 C 
BRANCH  13  14
ATOM     14  C   UNL     1      18.060  40.225  77.380  1.00  0.00     0.053 C 
BRANCH  14  15
ATOM     15  C   UNL     1      18.561  41.454  78.080  1.00  0.00     0.041 C 
ATOM     16  O   UNL     1      18.011  41.849  79.142  1.00  0.00    -0.550 OA
ATOM     17  O   UNL     1      19.648  42.150  77.567  1.00  0.00    -0.550 OA
ENDBRANCH  14  15
ENDBRANCH  13  14
ENDBRANCH  12  13
ENDBRANCH  11  12
ENDBRANCH  10  11
ENDBRANCH   9  10
ENDBRANCH   8   9
ENDBRANCH   7   8
ENDBRANCH   6   7
ENDBRANCH   5   6
ENDBRANCH   4   5
ENDBRANCH   3   4
ENDBRANCH   2   3
ENDBRANCH   1   2
BRANCH   1  18
ATOM     18  C   UNL     1      12.278  45.027  74.817  1.00  0.00     0.000 C 
BRANCH  18  19
ATOM     19  C   UNL     1      11.532  45.943  75.810  1.00  0.00     0.000 C 
BRANCH  19  20
ATOM     20  C   UNL     1      11.435  47.423  75.389  1.00  0.00     0.000 C 
BRANCH  20  21
ATOM     21  C   UNL     1      11.270  47.656  73.877  1.00  0.00     0.000 C 
BRANCH  21  22
ATOM     22  C   UNL     1      12.541  48.231  73.226  1.00  0.00     0.000 C 
BRANCH  22  23
ATOM     23  C   UNL     1      12.480  48.209  71.692  1.00  0.00     0.000 C 
BRANCH  23  24
ATOM     24  C   UNL     1      11.040  48.107  71.159  1.00  0.00    -0.000 C 
BRANCH  24  25
ATOM     25  C   UNL     1      10.513  49.452  70.634  1.00  0.00    -0.000 C 
BRANCH  25  26
ATOM     26  C   UNL     1       9.050  49.368  70.165  1.00  0.00    -0.000 C 
BRANCH  26  27
ATOM     27  C   UNL     1       8.330  48.122  70.707  1.00  0.00    -0.000 C 
BRANCH  27  28
ATOM     28  C   UNL     1       7.311  47.552  69.705  1.00  0.00    -0.000 C 
BRANCH  28  29
ATOM     29  C   UNL     1       7.906  47.355  68.302  1.00  0.00    -0.000 C 
BRANCH  29  30
ATOM     30  C   UNL     1       7.179  48.180  67.231  1.00  0.00    -0.000 C 
BRANCH  30  31
ATOM     31  C   UNL     1       5.716  47.738  67.100  1.00  0.00    -0.003 C 
ATOM     32  C   UNL     1       5.357  47.434  65.649  1.00  0.00     0.004 C 
ENDBRANCH  30  31
ENDBRANCH  29  30
ENDBRANCH  28  29
ENDBRANCH  27  28
ENDBRANCH  26  27
ENDBRANCH  25  26
ENDBRANCH  24  25
ENDBRANCH  23  24
ENDBRANCH  22  23
ENDBRANCH  21  22
ENDBRANCH  20  21
ENDBRANCH  19  20
ENDBRANCH  18  19
ENDBRANCH   1  18
TORSDOF 28
ENDMDL
MODEL 9
REMARK VINA RESULT:    -4.631      1.492      2.264
REMARK INTER + INTRA:         -14.814
REMARK INTER:                 -12.278
REMARK INTRA:                  -2.536
REMARK UNBOUND:                -2.604
REMARK SMILES CCCCCCCCCCCCCCCCCCCCCCCCCCCCCC(=O)[O-]
REMARK SMILES IDX 16 1 17 2 18 3 19 4 20 5 21 6 22 7 23 8 24 9 25 10 26 11
REMARK SMILES IDX 27 12 28 13 29 14 30 15 31 16 32 17 15 18 14 19 13 20 12 21
REMARK SMILES IDX 11 22 10 23 9 24 8 25 7 26 6 27 5 28 4 29 3 30 2 31 1 32
REMARK H PARENT
REMARK Flexibility Score: inf
ROOT
ATOM      1  C   UNL     1       8.353  47.851  68.898  1.00  0.00     0.000 C 
ENDROOT
BRANCH   1   2
ATOM      2  C   UNL     1       8.137  47.888  70.422  1.00  0.00     0.000 C 
BRANCH   2   3
ATOM      3  C   UNL     1       9.268  48.601  71.198  1.00  0.00     0.000 C 
BRANCH   3   4
ATOM      4  C   UNL     1      10.685  48.127  70.827  1.00  0.00     0.000 C 
BRANCH   4   5
ATOM      5  C   UNL     1      11.784  49.048  71.379  1.00  0.00     0.000 C 
BRANCH   5   6
ATOM      6  C   UNL     1      12.869  48.234  72.102  1.00  0.00     0.000 C 
BRANCH   6   7
ATOM      7  C   UNL     1      13.803  49.108  72.953  1.00  0.00     0.000 C 
BRANCH   7   8
ATOM      8  C   UNL     1      14.988  49.668  72.152  1.00  0.00     0.000 C 
BRANCH   8   9
ATOM      9  C   UNL     1      16.100  48.617  72.013  1.00  0.00     0.000 C 
BRANCH   9  10
ATOM     10  C   UNL     1      17.030  48.558  73.238  1.00  0.00     0.000 C 
BRANCH  10  11
ATOM     11  C   UNL     1      17.304  47.143  73.778  1.00  0.00     0.000 C 
BRANCH  11  12
ATOM     12  C   UNL     1      16.219  46.651  74.748  1.00  0.00     0.000 C 
BRANCH  12  13
ATOM     13  C   UNL     1      15.228  45.719  74.034  1.00  0.00     0.006 C 
BRANCH  13  14
ATOM     14  C   UNL     1      14.900  44.472  74.867  1.00  0.00     0.053 C 
BRANCH  14  15
ATOM     15  C   UNL     1      15.174  43.203  74.117  1.00  0.00     0.041 C 
ATOM     16  O   UNL     1      14.258  42.356  73.944  1.00  0.00    -0.550 OA
ATOM     17  O   UNL     1      16.438  42.965  73.592  1.00  0.00    -0.550 OA
ENDBRANCH  14  15
ENDBRANCH  13  14
ENDBRANCH  12  13
ENDBRANCH  11  12
ENDBRANCH  10  11
ENDBRANCH   9  10
ENDBRANCH   8   9
ENDBRANCH   7   8
ENDBRANCH   6   7
ENDBRANCH   5   6
ENDBRANCH   4   5
ENDBRANCH   3   4
ENDBRANCH   2   3
ENDBRANCH   1   2
BRANCH   1  18
ATOM     18  C   UNL     1       7.098  47.513  68.072  1.00  0.00     0.000 C 
BRANCH  18  19
ATOM     19  C   UNL     1       5.875  48.415  68.344  1.00  0.00     0.000 C 
BRANCH  19  20
ATOM     20  C   UNL     1       5.929  49.806  67.684  1.00  0.00     0.000 C 
BRANCH  20  21
ATOM     21  C   UNL     1       5.072  49.953  66.414  1.00  0.00     0.000 C 
BRANCH  21  22
ATOM     22  C   UNL     1       5.813  49.492  65.146  1.00  0.00     0.000 C 
BRANCH  22  23
ATOM     23  C   UNL     1       4.973  48.535  64.287  1.00  0.00     0.000 C 
BRANCH  23  24
ATOM     24  C   UNL     1       5.048  47.079  64.779  1.00  0.00    -0.000 C 
BRANCH  24  25
ATOM     25  C   UNL     1       3.699  46.568  65.307  1.00  0.00    -0.000 C 
BRANCH  25  26
ATOM     26  C   UNL     1       3.834  45.841  66.656  1.00  0.00    -0.000 C 
BRANCH  26  27
ATOM     27  C   UNL     1       3.197  44.441  66.636  1.00  0.00    -0.000 C 
BRANCH  27  28
ATOM     28  C   UNL     1       2.375  44.152  67.905  1.00  0.00    -0.000 C 
BRANCH  28  29
ATOM     29  C   UNL     1       3.100  43.210  68.879  1.00  0.00    -0.000 C 
BRANCH  29  30
ATOM     30  C   UNL     1       2.488  43.234  70.287  1.00  0.00    -0.000 C 
BRANCH  30  31
ATOM     31  C   UNL     1       3.539  43.626  71.332  1.00  0.00    -0.003 C 
ATOM     32  C   UNL     1       4.710  44.364  70.691  1.00  0.00     0.004 C 
ENDBRANCH  30  31
ENDBRANCH  29  30
ENDBRANCH  28  29
ENDBRANCH  27  28
ENDBRANCH  26  27
ENDBRANCH  25  26
ENDBRANCH  24  25
ENDBRANCH  23  24
ENDBRANCH  22  23
ENDBRANCH  21  22
ENDBRANCH  20  21
ENDBRANCH  19  20
ENDBRANCH  18  19
ENDBRANCH   1  18
TORSDOF 28
ENDMDL
