MODEL 1
REMARK VINA RESULT:    -6.525      0.000      0.000
REMARK INTER + INTRA:         -10.723
REMARK INTER:                 -10.148
REMARK INTRA:                  -0.575
REMARK UNBOUND:                -0.575
REMARK SMILES COc1cc(CNC(=O)CCCCC=CC(C)C)ccc1O
REMARK SMILES IDX 11 1 12 2 13 3 14 4 15 5 16 6 17 7 18 8 10 9 8 10 9 11 7 12
REMARK SMILES IDX 6 14 5 15 4 16 19 17 3 18 20 19 21 20 2 21 1 22 22 23
REMARK H PARENT 7 13 22 24
REMARK Flexibility Score: inf
ROOT
ATOM      1  C   UNL     1       8.982  13.485 -19.749  1.00  0.00     0.010 C 
ENDROOT
BRANCH   1   2
ATOM      2  C   UNL     1       8.306  13.972 -21.040  1.00  0.00     0.005 C 
BRANCH   2   3
ATOM      3  C   UNL     1       8.443  15.491 -21.224  1.00  0.00     0.027 C 
BRANCH   3   4
ATOM      4  C   UNL     1       9.246  15.843 -22.447  1.00  0.00    -0.031 C 
ATOM      5  C   UNL     1       8.662  16.026 -23.643  1.00  0.00    -0.028 C 
BRANCH   5   6
ATOM      6  C   UNL     1       9.437  16.424 -24.879  1.00  0.00     0.005 C 
ATOM      7  C   UNL     1       8.931  15.686 -26.125  1.00  0.00     0.012 C 
ATOM      8  C   UNL     1      10.941  16.209 -24.680  1.00  0.00     0.012 C 
ENDBRANCH   5   6
ENDBRANCH   3   4
ENDBRANCH   2   3
ENDBRANCH   1   2
BRANCH   1   9
ATOM      9  C   UNL     1       8.556  12.055 -19.406  1.00  0.00     0.100 C 
BRANCH   9  10
ATOM     10  C   UNL     1       9.590  11.399 -18.540  1.00  0.00     0.220 C 
ATOM     11  O   UNL     1      10.102  12.049 -17.587  1.00  0.00    -0.275 OA
ATOM     12  N   UNL     1       9.951  10.027 -18.759  1.00  0.00    -0.352 N 
ATOM     13  H   UNL     1       9.525   9.509 -19.561  1.00  0.00     0.163 HD
BRANCH  12  14
ATOM     14  C   UNL     1      10.861   9.305 -17.872  1.00  0.00     0.151 C 
BRANCH  14  15
ATOM     15  C   UNL     1      10.089   8.578 -16.804  1.00  0.00    -0.025 A 
ATOM     16  C   UNL     1       9.031   7.725 -17.159  1.00  0.00     0.056 A 
ATOM     17  C   UNL     1      10.421   8.738 -15.451  1.00  0.00     0.009 A 
ATOM     18  C   UNL     1       8.303   7.037 -16.168  1.00  0.00     0.160 A 
ATOM     19  C   UNL     1       9.704   8.059 -14.465  1.00  0.00     0.050 A 
ATOM     20  C   UNL     1       8.648   7.213 -14.815  1.00  0.00     0.157 A 
BRANCH  18  21
ATOM     21  O   UNL     1       7.240   6.177 -16.489  1.00  0.00    -0.493 OA
ATOM     22  C   UNL     1       6.964   5.685 -17.798  1.00  0.00     0.278 C 
ENDBRANCH  18  21
BRANCH  20  23
ATOM     23  O   UNL     1       7.953   6.551 -13.802  1.00  0.00    -0.504 OA
ATOM     24  H   UNL     1       7.704   5.569 -13.867  1.00  0.00     0.293 HD
ENDBRANCH  20  23
ENDBRANCH  14  15
ENDBRANCH  12  14
ENDBRANCH   9  10
ENDBRANCH   1   9
TORSDOF 10
ENDMDL
MODEL 2
REMARK VINA RESULT:    -6.497      2.616      9.783
REMARK INTER + INTRA:         -10.680
REMARK INTER:                  -9.943
REMARK INTRA:                  -0.738
REMARK UNBOUND:                -0.575
REMARK SMILES COc1cc(CNC(=O)CCCCC=CC(C)C)ccc1O
REMARK SMILES IDX 11 1 12 2 13 3 14 4 15 5 16 6 17 7 18 8 10 9 8 10 9 11 7 12
REMARK SMILES IDX 6 14 5 15 4 16 19 17 3 18 20 19 21 20 2 21 1 22 22 23
REMARK H PARENT 7 13 22 24
REMARK Flexibility Score: inf
ROOT
ATOM      1  C   UNL     1      10.432   9.652 -16.090  1.00  0.00     0.010 C 
ENDROOT
BRANCH   1   2
ATOM      2  C   UNL     1      10.587   8.257 -15.463  1.00  0.00     0.005 C 
BRANCH   2   3
ATOM      3  C   UNL     1       9.237   7.537 -15.320  1.00  0.00     0.027 C 
BRANCH   3   4
ATOM      4  C   UNL     1       8.315   8.248 -14.367  1.00  0.00    -0.031 C 
ATOM      5  C   UNL     1       7.615   7.579 -13.435  1.00  0.00    -0.028 C 
BRANCH   5   6
ATOM      6  C   UNL     1       6.715   8.271 -12.436  1.00  0.00     0.005 C 
ATOM      7  C   UNL     1       6.789   9.798 -12.572  1.00  0.00     0.012 C 
ATOM      8  C   UNL     1       7.035   7.826 -11.005  1.00  0.00     0.012 C 
ENDBRANCH   5   6
ENDBRANCH   3   4
ENDBRANCH   2   3
ENDBRANCH   1   2
BRANCH   1   9
ATOM      9  C   UNL     1      10.542   9.588 -17.616  1.00  0.00     0.100 C 
BRANCH   9  10
ATOM     10  C   UNL     1       9.414  10.349 -18.249  1.00  0.00     0.220 C 
ATOM     11  O   UNL     1       8.245  10.214 -17.794  1.00  0.00    -0.275 OA
ATOM     12  N   UNL     1       9.674  11.264 -19.323  1.00  0.00    -0.352 N 
ATOM     13  H   UNL     1      10.648  11.351 -19.695  1.00  0.00     0.163 HD
BRANCH  12  14
ATOM     14  C   UNL     1       8.635  12.118 -19.894  1.00  0.00     0.151 C 
BRANCH  14  15
ATOM     15  C   UNL     1       8.975  13.570 -19.690  1.00  0.00    -0.025 A 
ATOM     16  C   UNL     1       8.605  14.520 -20.655  1.00  0.00     0.056 A 
ATOM     17  C   UNL     1       9.657  13.986 -18.538  1.00  0.00     0.009 A 
ATOM     18  C   UNL     1       8.916  15.883 -20.475  1.00  0.00     0.160 A 
ATOM     19  C   UNL     1       9.969  15.333 -18.353  1.00  0.00     0.050 A 
ATOM     20  C   UNL     1       9.605  16.282 -19.313  1.00  0.00     0.157 A 
BRANCH  18  21
ATOM     21  O   UNL     1       8.561  16.858 -21.420  1.00  0.00    -0.493 OA
ATOM     22  C   UNL     1       8.613  16.674 -22.832  1.00  0.00     0.278 C 
ENDBRANCH  18  21
BRANCH  20  23
ATOM     23  O   UNL     1       9.934  17.621 -19.095  1.00  0.00    -0.504 OA
ATOM     24  H   UNL     1      10.849  17.907 -18.765  1.00  0.00     0.293 HD
ENDBRANCH  20  23
ENDBRANCH  14  15
ENDBRANCH  12  14
ENDBRANCH   9  10
ENDBRANCH   1   9
TORSDOF 10
ENDMDL
MODEL 3
REMARK VINA RESULT:    -6.458      1.751      2.301
REMARK INTER + INTRA:         -10.620
REMARK INTER:                 -10.097
REMARK INTRA:                  -0.523
REMARK UNBOUND:                -0.575
REMARK SMILES COc1cc(CNC(=O)CCCCC=CC(C)C)ccc1O
REMARK SMILES IDX 11 1 12 2 13 3 14 4 15 5 16 6 17 7 18 8 10 9 8 10 9 11 7 12
REMARK SMILES IDX 6 14 5 15 4 16 19 17 3 18 20 19 21 20 2 21 1 22 22 23
REMARK H PARENT 7 13 22 24
REMARK Flexibility Score: inf
ROOT
ATOM      1  C   UNL     1       8.578  14.562 -19.703  1.00  0.00     0.010 C 
ENDROOT
BRANCH   1   2
ATOM      2  C   UNL     1       8.473  14.750 -21.225  1.00  0.00     0.005 C 
BRANCH   2   3
ATOM      3  C   UNL     1       8.670  16.216 -21.639  1.00  0.00     0.027 C 
BRANCH   3   4
ATOM      4  C   UNL     1       8.734  16.378 -23.133  1.00  0.00    -0.031 C 
ATOM      5  C   UNL     1       9.881  16.207 -23.811  1.00  0.00    -0.028 C 
BRANCH   5   6
ATOM      6  C   UNL     1       9.966  16.320 -25.317  1.00  0.00     0.005 C 
ATOM      7  C   UNL     1       8.720  15.738 -25.997  1.00  0.00     0.012 C 
ATOM      8  C   UNL     1      11.245  15.664 -25.848  1.00  0.00     0.012 C 
ENDBRANCH   5   6
ENDBRANCH   3   4
ENDBRANCH   2   3
ENDBRANCH   1   2
BRANCH   1   9
ATOM      9  C   UNL     1       8.538  13.079 -19.324  1.00  0.00     0.100 C 
BRANCH   9  10
ATOM     10  C   UNL     1       9.502  12.803 -18.208  1.00  0.00     0.220 C 
ATOM     11  O   UNL     1       9.942  13.764 -17.519  1.00  0.00    -0.275 OA
ATOM     12  N   UNL     1       9.875  11.453 -17.894  1.00  0.00    -0.352 N 
ATOM     13  H   UNL     1       9.509  10.672 -18.485  1.00  0.00     0.163 HD
BRANCH  12  14
ATOM     14  C   UNL     1      10.713  11.120 -16.744  1.00  0.00     0.151 C 
BRANCH  14  15
ATOM     15  C   UNL     1      10.020  10.119 -15.859  1.00  0.00    -0.025 A 
ATOM     16  C   UNL     1       8.879  10.495 -15.132  1.00  0.00     0.056 A 
ATOM     17  C   UNL     1      10.502   8.806 -15.756  1.00  0.00     0.009 A 
ATOM     18  C   UNL     1       8.221   9.566 -14.302  1.00  0.00     0.160 A 
ATOM     19  C   UNL     1       9.855   7.882 -14.936  1.00  0.00     0.050 A 
ATOM     20  C   UNL     1       8.721   8.253 -14.208  1.00  0.00     0.157 A 
BRANCH  18  21
ATOM     21  O   UNL     1       7.077   9.910 -13.562  1.00  0.00    -0.493 OA
ATOM     22  C   UNL     1       6.269  11.057 -13.808  1.00  0.00     0.278 C 
ENDBRANCH  18  21
BRANCH  20  23
ATOM     23  O   UNL     1       8.100   7.302 -13.397  1.00  0.00    -0.504 OA
ATOM     24  H   UNL     1       7.105   7.323 -13.202  1.00  0.00     0.293 HD
ENDBRANCH  20  23
ENDBRANCH  14  15
ENDBRANCH  12  14
ENDBRANCH   9  10
ENDBRANCH   1   9
TORSDOF 10
ENDMDL
MODEL 4
REMARK VINA RESULT:    -6.394      2.639      3.833
REMARK INTER + INTRA:         -10.519
REMARK INTER:                  -9.873
REMARK INTRA:                  -0.646
REMARK UNBOUND:                -0.575
REMARK SMILES COc1cc(CNC(=O)CCCCC=CC(C)C)ccc1O
REMARK SMILES IDX 11 1 12 2 13 3 14 4 15 5 16 6 17 7 18 8 10 9 8 10 9 11 7 12
REMARK SMILES IDX 6 14 5 15 4 16 19 17 3 18 20 19 21 20 2 21 1 22 22 23
REMARK H PARENT 7 13 22 24
REMARK Flexibility Score: inf
ROOT
ATOM      1  C   UNL     1       9.005  14.066 -20.043  1.00  0.00     0.010 C 
ENDROOT
BRANCH   1   2
ATOM      2  C   UNL     1       8.037  14.952 -20.844  1.00  0.00     0.005 C 
BRANCH   2   3
ATOM      3  C   UNL     1       8.624  16.346 -21.116  1.00  0.00     0.027 C 
BRANCH   3   4
ATOM      4  C   UNL     1       8.725  16.640 -22.588  1.00  0.00    -0.031 C 
ATOM      5  C   UNL     1       9.689  16.098 -23.350  1.00  0.00    -0.028 C 
BRANCH   5   6
ATOM      6  C   UNL     1       9.788  16.341 -24.839  1.00  0.00     0.005 C 
ATOM      7  C   UNL     1       8.571  15.779 -25.585  1.00  0.00     0.012 C 
ATOM      8  C   UNL     1      11.095  15.774 -25.405  1.00  0.00     0.012 C 
ENDBRANCH   5   6
ENDBRANCH   3   4
ENDBRANCH   2   3
ENDBRANCH   1   2
BRANCH   1   9
ATOM      9  C   UNL     1       8.997  12.626 -20.564  1.00  0.00     0.100 C 
BRANCH   9  10
ATOM     10  C   UNL     1       8.743  11.669 -19.437  1.00  0.00     0.220 C 
ATOM     11  O   UNL     1       7.556  11.344 -19.157  1.00  0.00    -0.275 OA
ATOM     12  N   UNL     1       9.843  11.087 -18.722  1.00  0.00    -0.352 N 
ATOM     13  H   UNL     1      10.818  11.380 -18.960  1.00  0.00     0.163 HD
BRANCH  12  14
ATOM     14  C   UNL     1       9.657  10.060 -17.699  1.00  0.00     0.151 C 
BRANCH  14  15
ATOM     15  C   UNL     1       9.266  10.688 -16.388  1.00  0.00    -0.025 A 
ATOM     16  C   UNL     1       9.641  12.010 -16.101  1.00  0.00     0.056 A 
ATOM     17  C   UNL     1       8.520   9.963 -15.447  1.00  0.00     0.009 A 
ATOM     18  C   UNL     1       9.279  12.609 -14.879  1.00  0.00     0.160 A 
ATOM     19  C   UNL     1       8.158  10.550 -14.234  1.00  0.00     0.050 A 
ATOM     20  C   UNL     1       8.534  11.865 -13.944  1.00  0.00     0.157 A 
BRANCH  18  21
ATOM     21  O   UNL     1       9.639  13.929 -14.561  1.00  0.00    -0.493 OA
ATOM     22  C   UNL     1      10.742  14.627 -15.133  1.00  0.00     0.278 C 
ENDBRANCH  18  21
BRANCH  20  23
ATOM     23  O   UNL     1       8.154  12.419 -12.720  1.00  0.00    -0.504 OA
ATOM     24  H   UNL     1       8.383  11.983 -11.833  1.00  0.00     0.293 HD
ENDBRANCH  20  23
ENDBRANCH  14  15
ENDBRANCH  12  14
ENDBRANCH   9  10
ENDBRANCH   1   9
TORSDOF 10
ENDMDL
MODEL 5
REMARK VINA RESULT:    -6.315      2.633      3.356
REMARK INTER + INTRA:         -10.397
REMARK INTER:                  -9.738
REMARK INTRA:                  -0.659
REMARK UNBOUND:                -0.575
REMARK SMILES COc1cc(CNC(=O)CCCCC=CC(C)C)ccc1O
REMARK SMILES IDX 11 1 12 2 13 3 14 4 15 5 16 6 17 7 18 8 10 9 8 10 9 11 7 12
REMARK SMILES IDX 6 14 5 15 4 16 19 17 3 18 20 19 21 20 2 21 1 22 22 23
REMARK H PARENT 7 13 22 24
REMARK Flexibility Score: inf
ROOT
ATOM      1  C   UNL     1       8.964  14.338 -19.983  1.00  0.00     0.010 C 
ENDROOT
BRANCH   1   2
ATOM      2  C   UNL     1       8.428  14.747 -21.364  1.00  0.00     0.005 C 
BRANCH   2   3
ATOM      3  C   UNL     1       8.795  16.196 -21.718  1.00  0.00     0.027 C 
BRANCH   3   4
ATOM      4  C   UNL     1       8.857  16.418 -23.205  1.00  0.00    -0.031 C 
ATOM      5  C   UNL     1       9.972  16.160 -23.908  1.00  0.00    -0.028 C 
BRANCH   5   6
ATOM      6  C   UNL     1      10.050  16.330 -25.409  1.00  0.00     0.005 C 
ATOM      7  C   UNL     1       8.769  15.843 -26.099  1.00  0.00     0.012 C 
ATOM      8  C   UNL     1      11.288  15.632 -25.980  1.00  0.00     0.012 C 
ENDBRANCH   5   6
ENDBRANCH   3   4
ENDBRANCH   2   3
ENDBRANCH   1   2
BRANCH   1   9
ATOM      9  C   UNL     1       9.452  15.557 -19.195  1.00  0.00     0.100 C 
BRANCH   9  10
ATOM     10  C   UNL     1      10.012  15.129 -17.871  1.00  0.00     0.220 C 
ATOM     11  O   UNL     1      11.234  15.322 -17.625  1.00  0.00    -0.275 OA
ATOM     12  N   UNL     1       9.152  14.557 -16.874  1.00  0.00    -0.352 N 
ATOM     13  H   UNL     1       8.145  14.393 -17.102  1.00  0.00     0.163 HD
BRANCH  12  14
ATOM     14  C   UNL     1       9.620  14.235 -15.528  1.00  0.00     0.151 C 
BRANCH  14  15
ATOM     15  C   UNL     1       9.232  12.828 -15.158  1.00  0.00    -0.025 A 
ATOM     16  C   UNL     1       9.671  11.749 -15.942  1.00  0.00     0.056 A 
ATOM     17  C   UNL     1       8.438  12.582 -14.029  1.00  0.00     0.009 A 
ATOM     18  C   UNL     1       9.317  10.428 -15.605  1.00  0.00     0.160 A 
ATOM     19  C   UNL     1       8.083  11.276 -13.689  1.00  0.00     0.050 A 
ATOM     20  C   UNL     1       8.516  10.200 -14.469  1.00  0.00     0.157 A 
BRANCH  18  21
ATOM     21  O   UNL     1       9.740   9.326 -16.367  1.00  0.00    -0.493 OA
ATOM     22  C   UNL     1      10.484   9.419 -17.579  1.00  0.00     0.278 C 
ENDBRANCH  18  21
BRANCH  20  23
ATOM     23  O   UNL     1       8.141   8.907 -14.100  1.00  0.00    -0.504 OA
ATOM     24  H   UNL     1       7.761   8.242 -14.765  1.00  0.00     0.293 HD
ENDBRANCH  20  23
ENDBRANCH  14  15
ENDBRANCH  12  14
ENDBRANCH   9  10
ENDBRANCH   1   9
TORSDOF 10
ENDMDL
MODEL 6
REMARK VINA RESULT:    -6.311      2.429      3.723
REMARK INTER + INTRA:         -10.391
REMARK INTER:                  -9.597
REMARK INTRA:                  -0.793
REMARK UNBOUND:                -0.575
REMARK SMILES COc1cc(CNC(=O)CCCCC=CC(C)C)ccc1O
REMARK SMILES IDX 11 1 12 2 13 3 14 4 15 5 16 6 17 7 18 8 10 9 8 10 9 11 7 12
REMARK SMILES IDX 6 14 5 15 4 16 19 17 3 18 20 19 21 20 2 21 1 22 22 23
REMARK H PARENT 7 13 22 24
REMARK Flexibility Score: inf
ROOT
ATOM      1  C   UNL     1       9.709  15.902 -19.846  1.00  0.00     0.010 C 
ENDROOT
BRANCH   1   2
ATOM      2  C   UNL     1       8.985  15.615 -21.171  1.00  0.00     0.005 C 
BRANCH   2   3
ATOM      3  C   UNL     1       8.376  16.886 -21.782  1.00  0.00     0.027 C 
BRANCH   3   4
ATOM      4  C   UNL     1       8.637  16.985 -23.261  1.00  0.00    -0.031 C 
ATOM      5  C   UNL     1       9.646  16.315 -23.843  1.00  0.00    -0.028 C 
BRANCH   5   6
ATOM      6  C   UNL     1       9.904  16.361 -25.333  1.00  0.00     0.005 C 
ATOM      7  C   UNL     1       8.754  15.727 -26.125  1.00  0.00     0.012 C 
ATOM      8  C   UNL     1      11.245  15.704 -25.680  1.00  0.00     0.012 C 
ENDBRANCH   5   6
ENDBRANCH   3   4
ENDBRANCH   2   3
ENDBRANCH   1   2
BRANCH   1   9
ATOM      9  C   UNL     1       8.773  16.580 -18.841  1.00  0.00     0.100 C 
BRANCH   9  10
ATOM     10  C   UNL     1       8.451  15.639 -17.718  1.00  0.00     0.220 C 
ATOM     11  O   UNL     1       7.246  15.456 -17.391  1.00  0.00    -0.275 OA
ATOM     12  N   UNL     1       9.500  14.912 -17.061  1.00  0.00    -0.352 N 
ATOM     13  H   UNL     1      10.493  15.087 -17.337  1.00  0.00     0.163 HD
BRANCH  12  14
ATOM     14  C   UNL     1       9.231  13.896 -16.046  1.00  0.00     0.151 C 
BRANCH  14  15
ATOM     15  C   UNL     1       9.445  12.517 -16.611  1.00  0.00    -0.025 A 
ATOM     16  C   UNL     1       9.696  11.436 -15.752  1.00  0.00     0.056 A 
ATOM     17  C   UNL     1       9.389  12.299 -17.996  1.00  0.00     0.009 A 
ATOM     18  C   UNL     1       9.895  10.140 -16.269  1.00  0.00     0.160 A 
ATOM     19  C   UNL     1       9.586  11.019 -18.515  1.00  0.00     0.050 A 
ATOM     20  C   UNL     1       9.840   9.941 -17.662  1.00  0.00     0.157 A 
BRANCH  18  21
ATOM     21  O   UNL     1      10.149   9.038 -15.437  1.00  0.00    -0.493 OA
ATOM     22  C   UNL     1       9.142   8.268 -14.786  1.00  0.00     0.278 C 
ENDBRANCH  18  21
BRANCH  20  23
ATOM     23  O   UNL     1      10.032   8.675 -18.217  1.00  0.00    -0.504 OA
ATOM     24  H   UNL     1      10.783   8.061 -17.919  1.00  0.00     0.293 HD
ENDBRANCH  20  23
ENDBRANCH  14  15
ENDBRANCH  12  14
ENDBRANCH   9  10
ENDBRANCH   1   9
TORSDOF 10
ENDMDL
MODEL 7
REMARK VINA RESULT:    -6.309      1.777      2.168
REMARK INTER + INTRA:         -10.388
REMARK INTER:                  -9.754
REMARK INTRA:                  -0.634
REMARK UNBOUND:                -0.575
REMARK SMILES COc1cc(CNC(=O)CCCCC=CC(C)C)ccc1O
REMARK SMILES IDX 11 1 12 2 13 3 14 4 15 5 16 6 17 7 18 8 10 9 8 10 9 11 7 12
REMARK SMILES IDX 6 14 5 15 4 16 19 17 3 18 20 19 21 20 2 21 1 22 22 23
REMARK H PARENT 7 13 22 24
REMARK Flexibility Score: inf
ROOT
ATOM      1  C   UNL     1       9.045  13.740 -20.505  1.00  0.00     0.010 C 
ENDROOT
BRANCH   1   2
ATOM      2  C   UNL     1       7.964  14.676 -21.068  1.00  0.00     0.005 C 
BRANCH   2   3
ATOM      3  C   UNL     1       8.453  16.129 -21.163  1.00  0.00     0.027 C 
BRANCH   3   4
ATOM      4  C   UNL     1       9.246  16.378 -22.417  1.00  0.00    -0.031 C 
ATOM      5  C   UNL     1       8.723  16.161 -23.635  1.00  0.00    -0.028 C 
BRANCH   5   6
ATOM      6  C   UNL     1       9.481  16.446 -24.913  1.00  0.00     0.005 C 
ATOM      7  C   UNL     1       8.880  15.689 -26.105  1.00  0.00     0.012 C 
ATOM      8  C   UNL     1      10.972  16.133 -24.751  1.00  0.00     0.012 C 
ENDBRANCH   5   6
ENDBRANCH   3   4
ENDBRANCH   2   3
ENDBRANCH   1   2
BRANCH   1   9
ATOM      9  C   UNL     1       9.053  13.760 -18.974  1.00  0.00     0.100 C 
BRANCH   9  10
ATOM     10  C   UNL     1       9.157  12.363 -18.438  1.00  0.00     0.220 C 
ATOM     11  O   UNL     1       8.436  11.454 -18.934  1.00  0.00    -0.275 OA
ATOM     12  N   UNL     1      10.110  12.053 -17.411  1.00  0.00    -0.352 N 
ATOM     13  H   UNL     1      10.690  12.822 -17.003  1.00  0.00     0.163 HD
BRANCH  12  14
ATOM     14  C   UNL     1      10.338  10.689 -16.939  1.00  0.00     0.151 C 
BRANCH  14  15
ATOM     15  C   UNL     1       9.477  10.396 -15.740  1.00  0.00    -0.025 A 
ATOM     16  C   UNL     1       9.288   9.070 -15.316  1.00  0.00     0.056 A 
ATOM     17  C   UNL     1       8.862  11.440 -15.033  1.00  0.00     0.009 A 
ATOM     18  C   UNL     1       8.487   8.784 -14.193  1.00  0.00     0.160 A 
ATOM     19  C   UNL     1       8.066  11.163 -13.921  1.00  0.00     0.050 A 
ATOM     20  C   UNL     1       7.874   9.845 -13.499  1.00  0.00     0.157 A 
BRANCH  18  21
ATOM     21  O   UNL     1       8.278   7.470 -13.744  1.00  0.00    -0.493 OA
ATOM     22  C   UNL     1       7.813   6.400 -14.560  1.00  0.00     0.278 C 
ENDBRANCH  18  21
BRANCH  20  23
ATOM     23  O   UNL     1       7.071   9.606 -12.382  1.00  0.00    -0.504 OA
ATOM     24  H   UNL     1       6.657  10.357 -11.841  1.00  0.00     0.293 HD
ENDBRANCH  20  23
ENDBRANCH  14  15
ENDBRANCH  12  14
ENDBRANCH   9  10
ENDBRANCH   1   9
TORSDOF 10
ENDMDL
MODEL 8
REMARK VINA RESULT:    -6.199      2.345      3.215
REMARK INTER + INTRA:         -10.217
REMARK INTER:                  -9.571
REMARK INTRA:                  -0.646
REMARK UNBOUND:                -0.575
REMARK SMILES COc1cc(CNC(=O)CCCCC=CC(C)C)ccc1O
REMARK SMILES IDX 11 1 12 2 13 3 14 4 15 5 16 6 17 7 18 8 10 9 8 10 9 11 7 12
REMARK SMILES IDX 6 14 5 15 4 16 19 17 3 18 20 19 21 20 2 21 1 22 22 23
REMARK H PARENT 7 13 22 24
REMARK Flexibility Score: inf
ROOT
ATOM      1  C   UNL     1      10.408  15.027 -17.906  1.00  0.00     0.010 C 
ENDROOT
BRANCH   1   2
ATOM      2  C   UNL     1       9.936  16.101 -18.899  1.00  0.00     0.005 C 
BRANCH   2   3
ATOM      3  C   UNL     1       8.576  15.752 -19.520  1.00  0.00     0.027 C 
BRANCH   3   4
ATOM      4  C   UNL     1       8.448  16.265 -20.929  1.00  0.00    -0.031 C 
ATOM      5  C   UNL     1       8.974  15.599 -21.970  1.00  0.00    -0.028 C 
BRANCH   5   6
ATOM      6  C   UNL     1       8.822  16.067 -23.400  1.00  0.00     0.005 C 
ATOM      7  C   UNL     1      10.184  16.218 -24.092  1.00  0.00     0.012 C 
ATOM      8  C   UNL     1       8.016  17.368 -23.473  1.00  0.00     0.012 C 
ENDBRANCH   5   6
ENDBRANCH   3   4
ENDBRANCH   2   3
ENDBRANCH   1   2
BRANCH   1   9
ATOM      9  C   UNL     1       9.358  13.925 -17.742  1.00  0.00     0.100 C 
BRANCH   9  10
ATOM     10  C   UNL     1       9.352  13.420 -16.329  1.00  0.00     0.220 C 
ATOM     11  O   UNL     1      10.108  13.961 -15.476  1.00  0.00    -0.275 OA
ATOM     12  N   UNL     1       8.453  12.371 -15.941  1.00  0.00    -0.352 N 
ATOM     13  H   UNL     1       7.844  11.926 -16.665  1.00  0.00     0.163 HD
BRANCH  12  14
ATOM     14  C   UNL     1       8.321  11.925 -14.555  1.00  0.00     0.151 C 
BRANCH  14  15
ATOM     15  C   UNL     1       8.435  10.427 -14.471  1.00  0.00    -0.025 A 
ATOM     16  C   UNL     1       7.762   9.727 -13.456  1.00  0.00     0.056 A 
ATOM     17  C   UNL     1       9.205   9.718 -15.404  1.00  0.00     0.009 A 
ATOM     18  C   UNL     1       7.858   8.324 -13.368  1.00  0.00     0.160 A 
ATOM     19  C   UNL     1       9.305   8.329 -15.322  1.00  0.00     0.050 A 
ATOM     20  C   UNL     1       8.640   7.629 -14.311  1.00  0.00     0.157 A 
BRANCH  18  21
ATOM     21  O   UNL     1       7.198   7.595 -12.366  1.00  0.00    -0.493 OA
ATOM     22  C   UNL     1       6.663   8.160 -11.173  1.00  0.00     0.278 C 
ENDBRANCH  18  21
BRANCH  20  23
ATOM     23  O   UNL     1       8.763   6.240 -14.260  1.00  0.00    -0.504 OA
ATOM     24  H   UNL     1       9.196   5.706 -15.007  1.00  0.00     0.293 HD
ENDBRANCH  20  23
ENDBRANCH  14  15
ENDBRANCH  12  14
ENDBRANCH   9  10
ENDBRANCH   1   9
TORSDOF 10
ENDMDL
MODEL 9
REMARK VINA RESULT:    -6.194      2.764     10.013
REMARK INTER + INTRA:         -10.209
REMARK INTER:                  -9.648
REMARK INTRA:                  -0.561
REMARK UNBOUND:                -0.575
REMARK SMILES COc1cc(CNC(=O)CCCCC=CC(C)C)ccc1O
REMARK SMILES IDX 11 1 12 2 13 3 14 4 15 5 16 6 17 7 18 8 10 9 8 10 9 11 7 12
REMARK SMILES IDX 6 14 5 15 4 16 19 17 3 18 20 19 21 20 2 21 1 22 22 23
REMARK H PARENT 7 13 22 24
REMARK Flexibility Score: inf
ROOT
ATOM      1  C   UNL     1      10.360   8.260 -16.276  1.00  0.00     0.010 C 
ENDROOT
BRANCH   1   2
ATOM      2  C   UNL     1       9.016   7.530 -16.429  1.00  0.00     0.005 C 
BRANCH   2   3
ATOM      3  C   UNL     1       8.654   6.722 -15.174  1.00  0.00     0.027 C 
BRANCH   3   4
ATOM      4  C   UNL     1       7.588   7.396 -14.354  1.00  0.00    -0.031 C 
ATOM      5  C   UNL     1       7.748   7.619 -13.040  1.00  0.00    -0.028 C 
BRANCH   5   6
ATOM      6  C   UNL     1       6.713   8.334 -12.200  1.00  0.00     0.005 C 
ATOM      7  C   UNL     1       6.852   9.858 -12.310  1.00  0.00     0.012 C 
ATOM      8  C   UNL     1       6.775   7.875 -10.740  1.00  0.00     0.012 C 
ENDBRANCH   5   6
ENDBRANCH   3   4
ENDBRANCH   2   3
ENDBRANCH   1   2
BRANCH   1   9
ATOM      9  C   UNL     1      10.575   9.267 -17.409  1.00  0.00     0.100 C 
BRANCH   9  10
ATOM     10  C   UNL     1      10.165  10.640 -16.967  1.00  0.00     0.220 C 
ATOM     11  O   UNL     1      10.038  10.881 -15.735  1.00  0.00    -0.275 OA
ATOM     12  N   UNL     1       9.973  11.683 -17.934  1.00  0.00    -0.352 N 
ATOM     13  H   UNL     1      10.069  11.461 -18.950  1.00  0.00     0.163 HD
BRANCH  12  14
ATOM     14  C   UNL     1       9.691  13.065 -17.549  1.00  0.00     0.151 C 
BRANCH  14  15
ATOM     15  C   UNL     1       9.292  13.876 -18.753  1.00  0.00    -0.025 A 
ATOM     16  C   UNL     1       9.303  15.278 -18.692  1.00  0.00     0.056 A 
ATOM     17  C   UNL     1       8.913  13.240 -19.945  1.00  0.00     0.009 A 
ATOM     18  C   UNL     1       8.933  16.047 -19.813  1.00  0.00     0.160 A 
ATOM     19  C   UNL     1       8.546  13.996 -21.059  1.00  0.00     0.050 A 
ATOM     20  C   UNL     1       8.552  15.392 -21.000  1.00  0.00     0.157 A 
BRANCH  18  21
ATOM     21  O   UNL     1       8.933  17.451 -19.784  1.00  0.00    -0.493 OA
ATOM     22  C   UNL     1       8.032  18.245 -19.018  1.00  0.00     0.278 C 
ENDBRANCH  18  21
BRANCH  20  23
ATOM     23  O   UNL     1       8.178  16.116 -22.133  1.00  0.00    -0.504 OA
ATOM     24  H   UNL     1       7.918  17.096 -22.089  1.00  0.00     0.293 HD
ENDBRANCH  20  23
ENDBRANCH  14  15
ENDBRANCH  12  14
ENDBRANCH   9  10
ENDBRANCH   1   9
TORSDOF 10
ENDMDL
