MODEL 1
REMARK VINA RESULT:    -6.104      0.000      0.000
REMARK INTER + INTRA:          -8.185
REMARK INTER:                  -7.531
REMARK INTRA:                  -0.654
REMARK UNBOUND:                -0.654
REMARK SMILES CC(C)=CCC[C@@H](C)c1ccc(C)cc1
REMARK SMILES IDX 6 1 7 2 8 3 9 4 13 5 12 6 11 7 14 8 10 9 15 10 5 11 4 12
REMARK SMILES IDX 2 13 1 14 3 15
REMARK H PARENT
REMARK Flexibility Score: inf
ROOT
ATOM      1  C   UNL     1      12.511  -6.042  18.225  1.00  0.00     0.012 C 
ENDROOT
BRANCH   1   2
ATOM      2  C   UNL     1      12.558  -5.402  16.819  1.00  0.00     0.016 C 
ATOM      3  C   UNL     1      11.335  -4.514  16.540  1.00  0.00     0.013 C 
BRANCH   2   4
ATOM      4  C   UNL     1      13.840  -4.608  16.642  1.00  0.00    -0.045 A 
ATOM      5  C   UNL     1      17.456  -2.302  16.124  1.00  0.00     0.044 C 
ATOM      6  C   UNL     1      16.213  -3.118  16.326  1.00  0.00    -0.051 A 
ATOM      7  C   UNL     1      15.189  -2.650  17.162  1.00  0.00     0.004 A 
ATOM      8  C   UNL     1      16.036  -4.321  15.630  1.00  0.00     0.004 A 
ATOM      9  C   UNL     1      14.015  -3.390  17.322  1.00  0.00     0.004 A 
ATOM     10  C   UNL     1      14.863  -5.063  15.789  1.00  0.00     0.004 A 
ENDBRANCH   2   4
ENDBRANCH   1   2
BRANCH   1  11
ATOM     11  C   UNL     1      11.197  -6.793  18.489  1.00  0.00     0.028 C 
BRANCH  11  12
ATOM     12  C   UNL     1      10.660  -6.461  19.858  1.00  0.00    -0.028 C 
ATOM     13  C   UNL     1       9.525  -5.762  20.084  1.00  0.00    -0.080 C 
ATOM     14  C   UNL     1       8.701  -5.187  18.956  1.00  0.00     0.039 C 
ATOM     15  C   UNL     1       9.088  -5.542  21.510  1.00  0.00     0.039 C 
ENDBRANCH  11  12
ENDBRANCH   1  11
TORSDOF 4
ENDMDL
MODEL 2
REMARK VINA RESULT:    -6.017      2.016      4.244
REMARK INTER + INTRA:          -8.077
REMARK INTER:                  -6.668
REMARK INTRA:                  -1.409
REMARK UNBOUND:                -0.654
REMARK SMILES CC(C)=CCC[C@@H](C)c1ccc(C)cc1
REMARK SMILES IDX 6 1 7 2 8 3 9 4 13 5 12 6 11 7 14 8 10 9 15 10 5 11 4 12
REMARK SMILES IDX 2 13 1 14 3 15
REMARK H PARENT
REMARK Flexibility Score: inf
ROOT
ATOM      1  C   UNL     1       9.124  -5.638  20.665  1.00  0.00     0.012 C 
ENDROOT
BRANCH   1   2
ATOM      2  C   UNL     1       8.853  -5.612  19.143  1.00  0.00     0.016 C 
ATOM      3  C   UNL     1       7.834  -4.532  18.751  1.00  0.00     0.013 C 
BRANCH   2   4
ATOM      4  C   UNL     1      10.151  -5.419  18.379  1.00  0.00    -0.045 A 
ATOM      5  C   UNL     1      13.869  -4.857  16.255  1.00  0.00     0.044 C 
ATOM      6  C   UNL     1      12.570  -5.073  16.972  1.00  0.00    -0.051 A 
ATOM      7  C   UNL     1      12.491  -5.989  18.031  1.00  0.00     0.004 A 
ATOM      8  C   UNL     1      11.442  -4.313  16.635  1.00  0.00     0.004 A 
ATOM      9  C   UNL     1      11.291  -6.163  18.725  1.00  0.00     0.004 A 
ATOM     10  C   UNL     1      10.241  -4.487  17.328  1.00  0.00     0.004 A 
ENDBRANCH   2   4
ENDBRANCH   1   2
BRANCH   1  11
ATOM     11  C   UNL     1       9.010  -4.249  21.310  1.00  0.00     0.028 C 
BRANCH  11  12
ATOM     12  C   UNL     1      10.365  -3.593  21.406  1.00  0.00    -0.028 C 
ATOM     13  C   UNL     1      10.696  -2.432  20.798  1.00  0.00    -0.080 C 
ATOM     14  C   UNL     1       9.731  -1.697  19.897  1.00  0.00     0.039 C 
ATOM     15  C   UNL     1      12.078  -1.873  21.019  1.00  0.00     0.039 C 
ENDBRANCH  11  12
ENDBRANCH   1  11
TORSDOF 4
ENDMDL
MODEL 3
REMARK VINA RESULT:    -5.928      1.104      6.868
REMARK INTER + INTRA:          -7.968
REMARK INTER:                  -7.435
REMARK INTRA:                  -0.533
REMARK UNBOUND:                -0.654
REMARK SMILES CC(C)=CCC[C@@H](C)c1ccc(C)cc1
REMARK SMILES IDX 6 1 7 2 8 3 9 4 13 5 12 6 11 7 14 8 10 9 15 10 5 11 4 12
REMARK SMILES IDX 2 13 1 14 3 15
REMARK H PARENT
REMARK Flexibility Score: inf
ROOT
ATOM      1  C   UNL     1      11.576  -5.257  16.884  1.00  0.00     0.012 C 
ENDROOT
BRANCH   1   2
ATOM      2  C   UNL     1      11.265  -6.314  17.967  1.00  0.00     0.016 C 
ATOM      3  C   UNL     1      12.507  -6.689  18.791  1.00  0.00     0.013 C 
BRANCH   2   4
ATOM      4  C   UNL     1      10.153  -5.825  18.879  1.00  0.00    -0.045 A 
ATOM      5  C   UNL     1       7.006  -4.378  21.459  1.00  0.00     0.044 C 
ATOM      6  C   UNL     1       8.081  -4.905  20.556  1.00  0.00    -0.051 A 
ATOM      7  C   UNL     1       8.141  -4.497  19.216  1.00  0.00     0.004 A 
ATOM      8  C   UNL     1       9.074  -5.755  21.061  1.00  0.00     0.004 A 
ATOM      9  C   UNL     1       9.166  -4.956  18.383  1.00  0.00     0.004 A 
ATOM     10  C   UNL     1      10.099  -6.216  20.230  1.00  0.00     0.004 A 
ENDBRANCH   2   4
ENDBRANCH   1   2
BRANCH   1  11
ATOM     11  C   UNL     1      13.027  -5.331  16.385  1.00  0.00     0.028 C 
BRANCH  11  12
ATOM     12  C   UNL     1      13.649  -3.958  16.347  1.00  0.00    -0.028 C 
ATOM     13  C   UNL     1      14.928  -3.708  15.986  1.00  0.00    -0.080 C 
ATOM     14  C   UNL     1      15.891  -4.817  15.632  1.00  0.00     0.039 C 
ATOM     15  C   UNL     1      15.400  -2.277  15.955  1.00  0.00     0.039 C 
ENDBRANCH  11  12
ENDBRANCH   1  11
TORSDOF 4
ENDMDL
MODEL 4
REMARK VINA RESULT:    -5.807      1.954      3.212
REMARK INTER + INTRA:          -7.819
REMARK INTER:                  -6.801
REMARK INTRA:                  -1.018
REMARK UNBOUND:                -0.654
REMARK SMILES CC(C)=CCC[C@@H](C)c1ccc(C)cc1
REMARK SMILES IDX 6 1 7 2 8 3 9 4 13 5 12 6 11 7 14 8 10 9 15 10 5 11 4 12
REMARK SMILES IDX 2 13 1 14 3 15
REMARK H PARENT
REMARK Flexibility Score: inf
ROOT
ATOM      1  C   UNL     1      11.521  -3.605  16.842  1.00  0.00     0.012 C 
ENDROOT
BRANCH   1   2
ATOM      2  C   UNL     1      12.963  -4.112  17.069  1.00  0.00     0.016 C 
ATOM      3  C   UNL     1      13.793  -4.109  15.776  1.00  0.00     0.013 C 
BRANCH   2   4
ATOM      4  C   UNL     1      13.651  -3.287  18.142  1.00  0.00    -0.045 A 
ATOM      5  C   UNL     1      15.654  -0.975  21.192  1.00  0.00     0.044 C 
ATOM      6  C   UNL     1      14.944  -1.753  20.124  1.00  0.00    -0.051 A 
ATOM      7  C   UNL     1      15.543  -1.941  18.870  1.00  0.00     0.004 A 
ATOM      8  C   UNL     1      13.707  -2.355  20.392  1.00  0.00     0.004 A 
ATOM      9  C   UNL     1      14.900  -2.697  17.886  1.00  0.00     0.004 A 
ATOM     10  C   UNL     1      13.063  -3.112  19.410  1.00  0.00     0.004 A 
ENDBRANCH   2   4
ENDBRANCH   1   2
BRANCH   1  11
ATOM     11  C   UNL     1      10.488  -4.742  16.834  1.00  0.00     0.028 C 
BRANCH  11  12
ATOM     12  C   UNL     1       9.951  -4.984  18.222  1.00  0.00    -0.028 C 
ATOM     13  C   UNL     1      10.397  -5.949  19.056  1.00  0.00    -0.080 C 
ATOM     14  C   UNL     1      11.465  -6.935  18.642  1.00  0.00     0.039 C 
ATOM     15  C   UNL     1       9.793  -6.046  20.434  1.00  0.00     0.039 C 
ENDBRANCH  11  12
ENDBRANCH   1  11
TORSDOF 4
ENDMDL
MODEL 5
REMARK VINA RESULT:    -5.785      1.178      2.091
REMARK INTER + INTRA:          -7.792
REMARK INTER:                  -7.093
REMARK INTRA:                  -0.699
REMARK UNBOUND:                -0.654
REMARK SMILES CC(C)=CCC[C@@H](C)c1ccc(C)cc1
REMARK SMILES IDX 6 1 7 2 8 3 9 4 13 5 12 6 11 7 14 8 10 9 15 10 5 11 4 12
REMARK SMILES IDX 2 13 1 14 3 15
REMARK H PARENT
REMARK Flexibility Score: inf
ROOT
ATOM      1  C   UNL     1      13.242  -5.624  16.897  1.00  0.00     0.012 C 
ENDROOT
BRANCH   1   2
ATOM      2  C   UNL     1      13.423  -4.103  16.692  1.00  0.00     0.016 C 
ATOM      3  C   UNL     1      13.290  -3.317  18.005  1.00  0.00     0.013 C 
BRANCH   2   4
ATOM      4  C   UNL     1      14.761  -3.815  16.035  1.00  0.00    -0.045 A 
ATOM      5  C   UNL     1      18.595  -3.031  14.206  1.00  0.00     0.044 C 
ATOM      6  C   UNL     1      17.251  -3.299  14.814  1.00  0.00    -0.051 A 
ATOM      7  C   UNL     1      16.774  -4.614  14.923  1.00  0.00     0.004 A 
ATOM      8  C   UNL     1      16.490  -2.246  15.340  1.00  0.00     0.004 A 
ATOM      9  C   UNL     1      15.538  -4.869  15.524  1.00  0.00     0.004 A 
ATOM     10  C   UNL     1      15.254  -2.499  15.941  1.00  0.00     0.004 A 
ENDBRANCH   2   4
ENDBRANCH   1   2
BRANCH   1  11
ATOM     11  C   UNL     1      11.765  -6.048  16.905  1.00  0.00     0.028 C 
BRANCH  11  12
ATOM     12  C   UNL     1      11.323  -6.411  18.301  1.00  0.00    -0.028 C 
ATOM     13  C   UNL     1      10.253  -5.872  18.927  1.00  0.00    -0.080 C 
ATOM     14  C   UNL     1       9.414  -4.789  18.290  1.00  0.00     0.039 C 
ATOM     15  C   UNL     1       9.905  -6.364  20.309  1.00  0.00     0.039 C 
ENDBRANCH  11  12
ENDBRANCH   1  11
TORSDOF 4
ENDMDL
MODEL 6
REMARK VINA RESULT:    -5.751      1.776      5.809
REMARK INTER + INTRA:          -7.750
REMARK INTER:                  -6.892
REMARK INTRA:                  -0.858
REMARK UNBOUND:                -0.654
REMARK SMILES CC(C)=CCC[C@@H](C)c1ccc(C)cc1
REMARK SMILES IDX 6 1 7 2 8 3 9 4 13 5 12 6 11 7 14 8 10 9 15 10 5 11 4 12
REMARK SMILES IDX 2 13 1 14 3 15
REMARK H PARENT
REMARK Flexibility Score: inf
ROOT
ATOM      1  C   UNL     1      14.899  -2.567  16.399  1.00  0.00     0.012 C 
ENDROOT
BRANCH   1   2
ATOM      2  C   UNL     1      14.320  -3.841  15.743  1.00  0.00     0.016 C 
ATOM      3  C   UNL     1      15.370  -4.955  15.606  1.00  0.00     0.013 C 
BRANCH   2   4
ATOM      4  C   UNL     1      13.118  -4.339  16.526  1.00  0.00    -0.045 A 
ATOM      5  C   UNL     1       9.686  -5.792  18.709  1.00  0.00     0.044 C 
ATOM      6  C   UNL     1      10.892  -5.283  17.978  1.00  0.00    -0.051 A 
ATOM      7  C   UNL     1      11.862  -6.180  17.506  1.00  0.00     0.004 A 
ATOM      8  C   UNL     1      11.027  -3.916  17.700  1.00  0.00     0.004 A 
ATOM      9  C   UNL     1      12.968  -5.711  16.790  1.00  0.00     0.004 A 
ATOM     10  C   UNL     1      12.132  -3.446  16.985  1.00  0.00     0.004 A 
ENDBRANCH   2   4
ENDBRANCH   1   2
BRANCH   1  11
ATOM     11  C   UNL     1      16.034  -2.874  17.388  1.00  0.00     0.028 C 
BRANCH  11  12
ATOM     12  C   UNL     1      16.297  -1.688  18.282  1.00  0.00    -0.028 C 
ATOM     13  C   UNL     1      15.622  -1.428  19.424  1.00  0.00    -0.080 C 
ATOM     14  C   UNL     1      14.475  -2.293  19.890  1.00  0.00     0.039 C 
ATOM     15  C   UNL     1      16.024  -0.226  20.239  1.00  0.00     0.039 C 
ENDBRANCH  11  12
ENDBRANCH   1  11
TORSDOF 4
ENDMDL
MODEL 7
REMARK VINA RESULT:    -5.672      1.252      2.142
REMARK INTER + INTRA:          -7.651
REMARK INTER:                  -6.787
REMARK INTRA:                  -0.864
REMARK UNBOUND:                -0.654
REMARK SMILES CC(C)=CCC[C@@H](C)c1ccc(C)cc1
REMARK SMILES IDX 6 1 7 2 8 3 9 4 13 5 12 6 11 7 14 8 10 9 15 10 5 11 4 12
REMARK SMILES IDX 2 13 1 14 3 15
REMARK H PARENT
REMARK Flexibility Score: inf
ROOT
ATOM      1  C   UNL     1      10.152  -4.810  17.446  1.00  0.00     0.012 C 
ENDROOT
BRANCH   1   2
ATOM      2  C   UNL     1      11.425  -5.243  18.208  1.00  0.00     0.016 C 
ATOM      3  C   UNL     1      11.550  -6.771  18.314  1.00  0.00     0.013 C 
BRANCH   2   4
ATOM      4  C   UNL     1      12.660  -4.654  17.550  1.00  0.00    -0.045 A 
ATOM      5  C   UNL     1      16.146  -2.928  15.672  1.00  0.00     0.044 C 
ATOM      6  C   UNL     1      14.954  -3.545  16.341  1.00  0.00    -0.051 A 
ATOM      7  C   UNL     1      14.380  -2.934  17.465  1.00  0.00     0.004 A 
ATOM      8  C   UNL     1      14.363  -4.699  15.810  1.00  0.00     0.004 A 
ATOM      9  C   UNL     1      13.245  -3.486  18.067  1.00  0.00     0.004 A 
ATOM     10  C   UNL     1      13.229  -5.253  16.410  1.00  0.00     0.004 A 
ENDBRANCH   2   4
ENDBRANCH   1   2
BRANCH   1  11
ATOM     11  C   UNL     1       8.961  -4.551  18.381  1.00  0.00     0.028 C 
BRANCH  11  12
ATOM     12  C   UNL     1       9.370  -3.666  19.532  1.00  0.00    -0.028 C 
ATOM     13  C   UNL     1       9.467  -4.079  20.816  1.00  0.00    -0.080 C 
ATOM     14  C   UNL     1       9.111  -5.487  21.233  1.00  0.00     0.039 C 
ATOM     15  C   UNL     1       9.929  -3.091  21.856  1.00  0.00     0.039 C 
ENDBRANCH  11  12
ENDBRANCH   1  11
TORSDOF 4
ENDMDL
MODEL 8
REMARK VINA RESULT:    -5.622      1.177      6.691
REMARK INTER + INTRA:          -7.590
REMARK INTER:                  -7.040
REMARK INTRA:                  -0.550
REMARK UNBOUND:                -0.654
REMARK SMILES CC(C)=CCC[C@@H](C)c1ccc(C)cc1
REMARK SMILES IDX 6 1 7 2 8 3 9 4 13 5 12 6 11 7 14 8 10 9 15 10 5 11 4 12
REMARK SMILES IDX 2 13 1 14 3 15
REMARK H PARENT
REMARK Flexibility Score: inf
ROOT
ATOM      1  C   UNL     1      12.058  -3.479  16.858  1.00  0.00     0.012 C 
ENDROOT
BRANCH   1   2
ATOM      2  C   UNL     1      11.442  -4.896  16.863  1.00  0.00     0.016 C 
ATOM      3  C   UNL     1      12.504  -5.994  16.699  1.00  0.00     0.013 C 
BRANCH   2   4
ATOM      4  C   UNL     1      10.642  -5.120  18.134  1.00  0.00    -0.045 A 
ATOM      5  C   UNL     1       8.378  -5.701  21.767  1.00  0.00     0.044 C 
ATOM      6  C   UNL     1       9.145  -5.518  20.491  1.00  0.00    -0.051 A 
ATOM      7  C   UNL     1       8.845  -4.449  19.633  1.00  0.00     0.004 A 
ATOM      8  C   UNL     1      10.211  -6.372  20.178  1.00  0.00     0.004 A 
ATOM      9  C   UNL     1       9.584  -4.255  18.463  1.00  0.00     0.004 A 
ATOM     10  C   UNL     1      10.951  -6.179  19.009  1.00  0.00     0.004 A 
ENDBRANCH   2   4
ENDBRANCH   1   2
BRANCH   1  11
ATOM     11  C   UNL     1      13.506  -3.461  17.372  1.00  0.00     0.028 C 
BRANCH  11  12
ATOM     12  C   UNL     1      14.448  -2.986  16.295  1.00  0.00    -0.028 C 
ATOM     13  C   UNL     1      15.639  -2.392  16.529  1.00  0.00    -0.080 C 
ATOM     14  C   UNL     1      16.122  -2.092  17.929  1.00  0.00     0.039 C 
ATOM     15  C   UNL     1      16.496  -2.008  15.350  1.00  0.00     0.039 C 
ENDBRANCH  11  12
ENDBRANCH   1  11
TORSDOF 4
ENDMDL
MODEL 9
REMARK VINA RESULT:    -5.533      2.138      3.853
REMARK INTER + INTRA:          -7.481
REMARK INTER:                  -6.427
REMARK INTRA:                  -1.053
REMARK UNBOUND:                -0.654
REMARK SMILES CC(C)=CCC[C@@H](C)c1ccc(C)cc1
REMARK SMILES IDX 6 1 7 2 8 3 9 4 13 5 12 6 11 7 14 8 10 9 15 10 5 11 4 12
REMARK SMILES IDX 2 13 1 14 3 15
REMARK H PARENT
REMARK Flexibility Score: inf
ROOT
ATOM      1  C   UNL     1       8.784  -5.108  19.125  1.00  0.00     0.012 C 
ENDROOT
BRANCH   1   2
ATOM      2  C   UNL     1      10.197  -5.389  19.683  1.00  0.00     0.016 C 
ATOM      3  C   UNL     1      10.356  -6.838  20.168  1.00  0.00     0.013 C 
BRANCH   2   4
ATOM      4  C   UNL     1      11.251  -5.062  18.640  1.00  0.00    -0.045 A 
ATOM      5  C   UNL     1      14.221  -4.080  15.661  1.00  0.00     0.044 C 
ATOM      6  C   UNL     1      13.211  -4.435  16.711  1.00  0.00    -0.051 A 
ATOM      7  C   UNL     1      12.927  -3.537  17.750  1.00  0.00     0.004 A 
ATOM      8  C   UNL     1      12.495  -5.636  16.626  1.00  0.00     0.004 A 
ATOM      9  C   UNL     1      11.959  -3.849  18.709  1.00  0.00     0.004 A 
ATOM     10  C   UNL     1      11.527  -5.951  17.583  1.00  0.00     0.004 A 
ENDBRANCH   2   4
ENDBRANCH   1   2
BRANCH   1  11
ATOM     11  C   UNL     1       7.960  -4.188  20.038  1.00  0.00     0.028 C 
BRANCH  11  12
ATOM     12  C   UNL     1       8.358  -2.746  19.842  1.00  0.00    -0.028 C 
ATOM     13  C   UNL     1       9.149  -2.051  20.689  1.00  0.00    -0.080 C 
ATOM     14  C   UNL     1       9.675  -2.653  21.970  1.00  0.00     0.039 C 
ATOM     15  C   UNL     1       9.498  -0.626  20.341  1.00  0.00     0.039 C 
ENDBRANCH  11  12
ENDBRANCH   1  11
TORSDOF 4
ENDMDL
