MODEL 1
REMARK VINA RESULT:    -4.906      0.000      0.000
REMARK INTER + INTRA:          -7.281
REMARK INTER:                  -6.913
REMARK INTRA:                  -0.368
REMARK UNBOUND:                -0.368
REMARK SMILES CCCCCCCCC(=O)[O-]
REMARK SMILES IDX 6 1 7 2 8 3 9 4 10 5 11 6 5 7 4 8 3 9 2 10 1 11
REMARK H PARENT
REMARK Flexibility Score: inf
ROOT
ATOM      1  C   UNL     1      88.105 325.183 193.126  1.00  0.00     0.000 C 
ENDROOT
BRANCH   1   2
ATOM      2  C   UNL     1      88.165 326.504 193.913  1.00  0.00     0.006 C 
BRANCH   2   3
ATOM      3  C   UNL     1      88.822 326.328 195.289  1.00  0.00     0.053 C 
BRANCH   3   4
ATOM      4  C   UNL     1      87.803 326.168 196.374  1.00  0.00     0.041 C 
ATOM      5  O   UNL     1      88.162 325.854 197.539  1.00  0.00    -0.550 OA
ATOM      6  O   UNL     1      86.458 326.399 196.108  1.00  0.00    -0.550 OA
ENDBRANCH   3   4
ENDBRANCH   2   3
ENDBRANCH   1   2
BRANCH   1   7
ATOM      7  C   UNL     1      86.664 324.709 192.875  1.00  0.00     0.000 C 
BRANCH   7   8
ATOM      8  C   UNL     1      86.575 323.669 191.743  1.00  0.00    -0.000 C 
BRANCH   8   9
ATOM      9  C   UNL     1      87.959 323.229 191.237  1.00  0.00    -0.000 C 
BRANCH   9  10
ATOM     10  C   UNL     1      87.992 323.010 189.718  1.00  0.00    -0.003 C 
ATOM     11  C   UNL     1      89.214 323.678 189.093  1.00  0.00     0.004 C 
ENDBRANCH   9  10
ENDBRANCH   8   9
ENDBRANCH   7   8
ENDBRANCH   1   7
TORSDOF 7
ENDMDL
MODEL 2
REMARK VINA RESULT:    -4.898     19.745     20.730
REMARK INTER + INTRA:          -7.271
REMARK INTER:                  -6.912
REMARK INTRA:                  -0.358
REMARK UNBOUND:                -0.368
REMARK SMILES CCCCCCCCC(=O)[O-]
REMARK SMILES IDX 6 1 7 2 8 3 9 4 10 5 11 6 5 7 4 8 3 9 2 10 1 11
REMARK H PARENT
REMARK Flexibility Score: inf
ROOT
ATOM      1  C   UNL     1     103.372 311.715 194.596  1.00  0.00     0.000 C 
ENDROOT
BRANCH   1   2
ATOM      2  C   UNL     1     104.353 312.130 195.706  1.00  0.00     0.006 C 
BRANCH   2   3
ATOM      3  C   UNL     1     104.090 311.380 197.019  1.00  0.00     0.053 C 
BRANCH   3   4
ATOM      4  C   UNL     1     103.675 312.309 198.117  1.00  0.00     0.041 C 
ATOM      5  O   UNL     1     103.918 313.542 198.029  1.00  0.00    -0.550 OA
ATOM      6  O   UNL     1     102.989 311.820 199.223  1.00  0.00    -0.550 OA
ENDBRANCH   3   4
ENDBRANCH   2   3
ENDBRANCH   1   2
BRANCH   1   7
ATOM      7  C   UNL     1     104.083 311.367 193.277  1.00  0.00     0.000 C 
BRANCH   7   8
ATOM      8  C   UNL     1     105.430 312.094 193.125  1.00  0.00    -0.000 C 
BRANCH   8   9
ATOM      9  C   UNL     1     105.370 313.240 192.100  1.00  0.00    -0.000 C 
BRANCH   9  10
ATOM     10  C   UNL     1     103.999 313.352 191.418  1.00  0.00    -0.003 C 
ATOM     11  C   UNL     1     104.031 314.376 190.287  1.00  0.00     0.004 C 
ENDBRANCH   9  10
ENDBRANCH   8   9
ENDBRANCH   7   8
ENDBRANCH   1   7
TORSDOF 7
ENDMDL
MODEL 3
REMARK VINA RESULT:    -4.843      1.795      3.144
REMARK INTER + INTRA:          -7.192
REMARK INTER:                  -6.861
REMARK INTRA:                  -0.331
REMARK UNBOUND:                -0.368
REMARK SMILES CCCCCCCCC(=O)[O-]
REMARK SMILES IDX 6 1 7 2 8 3 9 4 10 5 11 6 5 7 4 8 3 9 2 10 1 11
REMARK H PARENT
REMARK Flexibility Score: inf
ROOT
ATOM      1  C   UNL     1      88.914 326.047 195.616  1.00  0.00     0.000 C 
ENDROOT
BRANCH   1   2
ATOM      2  C   UNL     1      88.055 326.167 196.886  1.00  0.00     0.006 C 
BRANCH   2   3
ATOM      3  C   UNL     1      88.808 326.857 198.032  1.00  0.00     0.053 C 
BRANCH   3   4
ATOM      4  C   UNL     1      89.021 325.934 199.192  1.00  0.00     0.041 C 
ATOM      5  O   UNL     1      89.056 324.689 199.013  1.00  0.00    -0.550 OA
ATOM      6  O   UNL     1      89.218 326.451 200.467  1.00  0.00    -0.550 OA
ENDBRANCH   3   4
ENDBRANCH   2   3
ENDBRANCH   1   2
BRANCH   1   7
ATOM      7  C   UNL     1      88.189 326.557 194.360  1.00  0.00     0.000 C 
BRANCH   7   8
ATOM      8  C   UNL     1      86.768 325.980 194.225  1.00  0.00    -0.000 C 
BRANCH   8   9
ATOM      9  C   UNL     1      86.667 324.912 193.123  1.00  0.00    -0.000 C 
BRANCH   9  10
ATOM     10  C   UNL     1      87.982 324.730 192.353  1.00  0.00    -0.003 C 
ATOM     11  C   UNL     1      87.822 323.712 191.227  1.00  0.00     0.004 C 
ENDBRANCH   9  10
ENDBRANCH   8   9
ENDBRANCH   7   8
ENDBRANCH   1   7
TORSDOF 7
ENDMDL
MODEL 4
REMARK VINA RESULT:    -4.839     19.147     20.502
REMARK INTER + INTRA:          -7.187
REMARK INTER:                  -6.842
REMARK INTRA:                  -0.345
REMARK UNBOUND:                -0.368
REMARK SMILES CCCCCCCCC(=O)[O-]
REMARK SMILES IDX 6 1 7 2 8 3 9 4 10 5 11 6 5 7 4 8 3 9 2 10 1 11
REMARK H PARENT
REMARK Flexibility Score: inf
ROOT
ATOM      1  C   UNL     1     104.005 313.109 192.638  1.00  0.00     0.000 C 
ENDROOT
BRANCH   1   2
ATOM      2  C   UNL     1     103.940 311.652 193.130  1.00  0.00     0.006 C 
BRANCH   2   3
ATOM      3  C   UNL     1     103.587 311.560 194.620  1.00  0.00     0.053 C 
BRANCH   3   4
ATOM      4  C   UNL     1     104.716 312.022 195.489  1.00  0.00     0.041 C 
ATOM      5  O   UNL     1     105.850 311.483 195.393  1.00  0.00    -0.550 OA
ATOM      6  O   UNL     1     104.526 313.070 196.381  1.00  0.00    -0.550 OA
ENDBRANCH   3   4
ENDBRANCH   2   3
ENDBRANCH   1   2
BRANCH   1   7
ATOM      7  C   UNL     1     105.355 313.457 191.993  1.00  0.00     0.000 C 
BRANCH   7   8
ATOM      8  C   UNL     1     105.198 314.309 190.720  1.00  0.00    -0.000 C 
BRANCH   8   9
ATOM      9  C   UNL     1     103.736 314.402 190.251  1.00  0.00    -0.000 C 
BRANCH   9  10
ATOM     10  C   UNL     1     103.602 315.020 188.852  1.00  0.00    -0.003 C 
ATOM     11  C   UNL     1     102.300 314.587 188.183  1.00  0.00     0.004 C 
ENDBRANCH   9  10
ENDBRANCH   8   9
ENDBRANCH   7   8
ENDBRANCH   1   7
TORSDOF 7
ENDMDL
MODEL 5
REMARK VINA RESULT:    -4.820      2.031      2.629
REMARK INTER + INTRA:          -7.161
REMARK INTER:                  -6.464
REMARK INTRA:                  -0.697
REMARK UNBOUND:                -0.368
REMARK SMILES CCCCCCCCC(=O)[O-]
REMARK SMILES IDX 6 1 7 2 8 3 9 4 10 5 11 6 5 7 4 8 3 9 2 10 1 11
REMARK H PARENT
REMARK Flexibility Score: inf
ROOT
ATOM      1  C   UNL     1      88.190 326.677 194.141  1.00  0.00     0.000 C 
ENDROOT
BRANCH   1   2
ATOM      2  C   UNL     1      88.880 326.443 195.496  1.00  0.00     0.006 C 
BRANCH   2   3
ATOM      3  C   UNL     1      87.885 326.026 196.587  1.00  0.00     0.053 C 
BRANCH   3   4
ATOM      4  C   UNL     1      88.577 325.422 197.769  1.00  0.00     0.041 C 
ATOM      5  O   UNL     1      88.793 324.183 197.812  1.00  0.00    -0.550 OA
ATOM      6  O   UNL     1      89.015 326.233 198.810  1.00  0.00    -0.550 OA
ENDBRANCH   3   4
ENDBRANCH   2   3
ENDBRANCH   1   2
BRANCH   1   7
ATOM      7  C   UNL     1      86.735 326.183 194.123  1.00  0.00     0.000 C 
BRANCH   7   8
ATOM      8  C   UNL     1      86.541 324.955 193.215  1.00  0.00    -0.000 C 
BRANCH   8   9
ATOM      9  C   UNL     1      87.819 324.586 192.443  1.00  0.00    -0.000 C 
BRANCH   9  10
ATOM     10  C   UNL     1      88.285 323.150 192.722  1.00  0.00    -0.003 C 
ATOM     11  C   UNL     1      88.652 322.968 194.192  1.00  0.00     0.004 C 
ENDBRANCH   9  10
ENDBRANCH   8   9
ENDBRANCH   7   8
ENDBRANCH   1   7
TORSDOF 7
ENDMDL
MODEL 6
REMARK VINA RESULT:    -4.815     19.299     20.702
REMARK INTER + INTRA:          -7.153
REMARK INTER:                  -6.934
REMARK INTRA:                  -0.219
REMARK UNBOUND:                -0.368
REMARK SMILES CCCCCCCCC(=O)[O-]
REMARK SMILES IDX 6 1 7 2 8 3 9 4 10 5 11 6 5 7 4 8 3 9 2 10 1 11
REMARK H PARENT
REMARK Flexibility Score: inf
ROOT
ATOM      1  C   UNL     1     104.041 313.712 192.198  1.00  0.00     0.000 C 
ENDROOT
BRANCH   1   2
ATOM      2  C   UNL     1     103.838 313.678 190.674  1.00  0.00     0.006 C 
BRANCH   2   3
ATOM      3  C   UNL     1     104.036 315.059 190.033  1.00  0.00     0.053 C 
BRANCH   3   4
ATOM      4  C   UNL     1     103.495 315.107 188.638  1.00  0.00     0.041 C 
ATOM      5  O   UNL     1     102.438 314.487 188.346  1.00  0.00    -0.550 OA
ATOM      6  O   UNL     1     104.138 315.864 187.666  1.00  0.00    -0.550 OA
ENDBRANCH   3   4
ENDBRANCH   2   3
ENDBRANCH   1   2
BRANCH   1   7
ATOM      7  C   UNL     1     104.850 312.512 192.715  1.00  0.00     0.000 C 
BRANCH   7   8
ATOM      8  C   UNL     1     103.956 311.420 193.329  1.00  0.00    -0.000 C 
BRANCH   8   9
ATOM      9  C   UNL     1     103.433 311.802 194.724  1.00  0.00    -0.000 C 
BRANCH   9  10
ATOM     10  C   UNL     1     104.556 311.934 195.763  1.00  0.00    -0.003 C 
ATOM     11  C   UNL     1     104.045 311.620 197.166  1.00  0.00     0.004 C 
ENDBRANCH   9  10
ENDBRANCH   8   9
ENDBRANCH   7   8
ENDBRANCH   1   7
TORSDOF 7
ENDMDL
MODEL 7
REMARK VINA RESULT:    -4.777      3.029      5.433
REMARK INTER + INTRA:          -7.099
REMARK INTER:                  -6.420
REMARK INTRA:                  -0.679
REMARK UNBOUND:                -0.368
REMARK SMILES CCCCCCCCC(=O)[O-]
REMARK SMILES IDX 6 1 7 2 8 3 9 4 10 5 11 6 5 7 4 8 3 9 2 10 1 11
REMARK H PARENT
REMARK Flexibility Score: inf
ROOT
ATOM      1  C   UNL     1      86.689 326.126 194.144  1.00  0.00     0.000 C 
ENDROOT
BRANCH   1   2
ATOM      2  C   UNL     1      86.471 324.895 193.247  1.00  0.00     0.006 C 
BRANCH   2   3
ATOM      3  C   UNL     1      87.734 324.525 192.458  1.00  0.00     0.053 C 
BRANCH   3   4
ATOM      4  C   UNL     1      87.414 323.684 191.261  1.00  0.00     0.041 C 
ATOM      5  O   UNL     1      86.280 323.151 191.146  1.00  0.00    -0.550 OA
ATOM      6  O   UNL     1      88.358 323.519 190.253  1.00  0.00    -0.550 OA
ENDBRANCH   3   4
ENDBRANCH   2   3
ENDBRANCH   1   2
BRANCH   1   7
ATOM      7  C   UNL     1      88.124 326.673 194.064  1.00  0.00     0.000 C 
BRANCH   7   8
ATOM      8  C   UNL     1      88.919 326.432 195.359  1.00  0.00    -0.000 C 
BRANCH   8   9
ATOM      9  C   UNL     1      88.043 325.875 196.494  1.00  0.00    -0.000 C 
BRANCH   9  10
ATOM     10  C   UNL     1      88.582 324.555 197.065  1.00  0.00    -0.003 C 
ATOM     11  C   UNL     1      88.875 323.554 195.950  1.00  0.00     0.004 C 
ENDBRANCH   9  10
ENDBRANCH   8   9
ENDBRANCH   7   8
ENDBRANCH   1   7
TORSDOF 7
ENDMDL
MODEL 8
REMARK VINA RESULT:    -4.760     19.930     21.069
REMARK INTER + INTRA:          -7.076
REMARK INTER:                  -6.582
REMARK INTRA:                  -0.495
REMARK UNBOUND:                -0.368
REMARK SMILES CCCCCCCCC(=O)[O-]
REMARK SMILES IDX 6 1 7 2 8 3 9 4 10 5 11 6 5 7 4 8 3 9 2 10 1 11
REMARK H PARENT
REMARK Flexibility Score: inf
ROOT
ATOM      1  C   UNL     1     105.430 311.970 193.168  1.00  0.00     0.000 C 
ENDROOT
BRANCH   1   2
ATOM      2  C   UNL     1     105.611 313.096 192.135  1.00  0.00     0.006 C 
BRANCH   2   3
ATOM      3  C   UNL     1     104.272 313.570 191.556  1.00  0.00     0.053 C 
BRANCH   3   4
ATOM      4  C   UNL     1     104.463 314.428 190.344  1.00  0.00     0.041 C 
ATOM      5  O   UNL     1     105.536 315.068 190.183  1.00  0.00    -0.550 OA
ATOM      6  O   UNL     1     103.471 314.495 189.373  1.00  0.00    -0.550 OA
ENDBRANCH   3   4
ENDBRANCH   2   3
ENDBRANCH   1   2
BRANCH   1   7
ATOM      7  C   UNL     1     103.980 311.467 193.248  1.00  0.00     0.000 C 
BRANCH   7   8
ATOM      8  C   UNL     1     103.398 311.568 194.669  1.00  0.00    -0.000 C 
BRANCH   8   9
ATOM      9  C   UNL     1     103.440 313.003 195.222  1.00  0.00    -0.000 C 
BRANCH   9  10
ATOM     10  C   UNL     1     104.208 313.105 196.548  1.00  0.00    -0.003 C 
ATOM     11  C   UNL     1     103.898 311.917 197.454  1.00  0.00     0.004 C 
ENDBRANCH   9  10
ENDBRANCH   8   9
ENDBRANCH   7   8
ENDBRANCH   1   7
TORSDOF 7
ENDMDL
MODEL 9
REMARK VINA RESULT:    -4.721      3.551      5.814
REMARK INTER + INTRA:          -7.021
REMARK INTER:                  -6.548
REMARK INTRA:                  -0.474
REMARK UNBOUND:                -0.368
REMARK SMILES CCCCCCCCC(=O)[O-]
REMARK SMILES IDX 6 1 7 2 8 3 9 4 10 5 11 6 5 7 4 8 3 9 2 10 1 11
REMARK H PARENT
REMARK Flexibility Score: inf
ROOT
ATOM      1  C   UNL     1      86.697 324.128 193.355  1.00  0.00     0.000 C 
ENDROOT
BRANCH   1   2
ATOM      2  C   UNL     1      86.740 323.705 191.877  1.00  0.00     0.006 C 
BRANCH   2   3
ATOM      3  C   UNL     1      88.121 323.938 191.249  1.00  0.00     0.053 C 
BRANCH   3   4
ATOM      4  C   UNL     1      88.333 323.080 190.040  1.00  0.00     0.041 C 
ATOM      5  O   UNL     1      87.807 321.938 189.973  1.00  0.00    -0.550 OA
ATOM      6  O   UNL     1      89.085 323.555 188.971  1.00  0.00    -0.550 OA
ENDBRANCH   3   4
ENDBRANCH   2   3
ENDBRANCH   1   2
BRANCH   1   7
ATOM      7  C   UNL     1      85.875 325.408 193.582  1.00  0.00     0.000 C 
BRANCH   7   8
ATOM      8  C   UNL     1      86.605 326.426 194.476  1.00  0.00    -0.000 C 
BRANCH   8   9
ATOM      9  C   UNL     1      88.118 326.471 194.203  1.00  0.00    -0.000 C 
BRANCH   9  10
ATOM     10  C   UNL     1      88.952 326.041 195.419  1.00  0.00    -0.003 C 
ATOM     11  C   UNL     1      88.126 326.105 196.701  1.00  0.00     0.004 C 
ENDBRANCH   9  10
ENDBRANCH   8   9
ENDBRANCH   7   8
ENDBRANCH   1   7
TORSDOF 7
ENDMDL
