MODEL 1
REMARK VINA RESULT:    -4.297      0.000      0.000
REMARK INTER + INTRA:          -6.483
REMARK INTER:                  -6.055
REMARK INTRA:                  -0.428
REMARK UNBOUND:                -0.428
REMARK SMILES CCCCCCCCC(=O)[O-]
REMARK SMILES IDX 6 1 7 2 8 3 9 4 10 5 11 6 5 7 4 8 3 9 2 10 1 11
REMARK H PARENT
REMARK Flexibility Score: inf
ROOT
ATOM      1  C   UNL     1     -18.765  -0.553  29.343  1.00  0.00     0.000 C 
ENDROOT
BRANCH   1   2
ATOM      2  C   UNL     1     -18.442   0.154  28.016  1.00  0.00     0.006 C 
BRANCH   2   3
ATOM      3  C   UNL     1     -19.415   1.303  27.721  1.00  0.00     0.053 C 
BRANCH   3   4
ATOM      4  C   UNL     1     -20.716   0.802  27.172  1.00  0.00     0.041 C 
ATOM      5  O   UNL     1     -21.785   0.972  27.817  1.00  0.00    -0.550 OA
ATOM      6  O   UNL     1     -20.744   0.122  25.961  1.00  0.00    -0.550 OA
ENDBRANCH   3   4
ENDBRANCH   2   3
ENDBRANCH   1   2
BRANCH   1   7
ATOM      7  C   UNL     1     -18.407  -2.048  29.316  1.00  0.00     0.000 C 
BRANCH   7   8
ATOM      8  C   UNL     1     -17.353  -2.423  30.373  1.00  0.00    -0.000 C 
BRANCH   8   9
ATOM      9  C   UNL     1     -16.771  -1.194  31.087  1.00  0.00    -0.000 C 
BRANCH   9  10
ATOM     10  C   UNL     1     -17.090  -1.176  32.589  1.00  0.00    -0.003 C 
ATOM     11  C   UNL     1     -17.603  -2.535  33.057  1.00  0.00     0.004 C 
ENDBRANCH   9  10
ENDBRANCH   8   9
ENDBRANCH   7   8
ENDBRANCH   1   7
TORSDOF 7
ENDMDL
MODEL 2
REMARK VINA RESULT:    -4.284      3.177      5.622
REMARK INTER + INTRA:          -6.465
REMARK INTER:                  -5.940
REMARK INTRA:                  -0.524
REMARK UNBOUND:                -0.428
REMARK SMILES CCCCCCCCC(=O)[O-]
REMARK SMILES IDX 6 1 7 2 8 3 9 4 10 5 11 6 5 7 4 8 3 9 2 10 1 11
REMARK H PARENT
REMARK Flexibility Score: inf
ROOT
ATOM      1  C   UNL     1     -19.265  -1.898  29.929  1.00  0.00     0.000 C 
ENDROOT
BRANCH   1   2
ATOM      2  C   UNL     1     -17.837  -2.355  29.587  1.00  0.00     0.006 C 
BRANCH   2   3
ATOM      3  C   UNL     1     -17.010  -2.661  30.844  1.00  0.00     0.053 C 
BRANCH   3   4
ATOM      4  C   UNL     1     -16.629  -1.411  31.576  1.00  0.00     0.041 C 
ATOM      5  O   UNL     1     -15.682  -0.694  31.157  1.00  0.00    -0.550 OA
ATOM      6  O   UNL     1     -17.302  -1.051  32.737  1.00  0.00    -0.550 OA
ENDBRANCH   3   4
ENDBRANCH   2   3
ENDBRANCH   1   2
BRANCH   1   7
ATOM      7  C   UNL     1     -19.593  -0.510  29.359  1.00  0.00     0.000 C 
BRANCH   7   8
ATOM      8  C   UNL     1     -18.418   0.102  28.577  1.00  0.00    -0.000 C 
BRANCH   8   9
ATOM      9  C   UNL     1     -18.815   0.530  27.155  1.00  0.00    -0.000 C 
BRANCH   9  10
ATOM     10  C   UNL     1     -20.188   1.217  27.107  1.00  0.00    -0.003 C 
ATOM     11  C   UNL     1     -21.079   0.588  26.039  1.00  0.00     0.004 C 
ENDBRANCH   9  10
ENDBRANCH   8   9
ENDBRANCH   7   8
ENDBRANCH   1   7
TORSDOF 7
ENDMDL
MODEL 3
REMARK VINA RESULT:    -4.255      3.266      5.891
REMARK INTER + INTRA:          -6.424
REMARK INTER:                  -6.082
REMARK INTRA:                  -0.342
REMARK UNBOUND:                -0.428
REMARK SMILES CCCCCCCCC(=O)[O-]
REMARK SMILES IDX 6 1 7 2 8 3 9 4 10 5 11 6 5 7 4 8 3 9 2 10 1 11
REMARK H PARENT
REMARK Flexibility Score: inf
ROOT
ATOM      1  C   UNL     1     -18.512  -0.553  28.338  1.00  0.00     0.000 C 
ENDROOT
BRANCH   1   2
ATOM      2  C   UNL     1     -18.564  -0.624  29.873  1.00  0.00     0.006 C 
BRANCH   2   3
ATOM      3  C   UNL     1     -17.659  -1.730  30.433  1.00  0.00     0.053 C 
BRANCH   3   4
ATOM      4  C   UNL     1     -16.815  -1.235  31.567  1.00  0.00     0.041 C 
ATOM      5  O   UNL     1     -17.223  -1.339  32.754  1.00  0.00    -0.550 OA
ATOM      6  O   UNL     1     -15.589  -0.635  31.312  1.00  0.00    -0.550 OA
ENDBRANCH   3   4
ENDBRANCH   2   3
ENDBRANCH   1   2
BRANCH   1   7
ATOM      7  C   UNL     1     -18.441   0.891  27.815  1.00  0.00     0.000 C 
BRANCH   7   8
ATOM      8  C   UNL     1     -19.728   1.323  27.093  1.00  0.00    -0.000 C 
BRANCH   8   9
ATOM      9  C   UNL     1     -20.292   0.221  26.182  1.00  0.00    -0.000 C 
BRANCH   9  10
ATOM     10  C   UNL     1     -21.813   0.329  25.996  1.00  0.00    -0.003 C 
ATOM     11  C   UNL     1     -22.551  -0.033  27.282  1.00  0.00     0.004 C 
ENDBRANCH   9  10
ENDBRANCH   8   9
ENDBRANCH   7   8
ENDBRANCH   1   7
TORSDOF 7
ENDMDL
MODEL 4
REMARK VINA RESULT:    -4.241      0.990      1.611
REMARK INTER + INTRA:          -6.404
REMARK INTER:                  -6.145
REMARK INTRA:                  -0.260
REMARK UNBOUND:                -0.428
REMARK SMILES CCCCCCCCC(=O)[O-]
REMARK SMILES IDX 6 1 7 2 8 3 9 4 10 5 11 6 5 7 4 8 3 9 2 10 1 11
REMARK H PARENT
REMARK Flexibility Score: inf
ROOT
ATOM      1  C   UNL     1     -18.419   0.560  27.974  1.00  0.00     0.000 C 
ENDROOT
BRANCH   1   2
ATOM      2  C   UNL     1     -19.755   1.294  27.772  1.00  0.00     0.006 C 
BRANCH   2   3
ATOM      3  C   UNL     1     -20.364   1.017  26.391  1.00  0.00     0.053 C 
BRANCH   3   4
ATOM      4  C   UNL     1     -21.694   0.335  26.498  1.00  0.00     0.041 C 
ATOM      5  O   UNL     1     -22.520   0.403  25.550  1.00  0.00    -0.550 OA
ATOM      6  O   UNL     1     -22.032  -0.352  27.657  1.00  0.00    -0.550 OA
ENDBRANCH   3   4
ENDBRANCH   2   3
ENDBRANCH   1   2
BRANCH   1   7
ATOM      7  C   UNL     1     -18.594  -0.809  28.650  1.00  0.00     0.000 C 
BRANCH   7   8
ATOM      8  C   UNL     1     -18.537  -0.724  30.185  1.00  0.00    -0.000 C 
BRANCH   8   9
ATOM      9  C   UNL     1     -17.308  -1.438  30.770  1.00  0.00    -0.000 C 
BRANCH   9  10
ATOM     10  C   UNL     1     -17.146  -1.195  32.278  1.00  0.00    -0.003 C 
ATOM     11  C   UNL     1     -17.152  -2.512  33.050  1.00  0.00     0.004 C 
ENDBRANCH   9  10
ENDBRANCH   8   9
ENDBRANCH   7   8
ENDBRANCH   1   7
TORSDOF 7
ENDMDL
MODEL 5
REMARK VINA RESULT:    -4.191      3.214      5.856
REMARK INTER + INTRA:          -6.334
REMARK INTER:                  -5.986
REMARK INTRA:                  -0.348
REMARK UNBOUND:                -0.428
REMARK SMILES CCCCCCCCC(=O)[O-]
REMARK SMILES IDX 6 1 7 2 8 3 9 4 10 5 11 6 5 7 4 8 3 9 2 10 1 11
REMARK H PARENT
REMARK Flexibility Score: inf
ROOT
ATOM      1  C   UNL     1     -18.173  -1.723  29.043  1.00  0.00     0.000 C 
ENDROOT
BRANCH   1   2
ATOM      2  C   UNL     1     -18.409  -2.732  30.179  1.00  0.00     0.006 C 
BRANCH   2   3
ATOM      3  C   UNL     1     -17.177  -2.888  31.081  1.00  0.00     0.053 C 
BRANCH   3   4
ATOM      4  C   UNL     1     -17.342  -2.156  32.377  1.00  0.00     0.041 C 
ATOM      5  O   UNL     1     -17.737  -2.766  33.405  1.00  0.00    -0.550 OA
ATOM      6  O   UNL     1     -17.084  -0.792  32.443  1.00  0.00    -0.550 OA
ENDBRANCH   3   4
ENDBRANCH   2   3
ENDBRANCH   1   2
BRANCH   1   7
ATOM      7  C   UNL     1     -18.907  -0.392  29.274  1.00  0.00     0.000 C 
BRANCH   7   8
ATOM      8  C   UNL     1     -18.740   0.588  28.099  1.00  0.00    -0.000 C 
BRANCH   8   9
ATOM      9  C   UNL     1     -19.909   1.580  27.989  1.00  0.00    -0.000 C 
BRANCH   9  10
ATOM     10  C   UNL     1     -21.210   0.910  27.524  1.00  0.00    -0.003 C 
ATOM     11  C   UNL     1     -21.109   0.465  26.067  1.00  0.00     0.004 C 
ENDBRANCH   9  10
ENDBRANCH   8   9
ENDBRANCH   7   8
ENDBRANCH   1   7
TORSDOF 7
ENDMDL
MODEL 6
REMARK VINA RESULT:    -4.012     15.962     17.179
REMARK INTER + INTRA:          -6.083
REMARK INTER:                  -5.469
REMARK INTRA:                  -0.613
REMARK UNBOUND:                -0.428
REMARK SMILES CCCCCCCCC(=O)[O-]
REMARK SMILES IDX 6 1 7 2 8 3 9 4 10 5 11 6 5 7 4 8 3 9 2 10 1 11
REMARK H PARENT
REMARK Flexibility Score: inf
ROOT
ATOM      1  C   UNL     1      -5.500   7.655  23.520  1.00  0.00     0.000 C 
ENDROOT
BRANCH   1   2
ATOM      2  C   UNL     1      -5.782   7.384  25.007  1.00  0.00     0.006 C 
BRANCH   2   3
ATOM      3  C   UNL     1      -6.555   8.533  25.669  1.00  0.00     0.053 C 
BRANCH   3   4
ATOM      4  C   UNL     1      -8.037   8.324  25.588  1.00  0.00     0.041 C 
ATOM      5  O   UNL     1      -8.683   8.737  24.589  1.00  0.00    -0.550 OA
ATOM      6  O   UNL     1      -8.708   7.698  26.630  1.00  0.00    -0.550 OA
ENDBRANCH   3   4
ENDBRANCH   2   3
ENDBRANCH   1   2
BRANCH   1   7
ATOM      7  C   UNL     1      -4.190   8.429  23.300  1.00  0.00     0.000 C 
BRANCH   7   8
ATOM      8  C   UNL     1      -4.420   9.937  23.097  1.00  0.00    -0.000 C 
BRANCH   8   9
ATOM      9  C   UNL     1      -5.416  10.234  21.966  1.00  0.00    -0.000 C 
BRANCH   9  10
ATOM     10  C   UNL     1      -6.256  11.493  22.233  1.00  0.00    -0.003 C 
ATOM     11  C   UNL     1      -6.520  11.670  23.726  1.00  0.00     0.004 C 
ENDBRANCH   9  10
ENDBRANCH   8   9
ENDBRANCH   7   8
ENDBRANCH   1   7
TORSDOF 7
ENDMDL
MODEL 7
REMARK VINA RESULT:    -4.005      3.292      5.468
REMARK INTER + INTRA:          -6.072
REMARK INTER:                  -5.380
REMARK INTRA:                  -0.692
REMARK UNBOUND:                -0.428
REMARK SMILES CCCCCCCCC(=O)[O-]
REMARK SMILES IDX 6 1 7 2 8 3 9 4 10 5 11 6 5 7 4 8 3 9 2 10 1 11
REMARK H PARENT
REMARK Flexibility Score: inf
ROOT
ATOM      1  C   UNL     1     -20.526  -1.667  29.660  1.00  0.00     0.000 C 
ENDROOT
BRANCH   1   2
ATOM      2  C   UNL     1     -19.000  -1.798  29.512  1.00  0.00     0.006 C 
BRANCH   2   3
ATOM      3  C   UNL     1     -18.244  -0.985  30.571  1.00  0.00     0.053 C 
BRANCH   3   4
ATOM      4  C   UNL     1     -17.395  -1.860  31.441  1.00  0.00     0.041 C 
ATOM      5  O   UNL     1     -17.006  -2.983  31.025  1.00  0.00    -0.550 OA
ATOM      6  O   UNL     1     -17.057  -1.446  32.724  1.00  0.00    -0.550 OA
ENDBRANCH   3   4
ENDBRANCH   2   3
ENDBRANCH   1   2
BRANCH   1   7
ATOM      7  C   UNL     1     -20.992  -0.203  29.690  1.00  0.00     0.000 C 
BRANCH   7   8
ATOM      8  C   UNL     1     -21.458   0.298  28.312  1.00  0.00    -0.000 C 
BRANCH   8   9
ATOM      9  C   UNL     1     -20.590   1.447  27.778  1.00  0.00    -0.000 C 
BRANCH   9  10
ATOM     10  C   UNL     1     -19.384   0.949  26.967  1.00  0.00    -0.003 C 
ATOM     11  C   UNL     1     -18.072   1.287  27.670  1.00  0.00     0.004 C 
ENDBRANCH   9  10
ENDBRANCH   8   9
ENDBRANCH   7   8
ENDBRANCH   1   7
TORSDOF 7
ENDMDL
MODEL 8
REMARK VINA RESULT:    -4.005     14.584     15.681
REMARK INTER + INTRA:          -6.072
REMARK INTER:                  -5.424
REMARK INTRA:                  -0.648
REMARK UNBOUND:                -0.428
REMARK SMILES CCCCCCCCC(=O)[O-]
REMARK SMILES IDX 6 1 7 2 8 3 9 4 10 5 11 6 5 7 4 8 3 9 2 10 1 11
REMARK H PARENT
REMARK Flexibility Score: inf
ROOT
ATOM      1  C   UNL     1      -8.036   9.355  25.054  1.00  0.00     0.000 C 
ENDROOT
BRANCH   1   2
ATOM      2  C   UNL     1      -8.571   8.252  25.983  1.00  0.00     0.006 C 
BRANCH   2   3
ATOM      3  C   UNL     1      -7.456   7.325  26.484  1.00  0.00     0.053 C 
BRANCH   3   4
ATOM      4  C   UNL     1      -7.908   6.488  27.641  1.00  0.00     0.041 C 
ATOM      5  O   UNL     1      -8.901   6.840  28.331  1.00  0.00    -0.550 OA
ATOM      6  O   UNL     1      -7.215   5.331  27.975  1.00  0.00    -0.550 OA
ENDBRANCH   3   4
ENDBRANCH   2   3
ENDBRANCH   1   2
BRANCH   1   7
ATOM      7  C   UNL     1      -8.006   8.921  23.580  1.00  0.00     0.000 C 
BRANCH   7   8
ATOM      8  C   UNL     1      -6.594   8.985  22.972  1.00  0.00    -0.000 C 
BRANCH   8   9
ATOM      9  C   UNL     1      -5.867   7.632  23.028  1.00  0.00    -0.000 C 
BRANCH   9  10
ATOM     10  C   UNL     1      -4.462   7.740  23.639  1.00  0.00    -0.003 C 
ATOM     11  C   UNL     1      -4.425   8.789  24.748  1.00  0.00     0.004 C 
ENDBRANCH   9  10
ENDBRANCH   8   9
ENDBRANCH   7   8
ENDBRANCH   1   7
TORSDOF 7
ENDMDL
MODEL 9
REMARK VINA RESULT:    -3.940     15.109     16.103
REMARK INTER + INTRA:          -5.980
REMARK INTER:                  -5.191
REMARK INTRA:                  -0.789
REMARK UNBOUND:                -0.428
REMARK SMILES CCCCCCCCC(=O)[O-]
REMARK SMILES IDX 6 1 7 2 8 3 9 4 10 5 11 6 5 7 4 8 3 9 2 10 1 11
REMARK H PARENT
REMARK Flexibility Score: inf
ROOT
ATOM      1  C   UNL     1      -3.903   7.746  27.681  1.00  0.00     0.000 C 
ENDROOT
BRANCH   1   2
ATOM      2  C   UNL     1      -4.390   8.291  29.034  1.00  0.00     0.006 C 
BRANCH   2   3
ATOM      3  C   UNL     1      -4.401   7.210  30.123  1.00  0.00     0.053 C 
BRANCH   3   4
ATOM      4  C   UNL     1      -5.461   7.466  31.150  1.00  0.00     0.041 C 
ATOM      5  O   UNL     1      -6.491   8.126  30.848  1.00  0.00    -0.550 OA
ATOM      6  O   UNL     1      -5.300   7.000  32.448  1.00  0.00    -0.550 OA
ENDBRANCH   3   4
ENDBRANCH   2   3
ENDBRANCH   1   2
BRANCH   1   7
ATOM      7  C   UNL     1      -4.774   8.219  26.506  1.00  0.00     0.000 C 
BRANCH   7   8
ATOM      8  C   UNL     1      -5.741   7.130  26.009  1.00  0.00    -0.000 C 
BRANCH   8   9
ATOM      9  C   UNL     1      -7.199   7.410  26.407  1.00  0.00    -0.000 C 
BRANCH   9  10
ATOM     10  C   UNL     1      -7.572   6.788  27.761  1.00  0.00    -0.003 C 
ATOM     11  C   UNL     1      -6.883   5.439  27.954  1.00  0.00     0.004 C 
ENDBRANCH   9  10
ENDBRANCH   8   9
ENDBRANCH   7   8
ENDBRANCH   1   7
TORSDOF 7
ENDMDL
