MODEL 1
REMARK VINA RESULT:    -4.020      0.000      0.000
REMARK INTER + INTRA:          -5.430
REMARK INTER:                  -5.195
REMARK INTRA:                  -0.235
REMARK UNBOUND:                -0.235
REMARK SMILES CCO[C@H]1O[C@H](CO)[C@@H](O)[C@@H](O)[C@H]1O
REMARK SMILES IDX 4 1 13 2 11 3 9 4 6 5 5 6 3 7 2 8 1 9 14 10 12 12 7 14 8 15
REMARK SMILES IDX 10 17
REMARK H PARENT 14 11 12 13 8 16 10 18
REMARK Flexibility Score: inf
ROOT
ATOM      1  C   UNL     1       7.396  35.047  34.670  1.00  0.00     0.281 C 
ATOM      2  C   UNL     1       8.808  34.505  34.961  1.00  0.00     0.202 C 
ATOM      3  C   UNL     1       9.270  33.548  33.849  1.00  0.00     0.179 C 
ATOM      4  C   UNL     1       8.182  32.487  33.589  1.00  0.00     0.177 C 
ATOM      5  C   UNL     1       6.815  33.177  33.364  1.00  0.00     0.178 C 
ATOM      6  O   UNL     1       6.475  33.980  34.485  1.00  0.00    -0.341 OA
ENDROOT
BRANCH   1   7
ATOM      7  O   UNL     1       7.420  35.919  33.550  1.00  0.00    -0.350 OA
BRANCH   7   8
ATOM      8  C   UNL     1       6.601  37.045  33.789  1.00  0.00     0.160 C 
ATOM      9  C   UNL     1       6.521  37.878  32.520  1.00  0.00     0.035 C 
ENDBRANCH   7   8
ENDBRANCH   1   7
BRANCH   2  10
ATOM     10  O   UNL     1       9.708  35.575  35.095  1.00  0.00    -0.385 OA
ATOM     11  H   UNL     1       9.851  35.944  34.184  1.00  0.00     0.211 HD
ENDBRANCH   2  10
BRANCH   3  12
ATOM     12  O   UNL     1       9.542  34.274  32.675  1.00  0.00    -0.387 OA
ATOM     13  H   UNL     1       9.154  33.761  31.919  1.00  0.00     0.211 HD
ENDBRANCH   3  12
BRANCH   5  14
ATOM     14  C   UNL     1       5.692  32.147  33.171  1.00  0.00     0.191 C 
BRANCH  14  15
ATOM     15  O   UNL     1       5.268  32.129  31.835  1.00  0.00    -0.394 OA
ATOM     16  H   UNL     1       4.349  31.755  31.843  1.00  0.00     0.210 HD
ENDBRANCH  14  15
ENDBRANCH   5  14
BRANCH   4  17
ATOM     17  O   UNL     1       8.526  31.710  32.471  1.00  0.00    -0.387 OA
ATOM     18  H   UNL     1       8.212  32.206  31.670  1.00  0.00     0.211 HD
ENDBRANCH   4  17
TORSDOF 7
ENDMDL
MODEL 2
REMARK VINA RESULT:    -3.560      2.556      4.858
REMARK INTER + INTRA:          -4.835
REMARK INTER:                  -4.430
REMARK INTRA:                  -0.406
REMARK UNBOUND:                -0.235
REMARK SMILES CCO[C@H]1O[C@H](CO)[C@@H](O)[C@@H](O)[C@H]1O
REMARK SMILES IDX 4 1 13 2 11 3 9 4 6 5 5 6 3 7 2 8 1 9 14 10 12 12 7 14 8 15
REMARK SMILES IDX 10 17
REMARK H PARENT 14 11 12 13 8 16 10 18
REMARK Flexibility Score: inf
ROOT
ATOM      1  C   UNL     1       9.336  34.453  34.288  1.00  0.00     0.281 C 
ATOM      2  C   UNL     1       9.649  35.872  33.777  1.00  0.00     0.202 C 
ATOM      3  C   UNL     1      10.957  35.889  32.967  1.00  0.00     0.179 C 
ATOM      4  C   UNL     1      12.077  35.201  33.773  1.00  0.00     0.177 C 
ATOM      5  C   UNL     1      11.600  33.811  34.260  1.00  0.00     0.178 C 
ATOM      6  O   UNL     1      10.424  33.938  35.045  1.00  0.00    -0.341 OA
ENDROOT
BRANCH   1   7
ATOM      7  O   UNL     1       8.999  33.598  33.206  1.00  0.00    -0.350 OA
BRANCH   7   8
ATOM      8  C   UNL     1       7.902  32.778  33.553  1.00  0.00     0.160 C 
ATOM      9  C   UNL     1       8.407  31.377  33.856  1.00  0.00     0.035 C 
ENDBRANCH   7   8
ENDBRANCH   1   7
BRANCH   2  10
ATOM     10  O   UNL     1       8.579  36.341  32.996  1.00  0.00    -0.385 OA
ATOM     11  H   UNL     1       8.979  36.806  32.215  1.00  0.00     0.211 HD
ENDBRANCH   2  10
BRANCH   3  12
ATOM     12  O   UNL     1      10.764  35.239  31.734  1.00  0.00    -0.387 OA
ATOM     13  H   UNL     1      10.527  34.297  31.936  1.00  0.00     0.211 HD
ENDBRANCH   3  12
BRANCH   5  14
ATOM     14  C   UNL     1      12.667  33.124  35.125  1.00  0.00     0.191 C 
BRANCH  14  15
ATOM     15  O   UNL     1      13.736  32.688  34.331  1.00  0.00    -0.394 OA
ATOM     16  H   UNL     1      13.977  33.456  33.749  1.00  0.00     0.210 HD
ENDBRANCH  14  15
ENDBRANCH   5  14
BRANCH   4  17
ATOM     17  O   UNL     1      13.228  35.070  32.979  1.00  0.00    -0.387 OA
ATOM     18  H   UNL     1      13.095  35.650  32.184  1.00  0.00     0.211 HD
ENDBRANCH   4  17
TORSDOF 7
ENDMDL
MODEL 3
REMARK VINA RESULT:    -3.324     10.043     11.831
REMARK INTER + INTRA:          -4.530
REMARK INTER:                  -4.074
REMARK INTRA:                  -0.457
REMARK UNBOUND:                -0.235
REMARK SMILES CCO[C@H]1O[C@H](CO)[C@@H](O)[C@@H](O)[C@H]1O
REMARK SMILES IDX 4 1 13 2 11 3 9 4 6 5 5 6 3 7 2 8 1 9 14 10 12 12 7 14 8 15
REMARK SMILES IDX 10 17
REMARK H PARENT 14 11 12 13 8 16 10 18
REMARK Flexibility Score: inf
ROOT
ATOM      1  C   UNL     1      17.674  36.247  33.215  1.00  0.00     0.281 C 
ATOM      2  C   UNL     1      18.436  36.898  34.384  1.00  0.00     0.202 C 
ATOM      3  C   UNL     1      19.920  37.100  34.030  1.00  0.00     0.179 C 
ATOM      4  C   UNL     1      20.510  35.781  33.492  1.00  0.00     0.177 C 
ATOM      5  C   UNL     1      19.614  35.223  32.361  1.00  0.00     0.178 C 
ATOM      6  O   UNL     1      18.289  35.024  32.831  1.00  0.00    -0.341 OA
ENDROOT
BRANCH   1   7
ATOM      7  O   UNL     1      17.575  37.149  32.123  1.00  0.00    -0.350 OA
BRANCH   7   8
ATOM      8  C   UNL     1      16.324  37.007  31.482  1.00  0.00     0.160 C 
ATOM      9  C   UNL     1      15.248  36.801  32.535  1.00  0.00     0.035 C 
ENDBRANCH   7   8
ENDBRANCH   1   7
BRANCH   2  10
ATOM     10  O   UNL     1      17.837  38.125  34.715  1.00  0.00    -0.385 OA
ATOM     11  H   UNL     1      18.279  38.443  35.546  1.00  0.00     0.211 HD
ENDBRANCH   2  10
BRANCH   3  12
ATOM     12  O   UNL     1      20.048  38.124  33.076  1.00  0.00    -0.387 OA
ATOM     13  H   UNL     1      20.419  37.711  32.253  1.00  0.00     0.211 HD
ENDBRANCH   3  12
BRANCH   5  14
ATOM     14  C   UNL     1      20.134  33.873  31.846  1.00  0.00     0.191 C 
BRANCH  14  15
ATOM     15  O   UNL     1      21.247  34.061  31.015  1.00  0.00    -0.394 OA
ATOM     16  H   UNL     1      20.970  33.757  30.112  1.00  0.00     0.210 HD
ENDBRANCH  14  15
ENDBRANCH   5  14
BRANCH   4  17
ATOM     17  O   UNL     1      21.815  35.997  33.019  1.00  0.00    -0.387 OA
ATOM     18  H   UNL     1      21.779  36.799  32.436  1.00  0.00     0.211 HD
ENDBRANCH   4  17
TORSDOF 7
ENDMDL
MODEL 4
REMARK VINA RESULT:    -3.267      1.521      2.312
REMARK INTER + INTRA:          -4.457
REMARK INTER:                  -4.103
REMARK INTRA:                  -0.354
REMARK UNBOUND:                -0.235
REMARK SMILES CCO[C@H]1O[C@H](CO)[C@@H](O)[C@@H](O)[C@H]1O
REMARK SMILES IDX 4 1 13 2 11 3 9 4 6 5 5 6 3 7 2 8 1 9 14 10 12 12 7 14 8 15
REMARK SMILES IDX 10 17
REMARK H PARENT 14 11 12 13 8 16 10 18
REMARK Flexibility Score: inf
ROOT
ATOM      1  C   UNL     1       7.500  34.190  34.351  1.00  0.00     0.281 C 
ATOM      2  C   UNL     1       8.196  32.966  33.726  1.00  0.00     0.202 C 
ATOM      3  C   UNL     1       7.215  32.160  32.857  1.00  0.00     0.179 C 
ATOM      4  C   UNL     1       5.930  31.869  33.657  1.00  0.00     0.177 C 
ATOM      5  C   UNL     1       5.376  33.181  34.263  1.00  0.00     0.178 C 
ATOM      6  O   UNL     1       6.353  33.795  35.091  1.00  0.00    -0.341 OA
ENDROOT
BRANCH   1   7
ATOM      7  O   UNL     1       7.175  35.142  33.349  1.00  0.00    -0.350 OA
BRANCH   7   8
ATOM      8  C   UNL     1       7.706  36.408  33.685  1.00  0.00     0.160 C 
ATOM      9  C   UNL     1       6.633  37.465  33.481  1.00  0.00     0.035 C 
ENDBRANCH   7   8
ENDBRANCH   1   7
BRANCH   2  10
ATOM     10  O   UNL     1       9.299  33.386  32.964  1.00  0.00    -0.385 OA
ATOM     11  H   UNL     1      10.109  33.197  33.506  1.00  0.00     0.211 HD
ENDBRANCH   2  10
BRANCH   3  12
ATOM     12  O   UNL     1       6.915  32.876  31.684  1.00  0.00    -0.387 OA
ATOM     13  H   UNL     1       7.685  33.476  31.505  1.00  0.00     0.211 HD
ENDBRANCH   3  12
BRANCH   5  14
ATOM     14  C   UNL     1       4.132  32.919  35.125  1.00  0.00     0.191 C 
BRANCH  14  15
ATOM     15  O   UNL     1       3.059  32.505  34.324  1.00  0.00    -0.394 OA
ATOM     16  H   UNL     1       2.247  32.921  34.716  1.00  0.00     0.210 HD
ENDBRANCH  14  15
ENDBRANCH   5  14
BRANCH   4  17
ATOM     17  O   UNL     1       4.969  31.274  32.822  1.00  0.00    -0.387 OA
ATOM     18  H   UNL     1       5.436  31.024  31.983  1.00  0.00     0.211 HD
ENDBRANCH   4  17
TORSDOF 7
ENDMDL
MODEL 5
REMARK VINA RESULT:    -3.174      2.318      4.706
REMARK INTER + INTRA:          -4.336
REMARK INTER:                  -3.880
REMARK INTRA:                  -0.456
REMARK UNBOUND:                -0.235
REMARK SMILES CCO[C@H]1O[C@H](CO)[C@@H](O)[C@@H](O)[C@H]1O
REMARK SMILES IDX 4 1 13 2 11 3 9 4 6 5 5 6 3 7 2 8 1 9 14 10 12 12 7 14 8 15
REMARK SMILES IDX 10 17
REMARK H PARENT 14 11 12 13 8 16 10 18
REMARK Flexibility Score: inf
ROOT
ATOM      1  C   UNL     1      11.101  34.661  34.432  1.00  0.00     0.281 C 
ATOM      2  C   UNL     1      10.101  33.542  34.778  1.00  0.00     0.202 C 
ATOM      3  C   UNL     1       8.795  33.704  33.982  1.00  0.00     0.179 C 
ATOM      4  C   UNL     1       8.270  35.145  34.133  1.00  0.00     0.177 C 
ATOM      5  C   UNL     1       9.394  36.155  33.801  1.00  0.00     0.178 C 
ATOM      6  O   UNL     1      10.517  35.941  34.644  1.00  0.00    -0.341 OA
ENDROOT
BRANCH   1   7
ATOM      7  O   UNL     1      11.571  34.514  33.101  1.00  0.00    -0.350 OA
BRANCH   7   8
ATOM      8  C   UNL     1      12.941  34.849  33.026  1.00  0.00     0.160 C 
ATOM      9  C   UNL     1      13.728  33.927  33.944  1.00  0.00     0.035 C 
ENDBRANCH   7   8
ENDBRANCH   1   7
BRANCH   2  10
ATOM     10  O   UNL     1      10.685  32.290  34.518  1.00  0.00    -0.385 OA
ATOM     11  H   UNL     1      11.490  32.460  33.962  1.00  0.00     0.211 HD
ENDBRANCH   2  10
BRANCH   3  12
ATOM     12  O   UNL     1       9.020  33.399  32.627  1.00  0.00    -0.387 OA
ATOM     13  H   UNL     1       8.200  33.655  32.131  1.00  0.00     0.211 HD
ENDBRANCH   3  12
BRANCH   5  14
ATOM     14  C   UNL     1       8.927  37.603  34.007  1.00  0.00     0.191 C 
BRANCH  14  15
ATOM     15  O   UNL     1       8.281  38.078  32.858  1.00  0.00    -0.394 OA
ATOM     16  H   UNL     1       7.598  37.397  32.625  1.00  0.00     0.210 HD
ENDBRANCH  14  15
ENDBRANCH   5  14
BRANCH   4  17
ATOM     17  O   UNL     1       7.169  35.346  33.284  1.00  0.00    -0.387 OA
ATOM     18  H   UNL     1       6.988  36.322  33.276  1.00  0.00     0.211 HD
ENDBRANCH   4  17
TORSDOF 7
ENDMDL
MODEL 6
REMARK VINA RESULT:    -3.168      1.914      3.671
REMARK INTER + INTRA:          -4.329
REMARK INTER:                  -3.874
REMARK INTRA:                  -0.455
REMARK UNBOUND:                -0.235
REMARK SMILES CCO[C@H]1O[C@H](CO)[C@@H](O)[C@@H](O)[C@H]1O
REMARK SMILES IDX 4 1 13 2 11 3 9 4 6 5 5 6 3 7 2 8 1 9 14 10 12 12 7 14 8 15
REMARK SMILES IDX 10 17
REMARK H PARENT 14 11 12 13 8 16 10 18
REMARK Flexibility Score: inf
ROOT
ATOM      1  C   UNL     1      10.145  34.369  34.577  1.00  0.00     0.281 C 
ATOM      2  C   UNL     1       9.794  32.927  34.988  1.00  0.00     0.202 C 
ATOM      3  C   UNL     1       8.554  32.424  34.230  1.00  0.00     0.179 C 
ATOM      4  C   UNL     1       7.415  33.455  34.355  1.00  0.00     0.177 C 
ATOM      5  C   UNL     1       7.927  34.860  33.957  1.00  0.00     0.178 C 
ATOM      6  O   UNL     1       9.031  35.233  34.769  1.00  0.00    -0.341 OA
ENDROOT
BRANCH   1   7
ATOM      7  O   UNL     1      10.609  34.405  33.237  1.00  0.00    -0.350 OA
BRANCH   7   8
ATOM      8  C   UNL     1      11.672  35.327  33.111  1.00  0.00     0.160 C 
ATOM      9  C   UNL     1      12.992  34.586  33.248  1.00  0.00     0.035 C 
ENDBRANCH   7   8
ENDBRANCH   1   7
BRANCH   2  10
ATOM     10  O   UNL     1      10.894  32.086  34.747  1.00  0.00    -0.385 OA
ATOM     11  H   UNL     1      11.679  32.677  34.605  1.00  0.00     0.211 HD
ENDBRANCH   2  10
BRANCH   3  12
ATOM     12  O   UNL     1       8.876  32.204  32.879  1.00  0.00    -0.387 OA
ATOM     13  H   UNL     1       9.296  31.307  32.821  1.00  0.00     0.211 HD
ENDBRANCH   3  12
BRANCH   5  14
ATOM     14  C   UNL     1       6.837  35.926  34.135  1.00  0.00     0.191 C 
BRANCH  14  15
ATOM     15  O   UNL     1       5.925  35.535  35.125  1.00  0.00    -0.394 OA
ATOM     16  H   UNL     1       5.329  36.315  35.273  1.00  0.00     0.210 HD
ENDBRANCH  14  15
ENDBRANCH   5  14
BRANCH   4  17
ATOM     17  O   UNL     1       6.336  33.080  33.537  1.00  0.00    -0.387 OA
ATOM     18  H   UNL     1       6.539  32.170  33.196  1.00  0.00     0.211 HD
ENDBRANCH   4  17
TORSDOF 7
ENDMDL
MODEL 7
REMARK VINA RESULT:    -3.058      1.496      4.004
REMARK INTER + INTRA:          -4.187
REMARK INTER:                  -3.710
REMARK INTRA:                  -0.477
REMARK UNBOUND:                -0.235
REMARK SMILES CCO[C@H]1O[C@H](CO)[C@@H](O)[C@@H](O)[C@H]1O
REMARK SMILES IDX 4 1 13 2 11 3 9 4 6 5 5 6 3 7 2 8 1 9 14 10 12 12 7 14 8 15
REMARK SMILES IDX 10 17
REMARK H PARENT 14 11 12 13 8 16 10 18
REMARK Flexibility Score: inf
ROOT
ATOM      1  C   UNL     1       6.770  32.680  33.311  1.00  0.00     0.281 C 
ATOM      2  C   UNL     1       8.139  32.045  33.001  1.00  0.00     0.202 C 
ATOM      3  C   UNL     1       9.267  32.775  33.749  1.00  0.00     0.179 C 
ATOM      4  C   UNL     1       9.158  34.293  33.501  1.00  0.00     0.177 C 
ATOM      5  C   UNL     1       7.720  34.776  33.807  1.00  0.00     0.178 C 
ATOM      6  O   UNL     1       6.780  34.070  33.011  1.00  0.00    -0.341 OA
ENDROOT
BRANCH   1   7
ATOM      7  O   UNL     1       6.406  32.439  34.662  1.00  0.00    -0.350 OA
BRANCH   7   8
ATOM      8  C   UNL     1       5.001  32.340  34.779  1.00  0.00     0.160 C 
ATOM      9  C   UNL     1       4.475  31.425  33.686  1.00  0.00     0.035 C 
ENDBRANCH   7   8
ENDBRANCH   1   7
BRANCH   2  10
ATOM     10  O   UNL     1       8.118  30.683  33.348  1.00  0.00    -0.385 OA
ATOM     11  H   UNL     1       8.499  30.616  34.263  1.00  0.00     0.211 HD
ENDBRANCH   2  10
BRANCH   3  12
ATOM     12  O   UNL     1       9.191  32.492  35.124  1.00  0.00    -0.387 OA
ATOM     13  H   UNL     1       8.230  32.500  35.370  1.00  0.00     0.211 HD
ENDBRANCH   3  12
BRANCH   5  14
ATOM     14  C   UNL     1       7.556  36.273  33.506  1.00  0.00     0.191 C 
BRANCH  14  15
ATOM     15  O   UNL     1       8.561  36.711  32.634  1.00  0.00    -0.394 OA
ATOM     16  H   UNL     1       8.343  36.323  31.746  1.00  0.00     0.210 HD
ENDBRANCH  14  15
ENDBRANCH   5  14
BRANCH   4  17
ATOM     17  O   UNL     1      10.084  34.978  34.305  1.00  0.00    -0.387 OA
ATOM     18  H   UNL     1      10.556  34.292  34.846  1.00  0.00     0.211 HD
ENDBRANCH   4  17
TORSDOF 7
ENDMDL
MODEL 8
REMARK VINA RESULT:    -2.650      8.836     10.855
REMARK INTER + INTRA:          -3.659
REMARK INTER:                  -3.252
REMARK INTRA:                  -0.407
REMARK UNBOUND:                -0.235
REMARK SMILES CCO[C@H]1O[C@H](CO)[C@@H](O)[C@@H](O)[C@H]1O
REMARK SMILES IDX 4 1 13 2 11 3 9 4 6 5 5 6 3 7 2 8 1 9 14 10 12 12 7 14 8 15
REMARK SMILES IDX 10 17
REMARK H PARENT 14 11 12 13 8 16 10 18
REMARK Flexibility Score: inf
ROOT
ATOM      1  C   UNL     1      18.237  36.513  32.164  1.00  0.00     0.281 C 
ATOM      2  C   UNL     1      18.487  37.882  32.824  1.00  0.00     0.202 C 
ATOM      3  C   UNL     1      17.701  38.012  34.140  1.00  0.00     0.179 C 
ATOM      4  C   UNL     1      16.224  37.639  33.901  1.00  0.00     0.177 C 
ATOM      5  C   UNL     1      16.133  36.267  33.190  1.00  0.00     0.178 C 
ATOM      6  O   UNL     1      16.846  36.297  31.963  1.00  0.00    -0.341 OA
ENDROOT
BRANCH   1   7
ATOM      7  O   UNL     1      18.821  35.475  32.937  1.00  0.00    -0.350 OA
BRANCH   7   8
ATOM      8  C   UNL     1      19.752  34.751  32.159  1.00  0.00     0.160 C 
ATOM      9  C   UNL     1      21.095  34.743  32.872  1.00  0.00     0.035 C 
ENDBRANCH   7   8
ENDBRANCH   1   7
BRANCH   2  10
ATOM     10  O   UNL     1      19.863  38.052  33.054  1.00  0.00    -0.385 OA
ATOM     11  H   UNL     1      19.955  38.801  33.700  1.00  0.00     0.211 HD
ENDBRANCH   2  10
BRANCH   3  12
ATOM     12  O   UNL     1      18.268  37.178  35.120  1.00  0.00    -0.387 OA
ATOM     13  H   UNL     1      19.185  36.952  34.815  1.00  0.00     0.211 HD
ENDBRANCH   3  12
BRANCH   5  14
ATOM     14  C   UNL     1      14.677  35.895  32.875  1.00  0.00     0.191 C 
BRANCH  14  15
ATOM     15  O   UNL     1      14.057  35.342  34.003  1.00  0.00    -0.394 OA
ATOM     16  H   UNL     1      13.121  35.146  33.734  1.00  0.00     0.210 HD
ENDBRANCH  14  15
ENDBRANCH   5  14
BRANCH   4  17
ATOM     17  O   UNL     1      15.535  37.601  35.125  1.00  0.00    -0.387 OA
ATOM     18  H   UNL     1      16.210  37.406  35.827  1.00  0.00     0.211 HD
ENDBRANCH   4  17
TORSDOF 7
ENDMDL
MODEL 9
REMARK VINA RESULT:    -1.080      2.520      4.164
REMARK INTER + INTRA:          -1.631
REMARK INTER:                  -1.640
REMARK INTRA:                   0.010
REMARK UNBOUND:                -0.235
REMARK SMILES CCO[C@H]1O[C@H](CO)[C@@H](O)[C@@H](O)[C@H]1O
REMARK SMILES IDX 4 1 13 2 11 3 9 4 6 5 5 6 3 7 2 8 1 9 14 10 12 12 7 14 8 15
REMARK SMILES IDX 10 17
REMARK H PARENT 14 11 12 13 8 16 10 18
REMARK Flexibility Score: inf
ROOT
ATOM      1  C   UNL     1       8.342  31.528  33.869  1.00  0.00     0.281 C 
ATOM      2  C   UNL     1       7.937  32.135  32.513  1.00  0.00     0.202 C 
ATOM      3  C   UNL     1       6.532  32.757  32.586  1.00  0.00     0.179 C 
ATOM      4  C   UNL     1       5.544  31.740  33.191  1.00  0.00     0.177 C 
ATOM      5  C   UNL     1       6.107  31.182  34.520  1.00  0.00     0.178 C 
ATOM      6  O   UNL     1       7.376  30.582  34.307  1.00  0.00    -0.341 OA
ENDROOT
BRANCH   1   7
ATOM      7  O   UNL     1       8.545  32.552  34.831  1.00  0.00    -0.350 OA
BRANCH   7   8
ATOM      8  C   UNL     1       9.922  32.844  34.952  1.00  0.00     0.160 C 
ATOM      9  C   UNL     1      10.692  31.545  35.125  1.00  0.00     0.035 C 
ENDBRANCH   7   8
ENDBRANCH   1   7
BRANCH   2  10
ATOM     10  O   UNL     1       8.883  33.099  32.124  1.00  0.00    -0.385 OA
ATOM     11  H   UNL     1       8.396  33.775  31.583  1.00  0.00     0.211 HD
ENDBRANCH   2  10
BRANCH   3  12
ATOM     12  O   UNL     1       6.568  33.931  33.360  1.00  0.00    -0.387 OA
ATOM     13  H   UNL     1       5.672  34.035  33.773  1.00  0.00     0.211 HD
ENDBRANCH   3  12
BRANCH   5  14
ATOM     14  C   UNL     1       5.180  30.113  35.117  1.00  0.00     0.191 C 
BRANCH  14  15
ATOM     15  O   UNL     1       5.644  28.829  34.803  1.00  0.00    -0.394 OA
ATOM     16  H   UNL     1       6.293  28.946  34.060  1.00  0.00     0.210 HD
ENDBRANCH  14  15
ENDBRANCH   5  14
BRANCH   4  17
ATOM     17  O   UNL     1       4.298  32.352  33.408  1.00  0.00    -0.387 OA
ATOM     18  H   UNL     1       3.952  31.998  34.269  1.00  0.00     0.211 HD
ENDBRANCH   4  17
TORSDOF 7
ENDMDL
