MODEL 1
REMARK VINA RESULT:    -4.726      0.000      0.000
REMARK INTER + INTRA:          -4.868
REMARK INTER:                  -5.278
REMARK INTRA:                   0.410
REMARK UNBOUND:                 0.410
REMARK SMILES O=C([O-])c1ccccc1C(=O)[O-]
REMARK SMILES IDX 4 1 9 2 5 3 8 4 6 5 7 6 2 7 1 8 3 9 10 10 11 11 12 12
REMARK H PARENT
REMARK Flexibility Score: inf
ROOT
ATOM      1  C   UNL     1       0.947  21.514  34.161  1.00  0.00     0.006 A 
ATOM      2  C   UNL     1       0.127  21.581  33.001  1.00  0.00     0.006 A 
ATOM      3  C   UNL     1       0.854  22.537  35.125  1.00  0.00     0.010 A 
ATOM      4  C   UNL     1      -0.800  22.634  32.877  1.00  0.00     0.010 A 
ATOM      5  C   UNL     1      -0.055  23.583  34.971  1.00  0.00     0.001 A 
ATOM      6  C   UNL     1      -0.889  23.625  33.856  1.00  0.00     0.001 A 
ENDROOT
BRANCH   1   7
ATOM      7  C   UNL     1       1.845  20.370  34.438  1.00  0.00     0.072 C 
ATOM      8  O   UNL     1       3.092  20.498  34.310  1.00  0.00    -0.545 OA
ATOM      9  O   UNL     1       1.334  19.165  34.905  1.00  0.00    -0.545 OA
ENDBRANCH   1   7
BRANCH   2  10
ATOM     10  C   UNL     1       0.256  20.629  31.875  1.00  0.00     0.072 C 
ATOM     11  O   UNL     1      -0.662  20.529  31.019  1.00  0.00    -0.545 OA
ATOM     12  O   UNL     1       1.415  19.879  31.711  1.00  0.00    -0.545 OA
ENDBRANCH   2  10
TORSDOF 2
ENDMDL
MODEL 2
REMARK VINA RESULT:    -4.104     13.844     15.235
REMARK INTER + INTRA:          -4.174
REMARK INTER:                  -4.117
REMARK INTRA:                  -0.058
REMARK UNBOUND:                 0.410
REMARK SMILES O=C([O-])c1ccccc1C(=O)[O-]
REMARK SMILES IDX 4 1 9 2 5 3 8 4 6 5 7 6 2 7 1 8 3 9 10 10 11 11 12 12
REMARK H PARENT
REMARK Flexibility Score: inf
ROOT
ATOM      1  C   UNL     1      10.171  14.104  25.691  1.00  0.00     0.006 A 
ATOM      2  C   UNL     1      11.316  14.225  24.858  1.00  0.00     0.006 A 
ATOM      3  C   UNL     1       8.903  14.419  25.163  1.00  0.00     0.010 A 
ATOM      4  C   UNL     1      11.148  14.597  23.510  1.00  0.00     0.010 A 
ATOM      5  C   UNL     1       8.762  14.807  23.831  1.00  0.00     0.001 A 
ATOM      6  C   UNL     1       9.879  14.884  23.003  1.00  0.00     0.001 A 
ENDROOT
BRANCH   1   7
ATOM      7  C   UNL     1      10.242  13.585  27.076  1.00  0.00     0.072 C 
ATOM      8  O   UNL     1       9.731  12.468  27.362  1.00  0.00    -0.545 OA
ATOM      9  O   UNL     1      10.926  14.286  28.061  1.00  0.00    -0.545 OA
ENDBRANCH   1   7
BRANCH   2  10
ATOM     10  C   UNL     1      12.696  14.049  25.367  1.00  0.00     0.072 C 
ATOM     11  O   UNL     1      13.427  15.052  25.581  1.00  0.00    -0.545 OA
ATOM     12  O   UNL     1      13.181  12.783  25.675  1.00  0.00    -0.545 OA
ENDBRANCH   2  10
TORSDOF 2
ENDMDL
MODEL 3
REMARK VINA RESULT:    -4.104     13.858     15.245
REMARK INTER + INTRA:          -4.174
REMARK INTER:                  -4.119
REMARK INTRA:                  -0.055
REMARK UNBOUND:                 0.410
REMARK SMILES O=C([O-])c1ccccc1C(=O)[O-]
REMARK SMILES IDX 4 1 9 2 5 3 8 4 6 5 7 6 2 7 1 8 3 9 10 10 11 11 12 12
REMARK H PARENT
REMARK Flexibility Score: inf
ROOT
ATOM      1  C   UNL     1      11.330  14.225  24.849  1.00  0.00     0.006 A 
ATOM      2  C   UNL     1      10.184  14.104  25.682  1.00  0.00     0.006 A 
ATOM      3  C   UNL     1      11.160  14.590  23.500  1.00  0.00     0.010 A 
ATOM      4  C   UNL     1       8.916  14.415  25.153  1.00  0.00     0.010 A 
ATOM      5  C   UNL     1       9.892  14.872  22.990  1.00  0.00     0.001 A 
ATOM      6  C   UNL     1       8.775  14.796  23.818  1.00  0.00     0.001 A 
ENDROOT
BRANCH   1   7
ATOM      7  C   UNL     1      12.709  14.055  25.360  1.00  0.00     0.072 C 
ATOM      8  O   UNL     1      13.437  15.063  25.567  1.00  0.00    -0.545 OA
ATOM      9  O   UNL     1      13.196  12.794  25.680  1.00  0.00    -0.545 OA
ENDBRANCH   1   7
BRANCH   2  10
ATOM     10  C   UNL     1      10.255  13.593  27.070  1.00  0.00     0.072 C 
ATOM     11  O   UNL     1       9.741  12.482  27.364  1.00  0.00    -0.545 OA
ATOM     12  O   UNL     1      10.943  14.299  28.051  1.00  0.00    -0.545 OA
ENDBRANCH   2  10
TORSDOF 2
ENDMDL
MODEL 4
REMARK VINA RESULT:    -3.849      3.287      5.444
REMARK INTER + INTRA:          -3.889
REMARK INTER:                  -4.074
REMARK INTRA:                   0.185
REMARK UNBOUND:                 0.410
REMARK SMILES O=C([O-])c1ccccc1C(=O)[O-]
REMARK SMILES IDX 4 1 9 2 5 3 8 4 6 5 7 6 2 7 1 8 3 9 10 10 11 11 12 12
REMARK H PARENT
REMARK Flexibility Score: inf
ROOT
ATOM      1  C   UNL     1       3.396  18.935  33.272  1.00  0.00     0.006 A 
ATOM      2  C   UNL     1       3.110  18.004  34.308  1.00  0.00     0.006 A 
ATOM      3  C   UNL     1       4.732  19.120  32.867  1.00  0.00     0.010 A 
ATOM      4  C   UNL     1       4.162  17.247  34.859  1.00  0.00     0.010 A 
ATOM      5  C   UNL     1       5.762  18.375  33.442  1.00  0.00     0.001 A 
ATOM      6  C   UNL     1       5.476  17.432  34.427  1.00  0.00     0.001 A 
ENDROOT
BRANCH   1   7
ATOM      7  C   UNL     1       2.336  19.668  32.543  1.00  0.00     0.072 C 
ATOM      8  O   UNL     1       1.753  19.131  31.563  1.00  0.00    -0.545 OA
ATOM      9  O   UNL     1       1.924  20.926  32.967  1.00  0.00    -0.545 OA
ENDBRANCH   1   7
BRANCH   2  10
ATOM     10  C   UNL     1       1.758  17.847  34.890  1.00  0.00     0.072 C 
ATOM     11  O   UNL     1       1.046  18.858  35.125  1.00  0.00    -0.545 OA
ATOM     12  O   UNL     1       1.231  16.582  35.125  1.00  0.00    -0.545 OA
ENDBRANCH   2  10
TORSDOF 2
ENDMDL
MODEL 5
REMARK VINA RESULT:    -3.769      1.918      3.379
REMARK INTER + INTRA:          -3.800
REMARK INTER:                  -4.282
REMARK INTRA:                   0.483
REMARK UNBOUND:                 0.410
REMARK SMILES O=C([O-])c1ccccc1C(=O)[O-]
REMARK SMILES IDX 4 1 9 2 5 3 8 4 6 5 7 6 2 7 1 8 3 9 10 10 11 11 12 12
REMARK H PARENT
REMARK Flexibility Score: inf
ROOT
ATOM      1  C   UNL     1       1.340  21.171  34.094  1.00  0.00     0.006 A 
ATOM      2  C   UNL     1       1.064  20.768  32.759  1.00  0.00     0.006 A 
ATOM      3  C   UNL     1       2.434  20.597  34.770  1.00  0.00     0.010 A 
ATOM      4  C   UNL     1       1.927  19.853  32.127  1.00  0.00     0.010 A 
ATOM      5  C   UNL     1       3.264  19.675  34.132  1.00  0.00     0.001 A 
ATOM      6  C   UNL     1       3.018  19.313  32.809  1.00  0.00     0.001 A 
ENDROOT
BRANCH   1   7
ATOM      7  C   UNL     1       0.569  22.230  34.784  1.00  0.00     0.072 C 
ATOM      8  O   UNL     1      -0.627  22.024  35.125  1.00  0.00    -0.545 OA
ATOM      9  O   UNL     1       1.169  23.436  35.125  1.00  0.00    -0.545 OA
ENDBRANCH   1   7
BRANCH   2  10
ATOM     10  C   UNL     1      -0.141  21.214  32.023  1.00  0.00     0.072 C 
ATOM     11  O   UNL     1      -0.535  22.407  32.113  1.00  0.00    -0.545 OA
ATOM     12  O   UNL     1      -0.816  20.343  31.176  1.00  0.00    -0.545 OA
ENDBRANCH   2  10
TORSDOF 2
ENDMDL
MODEL 6
REMARK VINA RESULT:    -3.481     20.171     21.992
REMARK INTER + INTRA:          -3.478
REMARK INTER:                  -3.443
REMARK INTRA:                  -0.036
REMARK UNBOUND:                 0.410
REMARK SMILES O=C([O-])c1ccccc1C(=O)[O-]
REMARK SMILES IDX 4 1 9 2 5 3 8 4 6 5 7 6 2 7 1 8 3 9 10 10 11 11 12 12
REMARK H PARENT
REMARK Flexibility Score: inf
ROOT
ATOM      1  C   UNL     1       8.185  10.074  15.657  1.00  0.00     0.006 A 
ATOM      2  C   UNL     1       7.696  10.832  16.757  1.00  0.00     0.006 A 
ATOM      3  C   UNL     1       7.274   9.337  14.875  1.00  0.00     0.010 A 
ATOM      4  C   UNL     1       6.310  10.876  16.997  1.00  0.00     0.010 A 
ATOM      5  C   UNL     1       5.906   9.377  15.145  1.00  0.00     0.001 A 
ATOM      6  C   UNL     1       5.424  10.154  16.195  1.00  0.00     0.001 A 
ENDROOT
BRANCH   1   7
ATOM      7  C   UNL     1       9.608  10.085  15.249  1.00  0.00     0.072 C 
ATOM      8  O   UNL     1      10.152  11.159  14.875  1.00  0.00    -0.545 OA
ATOM      9  O   UNL     1      10.379   8.932  15.334  1.00  0.00    -0.545 OA
ENDBRANCH   1   7
BRANCH   2  10
ATOM     10  C   UNL     1       8.593  11.522  17.712  1.00  0.00     0.072 C 
ATOM     11  O   UNL     1       8.500  12.765  17.885  1.00  0.00    -0.545 OA
ATOM     12  O   UNL     1       9.503  10.801  18.476  1.00  0.00    -0.545 OA
ENDBRANCH   2  10
TORSDOF 2
ENDMDL
MODEL 7
REMARK VINA RESULT:    -3.314      1.989      3.281
REMARK INTER + INTRA:          -3.291
REMARK INTER:                  -3.916
REMARK INTRA:                   0.624
REMARK UNBOUND:                 0.410
REMARK SMILES O=C([O-])c1ccccc1C(=O)[O-]
REMARK SMILES IDX 4 1 9 2 5 3 8 4 6 5 7 6 2 7 1 8 3 9 10 10 11 11 12 12
REMARK H PARENT
REMARK Flexibility Score: inf
ROOT
ATOM      1  C   UNL     1       1.315  20.239  32.544  1.00  0.00     0.006 A 
ATOM      2  C   UNL     1       0.912  21.386  33.282  1.00  0.00     0.006 A 
ATOM      3  C   UNL     1       0.572  19.859  31.409  1.00  0.00     0.010 A 
ATOM      4  C   UNL     1      -0.181  22.147  32.823  1.00  0.00     0.010 A 
ATOM      5  C   UNL     1      -0.521  20.615  30.986  1.00  0.00     0.001 A 
ATOM      6  C   UNL     1      -0.889  21.762  31.684  1.00  0.00     0.001 A 
ENDROOT
BRANCH   1   7
ATOM      7  C   UNL     1       2.534  19.466  32.874  1.00  0.00     0.072 C 
ATOM      8  O   UNL     1       3.661  19.853  32.464  1.00  0.00    -0.545 OA
ATOM      9  O   UNL     1       2.462  18.344  33.691  1.00  0.00    -0.545 OA
ENDBRANCH   1   7
BRANCH   2  10
ATOM     10  C   UNL     1       1.548  21.777  34.561  1.00  0.00     0.072 C 
ATOM     11  O   UNL     1       2.367  21.005  35.125  1.00  0.00    -0.545 OA
ATOM     12  O   UNL     1       1.300  23.025  35.122  1.00  0.00    -0.545 OA
ENDBRANCH   2  10
TORSDOF 2
ENDMDL
