MODEL 1
REMARK VINA RESULT:    -4.637      0.000      0.000
REMARK INTER + INTRA:          -8.028
REMARK INTER:                  -6.670
REMARK INTRA:                  -1.358
REMARK UNBOUND:                -1.358
REMARK SMILES O=C(CO)[C@@H](O)[C@H](O)[C@@H](O)CO
REMARK SMILES IDX 7 1 9 2 11 3 12 4 10 6 5 8 2 9 1 10 3 11 4 12 6 14 8 16
REMARK H PARENT 12 5 10 7 4 13 6 15 8 17
REMARK Flexibility Score: inf
ROOT
ATOM      1  C   UNL     1      -5.202  32.590   4.555  1.00  0.00     0.181 C 
ENDROOT
BRANCH   1   2
ATOM      2  C   UNL     1      -4.722  31.134   4.789  1.00  0.00     0.171 C 
BRANCH   2   3
ATOM      3  C   UNL     1      -5.404  30.164   3.810  1.00  0.00     0.190 C 
BRANCH   3   4
ATOM      4  O   UNL     1      -6.597  29.670   4.356  1.00  0.00    -0.394 OA
ATOM      5  H   UNL     1      -6.594  29.920   5.318  1.00  0.00     0.210 HD
ENDBRANCH   3   4
ENDBRANCH   2   3
BRANCH   2   6
ATOM      6  O   UNL     1      -4.995  30.745   6.112  1.00  0.00    -0.388 OA
ATOM      7  H   UNL     1      -4.545  29.872   6.257  1.00  0.00     0.211 HD
ENDBRANCH   2   6
ENDBRANCH   1   2
BRANCH   1   8
ATOM      8  C   UNL     1      -4.206  33.644   5.099  1.00  0.00     0.214 C 
BRANCH   8   9
ATOM      9  C   UNL     1      -4.896  34.633   6.014  1.00  0.00     0.189 C 
ATOM     10  O   UNL     1      -5.496  35.583   5.533  1.00  0.00    -0.294 OA
BRANCH   9  11
ATOM     11  C   UNL     1      -4.858  34.473   7.507  1.00  0.00     0.234 C 
BRANCH  11  12
ATOM     12  O   UNL     1      -5.395  33.229   7.855  1.00  0.00    -0.388 OA
ATOM     13  H   UNL     1      -5.789  32.856   7.023  1.00  0.00     0.211 HD
ENDBRANCH  11  12
ENDBRANCH   9  11
ENDBRANCH   8   9
BRANCH   8  14
ATOM     14  O   UNL     1      -3.187  32.990   5.812  1.00  0.00    -0.382 OA
ATOM     15  H   UNL     1      -3.558  32.769   6.706  1.00  0.00     0.211 HD
ENDBRANCH   8  14
ENDBRANCH   1   8
BRANCH   1  16
ATOM     16  O   UNL     1      -6.479  32.791   5.113  1.00  0.00    -0.387 OA
ATOM     17  H   UNL     1      -7.074  32.069   4.777  1.00  0.00     0.211 HD
ENDBRANCH   1  16
TORSDOF 10
ENDMDL
MODEL 2
REMARK VINA RESULT:    -4.600      1.079      1.445
REMARK INTER + INTRA:          -7.975
REMARK INTER:                  -7.040
REMARK INTRA:                  -0.935
REMARK UNBOUND:                -1.358
REMARK SMILES O=C(CO)[C@@H](O)[C@H](O)[C@@H](O)CO
REMARK SMILES IDX 7 1 9 2 11 3 12 4 10 6 5 8 2 9 1 10 3 11 4 12 6 14 8 16
REMARK H PARENT 12 5 10 7 4 13 6 15 8 17
REMARK Flexibility Score: inf
ROOT
ATOM      1  C   UNL     1      -4.987  32.841   5.449  1.00  0.00     0.181 C 
ENDROOT
BRANCH   1   2
ATOM      2  C   UNL     1      -4.549  31.367   5.252  1.00  0.00     0.171 C 
BRANCH   2   3
ATOM      3  C   UNL     1      -5.296  30.723   4.071  1.00  0.00     0.190 C 
BRANCH   3   4
ATOM      4  O   UNL     1      -6.369  29.947   4.531  1.00  0.00    -0.394 OA
ATOM      5  H   UNL     1      -6.046  29.466   5.339  1.00  0.00     0.210 HD
ENDBRANCH   3   4
ENDBRANCH   2   3
BRANCH   2   6
ATOM      6  O   UNL     1      -4.793  30.633   6.426  1.00  0.00    -0.388 OA
ATOM      7  H   UNL     1      -4.348  31.118   7.169  1.00  0.00     0.211 HD
ENDBRANCH   2   6
ENDBRANCH   1   2
BRANCH   1   8
ATOM      8  C   UNL     1      -4.601  33.399   6.841  1.00  0.00     0.214 C 
BRANCH   8   9
ATOM      9  C   UNL     1      -4.523  34.911   6.826  1.00  0.00     0.189 C 
ATOM     10  O   UNL     1      -4.988  35.530   5.880  1.00  0.00    -0.294 OA
BRANCH   9  11
ATOM     11  C   UNL     1      -3.882  35.670   7.952  1.00  0.00     0.234 C 
BRANCH  11  12
ATOM     12  O   UNL     1      -4.186  35.045   9.166  1.00  0.00    -0.388 OA
ATOM     13  H   UNL     1      -3.558  34.280   9.248  1.00  0.00     0.211 HD
ENDBRANCH  11  12
ENDBRANCH   9  11
ENDBRANCH   8   9
BRANCH   8  14
ATOM     14  O   UNL     1      -5.564  32.996   7.782  1.00  0.00    -0.382 OA
ATOM     15  H   UNL     1      -5.822  33.807   8.294  1.00  0.00     0.211 HD
ENDBRANCH   8  14
ENDBRANCH   1   8
BRANCH   1  16
ATOM     16  O   UNL     1      -6.370  32.987   5.230  1.00  0.00    -0.387 OA
ATOM     17  H   UNL     1      -6.508  33.821   4.708  1.00  0.00     0.211 HD
ENDBRANCH   1  16
TORSDOF 10
ENDMDL
MODEL 3
REMARK VINA RESULT:    -4.236      1.655      2.582
REMARK INTER + INTRA:          -7.451
REMARK INTER:                  -7.075
REMARK INTRA:                  -0.377
REMARK UNBOUND:                -1.358
REMARK SMILES O=C(CO)[C@@H](O)[C@H](O)[C@@H](O)CO
REMARK SMILES IDX 7 1 9 2 11 3 12 4 10 6 5 8 2 9 1 10 3 11 4 12 6 14 8 16
REMARK H PARENT 12 5 10 7 4 13 6 15 8 17
REMARK Flexibility Score: inf
ROOT
ATOM      1  C   UNL     1      -4.643  32.831   6.098  1.00  0.00     0.181 C 
ENDROOT
BRANCH   1   2
ATOM      2  C   UNL     1      -4.484  31.388   5.554  1.00  0.00     0.171 C 
BRANCH   2   3
ATOM      3  C   UNL     1      -5.412  31.146   4.351  1.00  0.00     0.190 C 
BRANCH   3   4
ATOM      4  O   UNL     1      -5.346  29.808   3.939  1.00  0.00    -0.394 OA
ATOM      5  H   UNL     1      -5.937  29.293   4.549  1.00  0.00     0.210 HD
ENDBRANCH   3   4
ENDBRANCH   2   3
BRANCH   2   6
ATOM      6  O   UNL     1      -4.770  30.458   6.570  1.00  0.00    -0.388 OA
ATOM      7  H   UNL     1      -5.560  29.936   6.272  1.00  0.00     0.211 HD
ENDBRANCH   2   6
ENDBRANCH   1   2
BRANCH   1   8
ATOM      8  C   UNL     1      -3.350  33.672   5.949  1.00  0.00     0.214 C 
BRANCH   8   9
ATOM      9  C   UNL     1      -3.299  34.370   4.607  1.00  0.00     0.189 C 
ATOM     10  O   UNL     1      -4.341  34.672   4.043  1.00  0.00    -0.294 OA
BRANCH   9  11
ATOM     11  C   UNL     1      -1.990  34.699   3.948  1.00  0.00     0.234 C 
BRANCH  11  12
ATOM     12  O   UNL     1      -0.951  34.530   4.869  1.00  0.00    -0.388 OA
ATOM     13  H   UNL     1      -0.437  33.737   4.563  1.00  0.00     0.211 HD
ENDBRANCH  11  12
ENDBRANCH   9  11
ENDBRANCH   8   9
BRANCH   8  14
ATOM     14  O   UNL     1      -3.306  34.634   6.972  1.00  0.00    -0.382 OA
ATOM     15  H   UNL     1      -2.833  34.217   7.738  1.00  0.00     0.211 HD
ENDBRANCH   8  14
ENDBRANCH   1   8
BRANCH   1  16
ATOM     16  O   UNL     1      -5.065  32.817   7.441  1.00  0.00    -0.387 OA
ATOM     17  H   UNL     1      -5.265  33.754   7.705  1.00  0.00     0.211 HD
ENDBRANCH   1  16
TORSDOF 10
ENDMDL
MODEL 4
REMARK VINA RESULT:    -4.060      1.313      4.323
REMARK INTER + INTRA:          -7.198
REMARK INTER:                  -6.101
REMARK INTRA:                  -1.097
REMARK UNBOUND:                -1.358
REMARK SMILES O=C(CO)[C@@H](O)[C@H](O)[C@@H](O)CO
REMARK SMILES IDX 7 1 9 2 11 3 12 4 10 6 5 8 2 9 1 10 3 11 4 12 6 14 8 16
REMARK H PARENT 12 5 10 7 4 13 6 15 8 17
REMARK Flexibility Score: inf
ROOT
ATOM      1  C   UNL     1      -4.256  33.834   7.025  1.00  0.00     0.181 C 
ENDROOT
BRANCH   1   2
ATOM      2  C   UNL     1      -3.841  35.328   7.015  1.00  0.00     0.171 C 
BRANCH   2   3
ATOM      3  C   UNL     1      -3.950  35.940   8.422  1.00  0.00     0.190 C 
BRANCH   3   4
ATOM      4  O   UNL     1      -4.328  34.966   9.356  1.00  0.00    -0.394 OA
ATOM      5  H   UNL     1      -3.513  34.434   9.558  1.00  0.00     0.210 HD
ENDBRANCH   3   4
ENDBRANCH   2   3
BRANCH   2   6
ATOM      6  O   UNL     1      -4.654  36.046   6.120  1.00  0.00    -0.388 OA
ATOM      7  H   UNL     1      -4.049  36.591   5.552  1.00  0.00     0.211 HD
ENDBRANCH   2   6
ENDBRANCH   1   2
BRANCH   1   8
ATOM      8  C   UNL     1      -3.764  33.068   5.772  1.00  0.00     0.214 C 
BRANCH   8   9
ATOM      9  C   UNL     1      -4.915  32.729   4.848  1.00  0.00     0.189 C 
ATOM     10  O   UNL     1      -5.550  33.630   4.319  1.00  0.00    -0.294 OA
BRANCH   9  11
ATOM     11  C   UNL     1      -5.297  31.304   4.568  1.00  0.00     0.234 C 
BRANCH  11  12
ATOM     12  O   UNL     1      -5.069  30.529   5.710  1.00  0.00    -0.388 OA
ATOM     13  H   UNL     1      -5.151  29.582   5.422  1.00  0.00     0.211 HD
ENDBRANCH  11  12
ENDBRANCH   9  11
ENDBRANCH   8   9
BRANCH   8  14
ATOM     14  O   UNL     1      -2.836  33.864   5.080  1.00  0.00    -0.382 OA
ATOM     15  H   UNL     1      -2.330  34.375   5.765  1.00  0.00     0.211 HD
ENDBRANCH   8  14
ENDBRANCH   1   8
BRANCH   1  16
ATOM     16  O   UNL     1      -5.651  33.703   7.162  1.00  0.00    -0.387 OA
ATOM     17  H   UNL     1      -6.032  34.614   7.264  1.00  0.00     0.211 HD
ENDBRANCH   1  16
TORSDOF 10
ENDMDL
MODEL 5
REMARK VINA RESULT:    -3.983     12.628     13.264
REMARK INTER + INTRA:          -7.088
REMARK INTER:                  -6.414
REMARK INTRA:                  -0.674
REMARK UNBOUND:                -1.358
REMARK SMILES O=C(CO)[C@@H](O)[C@H](O)[C@@H](O)CO
REMARK SMILES IDX 7 1 9 2 11 3 12 4 10 6 5 8 2 9 1 10 3 11 4 12 6 14 8 16
REMARK H PARENT 12 5 10 7 4 13 6 15 8 17
REMARK Flexibility Score: inf
ROOT
ATOM      1  C   UNL     1     -18.299  33.097   6.289  1.00  0.00     0.181 C 
ENDROOT
BRANCH   1   2
ATOM      2  C   UNL     1     -18.969  32.673   4.957  1.00  0.00     0.171 C 
BRANCH   2   3
ATOM      3  C   UNL     1     -20.497  32.844   5.029  1.00  0.00     0.190 C 
BRANCH   3   4
ATOM      4  O   UNL     1     -20.871  33.412   6.254  1.00  0.00    -0.394 OA
ATOM      5  H   UNL     1     -20.876  32.675   6.920  1.00  0.00     0.210 HD
ENDBRANCH   3   4
ENDBRANCH   2   3
BRANCH   2   6
ATOM      6  O   UNL     1     -18.654  31.333   4.666  1.00  0.00    -0.388 OA
ATOM      7  H   UNL     1     -18.544  31.268   3.682  1.00  0.00     0.211 HD
ENDBRANCH   2   6
ENDBRANCH   1   2
BRANCH   1   8
ATOM      8  C   UNL     1     -17.298  34.267   6.109  1.00  0.00     0.214 C 
BRANCH   8   9
ATOM      9  C   UNL     1     -17.745  35.495   6.872  1.00  0.00     0.189 C 
ATOM     10  O   UNL     1     -18.939  35.721   7.008  1.00  0.00    -0.294 OA
BRANCH   9  11
ATOM     11  C   UNL     1     -16.749  36.449   7.467  1.00  0.00     0.234 C 
BRANCH  11  12
ATOM     12  O   UNL     1     -15.751  36.724   6.527  1.00  0.00    -0.388 OA
ATOM     13  H   UNL     1     -15.322  37.570   6.819  1.00  0.00     0.211 HD
ENDBRANCH  11  12
ENDBRANCH   9  11
ENDBRANCH   8   9
BRANCH   8  14
ATOM     14  O   UNL     1     -16.035  33.868   6.575  1.00  0.00    -0.382 OA
ATOM     15  H   UNL     1     -15.432  33.845   5.787  1.00  0.00     0.211 HD
ENDBRANCH   8  14
ENDBRANCH   1   8
BRANCH   1  16
ATOM     16  O   UNL     1     -17.664  32.001   6.901  1.00  0.00    -0.387 OA
ATOM     17  H   UNL     1     -16.704  32.024   6.644  1.00  0.00     0.211 HD
ENDBRANCH   1  16
TORSDOF 10
ENDMDL
MODEL 6
REMARK VINA RESULT:    -3.930     12.133     13.224
REMARK INTER + INTRA:          -7.012
REMARK INTER:                  -5.559
REMARK INTRA:                  -1.452
REMARK UNBOUND:                -1.358
REMARK SMILES O=C(CO)[C@@H](O)[C@H](O)[C@@H](O)CO
REMARK SMILES IDX 7 1 9 2 11 3 12 4 10 6 5 8 2 9 1 10 3 11 4 12 6 14 8 16
REMARK H PARENT 12 5 10 7 4 13 6 15 8 17
REMARK Flexibility Score: inf
ROOT
ATOM      1  C   UNL     1     -17.509  34.728   6.910  1.00  0.00     0.181 C 
ENDROOT
BRANCH   1   2
ATOM      2  C   UNL     1     -16.026  34.624   6.468  1.00  0.00     0.171 C 
BRANCH   2   3
ATOM      3  C   UNL     1     -15.246  35.894   6.849  1.00  0.00     0.190 C 
BRANCH   3   4
ATOM      4  O   UNL     1     -16.073  36.792   7.538  1.00  0.00    -0.394 OA
ATOM      5  H   UNL     1     -16.182  37.586   6.950  1.00  0.00     0.210 HD
ENDBRANCH   3   4
ENDBRANCH   2   3
BRANCH   2   6
ATOM      6  O   UNL     1     -15.953  34.420   5.079  1.00  0.00    -0.388 OA
ATOM      7  H   UNL     1     -16.485  35.140   4.651  1.00  0.00     0.211 HD
ENDBRANCH   2   6
ENDBRANCH   1   2
BRANCH   1   8
ATOM      8  C   UNL     1     -18.159  33.344   7.154  1.00  0.00     0.214 C 
BRANCH   8   9
ATOM      9  C   UNL     1     -19.286  33.086   6.177  1.00  0.00     0.189 C 
ATOM     10  O   UNL     1     -20.391  33.565   6.389  1.00  0.00    -0.294 OA
BRANCH   9  11
ATOM     11  C   UNL     1     -19.077  32.248   4.949  1.00  0.00     0.234 C 
BRANCH  11  12
ATOM     12  O   UNL     1     -18.140  32.870   4.116  1.00  0.00    -0.388 OA
ATOM     13  H   UNL     1     -17.439  33.237   4.715  1.00  0.00     0.211 HD
ENDBRANCH  11  12
ENDBRANCH   9  11
ENDBRANCH   8   9
BRANCH   8  14
ATOM     14  O   UNL     1     -17.183  32.344   7.007  1.00  0.00    -0.382 OA
ATOM     15  H   UNL     1     -16.311  32.807   6.908  1.00  0.00     0.211 HD
ENDBRANCH   8  14
ENDBRANCH   1   8
BRANCH   1  16
ATOM     16  O   UNL     1     -18.260  35.463   5.974  1.00  0.00    -0.387 OA
ATOM     17  H   UNL     1     -18.688  36.220   6.456  1.00  0.00     0.211 HD
ENDBRANCH   1  16
TORSDOF 10
ENDMDL
MODEL 7
REMARK VINA RESULT:    -3.930     12.523     13.321
REMARK INTER + INTRA:          -7.012
REMARK INTER:                  -6.400
REMARK INTRA:                  -0.611
REMARK UNBOUND:                -1.358
REMARK SMILES O=C(CO)[C@@H](O)[C@H](O)[C@@H](O)CO
REMARK SMILES IDX 7 1 9 2 11 3 12 4 10 6 5 8 2 9 1 10 3 11 4 12 6 14 8 16
REMARK H PARENT 12 5 10 7 4 13 6 15 8 17
REMARK Flexibility Score: inf
ROOT
ATOM      1  C   UNL     1     -18.478  33.107   6.441  1.00  0.00     0.181 C 
ENDROOT
BRANCH   1   2
ATOM      2  C   UNL     1     -19.018  32.723   5.040  1.00  0.00     0.171 C 
BRANCH   2   3
ATOM      3  C   UNL     1     -20.556  32.751   5.014  1.00  0.00     0.190 C 
BRANCH   3   4
ATOM      4  O   UNL     1     -21.060  33.223   6.233  1.00  0.00    -0.394 OA
ATOM      5  H   UNL     1     -21.089  32.444   6.850  1.00  0.00     0.210 HD
ENDBRANCH   3   4
ENDBRANCH   2   3
BRANCH   2   6
ATOM      6  O   UNL     1     -18.559  31.442   4.683  1.00  0.00    -0.388 OA
ATOM      7  H   UNL     1     -18.039  31.543   3.844  1.00  0.00     0.211 HD
ENDBRANCH   2   6
ENDBRANCH   1   2
BRANCH   1   8
ATOM      8  C   UNL     1     -17.936  34.558   6.496  1.00  0.00     0.214 C 
BRANCH   8   9
ATOM      9  C   UNL     1     -16.534  34.643   5.931  1.00  0.00     0.189 C 
ATOM     10  O   UNL     1     -15.597  34.184   6.568  1.00  0.00    -0.294 OA
BRANCH   9  11
ATOM     11  C   UNL     1     -16.268  35.284   4.599  1.00  0.00     0.234 C 
BRANCH  11  12
ATOM     12  O   UNL     1     -16.718  34.440   3.579  1.00  0.00    -0.388 OA
ATOM     13  H   UNL     1     -17.679  34.271   3.763  1.00  0.00     0.211 HD
ENDBRANCH  11  12
ENDBRANCH   9  11
ENDBRANCH   8   9
BRANCH   8  14
ATOM     14  O   UNL     1     -18.785  35.395   5.754  1.00  0.00    -0.382 OA
ATOM     15  H   UNL     1     -18.943  34.944   4.883  1.00  0.00     0.211 HD
ENDBRANCH   8  14
ENDBRANCH   1   8
BRANCH   1  16
ATOM     16  O   UNL     1     -17.488  32.199   6.863  1.00  0.00    -0.387 OA
ATOM     17  H   UNL     1     -17.885  31.289   6.844  1.00  0.00     0.211 HD
ENDBRANCH   1  16
TORSDOF 10
ENDMDL
MODEL 8
REMARK VINA RESULT:    -3.909     11.346     12.054
REMARK INTER + INTRA:          -6.981
REMARK INTER:                  -5.664
REMARK INTRA:                  -1.317
REMARK UNBOUND:                -1.358
REMARK SMILES O=C(CO)[C@@H](O)[C@H](O)[C@@H](O)CO
REMARK SMILES IDX 7 1 9 2 11 3 12 4 10 6 5 8 2 9 1 10 3 11 4 12 6 14 8 16
REMARK H PARENT 12 5 10 7 4 13 6 15 8 17
REMARK Flexibility Score: inf
ROOT
ATOM      1  C   UNL     1     -17.535  34.091   6.522  1.00  0.00     0.181 C 
ENDROOT
BRANCH   1   2
ATOM      2  C   UNL     1     -18.938  33.905   5.889  1.00  0.00     0.171 C 
BRANCH   2   3
ATOM      3  C   UNL     1     -19.122  32.469   5.368  1.00  0.00     0.190 C 
BRANCH   3   4
ATOM      4  O   UNL     1     -18.320  32.247   4.240  1.00  0.00    -0.394 OA
ATOM      5  H   UNL     1     -17.490  31.806   4.563  1.00  0.00     0.210 HD
ENDBRANCH   3   4
ENDBRANCH   2   3
BRANCH   2   6
ATOM      6  O   UNL     1     -19.115  34.819   4.836  1.00  0.00    -0.388 OA
ATOM      7  H   UNL     1     -18.223  35.207   4.635  1.00  0.00     0.211 HD
ENDBRANCH   2   6
ENDBRANCH   1   2
BRANCH   1   8
ATOM      8  C   UNL     1     -16.612  35.003   5.675  1.00  0.00     0.214 C 
BRANCH   8   9
ATOM      9  C   UNL     1     -15.343  35.350   6.424  1.00  0.00     0.189 C 
ATOM     10  O   UNL     1     -15.392  36.123   7.370  1.00  0.00    -0.294 OA
BRANCH   9  11
ATOM     11  C   UNL     1     -14.019  34.764   6.026  1.00  0.00     0.234 C 
BRANCH  11  12
ATOM     12  O   UNL     1     -14.006  33.398   6.327  1.00  0.00    -0.388 OA
ATOM     13  H   UNL     1     -14.658  33.271   7.065  1.00  0.00     0.211 HD
ENDBRANCH  11  12
ENDBRANCH   9  11
ENDBRANCH   8   9
BRANCH   8  14
ATOM     14  O   UNL     1     -16.278  34.340   4.482  1.00  0.00    -0.382 OA
ATOM     15  H   UNL     1     -15.851  33.482   4.741  1.00  0.00     0.211 HD
ENDBRANCH   8  14
ENDBRANCH   1   8
BRANCH   1  16
ATOM     16  O   UNL     1     -16.917  32.846   6.747  1.00  0.00    -0.387 OA
ATOM     17  H   UNL     1     -16.431  32.901   7.612  1.00  0.00     0.211 HD
ENDBRANCH   1  16
TORSDOF 10
ENDMDL
MODEL 9
REMARK VINA RESULT:    -3.801     11.997     12.961
REMARK INTER + INTRA:          -6.826
REMARK INTER:                  -5.395
REMARK INTRA:                  -1.431
REMARK UNBOUND:                -1.358
REMARK SMILES O=C(CO)[C@@H](O)[C@H](O)[C@@H](O)CO
REMARK SMILES IDX 7 1 9 2 11 3 12 4 10 6 5 8 2 9 1 10 3 11 4 12 6 14 8 16
REMARK H PARENT 12 5 10 7 4 13 6 15 8 17
REMARK Flexibility Score: inf
ROOT
ATOM      1  C   UNL     1     -17.149  35.069   5.251  1.00  0.00     0.181 C 
ENDROOT
BRANCH   1   2
ATOM      2  C   UNL     1     -16.145  34.696   6.372  1.00  0.00     0.171 C 
BRANCH   2   3
ATOM      3  C   UNL     1     -14.703  35.040   5.959  1.00  0.00     0.190 C 
BRANCH   3   4
ATOM      4  O   UNL     1     -14.171  34.034   5.141  1.00  0.00    -0.394 OA
ATOM      5  H   UNL     1     -13.801  34.487   4.338  1.00  0.00     0.210 HD
ENDBRANCH   3   4
ENDBRANCH   2   3
BRANCH   2   6
ATOM      6  O   UNL     1     -16.240  33.323   6.664  1.00  0.00    -0.388 OA
ATOM      7  H   UNL     1     -17.207  33.103   6.713  1.00  0.00     0.211 HD
ENDBRANCH   2   6
ENDBRANCH   1   2
BRANCH   1   8
ATOM      8  C   UNL     1     -18.625  34.959   5.708  1.00  0.00     0.214 C 
BRANCH   8   9
ATOM      9  C   UNL     1     -19.413  34.033   4.806  1.00  0.00     0.189 C 
ATOM     10  O   UNL     1     -19.850  34.452   3.744  1.00  0.00    -0.294 OA
BRANCH   9  11
ATOM     11  C   UNL     1     -19.672  32.604   5.190  1.00  0.00     0.234 C 
BRANCH  11  12
ATOM     12  O   UNL     1     -18.453  31.944   5.375  1.00  0.00    -0.388 OA
ATOM     13  H   UNL     1     -18.666  30.975   5.412  1.00  0.00     0.211 HD
ENDBRANCH  11  12
ENDBRANCH   9  11
ENDBRANCH   8   9
BRANCH   8  14
ATOM     14  O   UNL     1     -18.664  34.465   7.023  1.00  0.00    -0.382 OA
ATOM     15  H   UNL     1     -17.753  34.582   7.401  1.00  0.00     0.211 HD
ENDBRANCH   8  14
ENDBRANCH   1   8
BRANCH   1  16
ATOM     16  O   UNL     1     -16.933  34.283   4.103  1.00  0.00    -0.387 OA
ATOM     17  H   UNL     1     -17.483  34.663   3.368  1.00  0.00     0.211 HD
ENDBRANCH   1  16
TORSDOF 10
ENDMDL
