MODEL 1
REMARK VINA RESULT:    -4.137      0.000      0.000
REMARK INTER + INTRA:          -9.746
REMARK INTER:                  -7.523
REMARK INTRA:                  -2.223
REMARK UNBOUND:                -2.223
REMARK SMILES CCCCCCCCCCCCCCCC(=O)[O-]
REMARK SMILES IDX 9 1 10 2 11 3 12 4 13 5 14 6 15 7 16 8 17 9 18 10 8 11 7 12
REMARK SMILES IDX 6 13 5 14 4 15 3 16 2 17 1 18
REMARK H PARENT
REMARK Flexibility Score: inf
ROOT
ATOM      1  C   UNL     1      -2.669   5.188 -59.551  1.00  0.00     0.000 C 
ENDROOT
BRANCH   1   2
ATOM      2  C   UNL     1      -1.973   6.558 -59.567  1.00  0.00     0.000 C 
BRANCH   2   3
ATOM      3  C   UNL     1      -1.018   6.702 -58.374  1.00  0.00     0.000 C 
BRANCH   3   4
ATOM      4  C   UNL     1      -0.486   5.348 -57.868  1.00  0.00     0.000 C 
BRANCH   4   5
ATOM      5  C   UNL     1      -0.092   5.316 -56.377  1.00  0.00     0.000 C 
BRANCH   5   6
ATOM      6  C   UNL     1      -1.261   5.480 -55.390  1.00  0.00     0.006 C 
BRANCH   6   7
ATOM      7  C   UNL     1      -1.349   6.893 -54.800  1.00  0.00     0.053 C 
BRANCH   7   8
ATOM      8  C   UNL     1      -0.330   7.072 -53.719  1.00  0.00     0.041 C 
ATOM      9  O   UNL     1       0.520   7.997 -53.796  1.00  0.00    -0.550 OA
ATOM     10  O   UNL     1      -0.352   6.248 -52.602  1.00  0.00    -0.550 OA
ENDBRANCH   7   8
ENDBRANCH   6   7
ENDBRANCH   5   6
ENDBRANCH   4   5
ENDBRANCH   3   4
ENDBRANCH   2   3
ENDBRANCH   1   2
BRANCH   1  11
ATOM     11  C   UNL     1      -4.127   5.269 -59.071  1.00  0.00     0.000 C 
BRANCH  11  12
ATOM     12  C   UNL     1      -4.267   5.026 -57.560  1.00  0.00    -0.000 C 
BRANCH  12  13
ATOM     13  C   UNL     1      -5.159   6.091 -56.912  1.00  0.00    -0.000 C 
BRANCH  13  14
ATOM     14  C   UNL     1      -5.916   6.899 -57.977  1.00  0.00    -0.000 C 
BRANCH  14  15
ATOM     15  C   UNL     1      -5.700   8.413 -57.835  1.00  0.00    -0.000 C 
BRANCH  15  16
ATOM     16  C   UNL     1      -4.670   8.961 -58.839  1.00  0.00    -0.000 C 
BRANCH  16  17
ATOM     17  C   UNL     1      -3.373   9.423 -58.157  1.00  0.00    -0.003 C 
ATOM     18  C   UNL     1      -3.363   9.143 -56.656  1.00  0.00     0.004 C 
ENDBRANCH  16  17
ENDBRANCH  15  16
ENDBRANCH  14  15
ENDBRANCH  13  14
ENDBRANCH  12  13
ENDBRANCH  11  12
ENDBRANCH   1  11
TORSDOF 14
ENDMDL
MODEL 2
REMARK VINA RESULT:    -4.128      3.326      5.644
REMARK INTER + INTRA:          -9.729
REMARK INTER:                  -7.458
REMARK INTRA:                  -2.271
REMARK UNBOUND:                -2.223
REMARK SMILES CCCCCCCCCCCCCCCC(=O)[O-]
REMARK SMILES IDX 9 1 10 2 11 3 12 4 13 5 14 6 15 7 16 8 17 9 18 10 8 11 7 12
REMARK SMILES IDX 6 13 5 14 4 15 3 16 2 17 1 18
REMARK H PARENT
REMARK Flexibility Score: inf
ROOT
ATOM      1  C   UNL     1      -2.676   8.832 -59.112  1.00  0.00     0.000 C 
ENDROOT
BRANCH   1   2
ATOM      2  C   UNL     1      -3.411   9.418 -57.896  1.00  0.00     0.000 C 
BRANCH   2   3
ATOM      3  C   UNL     1      -3.130   8.588 -56.634  1.00  0.00     0.000 C 
BRANCH   3   4
ATOM      4  C   UNL     1      -4.380   7.858 -56.109  1.00  0.00     0.000 C 
BRANCH   4   5
ATOM      5  C   UNL     1      -4.383   6.331 -56.322  1.00  0.00     0.000 C 
BRANCH   5   6
ATOM      6  C   UNL     1      -5.505   5.801 -57.234  1.00  0.00     0.006 C 
BRANCH   6   7
ATOM      7  C   UNL     1      -6.095   6.886 -58.142  1.00  0.00     0.053 C 
BRANCH   7   8
ATOM      8  C   UNL     1      -7.560   7.043 -57.885  1.00  0.00     0.041 C 
ATOM      9  O   UNL     1      -8.093   8.183 -57.923  1.00  0.00    -0.550 OA
ATOM     10  O   UNL     1      -8.348   5.922 -57.653  1.00  0.00    -0.550 OA
ENDBRANCH   7   8
ENDBRANCH   6   7
ENDBRANCH   5   6
ENDBRANCH   4   5
ENDBRANCH   3   4
ENDBRANCH   2   3
ENDBRANCH   1   2
BRANCH   1  11
ATOM     11  C   UNL     1      -1.892   7.555 -58.771  1.00  0.00     0.000 C 
BRANCH  11  12
ATOM     12  C   UNL     1      -2.519   6.294 -59.385  1.00  0.00    -0.000 C 
BRANCH  12  13
ATOM     13  C   UNL     1      -1.972   5.027 -58.715  1.00  0.00    -0.000 C 
BRANCH  13  14
ATOM     14  C   UNL     1      -0.699   5.333 -57.914  1.00  0.00    -0.000 C 
BRANCH  14  15
ATOM     15  C   UNL     1      -0.920   5.242 -56.396  1.00  0.00    -0.000 C 
BRANCH  15  16
ATOM     16  C   UNL     1      -0.157   6.332 -55.621  1.00  0.00    -0.000 C 
BRANCH  16  17
ATOM     17  C   UNL     1      -0.860   6.722 -54.312  1.00  0.00    -0.003 C 
ATOM     18  C   UNL     1      -0.080   7.764 -53.511  1.00  0.00     0.004 C 
ENDBRANCH  16  17
ENDBRANCH  15  16
ENDBRANCH  14  15
ENDBRANCH  13  14
ENDBRANCH  12  13
ENDBRANCH  11  12
ENDBRANCH   1  11
TORSDOF 14
ENDMDL
MODEL 3
REMARK VINA RESULT:    -4.045      0.957      3.055
REMARK INTER + INTRA:          -9.579
REMARK INTER:                  -7.186
REMARK INTRA:                  -2.393
REMARK UNBOUND:                -2.223
REMARK SMILES CCCCCCCCCCCCCCCC(=O)[O-]
REMARK SMILES IDX 9 1 10 2 11 3 12 4 13 5 14 6 15 7 16 8 17 9 18 10 8 11 7 12
REMARK SMILES IDX 6 13 5 14 4 15 3 16 2 17 1 18
REMARK H PARENT
REMARK Flexibility Score: inf
ROOT
ATOM      1  C   UNL     1      -3.118   8.858 -58.042  1.00  0.00     0.000 C 
ENDROOT
BRANCH   1   2
ATOM      2  C   UNL     1      -3.258   8.591 -56.535  1.00  0.00     0.000 C 
BRANCH   2   3
ATOM      3  C   UNL     1      -2.567   7.277 -56.145  1.00  0.00     0.000 C 
BRANCH   3   4
ATOM      4  C   UNL     1      -1.542   6.806 -57.193  1.00  0.00     0.000 C 
BRANCH   4   5
ATOM      5  C   UNL     1      -0.609   5.669 -56.732  1.00  0.00     0.000 C 
BRANCH   5   6
ATOM      6  C   UNL     1      -0.892   5.125 -55.319  1.00  0.00     0.006 C 
BRANCH   6   7
ATOM      7  C   UNL     1       0.246   5.411 -54.332  1.00  0.00     0.053 C 
BRANCH   7   8
ATOM      8  C   UNL     1      -0.132   6.523 -53.406  1.00  0.00     0.041 C 
ATOM      9  O   UNL     1      -0.597   6.267 -52.265  1.00  0.00    -0.550 OA
ATOM     10  O   UNL     1       0.076   7.843 -53.785  1.00  0.00    -0.550 OA
ENDBRANCH   7   8
ENDBRANCH   6   7
ENDBRANCH   5   6
ENDBRANCH   4   5
ENDBRANCH   3   4
ENDBRANCH   2   3
ENDBRANCH   1   2
BRANCH   1  11
ATOM     11  C   UNL     1      -4.451   8.718 -58.794  1.00  0.00     0.000 C 
BRANCH  11  12
ATOM     12  C   UNL     1      -5.650   8.546 -57.849  1.00  0.00    -0.000 C 
BRANCH  12  13
ATOM     13  C   UNL     1      -6.347   7.201 -58.085  1.00  0.00    -0.000 C 
BRANCH  13  14
ATOM     14  C   UNL     1      -6.078   6.230 -56.926  1.00  0.00    -0.000 C 
BRANCH  14  15
ATOM     15  C   UNL     1      -5.083   5.122 -57.303  1.00  0.00    -0.000 C 
BRANCH  15  16
ATOM     16  C   UNL     1      -4.977   4.914 -58.824  1.00  0.00    -0.000 C 
BRANCH  16  17
ATOM     17  C   UNL     1      -3.534   5.042 -59.335  1.00  0.00    -0.003 C 
ATOM     18  C   UNL     1      -3.450   5.715 -60.704  1.00  0.00     0.004 C 
ENDBRANCH  16  17
ENDBRANCH  15  16
ENDBRANCH  14  15
ENDBRANCH  13  14
ENDBRANCH  12  13
ENDBRANCH  11  12
ENDBRANCH   1  11
TORSDOF 14
ENDMDL
MODEL 4
REMARK VINA RESULT:    -3.993      2.120      4.962
REMARK INTER + INTRA:          -9.485
REMARK INTER:                  -7.588
REMARK INTRA:                  -1.896
REMARK UNBOUND:                -2.223
REMARK SMILES CCCCCCCCCCCCCCCC(=O)[O-]
REMARK SMILES IDX 9 1 10 2 11 3 12 4 13 5 14 6 15 7 16 8 17 9 18 10 8 11 7 12
REMARK SMILES IDX 6 13 5 14 4 15 3 16 2 17 1 18
REMARK H PARENT
REMARK Flexibility Score: inf
ROOT
ATOM      1  C   UNL     1      -2.026   6.477 -59.654  1.00  0.00     0.000 C 
ENDROOT
BRANCH   1   2
ATOM      2  C   UNL     1      -2.769   5.138 -59.526  1.00  0.00     0.000 C 
BRANCH   2   3
ATOM      3  C   UNL     1      -4.275   5.322 -59.763  1.00  0.00     0.000 C 
BRANCH   3   4
ATOM      4  C   UNL     1      -5.112   5.097 -58.490  1.00  0.00     0.000 C 
BRANCH   4   5
ATOM      5  C   UNL     1      -4.465   5.598 -57.184  1.00  0.00     0.000 C 
BRANCH   5   6
ATOM      6  C   UNL     1      -4.995   6.949 -56.670  1.00  0.00     0.006 C 
BRANCH   6   7
ATOM      7  C   UNL     1      -5.165   7.986 -57.787  1.00  0.00     0.053 C 
BRANCH   7   8
ATOM      8  C   UNL     1      -4.040   8.971 -57.760  1.00  0.00     0.041 C 
ATOM      9  O   UNL     1      -3.847   9.739 -58.739  1.00  0.00    -0.550 OA
ATOM     10  O   UNL     1      -3.235   9.076 -56.633  1.00  0.00    -0.550 OA
ENDBRANCH   7   8
ENDBRANCH   6   7
ENDBRANCH   5   6
ENDBRANCH   4   5
ENDBRANCH   3   4
ENDBRANCH   2   3
ENDBRANCH   1   2
BRANCH   1  11
ATOM     11  C   UNL     1      -1.003   6.698 -58.529  1.00  0.00     0.000 C 
BRANCH  11  12
ATOM     12  C   UNL     1      -0.241   5.416 -58.162  1.00  0.00    -0.000 C 
BRANCH  12  13
ATOM     13  C   UNL     1      -0.336   5.131 -56.658  1.00  0.00    -0.000 C 
BRANCH  13  14
ATOM     14  C   UNL     1      -1.008   6.297 -55.918  1.00  0.00    -0.000 C 
BRANCH  14  15
ATOM     15  C   UNL     1      -1.768   5.840 -54.663  1.00  0.00    -0.000 C 
BRANCH  15  16
ATOM     16  C   UNL     1      -1.205   6.461 -53.372  1.00  0.00    -0.000 C 
BRANCH  16  17
ATOM     17  C   UNL     1       0.212   7.023 -53.561  1.00  0.00    -0.003 C 
ATOM     18  C   UNL     1       0.297   8.521 -53.272  1.00  0.00     0.004 C 
ENDBRANCH  16  17
ENDBRANCH  15  16
ENDBRANCH  14  15
ENDBRANCH  13  14
ENDBRANCH  12  13
ENDBRANCH  11  12
ENDBRANCH   1  11
TORSDOF 14
ENDMDL
MODEL 5
REMARK VINA RESULT:    -3.953      1.241      2.950
REMARK INTER + INTRA:          -9.411
REMARK INTER:                  -7.744
REMARK INTRA:                  -1.667
REMARK UNBOUND:                -2.223
REMARK SMILES CCCCCCCCCCCCCCCC(=O)[O-]
REMARK SMILES IDX 9 1 10 2 11 3 12 4 13 5 14 6 15 7 16 8 17 9 18 10 8 11 7 12
REMARK SMILES IDX 6 13 5 14 4 15 3 16 2 17 1 18
REMARK H PARENT
REMARK Flexibility Score: inf
ROOT
ATOM      1  C   UNL     1      -2.247   8.985 -58.879  1.00  0.00     0.000 C 
ENDROOT
BRANCH   1   2
ATOM      2  C   UNL     1      -2.147   7.462 -59.060  1.00  0.00     0.000 C 
BRANCH   2   3
ATOM      3  C   UNL     1      -0.681   7.005 -59.059  1.00  0.00     0.000 C 
BRANCH   3   4
ATOM      4  C   UNL     1      -0.397   5.909 -58.016  1.00  0.00     0.000 C 
BRANCH   4   5
ATOM      5  C   UNL     1      -1.544   5.639 -57.021  1.00  0.00     0.000 C 
BRANCH   5   6
ATOM      6  C   UNL     1      -1.145   5.690 -55.535  1.00  0.00     0.006 C 
BRANCH   6   7
ATOM      7  C   UNL     1      -1.353   7.074 -54.910  1.00  0.00     0.053 C 
BRANCH   7   8
ATOM      8  C   UNL     1      -0.535   7.214 -53.666  1.00  0.00     0.041 C 
ATOM      9  O   UNL     1      -0.408   6.241 -52.878  1.00  0.00    -0.550 OA
ATOM     10  O   UNL     1       0.131   8.404 -53.403  1.00  0.00    -0.550 OA
ENDBRANCH   7   8
ENDBRANCH   6   7
ENDBRANCH   5   6
ENDBRANCH   4   5
ENDBRANCH   3   4
ENDBRANCH   2   3
ENDBRANCH   1   2
BRANCH   1  11
ATOM     11  C   UNL     1      -3.605   9.427 -58.313  1.00  0.00     0.000 C 
BRANCH  11  12
ATOM     12  C   UNL     1      -4.573   8.251 -58.111  1.00  0.00    -0.000 C 
BRANCH  12  13
ATOM     13  C   UNL     1      -4.594   7.802 -56.645  1.00  0.00    -0.000 C 
BRANCH  13  14
ATOM     14  C   UNL     1      -4.819   6.287 -56.536  1.00  0.00    -0.000 C 
BRANCH  14  15
ATOM     15  C   UNL     1      -5.731   5.743 -57.647  1.00  0.00    -0.000 C 
BRANCH  15  16
ATOM     16  C   UNL     1      -7.118   5.328 -57.123  1.00  0.00    -0.000 C 
BRANCH  16  17
ATOM     17  C   UNL     1      -8.260   6.058 -57.846  1.00  0.00    -0.003 C 
ATOM     18  C   UNL     1      -8.012   7.559 -57.978  1.00  0.00     0.004 C 
ENDBRANCH  16  17
ENDBRANCH  15  16
ENDBRANCH  14  15
ENDBRANCH  13  14
ENDBRANCH  12  13
ENDBRANCH  11  12
ENDBRANCH   1  11
TORSDOF 14
ENDMDL
MODEL 6
REMARK VINA RESULT:    -3.934      3.455      5.838
REMARK INTER + INTRA:          -9.377
REMARK INTER:                  -7.394
REMARK INTRA:                  -1.983
REMARK UNBOUND:                -2.223
REMARK SMILES CCCCCCCCCCCCCCCC(=O)[O-]
REMARK SMILES IDX 9 1 10 2 11 3 12 4 13 5 14 6 15 7 16 8 17 9 18 10 8 11 7 12
REMARK SMILES IDX 6 13 5 14 4 15 3 16 2 17 1 18
REMARK H PARENT
REMARK Flexibility Score: inf
ROOT
ATOM      1  C   UNL     1      -3.799   9.005 -57.882  1.00  0.00     0.000 C 
ENDROOT
BRANCH   1   2
ATOM      2  C   UNL     1      -4.378   8.201 -59.056  1.00  0.00     0.000 C 
BRANCH   2   3
ATOM      3  C   UNL     1      -3.448   7.039 -59.436  1.00  0.00     0.000 C 
BRANCH   3   4
ATOM      4  C   UNL     1      -4.210   5.731 -59.718  1.00  0.00     0.000 C 
BRANCH   4   5
ATOM      5  C   UNL     1      -4.540   4.884 -58.472  1.00  0.00     0.000 C 
BRANCH   5   6
ATOM      6  C   UNL     1      -6.024   4.876 -58.063  1.00  0.00     0.006 C 
BRANCH   6   7
ATOM      7  C   UNL     1      -6.420   6.106 -57.237  1.00  0.00     0.053 C 
BRANCH   7   8
ATOM      8  C   UNL     1      -7.780   6.585 -57.633  1.00  0.00     0.041 C 
ATOM      9  O   UNL     1      -7.974   7.802 -57.887  1.00  0.00    -0.550 OA
ATOM     10  O   UNL     1      -8.823   5.678 -57.770  1.00  0.00    -0.550 OA
ENDBRANCH   7   8
ENDBRANCH   6   7
ENDBRANCH   5   6
ENDBRANCH   4   5
ENDBRANCH   3   4
ENDBRANCH   2   3
ENDBRANCH   1   2
BRANCH   1  11
ATOM     11  C   UNL     1      -2.706   8.238 -57.120  1.00  0.00     0.000 C 
BRANCH  11  12
ATOM     12  C   UNL     1      -3.249   7.504 -55.885  1.00  0.00    -0.000 C 
BRANCH  12  13
ATOM     13  C   UNL     1      -2.658   6.093 -55.780  1.00  0.00    -0.000 C 
BRANCH  13  14
ATOM     14  C   UNL     1      -1.263   6.031 -56.419  1.00  0.00    -0.000 C 
BRANCH  14  15
ATOM     15  C   UNL     1      -0.289   5.146 -55.627  1.00  0.00    -0.000 C 
BRANCH  15  16
ATOM     16  C   UNL     1       0.108   5.766 -54.275  1.00  0.00    -0.000 C 
BRANCH  16  17
ATOM     17  C   UNL     1       0.534   7.237 -54.407  1.00  0.00    -0.003 C 
ATOM     18  C   UNL     1       0.215   8.058 -53.159  1.00  0.00     0.004 C 
ENDBRANCH  16  17
ENDBRANCH  15  16
ENDBRANCH  14  15
ENDBRANCH  13  14
ENDBRANCH  12  13
ENDBRANCH  11  12
ENDBRANCH   1  11
TORSDOF 14
ENDMDL
MODEL 7
REMARK VINA RESULT:    -3.920      1.298      4.002
REMARK INTER + INTRA:          -9.351
REMARK INTER:                  -7.051
REMARK INTRA:                  -2.300
REMARK UNBOUND:                -2.223
REMARK SMILES CCCCCCCCCCCCCCCC(=O)[O-]
REMARK SMILES IDX 9 1 10 2 11 3 12 4 13 5 14 6 15 7 16 8 17 9 18 10 8 11 7 12
REMARK SMILES IDX 6 13 5 14 4 15 3 16 2 17 1 18
REMARK H PARENT
REMARK Flexibility Score: inf
ROOT
ATOM      1  C   UNL     1      -5.073   8.510 -58.816  1.00  0.00     0.000 C 
ENDROOT
BRANCH   1   2
ATOM      2  C   UNL     1      -5.855   7.914 -57.635  1.00  0.00     0.000 C 
BRANCH   2   3
ATOM      3  C   UNL     1      -5.308   6.529 -57.260  1.00  0.00     0.000 C 
BRANCH   3   4
ATOM      4  C   UNL     1      -4.270   6.583 -56.125  1.00  0.00     0.000 C 
BRANCH   4   5
ATOM      5  C   UNL     1      -3.473   5.282 -55.904  1.00  0.00     0.000 C 
BRANCH   5   6
ATOM      6  C   UNL     1      -2.004   5.479 -55.488  1.00  0.00     0.006 C 
BRANCH   6   7
ATOM      7  C   UNL     1      -1.666   6.940 -55.169  1.00  0.00     0.053 C 
BRANCH   7   8
ATOM      8  C   UNL     1      -0.998   7.042 -53.835  1.00  0.00     0.041 C 
ATOM      9  O   UNL     1      -1.281   6.226 -52.920  1.00  0.00    -0.550 OA
ATOM     10  O   UNL     1      -0.024   8.009 -53.618  1.00  0.00    -0.550 OA
ENDBRANCH   7   8
ENDBRANCH   6   7
ENDBRANCH   5   6
ENDBRANCH   4   5
ENDBRANCH   3   4
ENDBRANCH   2   3
ENDBRANCH   1   2
BRANCH   1  11
ATOM     11  C   UNL     1      -3.892   9.384 -58.364  1.00  0.00     0.000 C 
BRANCH  11  12
ATOM     12  C   UNL     1      -2.585   9.038 -59.093  1.00  0.00    -0.000 C 
BRANCH  12  13
ATOM     13  C   UNL     1      -1.973   7.745 -58.540  1.00  0.00    -0.000 C 
BRANCH  13  14
ATOM     14  C   UNL     1      -1.784   6.705 -59.653  1.00  0.00    -0.000 C 
BRANCH  14  15
ATOM     15  C   UNL     1      -2.381   5.336 -59.291  1.00  0.00    -0.000 C 
BRANCH  15  16
ATOM     16  C   UNL     1      -3.695   5.048 -60.038  1.00  0.00    -0.000 C 
BRANCH  16  17
ATOM     17  C   UNL     1      -3.885   5.955 -61.263  1.00  0.00    -0.003 C 
ATOM     18  C   UNL     1      -4.217   5.173 -62.532  1.00  0.00     0.004 C 
ENDBRANCH  16  17
ENDBRANCH  15  16
ENDBRANCH  14  15
ENDBRANCH  13  14
ENDBRANCH  12  13
ENDBRANCH  11  12
ENDBRANCH   1  11
TORSDOF 14
ENDMDL
MODEL 8
REMARK VINA RESULT:    -3.879      2.261      5.344
REMARK INTER + INTRA:          -9.276
REMARK INTER:                  -7.387
REMARK INTRA:                  -1.889
REMARK UNBOUND:                -2.223
REMARK SMILES CCCCCCCCCCCCCCCC(=O)[O-]
REMARK SMILES IDX 9 1 10 2 11 3 12 4 13 5 14 6 15 7 16 8 17 9 18 10 8 11 7 12
REMARK SMILES IDX 6 13 5 14 4 15 3 16 2 17 1 18
REMARK H PARENT
REMARK Flexibility Score: inf
ROOT
ATOM      1  C   UNL     1      -4.667   8.471 -57.691  1.00  0.00     0.000 C 
ENDROOT
BRANCH   1   2
ATOM      2  C   UNL     1      -5.736   7.515 -58.243  1.00  0.00     0.000 C 
BRANCH   2   3
ATOM      3  C   UNL     1      -6.001   6.364 -57.262  1.00  0.00     0.000 C 
BRANCH   3   4
ATOM      4  C   UNL     1      -5.298   5.056 -57.670  1.00  0.00     0.000 C 
BRANCH   4   5
ATOM      5  C   UNL     1      -4.693   5.054 -59.089  1.00  0.00     0.000 C 
BRANCH   5   6
ATOM      6  C   UNL     1      -3.157   5.125 -59.143  1.00  0.00     0.006 C 
BRANCH   6   7
ATOM      7  C   UNL     1      -2.644   6.260 -60.038  1.00  0.00     0.053 C 
BRANCH   7   8
ATOM      8  C   UNL     1      -1.543   7.006 -59.356  1.00  0.00     0.041 C 
ATOM      9  O   UNL     1      -0.532   6.391 -58.925  1.00  0.00    -0.550 OA
ATOM     10  O   UNL     1      -1.608   8.389 -59.240  1.00  0.00    -0.550 OA
ENDBRANCH   7   8
ENDBRANCH   6   7
ENDBRANCH   5   6
ENDBRANCH   4   5
ENDBRANCH   3   4
ENDBRANCH   2   3
ENDBRANCH   1   2
BRANCH   1  11
ATOM     11  C   UNL     1      -4.297   8.166 -56.231  1.00  0.00     0.000 C 
BRANCH  11  12
ATOM     12  C   UNL     1      -2.809   7.828 -56.055  1.00  0.00    -0.000 C 
BRANCH  12  13
ATOM     13  C   UNL     1      -2.619   6.345 -55.712  1.00  0.00    -0.000 C 
BRANCH  13  14
ATOM     14  C   UNL     1      -1.144   5.935 -55.835  1.00  0.00    -0.000 C 
BRANCH  14  15
ATOM     15  C   UNL     1      -0.699   4.983 -54.715  1.00  0.00    -0.000 C 
BRANCH  15  16
ATOM     16  C   UNL     1       0.281   5.646 -53.730  1.00  0.00    -0.000 C 
BRANCH  16  17
ATOM     17  C   UNL     1      -0.333   6.861 -53.018  1.00  0.00    -0.003 C 
ATOM     18  C   UNL     1       0.314   8.180 -53.436  1.00  0.00     0.004 C 
ENDBRANCH  16  17
ENDBRANCH  15  16
ENDBRANCH  14  15
ENDBRANCH  13  14
ENDBRANCH  12  13
ENDBRANCH  11  12
ENDBRANCH   1  11
TORSDOF 14
ENDMDL
MODEL 9
REMARK VINA RESULT:    -3.842     11.755     14.379
REMARK INTER + INTRA:          -9.209
REMARK INTER:                  -7.591
REMARK INTRA:                  -1.618
REMARK UNBOUND:                -2.223
REMARK SMILES CCCCCCCCCCCCCCCC(=O)[O-]
REMARK SMILES IDX 9 1 10 2 11 3 12 4 13 5 14 6 15 7 16 8 17 9 18 10 8 11 7 12
REMARK SMILES IDX 6 13 5 14 4 15 3 16 2 17 1 18
REMARK H PARENT
REMARK Flexibility Score: inf
ROOT
ATOM      1  C   UNL     1      -6.510  21.140 -61.103  1.00  0.00     0.000 C 
ENDROOT
BRANCH   1   2
ATOM      2  C   UNL     1      -5.406  21.374 -60.061  1.00  0.00     0.000 C 
BRANCH   2   3
ATOM      3  C   UNL     1      -5.026  20.061 -59.360  1.00  0.00     0.000 C 
BRANCH   3   4
ATOM      4  C   UNL     1      -4.812  18.898 -60.346  1.00  0.00     0.000 C 
BRANCH   4   5
ATOM      5  C   UNL     1      -5.686  17.653 -60.089  1.00  0.00     0.000 C 
BRANCH   5   6
ATOM      6  C   UNL     1      -6.067  16.853 -61.347  1.00  0.00     0.006 C 
BRANCH   6   7
ATOM      7  C   UNL     1      -7.523  17.071 -61.774  1.00  0.00     0.053 C 
BRANCH   7   8
ATOM      8  C   UNL     1      -8.331  15.837 -61.526  1.00  0.00     0.041 C 
ATOM      9  O   UNL     1      -9.458  15.698 -62.068  1.00  0.00    -0.550 OA
ATOM     10  O   UNL     1      -7.816  14.818 -60.736  1.00  0.00    -0.550 OA
ENDBRANCH   7   8
ENDBRANCH   6   7
ENDBRANCH   5   6
ENDBRANCH   4   5
ENDBRANCH   3   4
ENDBRANCH   2   3
ENDBRANCH   1   2
BRANCH   1  11
ATOM     11  C   UNL     1      -6.027  21.376 -62.542  1.00  0.00     0.000 C 
BRANCH  11  12
ATOM     12  C   UNL     1      -6.665  20.406 -63.548  1.00  0.00    -0.000 C 
BRANCH  12  13
ATOM     13  C   UNL     1      -5.630  19.408 -64.082  1.00  0.00    -0.000 C 
BRANCH  13  14
ATOM     14  C   UNL     1      -4.207  19.974 -63.965  1.00  0.00    -0.000 C 
BRANCH  14  15
ATOM     15  C   UNL     1      -3.210  19.266 -64.895  1.00  0.00    -0.000 C 
BRANCH  15  16
ATOM     16  C   UNL     1      -1.784  19.833 -64.776  1.00  0.00    -0.000 C 
BRANCH  16  17
ATOM     17  C   UNL     1      -0.973  19.153 -63.662  1.00  0.00    -0.003 C 
ATOM     18  C   UNL     1       0.274  18.445 -64.188  1.00  0.00     0.004 C 
ENDBRANCH  16  17
ENDBRANCH  15  16
ENDBRANCH  14  15
ENDBRANCH  13  14
ENDBRANCH  12  13
ENDBRANCH  11  12
ENDBRANCH   1  11
TORSDOF 14
ENDMDL
