MODEL 1
REMARK VINA RESULT:    -4.450      0.000      0.000
REMARK INTER + INTRA:          -9.612
REMARK INTER:                  -7.051
REMARK INTRA:                  -2.560
REMARK UNBOUND:                -2.560
REMARK SMILES C[C@H]1O[C@H](O[C@H]2[C@@H](Oc3cc(O)c4c(c3)O[C@@H](c3ccc(O)cc3)CC4=O)O[C@@H](CO)[C@H](O)[C@H]2O)[C@H](O)[C@H](O)[C@@H]1O
REMARK SMILES IDX 6 1 34 2 32 3 29 4 28 5 7 6 5 7 4 8 1 9 2 10 40 11 3 12
REMARK SMILES IDX 38 13 36 14 41 15 39 17 37 19 35 21 8 23 9 24 10 25 15 26
REMARK SMILES IDX 11 27 14 28 13 29 16 30 26 31 17 32 27 33 25 34 12 35 18 37
REMARK SMILES IDX 19 38 24 39 20 40 23 41 21 42 22 43 33 45 30 47 31 48
REMARK H PARENT 41 16 39 18 37 20 35 22 12 36 22 44 33 46 31 49
REMARK Flexibility Score: inf
ROOT
ATOM      1  C   UNL     1      22.873  24.949  52.570  1.00  0.00     0.221 C 
ATOM      2  C   UNL     1      24.215  24.780  53.322  1.00  0.00     0.181 C 
ATOM      3  C   UNL     1      24.628  26.085  54.056  1.00  0.00     0.177 C 
ATOM      4  C   UNL     1      24.478  27.326  53.087  1.00  0.00     0.179 C 
ATOM      5  O   UNL     1      23.625  27.126  51.969  1.00  0.00    -0.332 OA
ATOM      6  C   UNL     1      22.457  26.385  52.250  1.00  0.00     0.339 C 
ENDROOT
BRANCH   1   7
ATOM      7  O   UNL     1      21.792  24.329  53.298  1.00  0.00    -0.337 OA
BRANCH   7   8
ATOM      8  C   UNL     1      21.488  23.066  52.689  1.00  0.00     0.282 C 
ATOM      9  C   UNL     1      21.253  21.052  55.790  1.00  0.00     0.041 C 
ATOM     10  C   UNL     1      20.871  22.123  54.775  1.00  0.00     0.150 C 
ATOM     11  C   UNL     1      19.372  22.055  54.346  1.00  0.00     0.174 C 
ATOM     12  O   UNL     1      21.661  22.016  53.613  1.00  0.00    -0.344 OA
ATOM     13  C   UNL     1      19.035  23.214  53.360  1.00  0.00     0.179 C 
ATOM     14  C   UNL     1      20.060  23.086  52.193  1.00  0.00     0.202 C 
BRANCH  11  15
ATOM     15  O   UNL     1      18.497  21.989  55.457  1.00  0.00    -0.388 OA
ATOM     16  H   UNL     1      17.595  21.667  55.175  1.00  0.00     0.211 HD
ENDBRANCH  11  15
BRANCH  13  17
ATOM     17  O   UNL     1      19.162  24.495  53.919  1.00  0.00    -0.387 OA
ATOM     18  H   UNL     1      19.813  25.003  53.401  1.00  0.00     0.211 HD
ENDBRANCH  13  17
BRANCH  14  19
ATOM     19  O   UNL     1      19.855  23.967  51.130  1.00  0.00    -0.385 OA
ATOM     20  H   UNL     1      19.301  24.733  51.388  1.00  0.00     0.211 HD
ENDBRANCH  14  19
ENDBRANCH   7   8
ENDBRANCH   1   7
BRANCH   2  21
ATOM     21  O   UNL     1      24.132  23.710  54.251  1.00  0.00    -0.387 OA
ATOM     22  H   UNL     1      25.030  23.262  54.262  1.00  0.00     0.211 HD
ENDBRANCH   2  21
BRANCH   6  23
ATOM     23  O   UNL     1      21.719  27.010  53.250  1.00  0.00    -0.462 OA
BRANCH  23  24
ATOM     24  C   UNL     1      20.550  27.764  53.037  1.00  0.00     0.130 A 
ATOM     25  C   UNL     1      19.584  27.442  52.054  1.00  0.00     0.093 A 
ATOM     26  C   UNL     1      20.219  28.770  53.993  1.00  0.00     0.094 A 
ATOM     27  C   UNL     1      18.255  27.950  52.141  1.00  0.00     0.133 A 
ATOM     28  C   UNL     1      18.890  29.143  54.169  1.00  0.00     0.138 A 
ATOM     29  C   UNL     1      17.890  28.742  53.228  1.00  0.00     0.102 A 
ATOM     30  O   UNL     1      18.501  29.751  55.401  1.00  0.00    -0.484 OA
ATOM     31  C   UNL     1      16.488  28.755  53.733  1.00  0.00     0.174 C 
ATOM     32  C   UNL     1      17.136  29.722  55.889  1.00  0.00     0.211 C 
ATOM     33  O   UNL     1      15.563  29.386  53.177  1.00  0.00    -0.294 OA
ATOM     34  C   UNL     1      16.429  28.525  55.237  1.00  0.00     0.131 C 
BRANCH  27  35
ATOM     35  O   UNL     1      17.294  27.542  51.237  1.00  0.00    -0.507 OA
ATOM     36  H   UNL     1      16.328  27.640  51.431  1.00  0.00     0.293 HD
ENDBRANCH  27  35
BRANCH  32  37
ATOM     37  C   UNL     1      16.503  31.089  55.611  1.00  0.00    -0.007 A 
ATOM     38  C   UNL     1      17.287  32.137  55.091  1.00  0.00     0.011 A 
ATOM     39  C   UNL     1      15.217  31.359  56.140  1.00  0.00     0.011 A 
ATOM     40  C   UNL     1      16.827  33.457  55.157  1.00  0.00     0.046 A 
ATOM     41  C   UNL     1      14.742  32.672  56.121  1.00  0.00     0.046 A 
ATOM     42  C   UNL     1      15.552  33.722  55.737  1.00  0.00     0.115 A 
BRANCH  42  43
ATOM     43  O   UNL     1      15.167  35.034  55.987  1.00  0.00    -0.508 OA
ATOM     44  H   UNL     1      15.846  35.712  56.328  1.00  0.00     0.293 HD
ENDBRANCH  42  43
ENDBRANCH  32  37
ENDBRANCH  23  24
ENDBRANCH   6  23
BRANCH   3  45
ATOM     45  O   UNL     1      25.985  25.952  54.428  1.00  0.00    -0.387 OA
ATOM     46  H   UNL     1      26.326  25.059  54.143  1.00  0.00     0.211 HD
ENDBRANCH   3  45
BRANCH   4  47
ATOM     47  C   UNL     1      24.162  28.705  53.740  1.00  0.00     0.191 C 
BRANCH  47  48
ATOM     48  O   UNL     1      23.695  28.624  55.096  1.00  0.00    -0.394 OA
ATOM     49  H   UNL     1      22.794  29.086  55.130  1.00  0.00     0.210 HD
ENDBRANCH  47  48
ENDBRANCH   4  47
TORSDOF 14
ENDMDL
MODEL 2
REMARK VINA RESULT:    -4.384      1.854      2.617
REMARK INTER + INTRA:          -9.507
REMARK INTER:                  -6.696
REMARK INTRA:                  -2.811
REMARK UNBOUND:                -2.560
REMARK SMILES C[C@H]1O[C@H](O[C@H]2[C@@H](Oc3cc(O)c4c(c3)O[C@@H](c3ccc(O)cc3)CC4=O)O[C@@H](CO)[C@H](O)[C@H]2O)[C@H](O)[C@H](O)[C@@H]1O
REMARK SMILES IDX 6 1 34 2 32 3 29 4 28 5 7 6 5 7 4 8 1 9 2 10 40 11 3 12
REMARK SMILES IDX 38 13 36 14 41 15 39 17 37 19 35 21 8 23 9 24 10 25 15 26
REMARK SMILES IDX 11 27 14 28 13 29 16 30 26 31 17 32 27 33 25 34 12 35 18 37
REMARK SMILES IDX 19 38 24 39 20 40 23 41 21 42 22 43 33 45 30 47 31 48
REMARK H PARENT 41 16 39 18 37 20 35 22 12 36 22 44 33 46 31 49
REMARK Flexibility Score: inf
ROOT
ATOM      1  C   UNL     1      25.122  25.932  53.027  1.00  0.00     0.221 C 
ATOM      2  C   UNL     1      26.051  25.403  54.147  1.00  0.00     0.181 C 
ATOM      3  C   UNL     1      26.397  26.514  55.175  1.00  0.00     0.177 C 
ATOM      4  C   UNL     1      26.830  27.837  54.423  1.00  0.00     0.179 C 
ATOM      5  O   UNL     1      26.416  27.930  53.067  1.00  0.00    -0.332 OA
ATOM      6  C   UNL     1      25.113  27.447  52.820  1.00  0.00     0.339 C 
ENDROOT
BRANCH   1   7
ATOM      7  O   UNL     1      23.759  25.509  53.243  1.00  0.00    -0.337 OA
BRANCH   7   8
ATOM      8  C   UNL     1      23.443  24.472  52.302  1.00  0.00     0.282 C 
ATOM      9  C   UNL     1      22.462  21.860  54.741  1.00  0.00     0.041 C 
ATOM     10  C   UNL     1      22.375  23.176  53.977  1.00  0.00     0.150 C 
ATOM     11  C   UNL     1      20.977  23.417  53.328  1.00  0.00     0.174 C 
ATOM     12  O   UNL     1      23.344  23.226  52.953  1.00  0.00    -0.344 OA
ATOM     13  C   UNL     1      20.937  24.806  52.620  1.00  0.00     0.179 C 
ATOM     14  C   UNL     1      22.134  24.803  51.622  1.00  0.00     0.202 C 
BRANCH  11  15
ATOM     15  O   UNL     1      19.917  23.224  54.246  1.00  0.00    -0.388 OA
ATOM     16  H   UNL     1      19.987  22.327  54.680  1.00  0.00     0.211 HD
ENDBRANCH  11  15
BRANCH  13  17
ATOM     17  O   UNL     1      21.092  25.895  53.490  1.00  0.00    -0.387 OA
ATOM     18  H   UNL     1      21.924  26.355  53.277  1.00  0.00     0.211 HD
ENDBRANCH  13  17
BRANCH  14  19
ATOM     19  O   UNL     1      22.210  25.922  50.791  1.00  0.00    -0.385 OA
ATOM     20  H   UNL     1      21.492  25.935  50.124  1.00  0.00     0.211 HD
ENDBRANCH  14  19
ENDBRANCH   7   8
ENDBRANCH   1   7
BRANCH   2  21
ATOM     21  O   UNL     1      25.448  24.302  54.812  1.00  0.00    -0.387 OA
ATOM     22  H   UNL     1      24.678  24.667  55.341  1.00  0.00     0.211 HD
ENDBRANCH   2  21
BRANCH   6  23
ATOM     23  O   UNL     1      24.189  28.132  53.601  1.00  0.00    -0.462 OA
BRANCH  23  24
ATOM     24  C   UNL     1      23.095  28.862  53.102  1.00  0.00     0.130 A 
ATOM     25  C   UNL     1      22.888  29.110  51.723  1.00  0.00     0.093 A 
ATOM     26  C   UNL     1      22.037  29.183  54.003  1.00  0.00     0.094 A 
ATOM     27  C   UNL     1      21.600  29.468  51.230  1.00  0.00     0.133 A 
ATOM     28  C   UNL     1      20.749  29.379  53.512  1.00  0.00     0.138 A 
ATOM     29  C   UNL     1      20.520  29.538  52.109  1.00  0.00     0.102 A 
ATOM     30  O   UNL     1      19.641  29.216  54.397  1.00  0.00    -0.484 OA
ATOM     31  C   UNL     1      19.133  29.252  51.647  1.00  0.00     0.174 C 
ATOM     32  C   UNL     1      18.305  28.905  53.927  1.00  0.00     0.211 C 
ATOM     33  O   UNL     1      18.443  30.069  50.999  1.00  0.00    -0.294 OA
ATOM     34  C   UNL     1      18.435  28.242  52.547  1.00  0.00     0.131 C 
BRANCH  27  35
ATOM     35  O   UNL     1      21.387  29.601  49.872  1.00  0.00    -0.507 OA
ATOM     36  H   UNL     1      21.351  28.810  49.275  1.00  0.00     0.293 HD
ENDBRANCH  27  35
BRANCH  32  37
ATOM     37  C   UNL     1      17.478  30.194  53.960  1.00  0.00    -0.007 A 
ATOM     38  C   UNL     1      18.009  31.358  54.548  1.00  0.00     0.011 A 
ATOM     39  C   UNL     1      16.096  30.119  53.653  1.00  0.00     0.011 A 
ATOM     40  C   UNL     1      17.163  32.418  54.893  1.00  0.00     0.046 A 
ATOM     41  C   UNL     1      15.284  31.221  53.930  1.00  0.00     0.046 A 
ATOM     42  C   UNL     1      15.768  32.311  54.625  1.00  0.00     0.115 A 
BRANCH  42  43
ATOM     43  O   UNL     1      14.892  33.263  55.135  1.00  0.00    -0.508 OA
ATOM     44  H   UNL     1      14.100  32.977  55.708  1.00  0.00     0.293 HD
ENDBRANCH  42  43
ENDBRANCH  32  37
ENDBRANCH  23  24
ENDBRANCH   6  23
BRANCH   3  45
ATOM     45  O   UNL     1      27.482  26.051  55.953  1.00  0.00    -0.387 OA
ATOM     46  H   UNL     1      27.376  25.074  56.128  1.00  0.00     0.211 HD
ENDBRANCH   3  45
BRANCH   4  47
ATOM     47  C   UNL     1      26.551  29.189  55.144  1.00  0.00     0.191 C 
BRANCH  47  48
ATOM     48  O   UNL     1      25.472  29.144  56.090  1.00  0.00    -0.394 OA
ATOM     49  H   UNL     1      25.282  30.098  56.372  1.00  0.00     0.210 HD
ENDBRANCH  47  48
ENDBRANCH   4  47
TORSDOF 14
ENDMDL
MODEL 3
REMARK VINA RESULT:    -4.283     13.141     15.290
REMARK INTER + INTRA:          -9.347
REMARK INTER:                  -7.660
REMARK INTRA:                  -1.687
REMARK UNBOUND:                -2.560
REMARK SMILES C[C@H]1O[C@H](O[C@H]2[C@@H](Oc3cc(O)c4c(c3)O[C@@H](c3ccc(O)cc3)CC4=O)O[C@@H](CO)[C@H](O)[C@H]2O)[C@H](O)[C@H](O)[C@@H]1O
REMARK SMILES IDX 6 1 34 2 32 3 29 4 28 5 7 6 5 7 4 8 1 9 2 10 40 11 3 12
REMARK SMILES IDX 38 13 36 14 41 15 39 17 37 19 35 21 8 23 9 24 10 25 15 26
REMARK SMILES IDX 11 27 14 28 13 29 16 30 26 31 17 32 27 33 25 34 12 35 18 37
REMARK SMILES IDX 19 38 24 39 20 40 23 41 21 42 22 43 33 45 30 47 31 48
REMARK H PARENT 41 16 39 18 37 20 35 22 12 36 22 44 33 46 31 49
REMARK Flexibility Score: inf
ROOT
ATOM      1  C   UNL     1      25.705  30.394  41.715  1.00  0.00     0.221 C 
ATOM      2  C   UNL     1      25.987  28.877  41.846  1.00  0.00     0.181 C 
ATOM      3  C   UNL     1      24.688  28.076  42.132  1.00  0.00     0.177 C 
ATOM      4  C   UNL     1      23.860  28.772  43.285  1.00  0.00     0.179 C 
ATOM      5  O   UNL     1      24.173  30.138  43.520  1.00  0.00    -0.332 OA
ATOM      6  C   UNL     1      24.406  30.893  42.350  1.00  0.00     0.339 C 
ENDROOT
BRANCH   1   7
ATOM      7  O   UNL     1      25.703  30.801  40.331  1.00  0.00    -0.337 OA
BRANCH   7   8
ATOM      8  C   UNL     1      26.408  32.046  40.214  1.00  0.00     0.282 C 
ATOM      9  C   UNL     1      29.807  30.775  40.964  1.00  0.00     0.041 C 
ATOM     10  C   UNL     1      28.506  30.941  40.187  1.00  0.00     0.150 C 
ATOM     11  C   UNL     1      28.730  31.320  38.690  1.00  0.00     0.174 C 
ATOM     12  O   UNL     1      27.698  31.939  40.771  1.00  0.00    -0.344 OA
ATOM     13  C   UNL     1      27.366  31.411  37.941  1.00  0.00     0.179 C 
ATOM     14  C   UNL     1      26.506  32.425  38.755  1.00  0.00     0.202 C 
BRANCH  11  15
ATOM     15  O   UNL     1      29.665  30.469  38.054  1.00  0.00    -0.388 OA
ATOM     16  H   UNL     1      29.216  29.911  37.358  1.00  0.00     0.211 HD
ENDBRANCH  11  15
BRANCH  13  17
ATOM     17  O   UNL     1      26.669  30.196  37.875  1.00  0.00    -0.387 OA
ATOM     18  H   UNL     1      26.894  29.659  38.657  1.00  0.00     0.211 HD
ENDBRANCH  13  17
BRANCH  14  19
ATOM     19  O   UNL     1      25.275  32.745  38.181  1.00  0.00    -0.385 OA
ATOM     20  H   UNL     1      25.226  32.481  37.239  1.00  0.00     0.211 HD
ENDBRANCH  14  19
ENDBRANCH   7   8
ENDBRANCH   1   7
BRANCH   2  21
ATOM     21  O   UNL     1      26.608  28.385  40.668  1.00  0.00    -0.387 OA
ATOM     22  H   UNL     1      27.543  28.749  40.657  1.00  0.00     0.211 HD
ENDBRANCH   2  21
BRANCH   6  23
ATOM     23  O   UNL     1      23.296  30.841  41.514  1.00  0.00    -0.462 OA
BRANCH  23  24
ATOM     24  C   UNL     1      22.562  31.960  41.078  1.00  0.00     0.130 A 
ATOM     25  C   UNL     1      22.930  32.745  39.958  1.00  0.00     0.093 A 
ATOM     26  C   UNL     1      21.278  32.185  41.657  1.00  0.00     0.094 A 
ATOM     27  C   UNL     1      21.978  33.580  39.306  1.00  0.00     0.133 A 
ATOM     28  C   UNL     1      20.308  32.874  40.935  1.00  0.00     0.138 A 
ATOM     29  C   UNL     1      20.656  33.595  39.749  1.00  0.00     0.102 A 
ATOM     30  O   UNL     1      18.933  32.686  41.272  1.00  0.00    -0.484 OA
ATOM     31  C   UNL     1      19.533  33.868  38.809  1.00  0.00     0.174 C 
ATOM     32  C   UNL     1      17.858  32.927  40.330  1.00  0.00     0.211 C 
ATOM     33  O   UNL     1      19.236  35.015  38.410  1.00  0.00    -0.294 OA
ATOM     34  C   UNL     1      18.440  32.813  38.913  1.00  0.00     0.131 C 
BRANCH  27  35
ATOM     35  O   UNL     1      22.321  34.256  38.152  1.00  0.00    -0.507 OA
ATOM     36  H   UNL     1      22.185  35.234  38.066  1.00  0.00     0.293 HD
ENDBRANCH  27  35
BRANCH  32  37
ATOM     37  C   UNL     1      17.222  34.278  40.671  1.00  0.00    -0.007 A 
ATOM     38  C   UNL     1      16.232  34.824  39.832  1.00  0.00     0.011 A 
ATOM     39  C   UNL     1      17.834  35.083  41.665  1.00  0.00     0.011 A 
ATOM     40  C   UNL     1      15.897  36.179  39.930  1.00  0.00     0.046 A 
ATOM     41  C   UNL     1      17.426  36.411  41.801  1.00  0.00     0.046 A 
ATOM     42  C   UNL     1      16.556  36.990  40.900  1.00  0.00     0.115 A 
BRANCH  42  43
ATOM     43  O   UNL     1      16.380  38.369  40.881  1.00  0.00    -0.508 OA
ATOM     44  H   UNL     1      16.278  38.885  41.753  1.00  0.00     0.293 HD
ENDBRANCH  42  43
ENDBRANCH  32  37
ENDBRANCH  23  24
ENDBRANCH   6  23
BRANCH   3  45
ATOM     45  O   UNL     1      25.071  26.783  42.556  1.00  0.00    -0.387 OA
ATOM     46  H   UNL     1      25.527  26.841  43.441  1.00  0.00     0.211 HD
ENDBRANCH   3  45
BRANCH   4  47
ATOM     47  C   UNL     1      22.313  28.592  43.260  1.00  0.00     0.191 C 
BRANCH  47  48
ATOM     48  O   UNL     1      21.756  28.448  41.944  1.00  0.00    -0.394 OA
ATOM     49  H   UNL     1      20.989  29.107  41.871  1.00  0.00     0.210 HD
ENDBRANCH  47  48
ENDBRANCH   4  47
TORSDOF 14
ENDMDL
MODEL 4
REMARK VINA RESULT:    -4.266      2.714      4.150
REMARK INTER + INTRA:          -9.320
REMARK INTER:                  -6.371
REMARK INTRA:                  -2.949
REMARK UNBOUND:                -2.560
REMARK SMILES C[C@H]1O[C@H](O[C@H]2[C@@H](Oc3cc(O)c4c(c3)O[C@@H](c3ccc(O)cc3)CC4=O)O[C@@H](CO)[C@H](O)[C@H]2O)[C@H](O)[C@H](O)[C@@H]1O
REMARK SMILES IDX 6 1 34 2 32 3 29 4 28 5 7 6 5 7 4 8 1 9 2 10 40 11 3 12
REMARK SMILES IDX 38 13 36 14 41 15 39 17 37 19 35 21 8 23 9 24 10 25 15 26
REMARK SMILES IDX 11 27 14 28 13 29 16 30 26 31 17 32 27 33 25 34 12 35 18 37
REMARK SMILES IDX 19 38 24 39 20 40 23 41 21 42 22 43 33 45 30 47 31 48
REMARK H PARENT 41 16 39 18 37 20 35 22 12 36 22 44 33 46 31 49
REMARK Flexibility Score: inf
ROOT
ATOM      1  C   UNL     1      25.557  28.561  51.941  1.00  0.00     0.221 C 
ATOM      2  C   UNL     1      26.950  28.554  52.616  1.00  0.00     0.181 C 
ATOM      3  C   UNL     1      27.184  29.839  53.456  1.00  0.00     0.177 C 
ATOM      4  C   UNL     1      26.778  31.119  52.620  1.00  0.00     0.179 C 
ATOM      5  O   UNL     1      25.907  30.879  51.524  1.00  0.00    -0.332 OA
ATOM      6  C   UNL     1      24.894  29.930  51.780  1.00  0.00     0.339 C 
ENDROOT
BRANCH   1   7
ATOM      7  O   UNL     1      24.635  27.706  52.649  1.00  0.00    -0.337 OA
BRANCH   7   8
ATOM      8  C   UNL     1      24.252  26.624  51.787  1.00  0.00     0.282 C 
ATOM      9  C   UNL     1      25.635  23.848  53.814  1.00  0.00     0.041 C 
ATOM     10  C   UNL     1      24.724  25.019  53.468  1.00  0.00     0.150 C 
ATOM     11  C   UNL     1      23.208  24.685  53.629  1.00  0.00     0.174 C 
ATOM     12  O   UNL     1      24.936  25.443  52.140  1.00  0.00    -0.344 OA
ATOM     13  C   UNL     1      22.337  25.941  53.322  1.00  0.00     0.179 C 
ATOM     14  C   UNL     1      22.761  26.408  51.897  1.00  0.00     0.202 C 
BRANCH  11  15
ATOM     15  O   UNL     1      22.918  24.092  54.881  1.00  0.00    -0.388 OA
ATOM     16  H   UNL     1      22.795  24.793  55.582  1.00  0.00     0.211 HD
ENDBRANCH  11  15
BRANCH  13  17
ATOM     17  O   UNL     1      22.539  27.006  54.212  1.00  0.00    -0.387 OA
ATOM     18  H   UNL     1      23.491  27.081  54.405  1.00  0.00     0.211 HD
ENDBRANCH  13  17
BRANCH  14  19
ATOM     19  O   UNL     1      22.009  27.462  51.375  1.00  0.00    -0.385 OA
ATOM     20  H   UNL     1      22.573  28.200  51.064  1.00  0.00     0.211 HD
ENDBRANCH  14  19
ENDBRANCH   7   8
ENDBRANCH   1   7
BRANCH   2  21
ATOM     21  O   UNL     1      27.096  27.407  53.439  1.00  0.00    -0.387 OA
ATOM     22  H   UNL     1      26.175  27.143  53.739  1.00  0.00     0.211 HD
ENDBRANCH   2  21
BRANCH   6  23
ATOM     23  O   UNL     1      24.122  30.330  52.866  1.00  0.00    -0.462 OA
BRANCH  23  24
ATOM     24  C   UNL     1      22.747  30.623  52.813  1.00  0.00     0.130 A 
ATOM     25  C   UNL     1      22.136  31.296  51.727  1.00  0.00     0.093 A 
ATOM     26  C   UNL     1      21.898  30.031  53.793  1.00  0.00     0.094 A 
ATOM     27  C   UNL     1      20.730  31.207  51.509  1.00  0.00     0.133 A 
ATOM     28  C   UNL     1      20.555  29.811  53.500  1.00  0.00     0.138 A 
ATOM     29  C   UNL     1      19.952  30.414  52.351  1.00  0.00     0.102 A 
ATOM     30  O   UNL     1      19.841  28.819  54.237  1.00  0.00    -0.484 OA
ATOM     31  C   UNL     1      18.710  29.756  51.856  1.00  0.00     0.174 C 
ATOM     32  C   UNL     1      18.653  28.167  53.721  1.00  0.00     0.211 C 
ATOM     33  O   UNL     1      17.627  30.361  51.701  1.00  0.00    -0.294 OA
ATOM     34  C   UNL     1      18.688  28.270  52.189  1.00  0.00     0.131 C 
BRANCH  27  35
ATOM     35  O   UNL     1      20.163  31.777  50.387  1.00  0.00    -0.507 OA
ATOM     36  H   UNL     1      20.538  32.599  49.979  1.00  0.00     0.293 HD
ENDBRANCH  27  35
BRANCH  32  37
ATOM     37  C   UNL     1      17.432  28.804  54.394  1.00  0.00    -0.007 A 
ATOM     38  C   UNL     1      17.606  29.722  55.446  1.00  0.00     0.011 A 
ATOM     39  C   UNL     1      16.153  28.251  54.137  1.00  0.00     0.011 A 
ATOM     40  C   UNL     1      16.531  30.040  56.284  1.00  0.00     0.046 A 
ATOM     41  C   UNL     1      15.076  28.645  54.933  1.00  0.00     0.046 A 
ATOM     42  C   UNL     1      15.261  29.439  56.047  1.00  0.00     0.115 A 
BRANCH  42  43
ATOM     43  O   UNL     1      14.240  29.590  56.979  1.00  0.00    -0.508 OA
ATOM     44  H   UNL     1      14.431  29.471  57.972  1.00  0.00     0.293 HD
ENDBRANCH  42  43
ENDBRANCH  32  37
ENDBRANCH  23  24
ENDBRANCH   6  23
BRANCH   3  45
ATOM     45  O   UNL     1      28.564  29.905  53.757  1.00  0.00    -0.387 OA
ATOM     46  H   UNL     1      28.897  28.997  54.004  1.00  0.00     0.211 HD
ENDBRANCH   3  45
BRANCH   4  47
ATOM     47  C   UNL     1      26.278  32.361  53.417  1.00  0.00     0.191 C 
BRANCH  47  48
ATOM     48  O   UNL     1      25.691  32.049  54.690  1.00  0.00    -0.394 OA
ATOM     49  H   UNL     1      26.099  31.175  55.001  1.00  0.00     0.210 HD
ENDBRANCH  47  48
ENDBRANCH   4  47
TORSDOF 14
ENDMDL
MODEL 5
REMARK VINA RESULT:    -4.251      2.723      5.656
REMARK INTER + INTRA:          -9.296
REMARK INTER:                  -6.947
REMARK INTRA:                  -2.349
REMARK UNBOUND:                -2.560
REMARK SMILES C[C@H]1O[C@H](O[C@H]2[C@@H](Oc3cc(O)c4c(c3)O[C@@H](c3ccc(O)cc3)CC4=O)O[C@@H](CO)[C@H](O)[C@H]2O)[C@H](O)[C@H](O)[C@@H]1O
REMARK SMILES IDX 6 1 34 2 32 3 29 4 28 5 7 6 5 7 4 8 1 9 2 10 40 11 3 12
REMARK SMILES IDX 38 13 36 14 41 15 39 17 37 19 35 21 8 23 9 24 10 25 15 26
REMARK SMILES IDX 11 27 14 28 13 29 16 30 26 31 17 32 27 33 25 34 12 35 18 37
REMARK SMILES IDX 19 38 24 39 20 40 23 41 21 42 22 43 33 45 30 47 31 48
REMARK H PARENT 41 16 39 18 37 20 35 22 12 36 22 44 33 46 31 49
REMARK Flexibility Score: inf
ROOT
ATOM      1  C   UNL     1      24.707  26.331  53.952  1.00  0.00     0.221 C 
ATOM      2  C   UNL     1      25.239  25.441  52.803  1.00  0.00     0.181 C 
ATOM      3  C   UNL     1      24.366  25.573  51.526  1.00  0.00     0.177 C 
ATOM      4  C   UNL     1      22.834  25.456  51.898  1.00  0.00     0.179 C 
ATOM      5  O   UNL     1      22.518  25.701  53.262  1.00  0.00    -0.332 OA
ATOM      6  C   UNL     1      23.243  26.760  53.849  1.00  0.00     0.339 C 
ENDROOT
BRANCH   1   7
ATOM      7  O   UNL     1      25.507  27.524  54.094  1.00  0.00    -0.337 OA
BRANCH   7   8
ATOM      8  C   UNL     1      26.244  27.444  55.322  1.00  0.00     0.282 C 
ATOM      9  C   UNL     1      29.614  28.110  53.934  1.00  0.00     0.041 C 
ATOM     10  C   UNL     1      28.168  28.399  54.317  1.00  0.00     0.150 C 
ATOM     11  C   UNL     1      28.004  29.706  55.154  1.00  0.00     0.174 C 
ATOM     12  O   UNL     1      27.625  27.334  55.065  1.00  0.00    -0.344 OA
ATOM     13  C   UNL     1      26.498  29.975  55.456  1.00  0.00     0.179 C 
ATOM     14  C   UNL     1      25.970  28.682  56.145  1.00  0.00     0.202 C 
BRANCH  11  15
ATOM     15  O   UNL     1      28.665  30.809  54.563  1.00  0.00    -0.388 OA
ATOM     16  H   UNL     1      29.351  31.184  55.186  1.00  0.00     0.211 HD
ENDBRANCH  11  15
BRANCH  13  17
ATOM     17  O   UNL     1      25.721  30.214  54.313  1.00  0.00    -0.387 OA
ATOM     18  H   UNL     1      24.790  30.005  54.514  1.00  0.00     0.211 HD
ENDBRANCH  13  17
BRANCH  14  19
ATOM     19  O   UNL     1      24.657  28.758  56.611  1.00  0.00    -0.385 OA
ATOM     20  H   UNL     1      24.003  28.588  55.901  1.00  0.00     0.211 HD
ENDBRANCH  14  19
ENDBRANCH   7   8
ENDBRANCH   1   7
BRANCH   2  21
ATOM     21  O   UNL     1      26.587  25.772  52.503  1.00  0.00    -0.387 OA
ATOM     22  H   UNL     1      26.613  26.761  52.333  1.00  0.00     0.211 HD
ENDBRANCH   2  21
BRANCH   6  23
ATOM     23  O   UNL     1      23.034  27.938  53.139  1.00  0.00    -0.462 OA
BRANCH  23  24
ATOM     24  C   UNL     1      22.142  28.958  53.516  1.00  0.00     0.130 A 
ATOM     25  C   UNL     1      22.374  30.331  53.257  1.00  0.00     0.093 A 
ATOM     26  C   UNL     1      20.851  28.578  53.987  1.00  0.00     0.094 A 
ATOM     27  C   UNL     1      21.301  31.268  53.265  1.00  0.00     0.133 A 
ATOM     28  C   UNL     1      19.779  29.455  53.845  1.00  0.00     0.138 A 
ATOM     29  C   UNL     1      19.999  30.824  53.492  1.00  0.00     0.102 A 
ATOM     30  O   UNL     1      18.452  28.930  53.853  1.00  0.00    -0.484 OA
ATOM     31  C   UNL     1      18.831  31.531  52.896  1.00  0.00     0.174 C 
ATOM     32  C   UNL     1      17.335  29.620  53.237  1.00  0.00     0.211 C 
ATOM     33  O   UNL     1      18.367  32.598  53.355  1.00  0.00    -0.294 OA
ATOM     34  C   UNL     1      17.899  30.570  52.170  1.00  0.00     0.131 C 
BRANCH  27  35
ATOM     35  O   UNL     1      21.523  32.583  52.904  1.00  0.00    -0.507 OA
ATOM     36  H   UNL     1      21.947  32.817  52.040  1.00  0.00     0.293 HD
ENDBRANCH  27  35
BRANCH  32  37
ATOM     37  C   UNL     1      16.521  30.292  54.349  1.00  0.00    -0.007 A 
ATOM     38  C   UNL     1      15.427  31.115  54.023  1.00  0.00     0.011 A 
ATOM     39  C   UNL     1      17.050  30.299  55.664  1.00  0.00     0.011 A 
ATOM     40  C   UNL     1      14.901  31.993  54.976  1.00  0.00     0.046 A 
ATOM     41  C   UNL     1      16.457  31.122  56.623  1.00  0.00     0.046 A 
ATOM     42  C   UNL     1      15.474  32.028  56.281  1.00  0.00     0.115 A 
BRANCH  42  43
ATOM     43  O   UNL     1      15.096  33.025  57.175  1.00  0.00    -0.508 OA
ATOM     44  H   UNL     1      14.110  33.206  57.354  1.00  0.00     0.293 HD
ENDBRANCH  42  43
ENDBRANCH  32  37
ENDBRANCH  23  24
ENDBRANCH   6  23
BRANCH   3  45
ATOM     45  O   UNL     1      24.713  24.510  50.662  1.00  0.00    -0.387 OA
ATOM     46  H   UNL     1      25.573  24.102  50.959  1.00  0.00     0.211 HD
ENDBRANCH   3  45
BRANCH   4  47
ATOM     47  C   UNL     1      21.820  26.212  50.988  1.00  0.00     0.191 C 
BRANCH  47  48
ATOM     48  O   UNL     1      22.365  27.364  50.325  1.00  0.00    -0.394 OA
ATOM     49  H   UNL     1      22.039  27.338  49.366  1.00  0.00     0.210 HD
ENDBRANCH  47  48
ENDBRANCH   4  47
TORSDOF 14
ENDMDL
MODEL 6
REMARK VINA RESULT:    -4.244     13.367     16.892
REMARK INTER + INTRA:          -9.285
REMARK INTER:                  -7.057
REMARK INTRA:                  -2.229
REMARK UNBOUND:                -2.560
REMARK SMILES C[C@H]1O[C@H](O[C@H]2[C@@H](Oc3cc(O)c4c(c3)O[C@@H](c3ccc(O)cc3)CC4=O)O[C@@H](CO)[C@H](O)[C@H]2O)[C@H](O)[C@H](O)[C@@H]1O
REMARK SMILES IDX 6 1 34 2 32 3 29 4 28 5 7 6 5 7 4 8 1 9 2 10 40 11 3 12
REMARK SMILES IDX 38 13 36 14 41 15 39 17 37 19 35 21 8 23 9 24 10 25 15 26
REMARK SMILES IDX 11 27 14 28 13 29 16 30 26 31 17 32 27 33 25 34 12 35 18 37
REMARK SMILES IDX 19 38 24 39 20 40 23 41 21 42 22 43 33 45 30 47 31 48
REMARK H PARENT 41 16 39 18 37 20 35 22 12 36 22 44 33 46 31 49
REMARK Flexibility Score: inf
ROOT
ATOM      1  C   UNL     1      19.870  34.506  42.579  1.00  0.00     0.221 C 
ATOM      2  C   UNL     1      19.689  35.812  43.391  1.00  0.00     0.181 C 
ATOM      3  C   UNL     1      21.045  36.532  43.626  1.00  0.00     0.177 C 
ATOM      4  C   UNL     1      22.131  35.498  44.128  1.00  0.00     0.179 C 
ATOM      5  O   UNL     1      21.846  34.133  43.854  1.00  0.00    -0.332 OA
ATOM      6  C   UNL     1      21.274  33.899  42.585  1.00  0.00     0.339 C 
ENDROOT
BRANCH   1   7
ATOM      7  O   UNL     1      19.478  34.695  41.203  1.00  0.00    -0.337 OA
BRANCH   7   8
ATOM      8  C   UNL     1      19.203  33.412  40.621  1.00  0.00     0.282 C 
ATOM      9  C   UNL     1      15.614  33.208  41.522  1.00  0.00     0.041 C 
ATOM     10  C   UNL     1      16.863  33.738  40.827  1.00  0.00     0.150 C 
ATOM     11  C   UNL     1      16.702  33.849  39.279  1.00  0.00     0.174 C 
ATOM     12  O   UNL     1      17.973  32.909  41.091  1.00  0.00    -0.344 OA
ATOM     13  C   UNL     1      17.988  34.456  38.640  1.00  0.00     0.179 C 
ATOM     14  C   UNL     1      19.163  33.549  39.117  1.00  0.00     0.202 C 
BRANCH  11  15
ATOM     15  O   UNL     1      15.516  34.527  38.908  1.00  0.00    -0.388 OA
ATOM     16  H   UNL     1      15.404  34.524  37.916  1.00  0.00     0.211 HD
ENDBRANCH  11  15
BRANCH  13  17
ATOM     17  O   UNL     1      18.258  35.773  39.041  1.00  0.00    -0.387 OA
ATOM     18  H   UNL     1      19.165  35.816  39.394  1.00  0.00     0.211 HD
ENDBRANCH  13  17
BRANCH  14  19
ATOM     19  O   UNL     1      20.404  33.851  38.555  1.00  0.00    -0.385 OA
ATOM     20  H   UNL     1      21.036  34.197  39.219  1.00  0.00     0.211 HD
ENDBRANCH  14  19
ENDBRANCH   7   8
ENDBRANCH   1   7
BRANCH   2  21
ATOM     21  O   UNL     1      18.788  36.687  42.728  1.00  0.00    -0.387 OA
ATOM     22  H   UNL     1      18.021  36.126  42.406  1.00  0.00     0.211 HD
ENDBRANCH   2  21
BRANCH   6  23
ATOM     23  O   UNL     1      22.114  34.375  41.584  1.00  0.00    -0.462 OA
BRANCH  23  24
ATOM     24  C   UNL     1      22.876  33.566  40.720  1.00  0.00     0.130 A 
ATOM     25  C   UNL     1      23.891  34.073  39.872  1.00  0.00     0.093 A 
ATOM     26  C   UNL     1      22.769  32.151  40.859  1.00  0.00     0.094 A 
ATOM     27  C   UNL     1      24.898  33.214  39.344  1.00  0.00     0.133 A 
ATOM     28  C   UNL     1      23.832  31.338  40.477  1.00  0.00     0.138 A 
ATOM     29  C   UNL     1      24.910  31.866  39.698  1.00  0.00     0.102 A 
ATOM     30  O   UNL     1      23.940  30.031  41.041  1.00  0.00    -0.484 OA
ATOM     31  C   UNL     1      26.185  31.098  39.759  1.00  0.00     0.174 C 
ATOM     32  C   UNL     1      25.198  29.315  41.120  1.00  0.00     0.211 C 
ATOM     33  O   UNL     1      26.774  30.665  38.745  1.00  0.00    -0.294 OA
ATOM     34  C   UNL     1      26.331  30.351  41.077  1.00  0.00     0.131 C 
BRANCH  27  35
ATOM     35  O   UNL     1      25.943  33.739  38.609  1.00  0.00    -0.507 OA
ATOM     36  H   UNL     1      26.107  34.715  38.569  1.00  0.00     0.293 HD
ENDBRANCH  27  35
BRANCH  32  37
ATOM     37  C   UNL     1      25.221  28.271  39.999  1.00  0.00    -0.007 A 
ATOM     38  C   UNL     1      24.022  27.877  39.376  1.00  0.00     0.011 A 
ATOM     39  C   UNL     1      26.406  27.518  39.800  1.00  0.00     0.011 A 
ATOM     40  C   UNL     1      23.978  26.704  38.615  1.00  0.00     0.046 A 
ATOM     41  C   UNL     1      26.360  26.397  38.969  1.00  0.00     0.046 A 
ATOM     42  C   UNL     1      25.164  25.928  38.464  1.00  0.00     0.115 A 
BRANCH  42  43
ATOM     43  O   UNL     1      25.095  24.668  37.879  1.00  0.00    -0.508 OA
ATOM     44  H   UNL     1      25.060  23.834  38.462  1.00  0.00     0.293 HD
ENDBRANCH  42  43
ENDBRANCH  32  37
ENDBRANCH  23  24
ENDBRANCH   6  23
BRANCH   3  45
ATOM     45  O   UNL     1      20.840  37.508  44.628  1.00  0.00    -0.387 OA
ATOM     46  H   UNL     1      19.862  37.630  44.782  1.00  0.00     0.211 HD
ENDBRANCH   3  45
BRANCH   4  47
ATOM     47  C   UNL     1      23.618  35.797  43.772  1.00  0.00     0.191 C 
BRANCH  47  48
ATOM     48  O   UNL     1      23.794  36.592  42.589  1.00  0.00    -0.394 OA
ATOM     49  H   UNL     1      24.362  36.050  41.947  1.00  0.00     0.210 HD
ENDBRANCH  47  48
ENDBRANCH   4  47
TORSDOF 14
ENDMDL
MODEL 7
REMARK VINA RESULT:    -4.145     13.597     16.256
REMARK INTER + INTRA:          -9.128
REMARK INTER:                  -6.442
REMARK INTRA:                  -2.685
REMARK UNBOUND:                -2.560
REMARK SMILES C[C@H]1O[C@H](O[C@H]2[C@@H](Oc3cc(O)c4c(c3)O[C@@H](c3ccc(O)cc3)CC4=O)O[C@@H](CO)[C@H](O)[C@H]2O)[C@H](O)[C@H](O)[C@@H]1O
REMARK SMILES IDX 6 1 34 2 32 3 29 4 28 5 7 6 5 7 4 8 1 9 2 10 40 11 3 12
REMARK SMILES IDX 38 13 36 14 41 15 39 17 37 19 35 21 8 23 9 24 10 25 15 26
REMARK SMILES IDX 11 27 14 28 13 29 16 30 26 31 17 32 27 33 25 34 12 35 18 37
REMARK SMILES IDX 19 38 24 39 20 40 23 41 21 42 22 43 33 45 30 47 31 48
REMARK H PARENT 41 16 39 18 37 20 35 22 12 36 22 44 33 46 31 49
REMARK Flexibility Score: inf
ROOT
ATOM      1  C   UNL     1      27.495  33.359  41.555  1.00  0.00     0.221 C 
ATOM      2  C   UNL     1      28.820  33.161  40.779  1.00  0.00     0.181 C 
ATOM      3  C   UNL     1      28.701  32.029  39.723  1.00  0.00     0.177 C 
ATOM      4  C   UNL     1      28.028  30.751  40.368  1.00  0.00     0.179 C 
ATOM      5  O   UNL     1      27.285  30.988  41.555  1.00  0.00    -0.332 OA
ATOM      6  C   UNL     1      26.525  32.177  41.541  1.00  0.00     0.339 C 
ENDROOT
BRANCH   1   7
ATOM      7  O   UNL     1      26.784  34.519  41.073  1.00  0.00    -0.337 OA
BRANCH   7   8
ATOM      8  C   UNL     1      26.627  35.447  42.156  1.00  0.00     0.282 C 
ATOM      9  C   UNL     1      28.350  38.335  40.600  1.00  0.00     0.041 C 
ATOM     10  C   UNL     1      27.275  37.270  40.785  1.00  0.00     0.150 C 
ATOM     11  C   UNL     1      25.829  37.857  40.815  1.00  0.00     0.174 C 
ATOM     12  O   UNL     1      27.479  36.557  41.985  1.00  0.00    -0.344 OA
ATOM     13  C   UNL     1      24.779  36.712  40.942  1.00  0.00     0.179 C 
ATOM     14  C   UNL     1      25.188  35.906  42.211  1.00  0.00     0.202 C 
BRANCH  11  15
ATOM     15  O   UNL     1      25.581  38.730  39.728  1.00  0.00    -0.388 OA
ATOM     16  H   UNL     1      24.690  38.538  39.319  1.00  0.00     0.211 HD
ENDBRANCH  11  15
BRANCH  13  17
ATOM     17  O   UNL     1      24.758  35.833  39.849  1.00  0.00    -0.387 OA
ATOM     18  H   UNL     1      24.585  34.930  40.173  1.00  0.00     0.211 HD
ENDBRANCH  13  17
BRANCH  14  19
ATOM     19  O   UNL     1      24.298  34.895  42.577  1.00  0.00    -0.385 OA
ATOM     20  H   UNL     1      23.514  35.246  43.049  1.00  0.00     0.211 HD
ENDBRANCH  14  19
ENDBRANCH   7   8
ENDBRANCH   1   7
BRANCH   2  21
ATOM     21  O   UNL     1      29.210  34.371  40.146  1.00  0.00    -0.387 OA
ATOM     22  H   UNL     1      28.690  35.109  40.583  1.00  0.00     0.211 HD
ENDBRANCH   2  21
BRANCH   6  23
ATOM     23  O   UNL     1      25.637  32.170  40.471  1.00  0.00    -0.462 OA
BRANCH  23  24
ATOM     24  C   UNL     1      24.284  31.791  40.548  1.00  0.00     0.130 A 
ATOM     25  C   UNL     1      23.827  30.683  41.303  1.00  0.00     0.093 A 
ATOM     26  C   UNL     1      23.307  32.684  40.018  1.00  0.00     0.094 A 
ATOM     27  C   UNL     1      22.462  30.579  41.696  1.00  0.00     0.133 A 
ATOM     28  C   UNL     1      22.012  32.670  40.527  1.00  0.00     0.138 A 
ATOM     29  C   UNL     1      21.571  31.599  41.368  1.00  0.00     0.102 A 
ATOM     30  O   UNL     1      21.196  33.831  40.371  1.00  0.00    -0.484 OA
ATOM     31  C   UNL     1      20.397  31.903  42.233  1.00  0.00     0.174 C 
ATOM     32  C   UNL     1      20.078  34.123  41.246  1.00  0.00     0.211 C 
ATOM     33  O   UNL     1      19.351  31.218  42.236  1.00  0.00    -0.294 OA
ATOM     34  C   UNL     1      20.314  33.385  42.572  1.00  0.00     0.131 C 
BRANCH  27  35
ATOM     35  O   UNL     1      22.053  29.552  42.523  1.00  0.00    -0.507 OA
ATOM     36  H   UNL     1      21.102  29.444  42.781  1.00  0.00     0.293 HD
ENDBRANCH  27  35
BRANCH  32  37
ATOM     37  C   UNL     1      18.787  33.751  40.509  1.00  0.00    -0.007 A 
ATOM     38  C   UNL     1      18.837  33.339  39.163  1.00  0.00     0.011 A 
ATOM     39  C   UNL     1      17.547  34.093  41.102  1.00  0.00     0.011 A 
ATOM     40  C   UNL     1      17.673  33.332  38.388  1.00  0.00     0.046 A 
ATOM     41  C   UNL     1      16.384  33.999  40.334  1.00  0.00     0.046 A 
ATOM     42  C   UNL     1      16.438  33.726  38.982  1.00  0.00     0.115 A 
BRANCH  42  43
ATOM     43  O   UNL     1      15.315  33.912  38.183  1.00  0.00    -0.508 OA
ATOM     44  H   UNL     1      14.819  34.801  38.195  1.00  0.00     0.293 HD
ENDBRANCH  42  43
ENDBRANCH  32  37
ENDBRANCH  23  24
ENDBRANCH   6  23
BRANCH   3  45
ATOM     45  O   UNL     1      30.010  31.697  39.305  1.00  0.00    -0.387 OA
ATOM     46  H   UNL     1      30.259  30.800  39.662  1.00  0.00     0.211 HD
ENDBRANCH   3  45
BRANCH   4  47
ATOM     47  C   UNL     1      27.209  29.824  39.421  1.00  0.00     0.191 C 
BRANCH  47  48
ATOM     48  O   UNL     1      26.715  30.473  38.239  1.00  0.00    -0.394 OA
ATOM     49  H   UNL     1      27.307  31.278  38.071  1.00  0.00     0.210 HD
ENDBRANCH  47  48
ENDBRANCH   4  47
TORSDOF 14
ENDMDL
MODEL 8
REMARK VINA RESULT:    -4.111     13.812     16.151
REMARK INTER + INTRA:          -9.074
REMARK INTER:                  -6.812
REMARK INTRA:                  -2.262
REMARK UNBOUND:                -2.560
REMARK SMILES C[C@H]1O[C@H](O[C@H]2[C@@H](Oc3cc(O)c4c(c3)O[C@@H](c3ccc(O)cc3)CC4=O)O[C@@H](CO)[C@H](O)[C@H]2O)[C@H](O)[C@H](O)[C@@H]1O
REMARK SMILES IDX 6 1 34 2 32 3 29 4 28 5 7 6 5 7 4 8 1 9 2 10 40 11 3 12
REMARK SMILES IDX 38 13 36 14 41 15 39 17 37 19 35 21 8 23 9 24 10 25 15 26
REMARK SMILES IDX 11 27 14 28 13 29 16 30 26 31 17 32 27 33 25 34 12 35 18 37
REMARK SMILES IDX 19 38 24 39 20 40 23 41 21 42 22 43 33 45 30 47 31 48
REMARK H PARENT 41 16 39 18 37 20 35 22 12 36 22 44 33 46 31 49
REMARK Flexibility Score: inf
ROOT
ATOM      1  C   UNL     1      26.179  34.044  39.774  1.00  0.00     0.221 C 
ATOM      2  C   UNL     1      27.178  34.995  40.478  1.00  0.00     0.181 C 
ATOM      3  C   UNL     1      26.482  35.845  41.575  1.00  0.00     0.177 C 
ATOM      4  C   UNL     1      25.143  36.471  41.012  1.00  0.00     0.179 C 
ATOM      5  O   UNL     1      24.608  35.831  39.862  1.00  0.00    -0.332 OA
ATOM      6  C   UNL     1      24.701  34.423  39.881  1.00  0.00     0.339 C 
ENDROOT
BRANCH   1   7
ATOM      7  O   UNL     1      26.323  32.692  40.257  1.00  0.00    -0.337 OA
BRANCH   7   8
ATOM      8  C   UNL     1      26.222  31.791  39.146  1.00  0.00     0.282 C 
ATOM      9  C   UNL     1      29.848  31.319  38.546  1.00  0.00     0.041 C 
ATOM     10  C   UNL     1      28.522  31.233  39.292  1.00  0.00     0.150 C 
ATOM     11  C   UNL     1      28.182  29.788  39.773  1.00  0.00     0.174 C 
ATOM     12  O   UNL     1      27.460  31.683  38.481  1.00  0.00    -0.344 OA
ATOM     13  C   UNL     1      26.849  29.783  40.582  1.00  0.00     0.179 C 
ATOM     14  C   UNL     1      25.786  30.433  39.647  1.00  0.00     0.202 C 
BRANCH  11  15
ATOM     15  O   UNL     1      29.260  29.182  40.461  1.00  0.00    -0.388 OA
ATOM     16  H   UNL     1      29.863  28.707  39.821  1.00  0.00     0.211 HD
ENDBRANCH  11  15
BRANCH  13  17
ATOM     17  O   UNL     1      26.901  30.525  41.772  1.00  0.00    -0.387 OA
ATOM     18  H   UNL     1      26.132  30.292  42.323  1.00  0.00     0.211 HD
ENDBRANCH  13  17
BRANCH  14  19
ATOM     19  O   UNL     1      24.481  30.418  40.140  1.00  0.00    -0.385 OA
ATOM     20  H   UNL     1      24.338  29.695  40.785  1.00  0.00     0.211 HD
ENDBRANCH  14  19
ENDBRANCH   7   8
ENDBRANCH   1   7
BRANCH   2  21
ATOM     21  O   UNL     1      28.248  34.255  41.048  1.00  0.00    -0.387 OA
ATOM     22  H   UNL     1      28.362  34.585  41.989  1.00  0.00     0.211 HD
ENDBRANCH   2  21
BRANCH   6  23
ATOM     23  O   UNL     1      24.053  33.912  41.000  1.00  0.00    -0.462 OA
BRANCH  23  24
ATOM     24  C   UNL     1      22.726  33.444  41.020  1.00  0.00     0.130 A 
ATOM     25  C   UNL     1      22.032  33.118  42.210  1.00  0.00     0.093 A 
ATOM     26  C   UNL     1      21.978  33.502  39.807  1.00  0.00     0.094 A 
ATOM     27  C   UNL     1      20.609  33.058  42.234  1.00  0.00     0.133 A 
ATOM     28  C   UNL     1      20.590  33.598  39.857  1.00  0.00     0.138 A 
ATOM     29  C   UNL     1      19.887  33.361  41.081  1.00  0.00     0.102 A 
ATOM     30  O   UNL     1      19.893  34.133  38.732  1.00  0.00    -0.484 OA
ATOM     31  C   UNL     1      18.520  33.948  41.161  1.00  0.00     0.174 C 
ATOM     32  C   UNL     1      18.577  34.730  38.840  1.00  0.00     0.211 C 
ATOM     33  O   UNL     1      17.498  33.276  41.422  1.00  0.00    -0.294 OA
ATOM     34  C   UNL     1      18.387  35.192  40.293  1.00  0.00     0.131 C 
BRANCH  27  35
ATOM     35  O   UNL     1      19.941  32.847  43.424  1.00  0.00    -0.507 OA
ATOM     36  H   UNL     1      19.666  33.602  44.003  1.00  0.00     0.293 HD
ENDBRANCH  27  35
BRANCH  32  37
ATOM     37  C   UNL     1      17.550  33.711  38.336  1.00  0.00    -0.007 A 
ATOM     38  C   UNL     1      16.175  34.005  38.397  1.00  0.00     0.011 A 
ATOM     39  C   UNL     1      17.983  32.386  38.079  1.00  0.00     0.011 A 
ATOM     40  C   UNL     1      15.231  32.980  38.273  1.00  0.00     0.046 A 
ATOM     41  C   UNL     1      17.024  31.392  37.875  1.00  0.00     0.046 A 
ATOM     42  C   UNL     1      15.680  31.643  38.064  1.00  0.00     0.115 A 
BRANCH  42  43
ATOM     43  O   UNL     1      14.772  30.591  38.133  1.00  0.00    -0.508 OA
ATOM     44  H   UNL     1      13.786  30.776  38.308  1.00  0.00     0.293 HD
ENDBRANCH  42  43
ENDBRANCH  32  37
ENDBRANCH  23  24
ENDBRANCH   6  23
BRANCH   3  45
ATOM     45  O   UNL     1      27.366  36.890  41.929  1.00  0.00    -0.387 OA
ATOM     46  H   UNL     1      27.368  37.584  41.212  1.00  0.00     0.211 HD
ENDBRANCH   3  45
BRANCH   4  47
ATOM     47  C   UNL     1      23.998  36.741  42.034  1.00  0.00     0.191 C 
BRANCH  47  48
ATOM     48  O   UNL     1      24.052  35.922  43.213  1.00  0.00    -0.394 OA
ATOM     49  H   UNL     1      24.134  34.960  42.905  1.00  0.00     0.210 HD
ENDBRANCH  47  48
ENDBRANCH   4  47
TORSDOF 14
ENDMDL
MODEL 9
REMARK VINA RESULT:    -4.083     12.390     14.701
REMARK INTER + INTRA:          -9.031
REMARK INTER:                  -6.562
REMARK INTRA:                  -2.469
REMARK UNBOUND:                -2.560
REMARK SMILES C[C@H]1O[C@H](O[C@H]2[C@@H](Oc3cc(O)c4c(c3)O[C@@H](c3ccc(O)cc3)CC4=O)O[C@@H](CO)[C@H](O)[C@H]2O)[C@H](O)[C@H](O)[C@@H]1O
REMARK SMILES IDX 6 1 34 2 32 3 29 4 28 5 7 6 5 7 4 8 1 9 2 10 40 11 3 12
REMARK SMILES IDX 38 13 36 14 41 15 39 17 37 19 35 21 8 23 9 24 10 25 15 26
REMARK SMILES IDX 11 27 14 28 13 29 16 30 26 31 17 32 27 33 25 34 12 35 18 37
REMARK SMILES IDX 19 38 24 39 20 40 23 41 21 42 22 43 33 45 30 47 31 48
REMARK H PARENT 41 16 39 18 37 20 35 22 12 36 22 44 33 46 31 49
REMARK Flexibility Score: inf
ROOT
ATOM      1  C   UNL     1      22.085  26.768  40.633  1.00  0.00     0.221 C 
ATOM      2  C   UNL     1      22.163  25.257  40.305  1.00  0.00     0.181 C 
ATOM      3  C   UNL     1      23.556  24.864  39.745  1.00  0.00     0.177 C 
ATOM      4  C   UNL     1      23.999  25.885  38.620  1.00  0.00     0.179 C 
ATOM      5  O   UNL     1      23.332  27.139  38.639  1.00  0.00    -0.332 OA
ATOM      6  C   UNL     1      23.108  27.662  39.931  1.00  0.00     0.339 C 
ENDROOT
BRANCH   1   7
ATOM      7  O   UNL     1      22.204  26.995  42.053  1.00  0.00    -0.337 OA
BRANCH   7   8
ATOM      8  C   UNL     1      20.911  27.327  42.578  1.00  0.00     0.282 C 
ATOM      9  C   UNL     1      20.893  24.952  45.422  1.00  0.00     0.041 C 
ATOM     10  C   UNL     1      21.341  26.148  44.590  1.00  0.00     0.150 C 
ATOM     11  C   UNL     1      21.392  27.478  45.405  1.00  0.00     0.174 C 
ATOM     12  O   UNL     1      20.479  26.344  43.492  1.00  0.00    -0.344 OA
ATOM     13  C   UNL     1      21.918  28.643  44.513  1.00  0.00     0.179 C 
ATOM     14  C   UNL     1      20.985  28.671  43.265  1.00  0.00     0.202 C 
BRANCH  11  15
ATOM     15  O   UNL     1      22.103  27.336  46.621  1.00  0.00    -0.388 OA
ATOM     16  H   UNL     1      22.448  26.404  46.720  1.00  0.00     0.211 HD
ENDBRANCH  11  15
BRANCH  13  17
ATOM     17  O   UNL     1      23.239  28.473  44.071  1.00  0.00    -0.387 OA
ATOM     18  H   UNL     1      23.479  29.223  43.497  1.00  0.00     0.211 HD
ENDBRANCH  13  17
BRANCH  14  19
ATOM     19  O   UNL     1      21.211  29.731  42.385  1.00  0.00    -0.385 OA
ATOM     20  H   UNL     1      21.702  29.448  41.585  1.00  0.00     0.211 HD
ENDBRANCH  14  19
ENDBRANCH   7   8
ENDBRANCH   1   7
BRANCH   2  21
ATOM     21  O   UNL     1      21.872  24.483  41.460  1.00  0.00    -0.387 OA
ATOM     22  H   UNL     1      20.884  24.311  41.455  1.00  0.00     0.211 HD
ENDBRANCH   2  21
BRANCH   6  23
ATOM     23  O   UNL     1      24.314  27.805  40.608  1.00  0.00    -0.462 OA
BRANCH  23  24
ATOM     24  C   UNL     1      24.991  29.023  40.800  1.00  0.00     0.130 A 
ATOM     25  C   UNL     1      26.402  29.140  40.793  1.00  0.00     0.093 A 
ATOM     26  C   UNL     1      24.223  30.225  40.789  1.00  0.00     0.094 A 
ATOM     27  C   UNL     1      27.031  30.399  40.572  1.00  0.00     0.133 A 
ATOM     28  C   UNL     1      24.825  31.424  40.419  1.00  0.00     0.138 A 
ATOM     29  C   UNL     1      26.249  31.525  40.319  1.00  0.00     0.102 A 
ATOM     30  O   UNL     1      24.004  32.491  39.943  1.00  0.00    -0.484 OA
ATOM     31  C   UNL     1      26.757  32.640  39.472  1.00  0.00     0.174 C 
ATOM     32  C   UNL     1      24.513  33.548  39.091  1.00  0.00     0.211 C 
ATOM     33  O   UNL     1      27.566  33.501  39.883  1.00  0.00    -0.294 OA
ATOM     34  C   UNL     1      25.766  33.016  38.379  1.00  0.00     0.131 C 
BRANCH  27  35
ATOM     35  O   UNL     1      28.405  30.480  40.458  1.00  0.00    -0.507 OA
ATOM     36  H   UNL     1      28.900  29.950  39.783  1.00  0.00     0.293 HD
ENDBRANCH  27  35
BRANCH  32  37
ATOM     37  C   UNL     1      24.730  34.792  39.958  1.00  0.00    -0.007 A 
ATOM     38  C   UNL     1      24.342  34.786  41.312  1.00  0.00     0.011 A 
ATOM     39  C   UNL     1      25.057  36.014  39.319  1.00  0.00     0.011 A 
ATOM     40  C   UNL     1      24.213  35.991  42.010  1.00  0.00     0.046 A 
ATOM     41  C   UNL     1      25.001  37.197  40.057  1.00  0.00     0.046 A 
ATOM     42  C   UNL     1      24.496  37.217  41.342  1.00  0.00     0.115 A 
BRANCH  42  43
ATOM     43  O   UNL     1      24.186  38.426  41.955  1.00  0.00    -0.508 OA
ATOM     44  H   UNL     1      24.381  38.563  42.945  1.00  0.00     0.293 HD
ENDBRANCH  42  43
ENDBRANCH  32  37
ENDBRANCH  23  24
ENDBRANCH   6  23
BRANCH   3  45
ATOM     45  O   UNL     1      23.438  23.576  39.176  1.00  0.00    -0.387 OA
ATOM     46  H   UNL     1      22.614  23.131  39.519  1.00  0.00     0.211 HD
ENDBRANCH   3  45
BRANCH   4  47
ATOM     47  C   UNL     1      25.528  26.115  38.430  1.00  0.00     0.191 C 
BRANCH  47  48
ATOM     48  O   UNL     1      25.869  27.396  37.875  1.00  0.00    -0.394 OA
ATOM     49  H   UNL     1      26.611  27.781  38.447  1.00  0.00     0.210 HD
ENDBRANCH  47  48
ENDBRANCH   4  47
TORSDOF 14
ENDMDL
