MODEL 1
REMARK VINA RESULT:    -3.927      0.000      0.000
REMARK INTER + INTRA:          -8.683
REMARK INTER:                  -6.911
REMARK INTRA:                  -1.773
REMARK UNBOUND:                -1.773
REMARK SMILES CCCCCCCCCCCCCCC(=O)[O-]
REMARK SMILES IDX 9 1 10 2 11 3 12 4 13 5 14 6 15 7 16 8 17 9 8 10 7 11 6 12
REMARK SMILES IDX 5 13 4 14 3 15 2 16 1 17
REMARK H PARENT
REMARK Flexibility Score: inf
ROOT
ATOM      1  C   UNL     1      -7.015  20.399  -7.926  1.00  0.00     0.000 C 
ENDROOT
BRANCH   1   2
ATOM      2  C   UNL     1      -7.635  20.841  -9.262  1.00  0.00     0.000 C 
BRANCH   2   3
ATOM      3  C   UNL     1      -7.105  20.029 -10.453  1.00  0.00     0.000 C 
BRANCH   3   4
ATOM      4  C   UNL     1      -8.064  20.050 -11.655  1.00  0.00     0.000 C 
BRANCH   4   5
ATOM      5  C   UNL     1      -8.808  18.716 -11.857  1.00  0.00     0.006 C 
BRANCH   5   6
ATOM      6  C   UNL     1     -10.274  18.743 -11.386  1.00  0.00     0.053 C 
BRANCH   6   7
ATOM      7  C   UNL     1     -10.902  17.383 -11.371  1.00  0.00     0.041 C 
ATOM      8  O   UNL     1     -11.893  17.132 -12.108  1.00  0.00    -0.550 OA
ATOM      9  O   UNL     1     -10.374  16.381 -10.566  1.00  0.00    -0.550 OA
ENDBRANCH   6   7
ENDBRANCH   5   6
ENDBRANCH   4   5
ENDBRANCH   3   4
ENDBRANCH   2   3
ENDBRANCH   1   2
BRANCH   1  10
ATOM     10  C   UNL     1      -5.488  20.222  -8.006  1.00  0.00     0.000 C 
BRANCH  10  11
ATOM     11  C   UNL     1      -4.845  19.807  -6.665  1.00  0.00    -0.000 C 
BRANCH  11  12
ATOM     12  C   UNL     1      -4.054  18.492  -6.784  1.00  0.00    -0.000 C 
BRANCH  12  13
ATOM     13  C   UNL     1      -4.747  17.317  -6.077  1.00  0.00    -0.000 C 
BRANCH  13  14
ATOM     14  C   UNL     1      -5.381  16.324  -7.062  1.00  0.00    -0.000 C 
BRANCH  14  15
ATOM     15  C   UNL     1      -6.775  16.793  -7.494  1.00  0.00    -0.000 C 
BRANCH  15  16
ATOM     16  C   UNL     1      -6.970  16.623  -9.005  1.00  0.00    -0.003 C 
ATOM     17  C   UNL     1      -5.646  16.756  -9.751  1.00  0.00     0.004 C 
ENDBRANCH  15  16
ENDBRANCH  14  15
ENDBRANCH  13  14
ENDBRANCH  12  13
ENDBRANCH  11  12
ENDBRANCH  10  11
ENDBRANCH   1  10
TORSDOF 13
ENDMDL
MODEL 2
REMARK VINA RESULT:    -3.834      1.044      1.909
REMARK INTER + INTRA:          -8.520
REMARK INTER:                  -6.374
REMARK INTRA:                  -2.146
REMARK UNBOUND:                -1.773
REMARK SMILES CCCCCCCCCCCCCCC(=O)[O-]
REMARK SMILES IDX 9 1 10 2 11 3 12 4 13 5 14 6 15 7 16 8 17 9 8 10 7 11 6 12
REMARK SMILES IDX 5 13 4 14 3 15 2 16 1 17
REMARK H PARENT
REMARK Flexibility Score: inf
ROOT
ATOM      1  C   UNL     1      -5.451  20.419  -7.325  1.00  0.00     0.000 C 
ENDROOT
BRANCH   1   2
ATOM      2  C   UNL     1      -4.801  20.057  -8.671  1.00  0.00     0.000 C 
BRANCH   2   3
ATOM      3  C   UNL     1      -5.808  20.062  -9.830  1.00  0.00     0.000 C 
BRANCH   3   4
ATOM      4  C   UNL     1      -7.245  19.766  -9.365  1.00  0.00     0.000 C 
BRANCH   4   5
ATOM      5  C   UNL     1      -8.231  19.582 -10.534  1.00  0.00     0.006 C 
BRANCH   5   6
ATOM      6  C   UNL     1      -8.395  18.120 -10.987  1.00  0.00     0.053 C 
BRANCH   6   7
ATOM      7  C   UNL     1      -9.828  17.734 -11.192  1.00  0.00     0.041 C 
ATOM      8  O   UNL     1     -10.232  16.588 -10.861  1.00  0.00    -0.550 OA
ATOM      9  O   UNL     1     -10.727  18.652 -11.721  1.00  0.00    -0.550 OA
ENDBRANCH   6   7
ENDBRANCH   5   6
ENDBRANCH   4   5
ENDBRANCH   3   4
ENDBRANCH   2   3
ENDBRANCH   1   2
BRANCH   1  10
ATOM     10  C   UNL     1      -4.643  19.914  -6.117  1.00  0.00     0.000 C 
BRANCH  10  11
ATOM     11  C   UNL     1      -3.940  18.563  -6.368  1.00  0.00    -0.000 C 
BRANCH  11  12
ATOM     12  C   UNL     1      -4.618  17.407  -5.612  1.00  0.00    -0.000 C 
BRANCH  12  13
ATOM     13  C   UNL     1      -5.159  16.319  -6.552  1.00  0.00    -0.000 C 
BRANCH  13  14
ATOM     14  C   UNL     1      -6.304  16.822  -7.444  1.00  0.00    -0.000 C 
BRANCH  14  15
ATOM     15  C   UNL     1      -6.142  16.314  -8.881  1.00  0.00    -0.000 C 
BRANCH  15  16
ATOM     16  C   UNL     1      -4.670  16.333  -9.310  1.00  0.00    -0.003 C 
ATOM     17  C   UNL     1      -4.529  16.712 -10.781  1.00  0.00     0.004 C 
ENDBRANCH  15  16
ENDBRANCH  14  15
ENDBRANCH  13  14
ENDBRANCH  12  13
ENDBRANCH  11  12
ENDBRANCH  10  11
ENDBRANCH   1  10
TORSDOF 13
ENDMDL
MODEL 3
REMARK VINA RESULT:    -3.788      1.125      2.817
REMARK INTER + INTRA:          -8.439
REMARK INTER:                  -6.825
REMARK INTRA:                  -1.614
REMARK UNBOUND:                -1.773
REMARK SMILES CCCCCCCCCCCCCCC(=O)[O-]
REMARK SMILES IDX 9 1 10 2 11 3 12 4 13 5 14 6 15 7 16 8 17 9 8 10 7 11 6 12
REMARK SMILES IDX 5 13 4 14 3 15 2 16 1 17
REMARK H PARENT
REMARK Flexibility Score: inf
ROOT
ATOM      1  C   UNL     1      -6.901  16.825  -9.048  1.00  0.00     0.000 C 
ENDROOT
BRANCH   1   2
ATOM      2  C   UNL     1      -7.769  17.220 -10.254  1.00  0.00     0.000 C 
BRANCH   2   3
ATOM      3  C   UNL     1      -7.523  18.666 -10.707  1.00  0.00     0.000 C 
BRANCH   3   4
ATOM      4  C   UNL     1      -7.905  18.897 -12.179  1.00  0.00     0.000 C 
BRANCH   4   5
ATOM      5  C   UNL     1      -9.423  19.053 -12.390  1.00  0.00     0.006 C 
BRANCH   5   6
ATOM      6  C   UNL     1     -10.105  17.799 -12.967  1.00  0.00     0.053 C 
BRANCH   6   7
ATOM      7  C   UNL     1     -11.284  17.356 -12.155  1.00  0.00     0.041 C 
ATOM      8  O   UNL     1     -11.150  17.084 -10.933  1.00  0.00    -0.550 OA
ATOM      9  O   UNL     1     -12.540  17.274 -12.743  1.00  0.00    -0.550 OA
ENDBRANCH   6   7
ENDBRANCH   5   6
ENDBRANCH   4   5
ENDBRANCH   3   4
ENDBRANCH   2   3
ENDBRANCH   1   2
BRANCH   1  10
ATOM     10  C   UNL     1      -5.451  16.490  -9.440  1.00  0.00     0.000 C 
BRANCH  10  11
ATOM     11  C   UNL     1      -4.500  16.363  -8.231  1.00  0.00    -0.000 C 
BRANCH  11  12
ATOM     12  C   UNL     1      -5.252  16.441  -6.890  1.00  0.00    -0.000 C 
BRANCH  12  13
ATOM     13  C   UNL     1      -4.534  17.324  -5.858  1.00  0.00    -0.000 C 
BRANCH  13  14
ATOM     14  C   UNL     1      -3.876  18.559  -6.490  1.00  0.00    -0.000 C 
BRANCH  14  15
ATOM     15  C   UNL     1      -4.793  19.783  -6.384  1.00  0.00    -0.000 C 
BRANCH  15  16
ATOM     16  C   UNL     1      -5.559  20.013  -7.693  1.00  0.00    -0.003 C 
ATOM     17  C   UNL     1      -4.609  20.070  -8.885  1.00  0.00     0.004 C 
ENDBRANCH  15  16
ENDBRANCH  14  15
ENDBRANCH  13  14
ENDBRANCH  12  13
ENDBRANCH  11  12
ENDBRANCH  10  11
ENDBRANCH   1  10
TORSDOF 13
ENDMDL
MODEL 4
REMARK VINA RESULT:    -3.704      2.872      6.457
REMARK INTER + INTRA:          -8.292
REMARK INTER:                  -6.777
REMARK INTRA:                  -1.515
REMARK UNBOUND:                -1.773
REMARK SMILES CCCCCCCCCCCCCCC(=O)[O-]
REMARK SMILES IDX 9 1 10 2 11 3 12 4 13 5 14 6 15 7 16 8 17 9 8 10 7 11 6 12
REMARK SMILES IDX 5 13 4 14 3 15 2 16 1 17
REMARK H PARENT
REMARK Flexibility Score: inf
ROOT
ATOM      1  C   UNL     1      -6.811  17.493  -9.859  1.00  0.00     0.000 C 
ENDROOT
BRANCH   1   2
ATOM      2  C   UNL     1      -5.342  17.064 -10.017  1.00  0.00     0.000 C 
BRANCH   2   3
ATOM      3  C   UNL     1      -4.827  16.273  -8.806  1.00  0.00     0.000 C 
BRANCH   3   4
ATOM      4  C   UNL     1      -5.784  16.346  -7.603  1.00  0.00     0.000 C 
BRANCH   4   5
ATOM      5  C   UNL     1      -5.102  16.856  -6.320  1.00  0.00     0.006 C 
BRANCH   5   6
ATOM      6  C   UNL     1      -4.115  18.013  -6.557  1.00  0.00     0.053 C 
BRANCH   6   7
ATOM      7  C   UNL     1      -4.773  19.358  -6.494  1.00  0.00     0.041 C 
ATOM      8  O   UNL     1      -5.454  19.780  -7.467  1.00  0.00    -0.550 OA
ATOM      9  O   UNL     1      -4.662  20.134  -5.347  1.00  0.00    -0.550 OA
ENDBRANCH   6   7
ENDBRANCH   5   6
ENDBRANCH   4   5
ENDBRANCH   3   4
ENDBRANCH   2   3
ENDBRANCH   1   2
BRANCH   1  10
ATOM     10  C   UNL     1      -7.263  18.485 -10.945  1.00  0.00     0.000 C 
BRANCH  10  11
ATOM     11  C   UNL     1      -8.001  19.719 -10.382  1.00  0.00    -0.000 C 
BRANCH  11  12
ATOM     12  C   UNL     1      -8.833  20.437 -11.459  1.00  0.00    -0.000 C 
BRANCH  12  13
ATOM     13  C   UNL     1     -10.322  20.533 -11.092  1.00  0.00    -0.000 C 
BRANCH  13  14
ATOM     14  C   UNL     1     -11.005  19.159 -11.027  1.00  0.00    -0.000 C 
BRANCH  14  15
ATOM     15  C   UNL     1     -11.012  18.483 -12.403  1.00  0.00    -0.000 C 
BRANCH  15  16
ATOM     16  C   UNL     1     -10.390  17.083 -12.331  1.00  0.00    -0.003 C 
ATOM     17  C   UNL     1     -10.348  16.570 -10.895  1.00  0.00     0.004 C 
ENDBRANCH  15  16
ENDBRANCH  14  15
ENDBRANCH  13  14
ENDBRANCH  12  13
ENDBRANCH  11  12
ENDBRANCH  10  11
ENDBRANCH   1  10
TORSDOF 13
ENDMDL
MODEL 5
REMARK VINA RESULT:    -3.703      1.522      3.157
REMARK INTER + INTRA:          -8.289
REMARK INTER:                  -6.972
REMARK INTRA:                  -1.317
REMARK UNBOUND:                -1.773
REMARK SMILES CCCCCCCCCCCCCCC(=O)[O-]
REMARK SMILES IDX 9 1 10 2 11 3 12 4 13 5 14 6 15 7 16 8 17 9 8 10 7 11 6 12
REMARK SMILES IDX 5 13 4 14 3 15 2 16 1 17
REMARK H PARENT
REMARK Flexibility Score: inf
ROOT
ATOM      1  C   UNL     1      -7.462  18.016  -9.713  1.00  0.00     0.000 C 
ENDROOT
BRANCH   1   2
ATOM      2  C   UNL     1      -7.195  18.452 -11.163  1.00  0.00     0.000 C 
BRANCH   2   3
ATOM      3  C   UNL     1      -8.491  18.674 -11.958  1.00  0.00     0.000 C 
BRANCH   3   4
ATOM      4  C   UNL     1      -9.613  17.708 -11.540  1.00  0.00     0.000 C 
BRANCH   4   5
ATOM      5  C   UNL     1     -10.898  18.432 -11.098  1.00  0.00     0.006 C 
BRANCH   5   6
ATOM      6  C   UNL     1     -11.507  19.339 -12.182  1.00  0.00     0.053 C 
BRANCH   6   7
ATOM      7  C   UNL     1     -12.072  18.565 -13.335  1.00  0.00     0.041 C 
ATOM      8  O   UNL     1     -11.726  18.839 -14.515  1.00  0.00    -0.550 OA
ATOM      9  O   UNL     1     -12.957  17.520 -13.104  1.00  0.00    -0.550 OA
ENDBRANCH   6   7
ENDBRANCH   5   6
ENDBRANCH   4   5
ENDBRANCH   3   4
ENDBRANCH   2   3
ENDBRANCH   1   2
BRANCH   1  10
ATOM     10  C   UNL     1      -6.845  16.647  -9.378  1.00  0.00     0.000 C 
BRANCH  10  11
ATOM     11  C   UNL     1      -5.334  16.562  -9.683  1.00  0.00    -0.000 C 
BRANCH  11  12
ATOM     12  C   UNL     1      -4.484  16.548  -8.400  1.00  0.00    -0.000 C 
BRANCH  12  13
ATOM     13  C   UNL     1      -5.317  16.273  -7.139  1.00  0.00    -0.000 C 
BRANCH  13  14
ATOM     14  C   UNL     1      -4.843  17.086  -5.926  1.00  0.00    -0.000 C 
BRANCH  14  15
ATOM     15  C   UNL     1      -3.903  18.218  -6.357  1.00  0.00    -0.000 C 
BRANCH  15  16
ATOM     16  C   UNL     1      -4.529  19.590  -6.079  1.00  0.00    -0.003 C 
ATOM     17  C   UNL     1      -5.447  20.019  -7.219  1.00  0.00     0.004 C 
ENDBRANCH  15  16
ENDBRANCH  14  15
ENDBRANCH  13  14
ENDBRANCH  12  13
ENDBRANCH  11  12
ENDBRANCH  10  11
ENDBRANCH   1  10
TORSDOF 13
ENDMDL
MODEL 6
REMARK VINA RESULT:    -3.694      3.149      6.409
REMARK INTER + INTRA:          -8.274
REMARK INTER:                  -6.433
REMARK INTRA:                  -1.840
REMARK UNBOUND:                -1.773
REMARK SMILES CCCCCCCCCCCCCCC(=O)[O-]
REMARK SMILES IDX 9 1 10 2 11 3 12 4 13 5 14 6 15 7 16 8 17 9 8 10 7 11 6 12
REMARK SMILES IDX 5 13 4 14 3 15 2 16 1 17
REMARK H PARENT
REMARK Flexibility Score: inf
ROOT
ATOM      1  C   UNL     1      -8.478  20.041 -10.247  1.00  0.00     0.000 C 
ENDROOT
BRANCH   1   2
ATOM      2  C   UNL     1      -7.389  19.803 -11.307  1.00  0.00     0.000 C 
BRANCH   2   3
ATOM      3  C   UNL     1      -6.652  18.471 -11.102  1.00  0.00     0.000 C 
BRANCH   3   4
ATOM      4  C   UNL     1      -6.735  17.967  -9.651  1.00  0.00     0.000 C 
BRANCH   4   5
ATOM      5  C   UNL     1      -6.246  16.515  -9.487  1.00  0.00     0.006 C 
BRANCH   5   6
ATOM      6  C   UNL     1      -4.874  16.393  -8.802  1.00  0.00     0.053 C 
BRANCH   6   7
ATOM      7  C   UNL     1      -4.868  16.956  -7.413  1.00  0.00     0.041 C 
ATOM      8  O   UNL     1      -5.258  16.255  -6.441  1.00  0.00    -0.550 OA
ATOM      9  O   UNL     1      -4.403  18.245  -7.187  1.00  0.00    -0.550 OA
ENDBRANCH   6   7
ENDBRANCH   5   6
ENDBRANCH   4   5
ENDBRANCH   3   4
ENDBRANCH   2   3
ENDBRANCH   1   2
BRANCH   1  10
ATOM     10  C   UNL     1      -9.618  20.941 -10.756  1.00  0.00     0.000 C 
BRANCH  10  11
ATOM     11  C   UNL     1     -11.016  20.299 -10.618  1.00  0.00    -0.000 C 
BRANCH  11  12
ATOM     12  C   UNL     1     -11.860  20.470 -11.893  1.00  0.00    -0.000 C 
BRANCH  12  13
ATOM     13  C   UNL     1     -11.994  19.166 -12.695  1.00  0.00    -0.000 C 
BRANCH  13  14
ATOM     14  C   UNL     1     -10.781  18.899 -13.598  1.00  0.00    -0.000 C 
BRANCH  14  15
ATOM     15  C   UNL     1      -9.912  17.771 -13.030  1.00  0.00    -0.000 C 
BRANCH  15  16
ATOM     16  C   UNL     1     -10.732  16.852 -12.116  1.00  0.00    -0.003 C 
ATOM     17  C   UNL     1     -10.038  16.648 -10.773  1.00  0.00     0.004 C 
ENDBRANCH  15  16
ENDBRANCH  14  15
ENDBRANCH  13  14
ENDBRANCH  12  13
ENDBRANCH  11  12
ENDBRANCH  10  11
ENDBRANCH   1  10
TORSDOF 13
ENDMDL
MODEL 7
REMARK VINA RESULT:    -3.639      2.635      6.371
REMARK INTER + INTRA:          -8.178
REMARK INTER:                  -6.968
REMARK INTRA:                  -1.210
REMARK UNBOUND:                -1.773
REMARK SMILES CCCCCCCCCCCCCCC(=O)[O-]
REMARK SMILES IDX 9 1 10 2 11 3 12 4 13 5 14 6 15 7 16 8 17 9 8 10 7 11 6 12
REMARK SMILES IDX 5 13 4 14 3 15 2 16 1 17
REMARK H PARENT
REMARK Flexibility Score: inf
ROOT
ATOM      1  C   UNL     1      -5.795  16.696  -9.302  1.00  0.00     0.000 C 
ENDROOT
BRANCH   1   2
ATOM      2  C   UNL     1      -4.698  16.573  -8.232  1.00  0.00     0.000 C 
BRANCH   2   3
ATOM      3  C   UNL     1      -5.271  16.336  -6.827  1.00  0.00     0.000 C 
BRANCH   3   4
ATOM      4  C   UNL     1      -4.653  17.270  -5.772  1.00  0.00     0.000 C 
BRANCH   4   5
ATOM      5  C   UNL     1      -3.898  18.462  -6.390  1.00  0.00     0.006 C 
BRANCH   5   6
ATOM      6  C   UNL     1      -4.681  19.787  -6.345  1.00  0.00     0.053 C 
BRANCH   6   7
ATOM      7  C   UNL     1      -5.412  20.071  -7.622  1.00  0.00     0.041 C 
ATOM      8  O   UNL     1      -6.663  19.935  -7.682  1.00  0.00    -0.550 OA
ATOM      9  O   UNL     1      -4.716  20.515  -8.739  1.00  0.00    -0.550 OA
ENDBRANCH   6   7
ENDBRANCH   5   6
ENDBRANCH   4   5
ENDBRANCH   3   4
ENDBRANCH   2   3
ENDBRANCH   1   2
BRANCH   1  10
ATOM     10  C   UNL     1      -5.363  17.554 -10.504  1.00  0.00     0.000 C 
BRANCH  10  11
ATOM     11  C   UNL     1      -6.519  18.366 -11.127  1.00  0.00    -0.000 C 
BRANCH  11  12
ATOM     12  C   UNL     1      -7.860  18.104 -10.419  1.00  0.00    -0.000 C 
BRANCH  12  13
ATOM     13  C   UNL     1      -9.042  18.025 -11.398  1.00  0.00    -0.000 C 
BRANCH  13  14
ATOM     14  C   UNL     1      -9.977  16.842 -11.103  1.00  0.00    -0.000 C 
BRANCH  14  15
ATOM     15  C   UNL     1     -11.186  16.851 -12.045  1.00  0.00    -0.000 C 
BRANCH  15  16
ATOM     16  C   UNL     1     -11.773  18.263 -12.175  1.00  0.00    -0.003 C 
ATOM     17  C   UNL     1     -12.453  18.455 -13.526  1.00  0.00     0.004 C 
ENDBRANCH  15  16
ENDBRANCH  14  15
ENDBRANCH  13  14
ENDBRANCH  12  13
ENDBRANCH  11  12
ENDBRANCH  10  11
ENDBRANCH   1  10
TORSDOF 13
ENDMDL
MODEL 8
REMARK VINA RESULT:    -3.632      3.150      6.047
REMARK INTER + INTRA:          -8.164
REMARK INTER:                  -6.560
REMARK INTRA:                  -1.604
REMARK UNBOUND:                -1.773
REMARK SMILES CCCCCCCCCCCCCCC(=O)[O-]
REMARK SMILES IDX 9 1 10 2 11 3 12 4 13 5 14 6 15 7 16 8 17 9 8 10 7 11 6 12
REMARK SMILES IDX 5 13 4 14 3 15 2 16 1 17
REMARK H PARENT
REMARK Flexibility Score: inf
ROOT
ATOM      1  C   UNL     1      -5.030  17.814 -11.320  1.00  0.00     0.000 C 
ENDROOT
BRANCH   1   2
ATOM      2  C   UNL     1      -4.227  17.049 -10.254  1.00  0.00     0.000 C 
BRANCH   2   3
ATOM      3  C   UNL     1      -5.077  16.004  -9.515  1.00  0.00     0.000 C 
BRANCH   3   4
ATOM      4  C   UNL     1      -6.480  16.528  -9.162  1.00  0.00     0.000 C 
BRANCH   4   5
ATOM      5  C   UNL     1      -6.624  16.913  -7.678  1.00  0.00     0.006 C 
BRANCH   5   6
ATOM      6  C   UNL     1      -5.432  16.483  -6.804  1.00  0.00     0.053 C 
BRANCH   6   7
ATOM      7  C   UNL     1      -4.672  17.648  -6.247  1.00  0.00     0.041 C 
ATOM      8  O   UNL     1      -4.222  17.610  -5.071  1.00  0.00    -0.550 OA
ATOM      9  O   UNL     1      -4.435  18.766  -7.037  1.00  0.00    -0.550 OA
ENDBRANCH   6   7
ENDBRANCH   5   6
ENDBRANCH   4   5
ENDBRANCH   3   4
ENDBRANCH   2   3
ENDBRANCH   1   2
BRANCH   1  10
ATOM     10  C   UNL     1      -5.115  19.323 -11.034  1.00  0.00     0.000 C 
BRANCH  10  11
ATOM     11  C   UNL     1      -6.462  19.954 -11.450  1.00  0.00    -0.000 C 
BRANCH  11  12
ATOM     12  C   UNL     1      -7.481  19.958 -10.297  1.00  0.00    -0.000 C 
BRANCH  12  13
ATOM     13  C   UNL     1      -8.861  19.434 -10.723  1.00  0.00    -0.000 C 
BRANCH  13  14
ATOM     14  C   UNL     1      -8.773  18.159 -11.575  1.00  0.00    -0.000 C 
BRANCH  14  15
ATOM     15  C   UNL     1      -9.652  17.047 -10.991  1.00  0.00    -0.000 C 
BRANCH  15  16
ATOM     16  C   UNL     1     -10.646  16.524 -12.035  1.00  0.00    -0.003 C 
ATOM     17  C   UNL     1     -11.811  17.492 -12.220  1.00  0.00     0.004 C 
ENDBRANCH  15  16
ENDBRANCH  14  15
ENDBRANCH  13  14
ENDBRANCH  12  13
ENDBRANCH  11  12
ENDBRANCH  10  11
ENDBRANCH   1  10
TORSDOF 13
ENDMDL
MODEL 9
REMARK VINA RESULT:    -3.611      3.135      6.627
REMARK INTER + INTRA:          -8.128
REMARK INTER:                  -6.459
REMARK INTRA:                  -1.669
REMARK UNBOUND:                -1.773
REMARK SMILES CCCCCCCCCCCCCCC(=O)[O-]
REMARK SMILES IDX 9 1 10 2 11 3 12 4 13 5 14 6 15 7 16 8 17 9 8 10 7 11 6 12
REMARK SMILES IDX 5 13 4 14 3 15 2 16 1 17
REMARK H PARENT
REMARK Flexibility Score: inf
ROOT
ATOM      1  C   UNL     1      -7.294  19.736 -10.687  1.00  0.00     0.000 C 
ENDROOT
BRANCH   1   2
ATOM      2  C   UNL     1      -6.957  18.767  -9.542  1.00  0.00     0.000 C 
BRANCH   2   3
ATOM      3  C   UNL     1      -6.327  17.459 -10.045  1.00  0.00     0.000 C 
BRANCH   3   4
ATOM      4  C   UNL     1      -6.366  16.341  -8.989  1.00  0.00     0.000 C 
BRANCH   4   5
ATOM      5  C   UNL     1      -6.479  16.876  -7.548  1.00  0.00     0.006 C 
BRANCH   5   6
ATOM      6  C   UNL     1      -5.267  16.539  -6.662  1.00  0.00     0.053 C 
BRANCH   6   7
ATOM      7  C   UNL     1      -4.442  17.744  -6.326  1.00  0.00     0.041 C 
ATOM      8  O   UNL     1      -3.921  17.860  -5.185  1.00  0.00    -0.550 OA
ATOM      9  O   UNL     1      -4.222  18.726  -7.284  1.00  0.00    -0.550 OA
ENDBRANCH   6   7
ENDBRANCH   5   6
ENDBRANCH   4   5
ENDBRANCH   3   4
ENDBRANCH   2   3
ENDBRANCH   1   2
BRANCH   1  10
ATOM     10  C   UNL     1      -7.097  19.109 -12.078  1.00  0.00     0.000 C 
BRANCH  10  11
ATOM     11  C   UNL     1      -7.708  19.945 -13.223  1.00  0.00    -0.000 C 
BRANCH  11  12
ATOM     12  C   UNL     1      -9.113  19.453 -13.613  1.00  0.00    -0.000 C 
BRANCH  12  13
ATOM     13  C   UNL     1     -10.223  20.421 -13.178  1.00  0.00    -0.000 C 
BRANCH  13  14
ATOM     14  C   UNL     1     -11.379  19.713 -12.456  1.00  0.00    -0.000 C 
BRANCH  14  15
ATOM     15  C   UNL     1     -10.875  18.970 -11.213  1.00  0.00    -0.000 C 
BRANCH  15  16
ATOM     16  C   UNL     1     -11.108  17.459 -11.342  1.00  0.00    -0.003 C 
ATOM     17  C   UNL     1      -9.894  16.671 -10.862  1.00  0.00     0.004 C 
ENDBRANCH  15  16
ENDBRANCH  14  15
ENDBRANCH  13  14
ENDBRANCH  12  13
ENDBRANCH  11  12
ENDBRANCH  10  11
ENDBRANCH   1  10
TORSDOF 13
ENDMDL
