MODEL 1
REMARK VINA RESULT:    -5.318      0.000      0.000
REMARK INTER + INTRA:         -12.351
REMARK INTER:                  -9.670
REMARK INTRA:                  -2.681
REMARK UNBOUND:                -2.681
REMARK SMILES CCCCCC=CCC=CCCCCCCCC(=O)[O-]
REMARK SMILES IDX 11 1 12 2 13 3 14 4 15 5 16 6 17 7 18 8 19 9 20 10 10 11
REMARK SMILES IDX 9 12 8 13 7 14 6 15 5 16 4 17 3 18 2 19 1 20
REMARK H PARENT
REMARK Flexibility Score: inf
ROOT
ATOM      1  C   UNL     1     -33.493  40.749  44.518  1.00  0.00     0.027 C 
ENDROOT
BRANCH   1   2
ATOM      2  C   UNL     1     -34.761  40.994  43.692  1.00  0.00     0.004 C 
BRANCH   2   3
ATOM      3  C   UNL     1     -34.887  42.476  43.309  1.00  0.00     0.000 C 
BRANCH   3   4
ATOM      4  C   UNL     1     -35.645  42.687  41.990  1.00  0.00     0.000 C 
BRANCH   4   5
ATOM      5  C   UNL     1     -35.067  43.834  41.149  1.00  0.00     0.000 C 
BRANCH   5   6
ATOM      6  C   UNL     1     -34.129  43.293  40.061  1.00  0.00     0.006 C 
BRANCH   6   7
ATOM      7  C   UNL     1     -33.278  44.399  39.424  1.00  0.00     0.053 C 
BRANCH   7   8
ATOM      8  C   UNL     1     -33.936  44.974  38.206  1.00  0.00     0.041 C 
ATOM      9  O   UNL     1     -35.002  45.639  38.315  1.00  0.00    -0.550 OA
ATOM     10  O   UNL     1     -33.371  44.777  36.950  1.00  0.00    -0.550 OA
ENDBRANCH   7   8
ENDBRANCH   6   7
ENDBRANCH   5   6
ENDBRANCH   4   5
ENDBRANCH   3   4
ENDBRANCH   2   3
ENDBRANCH   1   2
BRANCH   1  11
ATOM     11  C   UNL     1     -32.403  41.717  44.135  1.00  0.00    -0.031 C 
ATOM     12  C   UNL     1     -31.473  41.476  43.194  1.00  0.00    -0.027 C 
BRANCH  12  13
ATOM     13  C   UNL     1     -31.383  40.184  42.421  1.00  0.00     0.054 C 
BRANCH  13  14
ATOM     14  C   UNL     1     -32.116  40.298  41.115  1.00  0.00    -0.027 C 
ATOM     15  C   UNL     1     -33.132  39.477  40.810  1.00  0.00    -0.031 C 
BRANCH  15  16
ATOM     16  C   UNL     1     -33.847  39.565  39.491  1.00  0.00     0.027 C 
BRANCH  16  17
ATOM     17  C   UNL     1     -35.307  39.081  39.573  1.00  0.00     0.004 C 
BRANCH  17  18
ATOM     18  C   UNL     1     -35.793  38.820  41.013  1.00  0.00     0.000 C 
BRANCH  18  19
ATOM     19  C   UNL     1     -37.195  39.381  41.283  1.00  0.00    -0.003 C 
ATOM     20  C   UNL     1     -37.700  40.192  40.090  1.00  0.00     0.004 C 
ENDBRANCH  18  19
ENDBRANCH  17  18
ENDBRANCH  16  17
ENDBRANCH  15  16
ENDBRANCH  13  14
ENDBRANCH  12  13
ENDBRANCH   1  11
TORSDOF 14
ENDMDL
MODEL 2
REMARK VINA RESULT:    -5.235      2.438      5.447
REMARK INTER + INTRA:         -12.200
REMARK INTER:                  -9.662
REMARK INTRA:                  -2.538
REMARK UNBOUND:                -2.681
REMARK SMILES CCCCCC=CCC=CCCCCCCCC(=O)[O-]
REMARK SMILES IDX 11 1 12 2 13 3 14 4 15 5 16 6 17 7 18 8 19 9 20 10 10 11
REMARK SMILES IDX 9 12 8 13 7 14 6 15 5 16 4 17 3 18 2 19 1 20
REMARK H PARENT
REMARK Flexibility Score: inf
ROOT
ATOM      1  C   UNL     1     -32.882  40.633  43.225  1.00  0.00     0.027 C 
ENDROOT
BRANCH   1   2
ATOM      2  C   UNL     1     -31.881  41.352  42.315  1.00  0.00     0.004 C 
BRANCH   2   3
ATOM      3  C   UNL     1     -32.001  40.855  40.867  1.00  0.00     0.000 C 
BRANCH   3   4
ATOM      4  C   UNL     1     -33.006  39.703  40.715  1.00  0.00     0.000 C 
BRANCH   4   5
ATOM      5  C   UNL     1     -33.942  39.887  39.512  1.00  0.00     0.000 C 
BRANCH   5   6
ATOM      6  C   UNL     1     -35.187  38.999  39.650  1.00  0.00     0.006 C 
BRANCH   6   7
ATOM      7  C   UNL     1     -35.743  38.996  41.079  1.00  0.00     0.053 C 
BRANCH   7   8
ATOM      8  C   UNL     1     -37.143  39.532  41.132  1.00  0.00     0.041 C 
ATOM      9  O   UNL     1     -37.843  39.377  42.169  1.00  0.00    -0.550 OA
ATOM     10  O   UNL     1     -37.673  40.202  40.034  1.00  0.00    -0.550 OA
ENDBRANCH   7   8
ENDBRANCH   6   7
ENDBRANCH   5   6
ENDBRANCH   4   5
ENDBRANCH   3   4
ENDBRANCH   2   3
ENDBRANCH   1   2
BRANCH   1  11
ATOM     11  C   UNL     1     -33.346  41.537  44.338  1.00  0.00    -0.031 C 
ATOM     12  C   UNL     1     -34.520  42.194  44.340  1.00  0.00    -0.027 C 
BRANCH  12  13
ATOM     13  C   UNL     1     -35.511  42.135  43.205  1.00  0.00     0.054 C 
BRANCH  13  14
ATOM     14  C   UNL     1     -35.212  43.199  42.188  1.00  0.00    -0.027 C 
ATOM     15  C   UNL     1     -35.147  42.915  40.878  1.00  0.00    -0.031 C 
BRANCH  15  16
ATOM     16  C   UNL     1     -34.815  43.969  39.859  1.00  0.00     0.027 C 
BRANCH  16  17
ATOM     17  C   UNL     1     -33.374  43.851  39.330  1.00  0.00     0.004 C 
BRANCH  17  18
ATOM     18  C   UNL     1     -32.697  45.211  39.067  1.00  0.00     0.000 C 
BRANCH  18  19
ATOM     19  C   UNL     1     -32.270  45.395  37.604  1.00  0.00    -0.003 C 
ATOM     20  C   UNL     1     -33.310  46.201  36.827  1.00  0.00     0.004 C 
ENDBRANCH  18  19
ENDBRANCH  17  18
ENDBRANCH  16  17
ENDBRANCH  15  16
ENDBRANCH  13  14
ENDBRANCH  12  13
ENDBRANCH   1  11
TORSDOF 14
ENDMDL
MODEL 3
REMARK VINA RESULT:    -5.151      1.548      2.764
REMARK INTER + INTRA:         -12.048
REMARK INTER:                  -9.589
REMARK INTRA:                  -2.459
REMARK UNBOUND:                -2.681
REMARK SMILES CCCCCC=CCC=CCCCCCCCC(=O)[O-]
REMARK SMILES IDX 11 1 12 2 13 3 14 4 15 5 16 6 17 7 18 8 19 9 20 10 10 11
REMARK SMILES IDX 9 12 8 13 7 14 6 15 5 16 4 17 3 18 2 19 1 20
REMARK H PARENT
REMARK Flexibility Score: inf
ROOT
ATOM      1  C   UNL     1     -31.296  41.486  41.010  1.00  0.00     0.027 C 
ENDROOT
BRANCH   1   2
ATOM      2  C   UNL     1     -32.356  40.618  40.323  1.00  0.00     0.004 C 
BRANCH   2   3
ATOM      3  C   UNL     1     -33.732  41.299  40.364  1.00  0.00     0.000 C 
BRANCH   3   4
ATOM      4  C   UNL     1     -33.651  42.784  40.748  1.00  0.00     0.000 C 
BRANCH   4   5
ATOM      5  C   UNL     1     -34.912  43.568  40.357  1.00  0.00     0.000 C 
BRANCH   5   6
ATOM      6  C   UNL     1     -34.549  44.792  39.505  1.00  0.00     0.006 C 
BRANCH   6   7
ATOM      7  C   UNL     1     -33.054  44.841  39.163  1.00  0.00     0.053 C 
BRANCH   7   8
ATOM      8  C   UNL     1     -32.825  45.174  37.720  1.00  0.00     0.041 C 
ATOM      9  O   UNL     1     -31.748  45.720  37.358  1.00  0.00    -0.550 OA
ATOM     10  O   UNL     1     -33.801  44.879  36.773  1.00  0.00    -0.550 OA
ENDBRANCH   7   8
ENDBRANCH   6   7
ENDBRANCH   5   6
ENDBRANCH   4   5
ENDBRANCH   3   4
ENDBRANCH   2   3
ENDBRANCH   1   2
BRANCH   1  11
ATOM     11  C   UNL     1     -30.602  40.723  42.108  1.00  0.00    -0.031 C 
ATOM     12  C   UNL     1     -30.933  40.797  43.410  1.00  0.00    -0.027 C 
BRANCH  12  13
ATOM     13  C   UNL     1     -32.030  41.686  43.942  1.00  0.00     0.054 C 
BRANCH  13  14
ATOM     14  C   UNL     1     -33.308  40.912  44.097  1.00  0.00    -0.027 C 
ATOM     15  C   UNL     1     -33.406  39.636  43.695  1.00  0.00    -0.031 C 
BRANCH  15  16
ATOM     16  C   UNL     1     -34.692  38.868  43.818  1.00  0.00     0.027 C 
BRANCH  16  17
ATOM     17  C   UNL     1     -35.467  38.791  42.490  1.00  0.00     0.004 C 
BRANCH  17  18
ATOM     18  C   UNL     1     -36.841  39.489  42.534  1.00  0.00     0.000 C 
BRANCH  18  19
ATOM     19  C   UNL     1     -36.737  41.020  42.507  1.00  0.00    -0.003 C 
ATOM     20  C   UNL     1     -37.703  41.653  43.508  1.00  0.00     0.004 C 
ENDBRANCH  18  19
ENDBRANCH  17  18
ENDBRANCH  16  17
ENDBRANCH  15  16
ENDBRANCH  13  14
ENDBRANCH  12  13
ENDBRANCH   1  11
TORSDOF 14
ENDMDL
MODEL 4
REMARK VINA RESULT:    -5.144      6.727      8.721
REMARK INTER + INTRA:         -12.034
REMARK INTER:                  -9.641
REMARK INTRA:                  -2.393
REMARK UNBOUND:                -2.681
REMARK SMILES CCCCCC=CCC=CCCCCCCCC(=O)[O-]
REMARK SMILES IDX 11 1 12 2 13 3 14 4 15 5 16 6 17 7 18 8 19 9 20 10 10 11
REMARK SMILES IDX 9 12 8 13 7 14 6 15 5 16 4 17 3 18 2 19 1 20
REMARK H PARENT
REMARK Flexibility Score: inf
ROOT
ATOM      1  C   UNL     1     -36.278  41.462  46.236  1.00  0.00     0.027 C 
ENDROOT
BRANCH   1   2
ATOM      2  C   UNL     1     -36.350  39.936  46.351  1.00  0.00     0.004 C 
BRANCH   2   3
ATOM      3  C   UNL     1     -37.780  39.478  46.675  1.00  0.00     0.000 C 
BRANCH   3   4
ATOM      4  C   UNL     1     -38.087  38.069  46.148  1.00  0.00     0.000 C 
BRANCH   4   5
ATOM      5  C   UNL     1     -38.808  37.191  47.181  1.00  0.00     0.000 C 
BRANCH   5   6
ATOM      6  C   UNL     1     -39.849  38.010  47.958  1.00  0.00     0.006 C 
BRANCH   6   7
ATOM      7  C   UNL     1     -39.712  37.835  49.476  1.00  0.00     0.053 C 
BRANCH   7   8
ATOM      8  C   UNL     1     -40.744  36.895  50.022  1.00  0.00     0.041 C 
ATOM      9  O   UNL     1     -41.695  37.336  50.723  1.00  0.00    -0.550 OA
ATOM     10  O   UNL     1     -40.656  35.533  49.756  1.00  0.00    -0.550 OA
ENDBRANCH   7   8
ENDBRANCH   6   7
ENDBRANCH   5   6
ENDBRANCH   4   5
ENDBRANCH   3   4
ENDBRANCH   2   3
ENDBRANCH   1   2
BRANCH   1  11
ATOM     11  C   UNL     1     -35.155  41.883  45.324  1.00  0.00    -0.031 C 
ATOM     12  C   UNL     1     -35.315  42.229  44.034  1.00  0.00    -0.027 C 
BRANCH  12  13
ATOM     13  C   UNL     1     -36.646  42.206  43.324  1.00  0.00     0.054 C 
BRANCH  13  14
ATOM     14  C   UNL     1     -36.878  40.869  42.681  1.00  0.00    -0.027 C 
ATOM     15  C   UNL     1     -37.916  40.094  43.033  1.00  0.00    -0.031 C 
BRANCH  15  16
ATOM     16  C   UNL     1     -38.134  38.741  42.416  1.00  0.00     0.027 C 
BRANCH  16  17
ATOM     17  C   UNL     1     -36.819  37.972  42.192  1.00  0.00     0.004 C 
BRANCH  17  18
ATOM     18  C   UNL     1     -36.591  36.829  43.201  1.00  0.00     0.000 C 
BRANCH  18  19
ATOM     19  C   UNL     1     -35.252  36.943  43.943  1.00  0.00    -0.003 C 
ATOM     20  C   UNL     1     -34.498  38.204  43.522  1.00  0.00     0.004 C 
ENDBRANCH  18  19
ENDBRANCH  17  18
ENDBRANCH  16  17
ENDBRANCH  15  16
ENDBRANCH  13  14
ENDBRANCH  12  13
ENDBRANCH   1  11
TORSDOF 14
ENDMDL
MODEL 5
REMARK VINA RESULT:    -5.096      3.474      4.820
REMARK INTER + INTRA:         -11.948
REMARK INTER:                  -8.834
REMARK INTRA:                  -3.114
REMARK UNBOUND:                -2.681
REMARK SMILES CCCCCC=CCC=CCCCCCCCC(=O)[O-]
REMARK SMILES IDX 11 1 12 2 13 3 14 4 15 5 16 6 17 7 18 8 19 9 20 10 10 11
REMARK SMILES IDX 9 12 8 13 7 14 6 15 5 16 4 17 3 18 2 19 1 20
REMARK H PARENT
REMARK Flexibility Score: inf
ROOT
ATOM      1  C   UNL     1     -38.213  38.375  47.209  1.00  0.00     0.027 C 
ENDROOT
BRANCH   1   2
ATOM      2  C   UNL     1     -38.213  39.467  46.134  1.00  0.00     0.004 C 
BRANCH   2   3
ATOM      3  C   UNL     1     -37.134  40.521  46.423  1.00  0.00     0.000 C 
BRANCH   3   4
ATOM      4  C   UNL     1     -36.540  41.132  45.145  1.00  0.00     0.000 C 
BRANCH   4   5
ATOM      5  C   UNL     1     -35.199  41.838  45.391  1.00  0.00     0.000 C 
BRANCH   5   6
ATOM      6  C   UNL     1     -34.449  42.057  44.070  1.00  0.00     0.006 C 
BRANCH   6   7
ATOM      7  C   UNL     1     -35.317  42.755  43.017  1.00  0.00     0.053 C 
BRANCH   7   8
ATOM      8  C   UNL     1     -34.794  42.534  41.630  1.00  0.00     0.041 C 
ATOM      9  O   UNL     1     -35.492  42.852  40.629  1.00  0.00    -0.550 OA
ATOM     10  O   UNL     1     -33.533  41.976  41.442  1.00  0.00    -0.550 OA
ENDBRANCH   7   8
ENDBRANCH   6   7
ENDBRANCH   5   6
ENDBRANCH   4   5
ENDBRANCH   3   4
ENDBRANCH   2   3
ENDBRANCH   1   2
BRANCH   1  11
ATOM     11  C   UNL     1     -37.877  37.032  46.614  1.00  0.00    -0.031 C 
ATOM     12  C   UNL     1     -36.637  36.515  46.562  1.00  0.00    -0.027 C 
BRANCH  12  13
ATOM     13  C   UNL     1     -35.411  37.235  47.066  1.00  0.00     0.054 C 
BRANCH  13  14
ATOM     14  C   UNL     1     -34.752  37.998  45.952  1.00  0.00    -0.027 C 
ATOM     15  C   UNL     1     -34.897  37.628  44.670  1.00  0.00    -0.031 C 
BRANCH  15  16
ATOM     16  C   UNL     1     -34.212  38.368  43.555  1.00  0.00     0.027 C 
BRANCH  16  17
ATOM     17  C   UNL     1     -35.173  38.734  42.409  1.00  0.00     0.004 C 
BRANCH  17  18
ATOM     18  C   UNL     1     -36.498  37.946  42.435  1.00  0.00     0.000 C 
BRANCH  18  19
ATOM     19  C   UNL     1     -37.734  38.853  42.502  1.00  0.00    -0.003 C 
ATOM     20  C   UNL     1     -37.557  40.086  41.615  1.00  0.00     0.004 C 
ENDBRANCH  18  19
ENDBRANCH  17  18
ENDBRANCH  16  17
ENDBRANCH  15  16
ENDBRANCH  13  14
ENDBRANCH  12  13
ENDBRANCH   1  11
TORSDOF 14
ENDMDL
MODEL 6
REMARK VINA RESULT:    -5.095      2.665      5.341
REMARK INTER + INTRA:         -11.946
REMARK INTER:                  -9.400
REMARK INTRA:                  -2.546
REMARK UNBOUND:                -2.681
REMARK SMILES CCCCCC=CCC=CCCCCCCCC(=O)[O-]
REMARK SMILES IDX 11 1 12 2 13 3 14 4 15 5 16 6 17 7 18 8 19 9 20 10 10 11
REMARK SMILES IDX 9 12 8 13 7 14 6 15 5 16 4 17 3 18 2 19 1 20
REMARK H PARENT
REMARK Flexibility Score: inf
ROOT
ATOM      1  C   UNL     1     -31.932  40.098  42.885  1.00  0.00     0.027 C 
ENDROOT
BRANCH   1   2
ATOM      2  C   UNL     1     -32.288  41.399  43.612  1.00  0.00     0.004 C 
BRANCH   2   3
ATOM      3  C   UNL     1     -33.652  41.282  44.308  1.00  0.00     0.000 C 
BRANCH   3   4
ATOM      4  C   UNL     1     -34.565  42.487  44.034  1.00  0.00     0.000 C 
BRANCH   4   5
ATOM      5  C   UNL     1     -36.054  42.115  44.032  1.00  0.00     0.000 C 
BRANCH   5   6
ATOM      6  C   UNL     1     -36.460  41.503  42.683  1.00  0.00     0.006 C 
BRANCH   6   7
ATOM      7  C   UNL     1     -37.048  40.095  42.837  1.00  0.00     0.053 C 
BRANCH   7   8
ATOM      8  C   UNL     1     -37.681  39.616  41.566  1.00  0.00     0.041 C 
ATOM      9  O   UNL     1     -37.267  40.037  40.452  1.00  0.00    -0.550 OA
ATOM     10  O   UNL     1     -38.729  38.701  41.612  1.00  0.00    -0.550 OA
ENDBRANCH   7   8
ENDBRANCH   6   7
ENDBRANCH   5   6
ENDBRANCH   4   5
ENDBRANCH   3   4
ENDBRANCH   2   3
ENDBRANCH   1   2
BRANCH   1  11
ATOM     11  C   UNL     1     -33.174  39.334  42.505  1.00  0.00    -0.031 C 
ATOM     12  C   UNL     1     -33.747  39.374  41.289  1.00  0.00    -0.027 C 
BRANCH  12  13
ATOM     13  C   UNL     1     -33.233  40.223  40.153  1.00  0.00     0.054 C 
BRANCH  13  14
ATOM     14  C   UNL     1     -34.095  41.439  39.971  1.00  0.00    -0.027 C 
ATOM     15  C   UNL     1     -33.683  42.654  40.367  1.00  0.00    -0.031 C 
BRANCH  15  16
ATOM     16  C   UNL     1     -34.555  43.868  40.218  1.00  0.00     0.027 C 
BRANCH  16  17
ATOM     17  C   UNL     1     -34.129  44.765  39.041  1.00  0.00     0.004 C 
BRANCH  17  18
ATOM     18  C   UNL     1     -32.603  44.957  38.930  1.00  0.00     0.000 C 
BRANCH  18  19
ATOM     19  C   UNL     1     -32.174  45.596  37.602  1.00  0.00    -0.003 C 
ATOM     20  C   UNL     1     -33.389  46.064  36.802  1.00  0.00     0.004 C 
ENDBRANCH  18  19
ENDBRANCH  17  18
ENDBRANCH  16  17
ENDBRANCH  15  16
ENDBRANCH  13  14
ENDBRANCH  12  13
ENDBRANCH   1  11
TORSDOF 14
ENDMDL
MODEL 7
REMARK VINA RESULT:    -5.090      1.452      2.189
REMARK INTER + INTRA:         -11.936
REMARK INTER:                  -9.039
REMARK INTRA:                  -2.897
REMARK UNBOUND:                -2.681
REMARK SMILES CCCCCC=CCC=CCCCCCCCC(=O)[O-]
REMARK SMILES IDX 11 1 12 2 13 3 14 4 15 5 16 6 17 7 18 8 19 9 20 10 10 11
REMARK SMILES IDX 9 12 8 13 7 14 6 15 5 16 4 17 3 18 2 19 1 20
REMARK H PARENT
REMARK Flexibility Score: inf
ROOT
ATOM      1  C   UNL     1     -33.124  41.563  44.391  1.00  0.00     0.027 C 
ENDROOT
BRANCH   1   2
ATOM      2  C   UNL     1     -34.335  42.493  44.525  1.00  0.00     0.004 C 
BRANCH   2   3
ATOM      3  C   UNL     1     -35.633  41.757  44.161  1.00  0.00     0.000 C 
BRANCH   3   4
ATOM      4  C   UNL     1     -36.347  42.374  42.949  1.00  0.00     0.000 C 
BRANCH   4   5
ATOM      5  C   UNL     1     -35.492  43.427  42.228  1.00  0.00     0.000 C 
BRANCH   5   6
ATOM      6  C   UNL     1     -35.383  43.107  40.730  1.00  0.00     0.006 C 
BRANCH   6   7
ATOM      7  C   UNL     1     -33.998  43.440  40.164  1.00  0.00     0.053 C 
BRANCH   7   8
ATOM      8  C   UNL     1     -34.054  44.581  39.194  1.00  0.00     0.041 C 
ATOM      9  O   UNL     1     -33.174  44.696  38.298  1.00  0.00    -0.550 OA
ATOM     10  O   UNL     1     -35.080  45.517  39.278  1.00  0.00    -0.550 OA
ENDBRANCH   7   8
ENDBRANCH   6   7
ENDBRANCH   5   6
ENDBRANCH   4   5
ENDBRANCH   3   4
ENDBRANCH   2   3
ENDBRANCH   1   2
BRANCH   1  11
ATOM     11  C   UNL     1     -32.615  41.539  42.973  1.00  0.00    -0.031 C 
ATOM     12  C   UNL     1     -32.617  40.450  42.184  1.00  0.00    -0.027 C 
BRANCH  12  13
ATOM     13  C   UNL     1     -33.102  39.095  42.636  1.00  0.00     0.054 C 
BRANCH  13  14
ATOM     14  C   UNL     1     -34.426  38.772  42.004  1.00  0.00    -0.027 C 
ATOM     15  C   UNL     1     -34.865  39.432  40.922  1.00  0.00    -0.031 C 
BRANCH  15  16
ATOM     16  C   UNL     1     -36.203  39.136  40.306  1.00  0.00     0.027 C 
BRANCH  16  17
ATOM     17  C   UNL     1     -37.373  39.725  41.117  1.00  0.00     0.004 C 
BRANCH  17  18
ATOM     18  C   UNL     1     -37.986  38.735  42.128  1.00  0.00     0.000 C 
BRANCH  18  19
ATOM     19  C   UNL     1     -38.697  39.434  43.295  1.00  0.00    -0.003 C 
ATOM     20  C   UNL     1     -38.153  38.948  44.638  1.00  0.00     0.004 C 
ENDBRANCH  18  19
ENDBRANCH  17  18
ENDBRANCH  16  17
ENDBRANCH  15  16
ENDBRANCH  13  14
ENDBRANCH  12  13
ENDBRANCH   1  11
TORSDOF 14
ENDMDL
MODEL 8
REMARK VINA RESULT:    -5.071      1.165      3.334
REMARK INTER + INTRA:         -11.901
REMARK INTER:                  -9.251
REMARK INTRA:                  -2.650
REMARK UNBOUND:                -2.681
REMARK SMILES CCCCCC=CCC=CCCCCCCCC(=O)[O-]
REMARK SMILES IDX 11 1 12 2 13 3 14 4 15 5 16 6 17 7 18 8 19 9 20 10 10 11
REMARK SMILES IDX 9 12 8 13 7 14 6 15 5 16 4 17 3 18 2 19 1 20
REMARK H PARENT
REMARK Flexibility Score: inf
ROOT
ATOM      1  C   UNL     1     -36.652  41.214  44.591  1.00  0.00     0.027 C 
ENDROOT
BRANCH   1   2
ATOM      2  C   UNL     1     -35.352  42.020  44.681  1.00  0.00     0.004 C 
BRANCH   2   3
ATOM      3  C   UNL     1     -34.731  42.215  43.290  1.00  0.00     0.000 C 
BRANCH   3   4
ATOM      4  C   UNL     1     -35.594  43.092  42.371  1.00  0.00     0.000 C 
BRANCH   4   5
ATOM      5  C   UNL     1     -35.127  43.059  40.908  1.00  0.00     0.000 C 
BRANCH   5   6
ATOM      6  C   UNL     1     -34.850  44.478  40.393  1.00  0.00     0.006 C 
BRANCH   6   7
ATOM      7  C   UNL     1     -33.760  44.503  39.314  1.00  0.00     0.053 C 
BRANCH   7   8
ATOM      8  C   UNL     1     -34.037  45.541  38.269  1.00  0.00     0.041 C 
ATOM      9  O   UNL     1     -35.225  45.847  37.977  1.00  0.00    -0.550 OA
ATOM     10  O   UNL     1     -32.982  46.172  37.617  1.00  0.00    -0.550 OA
ENDBRANCH   7   8
ENDBRANCH   6   7
ENDBRANCH   5   6
ENDBRANCH   4   5
ENDBRANCH   3   4
ENDBRANCH   2   3
ENDBRANCH   1   2
BRANCH   1  11
ATOM     11  C   UNL     1     -36.367  39.750  44.379  1.00  0.00    -0.031 C 
ATOM     12  C   UNL     1     -36.771  39.046  43.307  1.00  0.00    -0.027 C 
BRANCH  12  13
ATOM     13  C   UNL     1     -37.597  39.631  42.189  1.00  0.00     0.054 C 
BRANCH  13  14
ATOM     14  C   UNL     1     -36.760  39.815  40.955  1.00  0.00    -0.027 C 
ATOM     15  C   UNL     1     -35.714  39.016  40.694  1.00  0.00    -0.031 C 
BRANCH  15  16
ATOM     16  C   UNL     1     -34.854  39.218  39.478  1.00  0.00     0.027 C 
BRANCH  16  17
ATOM     17  C   UNL     1     -33.538  39.951  39.797  1.00  0.00     0.004 C 
BRANCH  17  18
ATOM     18  C   UNL     1     -32.922  39.556  41.154  1.00  0.00     0.000 C 
BRANCH  18  19
ATOM     19  C   UNL     1     -32.015  40.646  41.742  1.00  0.00    -0.003 C 
ATOM     20  C   UNL     1     -31.617  41.662  40.672  1.00  0.00     0.004 C 
ENDBRANCH  18  19
ENDBRANCH  17  18
ENDBRANCH  16  17
ENDBRANCH  15  16
ENDBRANCH  13  14
ENDBRANCH  12  13
ENDBRANCH   1  11
TORSDOF 14
ENDMDL
MODEL 9
REMARK VINA RESULT:    -5.058      7.085      9.270
REMARK INTER + INTRA:         -11.878
REMARK INTER:                  -9.621
REMARK INTRA:                  -2.258
REMARK UNBOUND:                -2.681
REMARK SMILES CCCCCC=CCC=CCCCCCCCC(=O)[O-]
REMARK SMILES IDX 11 1 12 2 13 3 14 4 15 5 16 6 17 7 18 8 19 9 20 10 10 11
REMARK SMILES IDX 9 12 8 13 7 14 6 15 5 16 4 17 3 18 2 19 1 20
REMARK H PARENT
REMARK Flexibility Score: inf
ROOT
ATOM      1  C   UNL     1     -37.012  35.618  46.067  1.00  0.00     0.027 C 
ENDROOT
BRANCH   1   2
ATOM      2  C   UNL     1     -36.126  36.705  46.683  1.00  0.00     0.004 C 
BRANCH   2   3
ATOM      3  C   UNL     1     -36.980  37.809  47.325  1.00  0.00     0.000 C 
BRANCH   3   4
ATOM      4  C   UNL     1     -37.990  38.426  46.346  1.00  0.00     0.000 C 
BRANCH   4   5
ATOM      5  C   UNL     1     -39.443  38.280  46.821  1.00  0.00     0.000 C 
BRANCH   5   6
ATOM      6  C   UNL     1     -39.504  37.545  48.167  1.00  0.00     0.006 C 
BRANCH   6   7
ATOM      7  C   UNL     1     -40.338  36.261  48.091  1.00  0.00     0.053 C 
BRANCH   7   8
ATOM      8  C   UNL     1     -40.780  35.803  49.449  1.00  0.00     0.041 C 
ATOM      9  O   UNL     1     -41.505  36.547  50.163  1.00  0.00    -0.550 OA
ATOM     10  O   UNL     1     -40.391  34.555  49.924  1.00  0.00    -0.550 OA
ENDBRANCH   7   8
ENDBRANCH   6   7
ENDBRANCH   5   6
ENDBRANCH   4   5
ENDBRANCH   3   4
ENDBRANCH   2   3
ENDBRANCH   1   2
BRANCH   1  11
ATOM     11  C   UNL     1     -36.322  34.954  44.903  1.00  0.00    -0.031 C 
ATOM     12  C   UNL     1     -36.318  35.437  43.648  1.00  0.00    -0.027 C 
BRANCH  12  13
ATOM     13  C   UNL     1     -37.039  36.697  43.237  1.00  0.00     0.054 C 
BRANCH  13  14
ATOM     14  C   UNL     1     -36.056  37.757  42.831  1.00  0.00    -0.027 C 
ATOM     15  C   UNL     1     -34.924  37.963  43.522  1.00  0.00    -0.031 C 
BRANCH  15  16
ATOM     16  C   UNL     1     -33.953  39.045  43.139  1.00  0.00     0.027 C 
BRANCH  16  17
ATOM     17  C   UNL     1     -33.650  40.009  44.302  1.00  0.00     0.004 C 
BRANCH  17  18
ATOM     18  C   UNL     1     -34.760  40.059  45.371  1.00  0.00     0.000 C 
BRANCH  18  19
ATOM     19  C   UNL     1     -35.711  41.250  45.192  1.00  0.00    -0.003 C 
ATOM     20  C   UNL     1     -35.018  42.399  44.459  1.00  0.00     0.004 C 
ENDBRANCH  18  19
ENDBRANCH  17  18
ENDBRANCH  16  17
ENDBRANCH  15  16
ENDBRANCH  13  14
ENDBRANCH  12  13
ENDBRANCH   1  11
TORSDOF 14
ENDMDL
