MODEL 1
REMARK VINA RESULT:    -3.480      0.000      0.000
REMARK INTER + INTRA:          -4.990
REMARK INTER:                  -4.701
REMARK INTRA:                  -0.289
REMARK UNBOUND:                -0.289
REMARK SMILES CCCCCCCC(=O)[O-]
REMARK SMILES IDX 5 1 6 2 7 3 8 4 9 5 10 6 4 7 3 8 2 9 1 10
REMARK H PARENT
REMARK Flexibility Score: inf
ROOT
ATOM      1  C   UNL     1       6.917 125.346 111.423  1.00  0.00     0.000 C 
ENDROOT
BRANCH   1   2
ATOM      2  C   UNL     1       5.856 124.236 111.279  1.00  0.00     0.006 C 
BRANCH   2   3
ATOM      3  C   UNL     1       4.451 124.629 111.761  1.00  0.00     0.053 C 
BRANCH   3   4
ATOM      4  C   UNL     1       3.668 125.327 110.692  1.00  0.00     0.041 C 
ATOM      5  O   UNL     1       4.223 125.650 109.608  1.00  0.00    -0.550 OA
ATOM      6  O   UNL     1       2.335 125.651 110.905  1.00  0.00    -0.550 OA
ENDBRANCH   3   4
ENDBRANCH   2   3
ENDBRANCH   1   2
BRANCH   1   7
ATOM      7  C   UNL     1       8.030 125.322 110.359  1.00  0.00     0.000 C 
BRANCH   7   8
ATOM      8  C   UNL     1       7.786 124.269 109.264  1.00  0.00    -0.000 C 
BRANCH   8   9
ATOM      9  C   UNL     1       8.062 124.814 107.854  1.00  0.00    -0.003 C 
ATOM     10  C   UNL     1       6.816 125.401 107.194  1.00  0.00     0.004 C 
ENDBRANCH   8   9
ENDBRANCH   7   8
ENDBRANCH   1   7
TORSDOF 6
ENDMDL
MODEL 2
REMARK VINA RESULT:    -3.402      3.057      5.261
REMARK INTER + INTRA:          -4.884
REMARK INTER:                  -4.590
REMARK INTRA:                  -0.294
REMARK UNBOUND:                -0.289
REMARK SMILES CCCCCCCC(=O)[O-]
REMARK SMILES IDX 5 1 6 2 7 3 8 4 9 5 10 6 4 7 3 8 2 9 1 10
REMARK H PARENT
REMARK Flexibility Score: inf
ROOT
ATOM      1  C   UNL     1       4.647 125.271 110.549  1.00  0.00     0.000 C 
ENDROOT
BRANCH   1   2
ATOM      2  C   UNL     1       5.407 125.229 111.891  1.00  0.00     0.006 C 
BRANCH   2   3
ATOM      3  C   UNL     1       6.926 125.042 111.758  1.00  0.00     0.053 C 
BRANCH   3   4
ATOM      4  C   UNL     1       7.321 123.600 111.831  1.00  0.00     0.041 C 
ATOM      5  O   UNL     1       8.050 123.189 112.772  1.00  0.00    -0.550 OA
ATOM      6  O   UNL     1       6.910 122.715 110.842  1.00  0.00    -0.550 OA
ENDBRANCH   3   4
ENDBRANCH   2   3
ENDBRANCH   1   2
BRANCH   1   7
ATOM      7  C   UNL     1       3.141 124.965 110.646  1.00  0.00     0.000 C 
BRANCH   7   8
ATOM      8  C   UNL     1       2.302 126.205 110.999  1.00  0.00    -0.000 C 
BRANCH   8   9
ATOM      9  C   UNL     1       1.521 126.031 112.311  1.00  0.00    -0.003 C 
ATOM     10  C   UNL     1       1.581 124.602 112.848  1.00  0.00     0.004 C 
ENDBRANCH   8   9
ENDBRANCH   7   8
ENDBRANCH   1   7
TORSDOF 6
ENDMDL
MODEL 3
REMARK VINA RESULT:    -3.392      2.425      2.604
REMARK INTER + INTRA:          -4.870
REMARK INTER:                  -4.613
REMARK INTRA:                  -0.257
REMARK UNBOUND:                -0.289
REMARK SMILES CCCCCCCC(=O)[O-]
REMARK SMILES IDX 5 1 6 2 7 3 8 4 9 5 10 6 4 7 3 8 2 9 1 10
REMARK H PARENT
REMARK Flexibility Score: inf
ROOT
ATOM      1  C   UNL     1       7.134 124.852 111.449  1.00  0.00     0.000 C 
ENDROOT
BRANCH   1   2
ATOM      2  C   UNL     1       6.431 123.480 111.400  1.00  0.00     0.006 C 
BRANCH   2   3
ATOM      3  C   UNL     1       4.965 123.497 111.858  1.00  0.00     0.053 C 
BRANCH   3   4
ATOM      4  C   UNL     1       4.778 122.782 113.160  1.00  0.00     0.041 C 
ATOM      5  O   UNL     1       5.631 122.902 114.078  1.00  0.00    -0.550 OA
ATOM      6  O   UNL     1       3.677 121.957 113.349  1.00  0.00    -0.550 OA
ENDBRANCH   3   4
ENDBRANCH   2   3
ENDBRANCH   1   2
BRANCH   1   7
ATOM      7  C   UNL     1       7.798 125.289 110.130  1.00  0.00     0.000 C 
BRANCH   7   8
ATOM      8  C   UNL     1       7.797 124.179 109.066  1.00  0.00    -0.000 C 
BRANCH   8   9
ATOM      9  C   UNL     1       8.177 124.702 107.671  1.00  0.00    -0.003 C 
ATOM     10  C   UNL     1       7.000 125.352 106.945  1.00  0.00     0.004 C 
ENDBRANCH   8   9
ENDBRANCH   7   8
ENDBRANCH   1   7
TORSDOF 6
ENDMDL
MODEL 4
REMARK VINA RESULT:    -3.390      1.239      2.222
REMARK INTER + INTRA:          -4.869
REMARK INTER:                  -4.567
REMARK INTRA:                  -0.301
REMARK UNBOUND:                -0.289
REMARK SMILES CCCCCCCC(=O)[O-]
REMARK SMILES IDX 5 1 6 2 7 3 8 4 9 5 10 6 4 7 3 8 2 9 1 10
REMARK H PARENT
REMARK Flexibility Score: inf
ROOT
ATOM      1  C   UNL     1       5.249 123.801 111.669  1.00  0.00     0.000 C 
ENDROOT
BRANCH   1   2
ATOM      2  C   UNL     1       4.549 124.943 110.903  1.00  0.00     0.006 C 
BRANCH   2   3
ATOM      3  C   UNL     1       3.017 124.841 110.867  1.00  0.00     0.053 C 
BRANCH   3   4
ATOM      4  C   UNL     1       2.370 126.185 110.742  1.00  0.00     0.041 C 
ATOM      5  O   UNL     1       1.316 126.444 111.381  1.00  0.00    -0.550 OA
ATOM      6  O   UNL     1       2.912 127.142 109.894  1.00  0.00    -0.550 OA
ENDBRANCH   3   4
ENDBRANCH   2   3
ENDBRANCH   1   2
BRANCH   1   7
ATOM      7  C   UNL     1       6.676 123.476 111.188  1.00  0.00     0.000 C 
BRANCH   7   8
ATOM      8  C   UNL     1       7.664 124.630 111.432  1.00  0.00    -0.000 C 
BRANCH   8   9
ATOM      9  C   UNL     1       8.491 124.969 110.182  1.00  0.00    -0.003 C 
ATOM     10  C   UNL     1       7.746 124.667 108.882  1.00  0.00     0.004 C 
ENDBRANCH   8   9
ENDBRANCH   7   8
ENDBRANCH   1   7
TORSDOF 6
ENDMDL
MODEL 5
REMARK VINA RESULT:    -3.375      3.518      5.234
REMARK INTER + INTRA:          -4.848
REMARK INTER:                  -4.613
REMARK INTRA:                  -0.235
REMARK UNBOUND:                -0.289
REMARK SMILES CCCCCCCC(=O)[O-]
REMARK SMILES IDX 5 1 6 2 7 3 8 4 9 5 10 6 4 7 3 8 2 9 1 10
REMARK H PARENT
REMARK Flexibility Score: inf
ROOT
ATOM      1  C   UNL     1       4.204 124.065 111.536  1.00  0.00     0.000 C 
ENDROOT
BRANCH   1   2
ATOM      2  C   UNL     1       5.653 123.557 111.678  1.00  0.00     0.006 C 
BRANCH   2   3
ATOM      3  C   UNL     1       6.706 124.665 111.833  1.00  0.00     0.053 C 
BRANCH   3   4
ATOM      4  C   UNL     1       8.084 124.107 112.006  1.00  0.00     0.041 C 
ATOM      5  O   UNL     1       9.038 124.548 111.313  1.00  0.00    -0.550 OA
ATOM      6  O   UNL     1       8.309 123.076 112.909  1.00  0.00    -0.550 OA
ENDBRANCH   3   4
ENDBRANCH   2   3
ENDBRANCH   1   2
BRANCH   1   7
ATOM      7  C   UNL     1       3.994 125.135 110.449  1.00  0.00     0.000 C 
BRANCH   7   8
ATOM      8  C   UNL     1       2.706 125.950 110.655  1.00  0.00    -0.000 C 
BRANCH   8   9
ATOM      9  C   UNL     1       2.178 125.860 112.095  1.00  0.00    -0.003 C 
ATOM     10  C   UNL     1       1.046 126.849 112.372  1.00  0.00     0.004 C 
ENDBRANCH   8   9
ENDBRANCH   7   8
ENDBRANCH   1   7
TORSDOF 6
ENDMDL
MODEL 6
REMARK VINA RESULT:    -3.362      3.069      4.889
REMARK INTER + INTRA:          -4.830
REMARK INTER:                  -4.417
REMARK INTRA:                  -0.413
REMARK UNBOUND:                -0.289
REMARK SMILES CCCCCCCC(=O)[O-]
REMARK SMILES IDX 5 1 6 2 7 3 8 4 9 5 10 6 4 7 3 8 2 9 1 10
REMARK H PARENT
REMARK Flexibility Score: inf
ROOT
ATOM      1  C   UNL     1       5.149 125.093 112.773  1.00  0.00     0.000 C 
ENDROOT
BRANCH   1   2
ATOM      2  C   UNL     1       6.004 125.698 111.640  1.00  0.00     0.006 C 
BRANCH   2   3
ATOM      3  C   UNL     1       7.473 125.248 111.639  1.00  0.00     0.053 C 
BRANCH   3   4
ATOM      4  C   UNL     1       7.603 123.760 111.740  1.00  0.00     0.041 C 
ATOM      5  O   UNL     1       7.144 123.020 110.830  1.00  0.00    -0.550 OA
ATOM      6  O   UNL     1       8.201 123.188 112.856  1.00  0.00    -0.550 OA
ENDBRANCH   3   4
ENDBRANCH   2   3
ENDBRANCH   1   2
BRANCH   1   7
ATOM      7  C   UNL     1       3.877 124.362 112.307  1.00  0.00     0.000 C 
BRANCH   7   8
ATOM      8  C   UNL     1       3.425 124.790 110.900  1.00  0.00    -0.000 C 
BRANCH   8   9
ATOM      9  C   UNL     1       2.260 125.791 110.936  1.00  0.00    -0.003 C 
ATOM     10  C   UNL     1       1.553 125.825 112.290  1.00  0.00     0.004 C 
ENDBRANCH   8   9
ENDBRANCH   7   8
ENDBRANCH   1   7
TORSDOF 6
ENDMDL
MODEL 7
REMARK VINA RESULT:    -3.344      3.780      6.090
REMARK INTER + INTRA:          -4.805
REMARK INTER:                  -4.611
REMARK INTRA:                  -0.195
REMARK UNBOUND:                -0.289
REMARK SMILES CCCCCCCC(=O)[O-]
REMARK SMILES IDX 5 1 6 2 7 3 8 4 9 5 10 6 4 7 3 8 2 9 1 10
REMARK H PARENT
REMARK Flexibility Score: inf
ROOT
ATOM      1  C   UNL     1       4.381 123.881 112.572  1.00  0.00     0.000 C 
ENDROOT
BRANCH   1   2
ATOM      2  C   UNL     1       5.510 123.065 111.910  1.00  0.00     0.006 C 
BRANCH   2   3
ATOM      3  C   UNL     1       6.536 123.905 111.134  1.00  0.00     0.053 C 
BRANCH   3   4
ATOM      4  C   UNL     1       7.869 123.928 111.815  1.00  0.00     0.041 C 
ATOM      5  O   UNL     1       8.809 124.623 111.346  1.00  0.00    -0.550 OA
ATOM      6  O   UNL     1       8.085 123.156 112.949  1.00  0.00    -0.550 OA
ENDBRANCH   3   4
ENDBRANCH   2   3
ENDBRANCH   1   2
BRANCH   1   7
ATOM      7  C   UNL     1       3.638 123.158 113.710  1.00  0.00     0.000 C 
BRANCH   7   8
ATOM      8  C   UNL     1       3.710 121.626 113.590  1.00  0.00    -0.000 C 
BRANCH   8   9
ATOM      9  C   UNL     1       2.405 120.941 114.026  1.00  0.00    -0.003 C 
ATOM     10  C   UNL     1       2.533 119.420 114.096  1.00  0.00     0.004 C 
ENDBRANCH   8   9
ENDBRANCH   7   8
ENDBRANCH   1   7
TORSDOF 6
ENDMDL
MODEL 8
REMARK VINA RESULT:    -3.306      2.886      5.009
REMARK INTER + INTRA:          -4.754
REMARK INTER:                  -4.187
REMARK INTRA:                  -0.568
REMARK UNBOUND:                -0.289
REMARK SMILES CCCCCCCC(=O)[O-]
REMARK SMILES IDX 5 1 6 2 7 3 8 4 9 5 10 6 4 7 3 8 2 9 1 10
REMARK H PARENT
REMARK Flexibility Score: inf
ROOT
ATOM      1  C   UNL     1       4.764 125.667 110.975  1.00  0.00     0.000 C 
ENDROOT
BRANCH   1   2
ATOM      2  C   UNL     1       6.129 125.275 110.373  1.00  0.00     0.006 C 
BRANCH   2   3
ATOM      3  C   UNL     1       7.320 125.438 111.330  1.00  0.00     0.053 C 
BRANCH   3   4
ATOM      4  C   UNL     1       7.900 124.117 111.731  1.00  0.00     0.041 C 
ATOM      5  O   UNL     1       8.941 124.070 112.437  1.00  0.00    -0.550 OA
ATOM      6  O   UNL     1       7.309 122.937 111.299  1.00  0.00    -0.550 OA
ENDBRANCH   3   4
ENDBRANCH   2   3
ENDBRANCH   1   2
BRANCH   1   7
ATOM      7  C   UNL     1       3.741 124.521 111.067  1.00  0.00     0.000 C 
BRANCH   7   8
ATOM      8  C   UNL     1       3.416 124.126 112.517  1.00  0.00    -0.000 C 
BRANCH   8   9
ATOM      9  C   UNL     1       4.256 122.933 113.003  1.00  0.00    -0.003 C 
ATOM     10  C   UNL     1       5.183 123.298 114.161  1.00  0.00     0.004 C 
ENDBRANCH   8   9
ENDBRANCH   7   8
ENDBRANCH   1   7
TORSDOF 6
ENDMDL
MODEL 9
REMARK VINA RESULT:    -3.236      2.792      4.320
REMARK INTER + INTRA:          -4.659
REMARK INTER:                  -4.087
REMARK INTRA:                  -0.573
REMARK UNBOUND:                -0.289
REMARK SMILES CCCCCCCC(=O)[O-]
REMARK SMILES IDX 5 1 6 2 7 3 8 4 9 5 10 6 4 7 3 8 2 9 1 10
REMARK H PARENT
REMARK Flexibility Score: inf
ROOT
ATOM      1  C   UNL     1       4.677 123.066 112.693  1.00  0.00     0.000 C 
ENDROOT
BRANCH   1   2
ATOM      2  C   UNL     1       5.797 123.020 111.632  1.00  0.00     0.006 C 
BRANCH   2   3
ATOM      3  C   UNL     1       7.102 123.713 112.051  1.00  0.00     0.053 C 
BRANCH   3   4
ATOM      4  C   UNL     1       7.513 124.770 111.074  1.00  0.00     0.041 C 
ATOM      5  O   UNL     1       7.866 124.452 109.907  1.00  0.00    -0.550 OA
ATOM      6  O   UNL     1       7.539 126.103 111.460  1.00  0.00    -0.550 OA
ENDBRANCH   3   4
ENDBRANCH   2   3
ENDBRANCH   1   2
BRANCH   1   7
ATOM      7  C   UNL     1       3.592 124.130 112.447  1.00  0.00     0.000 C 
BRANCH   7   8
ATOM      8  C   UNL     1       3.496 124.553 110.971  1.00  0.00    -0.000 C 
BRANCH   8   9
ATOM      9  C   UNL     1       3.833 126.038 110.762  1.00  0.00    -0.003 C 
ATOM     10  C   UNL     1       4.125 126.766 112.073  1.00  0.00     0.004 C 
ENDBRANCH   8   9
ENDBRANCH   7   8
ENDBRANCH   1   7
TORSDOF 6
ENDMDL
