MODEL 1
REMARK VINA RESULT:    -5.320      0.000      0.000
REMARK INTER + INTRA:          -5.631
REMARK INTER:                  -5.631
REMARK INTRA:                   0.000
REMARK UNBOUND:                 0.000
REMARK SMILES O=c1ccc2cc(O)c(O)cc2o1
REMARK SMILES IDX 4 1 3 2 2 3 1 4 13 5 12 6 11 7 9 8 7 9 6 10 5 11 8 12 10 14
REMARK H PARENT 8 13 10 15
REMARK Flexibility Score: inf
ROOT
ATOM      1  C   UNL     1       9.032  51.510  25.125  1.00  0.00     0.019 A 
ATOM      2  C   UNL     1       7.908  51.932  24.414  1.00  0.00     0.094 A 
ATOM      3  C   UNL     1       8.012  52.118  23.031  1.00  0.00     0.336 A 
ATOM      4  O   UNL     1       7.010  52.499  22.372  1.00  0.00    -0.246 OA
ATOM      5  O   UNL     1       9.166  51.895  22.407  1.00  0.00    -0.423 OA
ATOM      6  C   UNL     1      10.260  51.492  23.046  1.00  0.00     0.142 A 
ATOM      7  C   UNL     1      11.444  51.273  22.337  1.00  0.00     0.098 A 
ATOM      8  C   UNL     1      12.602  50.847  23.006  1.00  0.00     0.161 A 
ATOM      9  C   UNL     1      12.571  50.639  24.397  1.00  0.00     0.158 A 
ATOM     10  C   UNL     1      11.386  50.858  25.110  1.00  0.00     0.062 A 
ATOM     11  C   UNL     1      10.230  51.282  24.442  1.00  0.00     0.022 A 
ENDROOT
BRANCH   9  12
ATOM     12  O   UNL     1      13.707  50.216  25.086  1.00  0.00    -0.504 OA
ATOM     13  H   UNL     1      13.841  50.410  26.072  1.00  0.00     0.293 HD
ENDBRANCH   9  12
BRANCH   8  14
ATOM     14  O   UNL     1      13.781  50.630  22.294  1.00  0.00    -0.504 OA
ATOM     15  H   UNL     1      14.295  49.760  22.370  1.00  0.00     0.293 HD
ENDBRANCH   8  14
TORSDOF 2
ENDMDL
MODEL 2
REMARK VINA RESULT:    -5.233      2.014      4.771
REMARK INTER + INTRA:          -5.538
REMARK INTER:                  -5.538
REMARK INTRA:                   0.000
REMARK UNBOUND:                 0.000
REMARK SMILES O=c1ccc2cc(O)c(O)cc2o1
REMARK SMILES IDX 4 1 3 2 2 3 1 4 13 5 12 6 11 7 9 8 7 9 6 10 5 11 8 12 10 14
REMARK H PARENT 8 13 10 15
REMARK Flexibility Score: inf
ROOT
ATOM      1  C   UNL     1       8.369  51.746  24.408  1.00  0.00     0.019 A 
ATOM      2  C   UNL     1       9.564  51.685  25.124  1.00  0.00     0.094 A 
ATOM      3  C   UNL     1      10.756  52.040  24.485  1.00  0.00     0.336 A 
ATOM      4  O   UNL     1      11.845  51.991  25.114  1.00  0.00    -0.246 OA
ATOM      5  O   UNL     1      10.747  52.431  23.213  1.00  0.00    -0.423 OA
ATOM      6  C   UNL     1       9.631  52.504  22.494  1.00  0.00     0.142 A 
ATOM      7  C   UNL     1       9.682  52.922  21.161  1.00  0.00     0.098 A 
ATOM      8  C   UNL     1       8.508  53.002  20.398  1.00  0.00     0.161 A 
ATOM      9  C   UNL     1       7.272  52.660  20.975  1.00  0.00     0.158 A 
ATOM     10  C   UNL     1       7.217  52.241  22.310  1.00  0.00     0.062 A 
ATOM     11  C   UNL     1       8.390  52.161  23.073  1.00  0.00     0.022 A 
ENDROOT
BRANCH   9  12
ATOM     12  O   UNL     1       6.089  52.729  20.240  1.00  0.00    -0.504 OA
ATOM     13  H   UNL     1       5.815  52.000  19.592  1.00  0.00     0.293 HD
ENDBRANCH   9  12
BRANCH   8  14
ATOM     14  O   UNL     1       8.565  53.419  19.068  1.00  0.00    -0.504 OA
ATOM     15  H   UNL     1       8.863  52.793  18.328  1.00  0.00     0.293 HD
ENDBRANCH   8  14
TORSDOF 2
ENDMDL
MODEL 3
REMARK VINA RESULT:    -5.177      1.170      4.555
REMARK INTER + INTRA:          -5.480
REMARK INTER:                  -5.480
REMARK INTRA:                   0.000
REMARK UNBOUND:                 0.000
REMARK SMILES O=c1ccc2cc(O)c(O)cc2o1
REMARK SMILES IDX 4 1 3 2 2 3 1 4 13 5 12 6 11 7 9 8 7 9 6 10 5 11 8 12 10 14
REMARK H PARENT 8 13 10 15
REMARK Flexibility Score: inf
ROOT
ATOM      1  C   UNL     1      11.325  51.338  25.125  1.00  0.00     0.019 A 
ATOM      2  C   UNL     1      12.548  51.265  24.459  1.00  0.00     0.094 A 
ATOM      3  C   UNL     1      12.582  51.483  23.078  1.00  0.00     0.336 A 
ATOM      4  O   UNL     1      13.676  51.420  22.458  1.00  0.00    -0.246 OA
ATOM      5  O   UNL     1      11.462  51.757  22.412  1.00  0.00    -0.423 OA
ATOM      6  C   UNL     1      10.276  51.837  23.008  1.00  0.00     0.142 A 
ATOM      7  C   UNL     1       9.134  52.128  22.257  1.00  0.00     0.098 A 
ATOM      8  C   UNL     1       7.880  52.214  22.881  1.00  0.00     0.161 A 
ATOM      9  C   UNL     1       7.770  52.006  24.267  1.00  0.00     0.158 A 
ATOM     10  C   UNL     1       8.913  51.714  25.022  1.00  0.00     0.062 A 
ATOM     11  C   UNL     1      10.166  51.629  24.400  1.00  0.00     0.022 A 
ENDROOT
BRANCH   9  12
ATOM     12  O   UNL     1       6.536  52.086  24.912  1.00  0.00    -0.504 OA
ATOM     13  H   UNL     1       5.702  51.655  24.531  1.00  0.00     0.293 HD
ENDBRANCH   9  12
BRANCH   8  14
ATOM     14  O   UNL     1       6.743  52.505  22.127  1.00  0.00    -0.504 OA
ATOM     15  H   UNL     1       6.052  53.176  22.445  1.00  0.00     0.293 HD
ENDBRANCH   8  14
TORSDOF 2
ENDMDL
MODEL 4
REMARK VINA RESULT:    -5.170      1.989      4.219
REMARK INTER + INTRA:          -5.472
REMARK INTER:                  -5.472
REMARK INTRA:                   0.000
REMARK UNBOUND:                 0.000
REMARK SMILES O=c1ccc2cc(O)c(O)cc2o1
REMARK SMILES IDX 4 1 3 2 2 3 1 4 13 5 12 6 11 7 9 8 7 9 6 10 5 11 8 12 10 14
REMARK H PARENT 8 13 10 15
REMARK Flexibility Score: inf
ROOT
ATOM      1  C   UNL     1       9.757  51.755  24.422  1.00  0.00     0.019 A 
ATOM      2  C   UNL     1      10.566  50.863  25.125  1.00  0.00     0.094 A 
ATOM      3  C   UNL     1      11.631  50.246  24.461  1.00  0.00     0.336 A 
ATOM      4  O   UNL     1      12.373  49.437  25.078  1.00  0.00    -0.246 OA
ATOM      5  O   UNL     1      11.868  50.509  23.178  1.00  0.00    -0.423 OA
ATOM      6  C   UNL     1      11.122  51.353  22.471  1.00  0.00     0.142 A 
ATOM      7  C   UNL     1      11.417  51.591  21.126  1.00  0.00     0.098 A 
ATOM      8  C   UNL     1      10.634  52.481  20.375  1.00  0.00     0.161 A 
ATOM      9  C   UNL     1       9.546  53.137  20.977  1.00  0.00     0.158 A 
ATOM     10  C   UNL     1       9.247  52.900  22.325  1.00  0.00     0.062 A 
ATOM     11  C   UNL     1      10.029  52.013  23.075  1.00  0.00     0.022 A 
ENDROOT
BRANCH   9  12
ATOM     12  O   UNL     1       8.751  54.025  20.254  1.00  0.00    -0.504 OA
ATOM     13  H   UNL     1       8.062  53.707  19.583  1.00  0.00     0.293 HD
ENDBRANCH   9  12
BRANCH   8  14
ATOM     14  O   UNL     1      10.933  52.714  19.033  1.00  0.00    -0.504 OA
ATOM     15  H   UNL     1      11.147  53.644  18.691  1.00  0.00     0.293 HD
ENDBRANCH   8  14
TORSDOF 2
ENDMDL
MODEL 5
REMARK VINA RESULT:    -5.023      1.189      2.292
REMARK INTER + INTRA:          -5.316
REMARK INTER:                  -5.316
REMARK INTRA:                   0.000
REMARK UNBOUND:                 0.000
REMARK SMILES O=c1ccc2cc(O)c(O)cc2o1
REMARK SMILES IDX 4 1 3 2 2 3 1 4 13 5 12 6 11 7 9 8 7 9 6 10 5 11 8 12 10 14
REMARK H PARENT 8 13 10 15
REMARK Flexibility Score: inf
ROOT
ATOM      1  C   UNL     1       8.811  52.100  22.389  1.00  0.00     0.019 A 
ATOM      2  C   UNL     1       7.630  52.287  23.108  1.00  0.00     0.094 A 
ATOM      3  C   UNL     1       7.595  51.926  24.459  1.00  0.00     0.336 A 
ATOM      4  O   UNL     1       6.539  52.086  25.125  1.00  0.00    -0.246 OA
ATOM      5  O   UNL     1       8.673  51.413  25.046  1.00  0.00    -0.423 OA
ATOM      6  C   UNL     1       9.818  51.218  24.398  1.00  0.00     0.142 A 
ATOM      7  C   UNL     1      10.918  50.675  25.067  1.00  0.00     0.098 A 
ATOM      8  C   UNL     1      12.129  50.468  24.389  1.00  0.00     0.161 A 
ATOM      9  C   UNL     1      12.237  50.808  23.029  1.00  0.00     0.158 A 
ATOM     10  C   UNL     1      11.136  51.352  22.355  1.00  0.00     0.062 A 
ATOM     11  C   UNL     1       9.927  51.560  23.033  1.00  0.00     0.022 A 
ENDROOT
BRANCH   9  12
ATOM     12  O   UNL     1      13.428  50.613  22.330  1.00  0.00    -0.504 OA
ATOM     13  H   UNL     1      13.940  49.740  22.374  1.00  0.00     0.293 HD
ENDBRANCH   9  12
BRANCH   8  14
ATOM     14  O   UNL     1      13.223  49.926  25.061  1.00  0.00    -0.504 OA
ATOM     15  H   UNL     1      13.931  50.515  25.485  1.00  0.00     0.293 HD
ENDBRANCH   8  14
TORSDOF 2
ENDMDL
MODEL 6
REMARK VINA RESULT:    -4.833      4.173      7.030
REMARK INTER + INTRA:          -5.116
REMARK INTER:                  -5.116
REMARK INTRA:                   0.000
REMARK UNBOUND:                 0.000
REMARK SMILES O=c1ccc2cc(O)c(O)cc2o1
REMARK SMILES IDX 4 1 3 2 2 3 1 4 13 5 12 6 11 7 9 8 7 9 6 10 5 11 8 12 10 14
REMARK H PARENT 8 13 10 15
REMARK Flexibility Score: inf
ROOT
ATOM      1  C   UNL     1       8.309  53.239  21.432  1.00  0.00     0.019 A 
ATOM      2  C   UNL     1       9.638  53.100  21.031  1.00  0.00     0.094 A 
ATOM      3  C   UNL     1       9.912  52.769  19.700  1.00  0.00     0.336 A 
ATOM      4  O   UNL     1      11.105  52.638  19.318  1.00  0.00    -0.246 OA
ATOM      5  O   UNL     1       8.920  52.591  18.832  1.00  0.00    -0.423 OA
ATOM      6  C   UNL     1       7.640  52.714  19.172  1.00  0.00     0.142 A 
ATOM      7  C   UNL     1       6.639  52.516  18.217  1.00  0.00     0.098 A 
ATOM      8  C   UNL     1       5.288  52.645  18.570  1.00  0.00     0.161 A 
ATOM      9  C   UNL     1       4.936  52.975  19.891  1.00  0.00     0.158 A 
ATOM     10  C   UNL     1       5.937  53.175  20.851  1.00  0.00     0.062 A 
ATOM     11  C   UNL     1       7.287  53.047  20.498  1.00  0.00     0.022 A 
ENDROOT
BRANCH   9  12
ATOM     12  O   UNL     1       3.601  53.110  20.269  1.00  0.00    -0.504 OA
ATOM     13  H   UNL     1       2.849  53.130  19.590  1.00  0.00     0.293 HD
ENDBRANCH   9  12
BRANCH   8  14
ATOM     14  O   UNL     1       4.293  52.445  17.613  1.00  0.00    -0.504 OA
ATOM     15  H   UNL     1       3.501  51.836  17.790  1.00  0.00     0.293 HD
ENDBRANCH   8  14
TORSDOF 2
ENDMDL
MODEL 7
REMARK VINA RESULT:    -4.775      2.235      5.103
REMARK INTER + INTRA:          -5.054
REMARK INTER:                  -5.054
REMARK INTRA:                   0.000
REMARK UNBOUND:                 0.000
REMARK SMILES O=c1ccc2cc(O)c(O)cc2o1
REMARK SMILES IDX 4 1 3 2 2 3 1 4 13 5 12 6 11 7 9 8 7 9 6 10 5 11 8 12 10 14
REMARK H PARENT 8 13 10 15
REMARK Flexibility Score: inf
ROOT
ATOM      1  C   UNL     1      12.051  51.014  21.508  1.00  0.00     0.019 A 
ATOM      2  C   UNL     1      12.343  50.595  22.806  1.00  0.00     0.094 A 
ATOM      3  C   UNL     1      11.486  50.967  23.847  1.00  0.00     0.336 A 
ATOM      4  O   UNL     1      11.732  50.599  25.026  1.00  0.00    -0.246 OA
ATOM      5  O   UNL     1      10.410  51.710  23.600  1.00  0.00    -0.423 OA
ATOM      6  C   UNL     1      10.095  52.130  22.379  1.00  0.00     0.142 A 
ATOM      7  C   UNL     1       8.951  52.908  22.179  1.00  0.00     0.098 A 
ATOM      8  C   UNL     1       8.613  53.354  20.893  1.00  0.00     0.161 A 
ATOM      9  C   UNL     1       9.429  53.018  19.797  1.00  0.00     0.158 A 
ATOM     10  C   UNL     1      10.576  52.239  19.994  1.00  0.00     0.062 A 
ATOM     11  C   UNL     1      10.913  51.793  21.279  1.00  0.00     0.022 A 
ENDROOT
BRANCH   9  12
ATOM     12  O   UNL     1       9.117  53.448  18.508  1.00  0.00    -0.504 OA
ATOM     13  H   UNL     1       8.402  54.144  18.331  1.00  0.00     0.293 HD
ENDBRANCH   9  12
BRANCH   8  14
ATOM     14  O   UNL     1       7.471  54.130  20.699  1.00  0.00    -0.504 OA
ATOM     15  H   UNL     1       7.367  55.040  21.134  1.00  0.00     0.293 HD
ENDBRANCH   8  14
TORSDOF 2
ENDMDL
MODEL 8
REMARK VINA RESULT:    -4.749      3.728      7.194
REMARK INTER + INTRA:          -5.027
REMARK INTER:                  -5.027
REMARK INTRA:                   0.000
REMARK UNBOUND:                 0.000
REMARK SMILES O=c1ccc2cc(O)c(O)cc2o1
REMARK SMILES IDX 4 1 3 2 2 3 1 4 13 5 12 6 11 7 9 8 7 9 6 10 5 11 8 12 10 14
REMARK H PARENT 8 13 10 15
REMARK Flexibility Score: inf
ROOT
ATOM      1  C   UNL     1       8.767  52.405  19.424  1.00  0.00     0.019 A 
ATOM      2  C   UNL     1       9.593  52.484  20.545  1.00  0.00     0.094 A 
ATOM      3  C   UNL     1       9.024  52.786  21.786  1.00  0.00     0.336 A 
ATOM      4  O   UNL     1       9.752  52.862  22.810  1.00  0.00    -0.246 OA
ATOM      5  O   UNL     1       7.713  52.993  21.893  1.00  0.00    -0.423 OA
ATOM      6  C   UNL     1       6.890  52.927  20.851  1.00  0.00     0.142 A 
ATOM      7  C   UNL     1       5.522  53.154  21.024  1.00  0.00     0.098 A 
ATOM      8  C   UNL     1       4.649  53.085  19.928  1.00  0.00     0.161 A 
ATOM      9  C   UNL     1       5.151  52.786  18.649  1.00  0.00     0.158 A 
ATOM     10  C   UNL     1       6.521  52.558  18.472  1.00  0.00     0.062 A 
ATOM     11  C   UNL     1       7.394  52.626  19.567  1.00  0.00     0.022 A 
ENDROOT
BRANCH   9  12
ATOM     12  O   UNL     1       4.306  52.712  17.542  1.00  0.00    -0.504 OA
ATOM     13  H   UNL     1       3.352  53.052  17.570  1.00  0.00     0.293 HD
ENDBRANCH   9  12
BRANCH   8  14
ATOM     14  O   UNL     1       3.284  53.312  20.106  1.00  0.00    -0.504 OA
ATOM     15  H   UNL     1       2.589  52.653  19.776  1.00  0.00     0.293 HD
ENDBRANCH   8  14
TORSDOF 2
ENDMDL
