MODEL 1
REMARK VINA RESULT:    -7.495      0.000      0.000
REMARK INTER + INTRA:         -10.602
REMARK INTER:                 -10.124
REMARK INTRA:                  -0.478
REMARK UNBOUND:                -0.478
REMARK SMILES O=c1c(-c2ccc(O)cc2)coc2c([C@H]3O[C@H](CO)[C@@H](O)[C@@H](O)[C@@H]3O)c(O)ccc12
REMARK SMILES IDX 3 1 11 2 12 3 13 4 30 5 2 6 1 7 29 8 28 9 26 10 14 11 4 12
REMARK SMILES IDX 5 13 6 14 7 15 10 16 9 17 8 18 15 20 24 21 16 22 22 23 17 24
REMARK SMILES IDX 20 25 25 26 23 28 18 30 19 31 21 33 27 35
REMARK H PARENT 8 19 25 27 23 29 19 32 21 34 27 36
REMARK Flexibility Score: inf
ROOT
ATOM      1  C   UNL     1     178.521 181.405 175.216  1.00  0.00     0.065 A 
ATOM      2  C   UNL     1     179.125 182.487 174.561  1.00  0.00     0.208 A 
ATOM      3  O   UNL     1     178.577 183.019 173.475  1.00  0.00    -0.463 OA
ATOM      4  C   UNL     1     177.442 182.576 172.940  1.00  0.00     0.147 A 
ATOM      5  C   UNL     1     176.766 181.486 173.537  1.00  0.00     0.066 A 
ATOM      6  C   UNL     1     177.324 180.893 174.685  1.00  0.00     0.200 A 
ATOM      7  O   UNL     1     176.764 179.898 175.224  1.00  0.00    -0.288 OA
ATOM      8  C   UNL     1     175.564 181.024 172.978  1.00  0.00     0.020 A 
ATOM      9  C   UNL     1     175.033 181.643 171.848  1.00  0.00     0.047 A 
ATOM     10  C   UNL     1     175.690 182.725 171.252  1.00  0.00     0.125 A 
ATOM     11  C   UNL     1     176.915 183.193 171.781  1.00  0.00     0.069 A 
ENDROOT
BRANCH   1  12
ATOM     12  C   UNL     1     179.150 180.831 176.433  1.00  0.00    -0.011 A 
ATOM     13  C   UNL     1     179.890 179.638 176.353  1.00  0.00     0.013 A 
ATOM     14  C   UNL     1     180.491 179.100 177.495  1.00  0.00     0.047 A 
ATOM     15  C   UNL     1     180.365 179.748 178.727  1.00  0.00     0.115 A 
ATOM     16  C   UNL     1     179.034 181.481 177.675  1.00  0.00     0.013 A 
ATOM     17  C   UNL     1     179.636 180.941 178.815  1.00  0.00     0.047 A 
BRANCH  15  18
ATOM     18  O   UNL     1     180.970 179.200 179.857  1.00  0.00    -0.508 OA
ATOM     19  H   UNL     1     181.015 178.198 179.999  1.00  0.00     0.293 HD
ENDBRANCH  15  18
ENDBRANCH   1  12
BRANCH  11  20
ATOM     20  C   UNL     1     177.625 184.384 171.151  1.00  0.00     0.188 C 
ATOM     21  C   UNL     1     179.034 183.963 170.668  1.00  0.00     0.179 C 
ATOM     22  O   UNL     1     177.691 185.439 172.101  1.00  0.00    -0.362 OA
ATOM     23  C   UNL     1     179.775 185.173 170.081  1.00  0.00     0.177 C 
ATOM     24  C   UNL     1     178.319 186.611 171.593  1.00  0.00     0.176 C 
ATOM     25  C   UNL     1     179.757 186.337 171.090  1.00  0.00     0.177 C 
BRANCH  21  26
ATOM     26  O   UNL     1     178.957 182.925 169.721  1.00  0.00    -0.387 OA
ATOM     27  H   UNL     1     179.883 182.619 169.531  1.00  0.00     0.211 HD
ENDBRANCH  21  26
BRANCH  23  28
ATOM     28  O   UNL     1     181.096 184.808 169.773  1.00  0.00    -0.387 OA
ATOM     29  H   UNL     1     181.179 184.841 168.784  1.00  0.00     0.211 HD
ENDBRANCH  23  28
BRANCH  24  30
ATOM     30  C   UNL     1     177.431 187.357 170.571  1.00  0.00     0.191 C 
BRANCH  30  31
ATOM     31  O   UNL     1     178.184 188.299 169.857  1.00  0.00    -0.394 OA
ATOM     32  H   UNL     1     177.537 188.862 169.356  1.00  0.00     0.210 HD
ENDBRANCH  30  31
ENDBRANCH  24  30
BRANCH  25  33
ATOM     33  O   UNL     1     180.570 186.029 172.195  1.00  0.00    -0.388 OA
ATOM     34  H   UNL     1     181.382 186.595 172.127  1.00  0.00     0.211 HD
ENDBRANCH  25  33
ENDBRANCH  11  20
BRANCH  10  35
ATOM     35  O   UNL     1     175.124 183.338 170.133  1.00  0.00    -0.507 OA
ATOM     36  H   UNL     1     174.688 184.250 170.188  1.00  0.00     0.293 HD
ENDBRANCH  10  35
TORSDOF 9
ENDMDL
MODEL 2
REMARK VINA RESULT:    -7.491      6.038      8.757
REMARK INTER + INTRA:         -10.597
REMARK INTER:                 -10.109
REMARK INTRA:                  -0.488
REMARK UNBOUND:                -0.478
REMARK SMILES O=c1c(-c2ccc(O)cc2)coc2c([C@H]3O[C@H](CO)[C@@H](O)[C@@H](O)[C@@H]3O)c(O)ccc12
REMARK SMILES IDX 3 1 11 2 12 3 13 4 30 5 2 6 1 7 29 8 28 9 26 10 14 11 4 12
REMARK SMILES IDX 5 13 6 14 7 15 10 16 9 17 8 18 15 20 24 21 16 22 22 23 17 24
REMARK SMILES IDX 20 25 25 26 23 28 18 30 19 31 21 33 27 35
REMARK H PARENT 8 19 25 27 23 29 19 32 21 34 27 36
REMARK Flexibility Score: inf
ROOT
ATOM      1  C   UNL     1     182.160 179.315 175.217  1.00  0.00     0.065 A 
ATOM      2  C   UNL     1     181.539 178.244 174.561  1.00  0.00     0.208 A 
ATOM      3  O   UNL     1     182.079 177.702 173.476  1.00  0.00    -0.463 OA
ATOM      4  C   UNL     1     183.224 178.125 172.944  1.00  0.00     0.147 A 
ATOM      5  C   UNL     1     183.918 179.202 173.543  1.00  0.00     0.066 A 
ATOM      6  C   UNL     1     183.368 179.804 174.689  1.00  0.00     0.200 A 
ATOM      7  O   UNL     1     183.945 180.790 175.229  1.00  0.00    -0.288 OA
ATOM      8  C   UNL     1     185.129 179.642 172.986  1.00  0.00     0.020 A 
ATOM      9  C   UNL     1     185.652 179.014 171.858  1.00  0.00     0.047 A 
ATOM     10  C   UNL     1     184.976 177.943 171.259  1.00  0.00     0.125 A 
ATOM     11  C   UNL     1     183.742 177.498 171.786  1.00  0.00     0.069 A 
ENDROOT
BRANCH   1  12
ATOM     12  C   UNL     1     181.539 179.900 176.433  1.00  0.00    -0.011 A 
ATOM     13  C   UNL     1     180.780 181.080 176.343  1.00  0.00     0.013 A 
ATOM     14  C   UNL     1     180.186 181.628 177.484  1.00  0.00     0.047 A 
ATOM     15  C   UNL     1     180.339 181.004 178.725  1.00  0.00     0.115 A 
ATOM     16  C   UNL     1     181.683 179.273 177.684  1.00  0.00     0.013 A 
ATOM     17  C   UNL     1     181.088 179.824 178.823  1.00  0.00     0.047 A 
BRANCH  15  18
ATOM     18  O   UNL     1     179.741 181.562 179.853  1.00  0.00    -0.508 OA
ATOM     19  H   UNL     1     180.266 181.724 180.705  1.00  0.00     0.293 HD
ENDBRANCH  15  18
ENDBRANCH   1  12
BRANCH  11  20
ATOM     20  C   UNL     1     183.011 176.320 171.154  1.00  0.00     0.188 C 
ATOM     21  C   UNL     1     181.612 176.767 170.667  1.00  0.00     0.179 C 
ATOM     22  O   UNL     1     182.924 175.266 172.103  1.00  0.00    -0.362 OA
ATOM     23  C   UNL     1     180.849 175.571 170.078  1.00  0.00     0.177 C 
ATOM     24  C   UNL     1     182.276 174.106 171.594  1.00  0.00     0.176 C 
ATOM     25  C   UNL     1     180.845 174.406 171.087  1.00  0.00     0.177 C 
BRANCH  21  26
ATOM     26  O   UNL     1     181.709 177.804 169.721  1.00  0.00    -0.387 OA
ATOM     27  H   UNL     1     181.454 177.432 168.837  1.00  0.00     0.211 HD
ENDBRANCH  21  26
BRANCH  23  28
ATOM     28  O   UNL     1     179.537 175.960 169.768  1.00  0.00    -0.387 OA
ATOM     29  H   UNL     1     179.310 175.535 168.899  1.00  0.00     0.211 HD
ENDBRANCH  23  28
BRANCH  24  30
ATOM     30  C   UNL     1     183.153 173.345 170.574  1.00  0.00     0.191 C 
BRANCH  30  31
ATOM     31  O   UNL     1     182.380 172.434 169.840  1.00  0.00    -0.394 OA
ATOM     32  H   UNL     1     182.768 171.535 170.001  1.00  0.00     0.210 HD
ENDBRANCH  30  31
ENDBRANCH  24  30
BRANCH  25  33
ATOM     33  O   UNL     1     180.035 174.729 172.191  1.00  0.00    -0.388 OA
ATOM     34  H   UNL     1     179.207 174.187 172.115  1.00  0.00     0.211 HD
ENDBRANCH  25  33
ENDBRANCH  11  20
BRANCH  10  35
ATOM     35  O   UNL     1     185.533 177.321 170.142  1.00  0.00    -0.507 OA
ATOM     36  H   UNL     1     184.987 176.714 169.542  1.00  0.00     0.293 HD
ENDBRANCH  10  35
TORSDOF 9
ENDMDL
MODEL 3
REMARK VINA RESULT:    -7.121      1.025      2.220
REMARK INTER + INTRA:         -10.098
REMARK INTER:                  -9.054
REMARK INTRA:                  -1.044
REMARK UNBOUND:                -0.478
REMARK SMILES O=c1c(-c2ccc(O)cc2)coc2c([C@H]3O[C@H](CO)[C@@H](O)[C@@H](O)[C@@H]3O)c(O)ccc12
REMARK SMILES IDX 3 1 11 2 12 3 13 4 30 5 2 6 1 7 29 8 28 9 26 10 14 11 4 12
REMARK SMILES IDX 5 13 6 14 7 15 10 16 9 17 8 18 15 20 24 21 16 22 22 23 17 24
REMARK SMILES IDX 20 25 25 26 23 28 18 30 19 31 21 33 27 35
REMARK H PARENT 8 19 25 27 23 29 19 32 21 34 27 36
REMARK Flexibility Score: inf
ROOT
ATOM      1  C   UNL     1     178.619 181.360 175.150  1.00  0.00     0.065 A 
ATOM      2  C   UNL     1     179.278 182.315 174.365  1.00  0.00     0.208 A 
ATOM      3  O   UNL     1     178.729 182.777 173.249  1.00  0.00    -0.463 OA
ATOM      4  C   UNL     1     177.540 182.378 172.802  1.00  0.00     0.147 A 
ATOM      5  C   UNL     1     176.806 181.416 173.533  1.00  0.00     0.066 A 
ATOM      6  C   UNL     1     177.363 180.899 174.717  1.00  0.00     0.200 A 
ATOM      7  O   UNL     1     176.749 180.014 175.376  1.00  0.00    -0.288 OA
ATOM      8  C   UNL     1     175.548 181.001 173.066  1.00  0.00     0.020 A 
ATOM      9  C   UNL     1     175.021 181.544 171.897  1.00  0.00     0.047 A 
ATOM     10  C   UNL     1     175.737 182.501 171.168  1.00  0.00     0.125 A 
ATOM     11  C   UNL     1     177.016 182.917 171.603  1.00  0.00     0.069 A 
ENDROOT
BRANCH   1  12
ATOM     12  C   UNL     1     179.251 180.862 176.399  1.00  0.00    -0.011 A 
ATOM     13  C   UNL     1     180.069 179.719 176.372  1.00  0.00     0.013 A 
ATOM     14  C   UNL     1     180.673 179.254 177.544  1.00  0.00     0.047 A 
ATOM     15  C   UNL     1     180.472 179.925 178.753  1.00  0.00     0.115 A 
ATOM     16  C   UNL     1     179.059 181.537 177.618  1.00  0.00     0.013 A 
ATOM     17  C   UNL     1     179.664 181.069 178.788  1.00  0.00     0.047 A 
BRANCH  15  18
ATOM     18  O   UNL     1     181.081 179.449 179.913  1.00  0.00    -0.508 OA
ATOM     19  H   UNL     1     180.609 178.797 180.529  1.00  0.00     0.293 HD
ENDBRANCH  15  18
ENDBRANCH   1  12
BRANCH  11  20
ATOM     20  C   UNL     1     177.792 183.973 170.827  1.00  0.00     0.188 C 
ATOM     21  C   UNL     1     177.271 185.384 171.192  1.00  0.00     0.179 C 
ATOM     22  O   UNL     1     177.665 183.711 169.436  1.00  0.00    -0.362 OA
ATOM     23  C   UNL     1     178.013 186.450 170.371  1.00  0.00     0.177 C 
ATOM     24  C   UNL     1     178.381 184.635 168.625  1.00  0.00     0.176 C 
ATOM     25  C   UNL     1     177.941 186.099 168.873  1.00  0.00     0.177 C 
BRANCH  21  26
ATOM     26  O   UNL     1     177.409 185.637 172.569  1.00  0.00    -0.387 OA
ATOM     27  H   UNL     1     176.871 186.443 172.784  1.00  0.00     0.211 HD
ENDBRANCH  21  26
BRANCH  23  28
ATOM     28  O   UNL     1     177.438 187.708 170.611  1.00  0.00    -0.387 OA
ATOM     29  H   UNL     1     176.594 187.741 170.088  1.00  0.00     0.211 HD
ENDBRANCH  23  28
BRANCH  24  30
ATOM     30  C   UNL     1     179.910 184.421 168.701  1.00  0.00     0.191 C 
BRANCH  30  31
ATOM     31  O   UNL     1     180.589 185.493 168.105  1.00  0.00    -0.394 OA
ATOM     32  H   UNL     1     180.560 186.245 168.752  1.00  0.00     0.210 HD
ENDBRANCH  30  31
ENDBRANCH  24  30
BRANCH  25  33
ATOM     33  O   UNL     1     176.626 186.260 168.402  1.00  0.00    -0.388 OA
ATOM     34  H   UNL     1     176.029 186.256 169.195  1.00  0.00     0.211 HD
ENDBRANCH  25  33
ENDBRANCH  11  20
BRANCH  10  35
ATOM     35  O   UNL     1     175.174 183.042 170.010  1.00  0.00    -0.507 OA
ATOM     36  H   UNL     1     175.039 184.039 169.899  1.00  0.00     0.293 HD
ENDBRANCH  10  35
TORSDOF 9
ENDMDL
MODEL 4
REMARK VINA RESULT:    -7.083      5.707      8.154
REMARK INTER + INTRA:         -10.045
REMARK INTER:                  -9.376
REMARK INTRA:                  -0.670
REMARK UNBOUND:                -0.478
REMARK SMILES O=c1c(-c2ccc(O)cc2)coc2c([C@H]3O[C@H](CO)[C@@H](O)[C@@H](O)[C@@H]3O)c(O)ccc12
REMARK SMILES IDX 3 1 11 2 12 3 13 4 30 5 2 6 1 7 29 8 28 9 26 10 14 11 4 12
REMARK SMILES IDX 5 13 6 14 7 15 10 16 9 17 8 18 15 20 24 21 16 22 22 23 17 24
REMARK SMILES IDX 20 25 25 26 23 28 18 30 19 31 21 33 27 35
REMARK H PARENT 8 19 25 27 23 29 19 32 21 34 27 36
REMARK Flexibility Score: inf
ROOT
ATOM      1  C   UNL     1     179.411 178.282 174.823  1.00  0.00     0.065 A 
ATOM      2  C   UNL     1     178.138 178.161 174.249  1.00  0.00     0.208 A 
ATOM      3  O   UNL     1     177.941 177.399 173.180  1.00  0.00    -0.463 OA
ATOM      4  C   UNL     1     178.913 176.710 172.587  1.00  0.00     0.147 A 
ATOM      5  C   UNL     1     180.230 176.775 173.101  1.00  0.00     0.066 A 
ATOM      6  C   UNL     1     180.475 177.580 174.228  1.00  0.00     0.200 A 
ATOM      7  O   UNL     1     181.645 177.687 174.692  1.00  0.00    -0.288 OA
ATOM      8  C   UNL     1     181.254 176.042 172.480  1.00  0.00     0.020 A 
ATOM      9  C   UNL     1     180.973 175.244 171.373  1.00  0.00     0.047 A 
ATOM     10  C   UNL     1     179.673 175.167 170.860  1.00  0.00     0.125 A 
ATOM     11  C   UNL     1     178.629 175.916 171.451  1.00  0.00     0.069 A 
ENDROOT
BRANCH   1  12
ATOM     12  C   UNL     1     179.605 179.135 176.023  1.00  0.00    -0.011 A 
ATOM     13  C   UNL     1     179.086 180.442 176.054  1.00  0.00     0.013 A 
ATOM     14  C   UNL     1     179.259 181.245 177.185  1.00  0.00     0.047 A 
ATOM     15  C   UNL     1     179.946 180.753 178.299  1.00  0.00     0.115 A 
ATOM     16  C   UNL     1     180.289 178.645 177.148  1.00  0.00     0.013 A 
ATOM     17  C   UNL     1     180.460 179.450 178.278  1.00  0.00     0.047 A 
BRANCH  15  18
ATOM     18  O   UNL     1     180.111 181.565 179.419  1.00  0.00    -0.508 OA
ATOM     19  H   UNL     1     181.030 181.852 179.734  1.00  0.00     0.293 HD
ENDBRANCH  15  18
ENDBRANCH   1  12
BRANCH  11  20
ATOM     20  C   UNL     1     177.208 175.822 170.911  1.00  0.00     0.188 C 
ATOM     21  C   UNL     1     176.562 174.488 171.357  1.00  0.00     0.179 C 
ATOM     22  O   UNL     1     177.242 175.940 169.496  1.00  0.00    -0.362 OA
ATOM     23  C   UNL     1     175.148 174.363 170.770  1.00  0.00     0.177 C 
ATOM     24  C   UNL     1     175.952 175.889 168.898  1.00  0.00     0.176 C 
ATOM     25  C   UNL     1     175.194 174.585 169.246  1.00  0.00     0.177 C 
BRANCH  21  26
ATOM     26  O   UNL     1     176.524 174.385 172.760  1.00  0.00    -0.387 OA
ATOM     27  H   UNL     1     177.459 174.295 173.082  1.00  0.00     0.211 HD
ENDBRANCH  21  26
BRANCH  23  28
ATOM     28  O   UNL     1     174.628 173.094 171.069  1.00  0.00    -0.387 OA
ATOM     29  H   UNL     1     173.962 172.884 170.362  1.00  0.00     0.211 HD
ENDBRANCH  23  28
BRANCH  24  30
ATOM     30  C   UNL     1     175.134 177.175 169.157  1.00  0.00     0.191 C 
BRANCH  30  31
ATOM     31  O   UNL     1     173.775 176.958 168.890  1.00  0.00    -0.394 OA
ATOM     32  H   UNL     1     173.662 175.981 168.756  1.00  0.00     0.210 HD
ENDBRANCH  30  31
ENDBRANCH  24  30
BRANCH  25  33
ATOM     33  O   UNL     1     175.844 173.505 168.621  1.00  0.00    -0.388 OA
ATOM     34  H   UNL     1     176.060 173.790 167.696  1.00  0.00     0.211 HD
ENDBRANCH  25  33
ENDBRANCH  11  20
BRANCH  10  35
ATOM     35  O   UNL     1     179.418 174.345 169.762  1.00  0.00    -0.507 OA
ATOM     36  H   UNL     1     179.656 173.360 169.767  1.00  0.00     0.293 HD
ENDBRANCH  10  35
TORSDOF 9
ENDMDL
MODEL 5
REMARK VINA RESULT:    -7.054      6.379      8.685
REMARK INTER + INTRA:         -10.007
REMARK INTER:                  -8.969
REMARK INTRA:                  -1.038
REMARK UNBOUND:                -0.478
REMARK SMILES O=c1c(-c2ccc(O)cc2)coc2c([C@H]3O[C@H](CO)[C@@H](O)[C@@H](O)[C@@H]3O)c(O)ccc12
REMARK SMILES IDX 3 1 11 2 12 3 13 4 30 5 2 6 1 7 29 8 28 9 26 10 14 11 4 12
REMARK SMILES IDX 5 13 6 14 7 15 10 16 9 17 8 18 15 20 24 21 16 22 22 23 17 24
REMARK SMILES IDX 20 25 25 26 23 28 18 30 19 31 21 33 27 35
REMARK H PARENT 8 19 25 27 23 29 19 32 21 34 27 36
REMARK Flexibility Score: inf
ROOT
ATOM      1  C   UNL     1     181.986 179.361 175.181  1.00  0.00     0.065 A 
ATOM      2  C   UNL     1     181.336 178.387 174.411  1.00  0.00     0.208 A 
ATOM      3  O   UNL     1     181.901 177.894 173.316  1.00  0.00    -0.463 OA
ATOM      4  C   UNL     1     183.098 178.278 172.877  1.00  0.00     0.147 A 
ATOM      5  C   UNL     1     183.823 179.258 173.594  1.00  0.00     0.066 A 
ATOM      6  C   UNL     1     183.250 179.808 174.754  1.00  0.00     0.200 A 
ATOM      7  O   UNL     1     183.856 180.709 175.399  1.00  0.00    -0.288 OA
ATOM      8  C   UNL     1     185.089 179.657 173.135  1.00  0.00     0.020 A 
ATOM      9  C   UNL     1     185.633 179.081 171.989  1.00  0.00     0.047 A 
ATOM     10  C   UNL     1     184.926 178.107 171.275  1.00  0.00     0.125 A 
ATOM     11  C   UNL     1     183.639 177.706 171.702  1.00  0.00     0.069 A 
ENDROOT
BRANCH   1  12
ATOM     12  C   UNL     1     181.336 179.893 176.406  1.00  0.00    -0.011 A 
ATOM     13  C   UNL     1     181.513 179.245 177.641  1.00  0.00     0.013 A 
ATOM     14  C   UNL     1     180.910 179.749 178.797  1.00  0.00     0.047 A 
ATOM     15  C   UNL     1     180.128 180.906 178.736  1.00  0.00     0.115 A 
ATOM     16  C   UNL     1     180.553 181.060 176.352  1.00  0.00     0.013 A 
ATOM     17  C   UNL     1     179.951 181.562 177.510  1.00  0.00     0.047 A 
BRANCH  15  18
ATOM     18  O   UNL     1     179.533 181.396 179.896  1.00  0.00    -0.508 OA
ATOM     19  H   UNL     1     179.163 182.338 179.944  1.00  0.00     0.293 HD
ENDBRANCH  15  18
ENDBRANCH   1  12
BRANCH  11  20
ATOM     20  C   UNL     1     182.873 176.631 170.943  1.00  0.00     0.188 C 
ATOM     21  C   UNL     1     183.436 175.233 171.294  1.00  0.00     0.179 C 
ATOM     22  O   UNL     1     182.962 176.896 169.549  1.00  0.00    -0.362 OA
ATOM     23  C   UNL     1     182.703 174.150 170.490  1.00  0.00     0.177 C 
ATOM     24  C   UNL     1     182.251 175.955 168.753  1.00  0.00     0.176 C 
ATOM     25  C   UNL     1     182.732 174.503 168.990  1.00  0.00     0.177 C 
BRANCH  21  26
ATOM     26  O   UNL     1     183.335 174.976 172.674  1.00  0.00    -0.387 OA
ATOM     27  H   UNL     1     182.407 175.190 172.954  1.00  0.00     0.211 HD
ENDBRANCH  21  26
BRANCH  23  28
ATOM     28  O   UNL     1     183.314 172.906 170.716  1.00  0.00    -0.387 OA
ATOM     29  H   UNL     1     183.633 172.911 171.656  1.00  0.00     0.211 HD
ENDBRANCH  23  28
BRANCH  24  30
ATOM     30  C   UNL     1     180.719 176.131 168.863  1.00  0.00     0.191 C 
BRANCH  30  31
ATOM     31  O   UNL     1     180.054 175.037 168.293  1.00  0.00    -0.394 OA
ATOM     32  H   UNL     1     179.622 175.367 167.462  1.00  0.00     0.210 HD
ENDBRANCH  30  31
ENDBRANCH  24  30
BRANCH  25  33
ATOM     33  O   UNL     1     184.041 174.374 168.490  1.00  0.00    -0.388 OA
ATOM     34  H   UNL     1     184.645 174.824 169.136  1.00  0.00     0.211 HD
ENDBRANCH  25  33
ENDBRANCH  11  20
BRANCH  10  35
ATOM     35  O   UNL     1     185.505 177.534 170.142  1.00  0.00    -0.507 OA
ATOM     36  H   UNL     1     186.036 178.085 169.478  1.00  0.00     0.293 HD
ENDBRANCH  10  35
TORSDOF 9
ENDMDL
MODEL 6
REMARK VINA RESULT:    -7.045      3.496      5.328
REMARK INTER + INTRA:          -9.995
REMARK INTER:                  -9.386
REMARK INTRA:                  -0.608
REMARK UNBOUND:                -0.478
REMARK SMILES O=c1c(-c2ccc(O)cc2)coc2c([C@H]3O[C@H](CO)[C@@H](O)[C@@H](O)[C@@H]3O)c(O)ccc12
REMARK SMILES IDX 3 1 11 2 12 3 13 4 30 5 2 6 1 7 29 8 28 9 26 10 14 11 4 12
REMARK SMILES IDX 5 13 6 14 7 15 10 16 9 17 8 18 15 20 24 21 16 22 22 23 17 24
REMARK SMILES IDX 20 25 25 26 23 28 18 30 19 31 21 33 27 35
REMARK H PARENT 8 19 25 27 23 29 19 32 21 34 27 36
REMARK Flexibility Score: inf
ROOT
ATOM      1  C   UNL     1     181.305 182.396 174.765  1.00  0.00     0.065 A 
ATOM      2  C   UNL     1     182.574 182.468 174.176  1.00  0.00     0.208 A 
ATOM      3  O   UNL     1     182.793 183.244 173.121  1.00  0.00    -0.463 OA
ATOM      4  C   UNL     1     181.848 183.993 172.559  1.00  0.00     0.147 A 
ATOM      5  C   UNL     1     180.537 183.980 173.090  1.00  0.00     0.066 A 
ATOM      6  C   UNL     1     180.268 183.162 174.202  1.00  0.00     0.200 A 
ATOM      7  O   UNL     1     179.101 183.101 174.681  1.00  0.00    -0.288 OA
ATOM      8  C   UNL     1     179.542 184.776 172.501  1.00  0.00     0.020 A 
ATOM      9  C   UNL     1     179.846 185.585 171.409  1.00  0.00     0.047 A 
ATOM     10  C   UNL     1     181.141 185.610 170.878  1.00  0.00     0.125 A 
ATOM     11  C   UNL     1     182.155 184.798 171.436  1.00  0.00     0.069 A 
ENDROOT
BRANCH   1  12
ATOM     12  C   UNL     1     181.086 181.525 175.948  1.00  0.00    -0.011 A 
ATOM     13  C   UNL     1     181.557 180.200 175.950  1.00  0.00     0.013 A 
ATOM     14  C   UNL     1     181.361 179.381 177.066  1.00  0.00     0.047 A 
ATOM     15  C   UNL     1     180.697 179.874 178.192  1.00  0.00     0.115 A 
ATOM     16  C   UNL     1     180.425 182.016 177.088  1.00  0.00     0.013 A 
ATOM     17  C   UNL     1     180.230 181.195 178.202  1.00  0.00     0.047 A 
BRANCH  15  18
ATOM     18  O   UNL     1     180.508 179.045 179.297  1.00  0.00    -0.508 OA
ATOM     19  H   UNL     1     179.805 178.316 179.297  1.00  0.00     0.293 HD
ENDBRANCH  15  18
ENDBRANCH   1  12
BRANCH  11  20
ATOM     20  C   UNL     1     183.572 184.836 170.878  1.00  0.00     0.188 C 
ATOM     21  C   UNL     1     184.243 186.184 171.234  1.00  0.00     0.179 C 
ATOM     22  O   UNL     1     183.520 184.631 169.473  1.00  0.00    -0.362 OA
ATOM     23  C   UNL     1     185.652 186.249 170.626  1.00  0.00     0.177 C 
ATOM     24  C   UNL     1     184.804 184.624 168.860  1.00  0.00     0.176 C 
ATOM     25  C   UNL     1     185.587 185.934 169.120  1.00  0.00     0.177 C 
BRANCH  21  26
ATOM     26  O   UNL     1     184.298 186.373 172.627  1.00  0.00    -0.387 OA
ATOM     27  H   UNL     1     183.735 187.160 172.848  1.00  0.00     0.211 HD
ENDBRANCH  21  26
BRANCH  23  28
ATOM     28  O   UNL     1     186.195 187.526 170.841  1.00  0.00    -0.387 OA
ATOM     29  H   UNL     1     186.172 187.997 169.966  1.00  0.00     0.211 HD
ENDBRANCH  23  28
BRANCH  24  30
ATOM     30  C   UNL     1     185.605 183.343 169.191  1.00  0.00     0.191 C 
BRANCH  30  31
ATOM     31  O   UNL     1     186.960 183.512 168.875  1.00  0.00    -0.394 OA
ATOM     32  H   UNL     1     187.097 183.109 167.978  1.00  0.00     0.210 HD
ENDBRANCH  30  31
ENDBRANCH  24  30
BRANCH  25  33
ATOM     33  O   UNL     1     184.947 186.984 168.436  1.00  0.00    -0.388 OA
ATOM     34  H   UNL     1     185.355 187.036 167.533  1.00  0.00     0.211 HD
ENDBRANCH  25  33
ENDBRANCH  11  20
BRANCH  10  35
ATOM     35  O   UNL     1     181.421 186.445 169.795  1.00  0.00    -0.507 OA
ATOM     36  H   UNL     1     180.971 187.346 169.686  1.00  0.00     0.293 HD
ENDBRANCH  10  35
TORSDOF 9
ENDMDL
MODEL 7
REMARK VINA RESULT:    -6.660      5.977      8.147
REMARK INTER + INTRA:          -9.475
REMARK INTER:                  -8.449
REMARK INTRA:                  -1.025
REMARK UNBOUND:                -0.478
REMARK SMILES O=c1c(-c2ccc(O)cc2)coc2c([C@H]3O[C@H](CO)[C@@H](O)[C@@H](O)[C@@H]3O)c(O)ccc12
REMARK SMILES IDX 3 1 11 2 12 3 13 4 30 5 2 6 1 7 29 8 28 9 26 10 14 11 4 12
REMARK SMILES IDX 5 13 6 14 7 15 10 16 9 17 8 18 15 20 24 21 16 22 22 23 17 24
REMARK SMILES IDX 20 25 25 26 23 28 18 30 19 31 21 33 27 35
REMARK H PARENT 8 19 25 27 23 29 19 32 21 34 27 36
REMARK Flexibility Score: inf
ROOT
ATOM      1  C   UNL     1     181.092 179.010 175.196  1.00  0.00     0.065 A 
ATOM      2  C   UNL     1     180.119 178.302 174.478  1.00  0.00     0.208 A 
ATOM      3  O   UNL     1     180.408 177.736 173.313  1.00  0.00    -0.463 OA
ATOM      4  C   UNL     1     181.614 177.797 172.752  1.00  0.00     0.147 A 
ATOM      5  C   UNL     1     182.656 178.492 173.409  1.00  0.00     0.066 A 
ATOM      6  C   UNL     1     182.381 179.111 174.642  1.00  0.00     0.200 A 
ATOM      7  O   UNL     1     183.279 179.768 175.239  1.00  0.00    -0.288 OA
ATOM      8  C   UNL     1     183.930 178.549 172.822  1.00  0.00     0.020 A 
ATOM      9  C   UNL     1     184.170 177.913 171.606  1.00  0.00     0.047 A 
ATOM     10  C   UNL     1     183.148 177.217 170.949  1.00  0.00     0.125 A 
ATOM     11  C   UNL     1     181.850 177.167 171.507  1.00  0.00     0.069 A 
ENDROOT
BRANCH   1  12
ATOM     12  C   UNL     1     180.746 179.630 176.500  1.00  0.00    -0.011 A 
ATOM     13  C   UNL     1     180.954 178.923 177.698  1.00  0.00     0.013 A 
ATOM     14  C   UNL     1     180.637 179.507 178.928  1.00  0.00     0.047 A 
ATOM     15  C   UNL     1     180.116 180.802 178.979  1.00  0.00     0.115 A 
ATOM     16  C   UNL     1     180.228 180.936 176.559  1.00  0.00     0.013 A 
ATOM     17  C   UNL     1     179.913 181.517 177.791  1.00  0.00     0.047 A 
BRANCH  15  18
ATOM     18  O   UNL     1     179.806 181.371 180.212  1.00  0.00    -0.508 OA
ATOM     19  H   UNL     1     180.016 182.341 180.415  1.00  0.00     0.293 HD
ENDBRANCH  15  18
ENDBRANCH   1  12
BRANCH  11  20
ATOM     20  C   UNL     1     180.738 176.394 170.810  1.00  0.00     0.188 C 
ATOM     21  C   UNL     1     180.830 174.893 171.175  1.00  0.00     0.179 C 
ATOM     22  O   UNL     1     180.841 176.600 169.408  1.00  0.00    -0.362 OA
ATOM     23  C   UNL     1     179.744 174.101 170.431  1.00  0.00     0.177 C 
ATOM     24  C   UNL     1     179.823 175.935 168.668  1.00  0.00     0.176 C 
ATOM     25  C   UNL     1     179.814 174.408 168.923  1.00  0.00     0.177 C 
BRANCH  21  26
ATOM     26  O   UNL     1     180.717 174.699 172.563  1.00  0.00    -0.387 OA
ATOM     27  H   UNL     1     179.988 175.287 172.894  1.00  0.00     0.211 HD
ENDBRANCH  21  26
BRANCH  23  28
ATOM     28  O   UNL     1     179.925 172.728 170.664  1.00  0.00    -0.387 OA
ATOM     29  H   UNL     1     179.023 172.312 170.632  1.00  0.00     0.211 HD
ENDBRANCH  23  28
BRANCH  24  30
ATOM     30  C   UNL     1     178.440 176.605 168.838  1.00  0.00     0.191 C 
BRANCH  30  31
ATOM     31  O   UNL     1     177.441 175.839 168.223  1.00  0.00    -0.394 OA
ATOM     32  H   UNL     1     177.826 174.937 168.068  1.00  0.00     0.210 HD
ENDBRANCH  30  31
ENDBRANCH  24  30
BRANCH  25  33
ATOM     33  O   UNL     1     180.982 173.852 168.371  1.00  0.00    -0.388 OA
ATOM     34  H   UNL     1     181.692 174.542 168.436  1.00  0.00     0.211 HD
ENDBRANCH  25  33
ENDBRANCH  11  20
BRANCH  10  35
ATOM     35  O   UNL     1     183.423 176.573 169.742  1.00  0.00    -0.507 OA
ATOM     36  H   UNL     1     184.309 176.111 169.575  1.00  0.00     0.293 HD
ENDBRANCH  10  35
TORSDOF 9
ENDMDL
MODEL 8
REMARK VINA RESULT:    -6.606      2.022      4.575
REMARK INTER + INTRA:          -9.401
REMARK INTER:                  -9.052
REMARK INTRA:                  -0.349
REMARK UNBOUND:                -0.478
REMARK SMILES O=c1c(-c2ccc(O)cc2)coc2c([C@H]3O[C@H](CO)[C@@H](O)[C@@H](O)[C@@H]3O)c(O)ccc12
REMARK SMILES IDX 3 1 11 2 12 3 13 4 30 5 2 6 1 7 29 8 28 9 26 10 14 11 4 12
REMARK SMILES IDX 5 13 6 14 7 15 10 16 9 17 8 18 15 20 24 21 16 22 22 23 17 24
REMARK SMILES IDX 20 25 25 26 23 28 18 30 19 31 21 33 27 35
REMARK H PARENT 8 19 25 27 23 29 19 32 21 34 27 36
REMARK Flexibility Score: inf
ROOT
ATOM      1  C   UNL     1     179.755 181.729 175.247  1.00  0.00     0.065 A 
ATOM      2  C   UNL     1     178.720 181.196 174.467  1.00  0.00     0.208 A 
ATOM      3  O   UNL     1     178.420 181.716 173.284  1.00  0.00    -0.463 OA
ATOM      4  C   UNL     1     179.063 182.757 172.760  1.00  0.00     0.147 A 
ATOM      5  C   UNL     1     180.122 183.358 173.480  1.00  0.00     0.066 A 
ATOM      6  C   UNL     1     180.461 182.837 174.742  1.00  0.00     0.200 A 
ATOM      7  O   UNL     1     181.379 183.370 175.426  1.00  0.00    -0.288 OA
ATOM      8  C   UNL     1     180.806 184.451 172.925  1.00  0.00     0.020 A 
ATOM      9  C   UNL     1     180.454 184.933 171.666  1.00  0.00     0.047 A 
ATOM     10  C   UNL     1     179.411 184.342 170.942  1.00  0.00     0.125 A 
ATOM     11  C   UNL     1     178.689 183.257 171.491  1.00  0.00     0.069 A 
ENDROOT
BRANCH   1  12
ATOM     12  C   UNL     1     180.077 181.126 176.565  1.00  0.00    -0.011 A 
ATOM     13  C   UNL     1     179.438 181.588 177.730  1.00  0.00     0.013 A 
ATOM     14  C   UNL     1     179.732 181.017 178.972  1.00  0.00     0.047 A 
ATOM     15  C   UNL     1     180.660 179.976 179.065  1.00  0.00     0.115 A 
ATOM     16  C   UNL     1     181.004 180.075 176.666  1.00  0.00     0.013 A 
ATOM     17  C   UNL     1     181.295 179.505 177.909  1.00  0.00     0.047 A 
BRANCH  15  18
ATOM     18  O   UNL     1     180.942 179.416 180.309  1.00  0.00    -0.508 OA
ATOM     19  H   UNL     1     180.673 178.466 180.536  1.00  0.00     0.293 HD
ENDBRANCH  15  18
ENDBRANCH   1  12
BRANCH  11  20
ATOM     20  C   UNL     1     177.568 182.596 170.700  1.00  0.00     0.188 C 
ATOM     21  C   UNL     1     176.368 182.303 171.633  1.00  0.00     0.179 C 
ATOM     22  O   UNL     1     178.065 181.409 170.097  1.00  0.00    -0.362 OA
ATOM     23  C   UNL     1     175.255 181.586 170.853  1.00  0.00     0.177 C 
ATOM     24  C   UNL     1     177.091 180.730 169.312  1.00  0.00     0.176 C 
ATOM     25  C   UNL     1     175.833 180.354 170.132  1.00  0.00     0.177 C 
BRANCH  21  26
ATOM     26  O   UNL     1     175.877 183.485 172.217  1.00  0.00    -0.387 OA
ATOM     27  H   UNL     1     175.013 183.270 172.655  1.00  0.00     0.211 HD
ENDBRANCH  21  26
BRANCH  23  28
ATOM     28  O   UNL     1     174.234 181.206 171.738  1.00  0.00    -0.387 OA
ATOM     29  H   UNL     1     173.633 181.991 171.836  1.00  0.00     0.211 HD
ENDBRANCH  23  28
BRANCH  24  30
ATOM     30  C   UNL     1     176.778 181.474 167.993  1.00  0.00     0.191 C 
BRANCH  30  31
ATOM     31  O   UNL     1     175.597 180.985 167.419  1.00  0.00    -0.394 OA
ATOM     32  H   UNL     1     175.709 180.003 167.325  1.00  0.00     0.210 HD
ENDBRANCH  30  31
ENDBRANCH  24  30
BRANCH  25  33
ATOM     33  O   UNL     1     176.186 179.367 171.071  1.00  0.00    -0.388 OA
ATOM     34  H   UNL     1     176.253 179.815 171.953  1.00  0.00     0.211 HD
ENDBRANCH  25  33
ENDBRANCH  11  20
BRANCH  10  35
ATOM     35  O   UNL     1     179.092 184.835 169.676  1.00  0.00    -0.507 OA
ATOM     36  H   UNL     1     178.592 185.706 169.553  1.00  0.00     0.293 HD
ENDBRANCH  10  35
TORSDOF 9
ENDMDL
MODEL 9
REMARK VINA RESULT:    -6.569      5.800      7.924
REMARK INTER + INTRA:          -9.352
REMARK INTER:                  -8.751
REMARK INTRA:                  -0.601
REMARK UNBOUND:                -0.478
REMARK SMILES O=c1c(-c2ccc(O)cc2)coc2c([C@H]3O[C@H](CO)[C@@H](O)[C@@H](O)[C@@H]3O)c(O)ccc12
REMARK SMILES IDX 3 1 11 2 12 3 13 4 30 5 2 6 1 7 29 8 28 9 26 10 14 11 4 12
REMARK SMILES IDX 5 13 6 14 7 15 10 16 9 17 8 18 15 20 24 21 16 22 22 23 17 24
REMARK SMILES IDX 20 25 25 26 23 28 18 30 19 31 21 33 27 35
REMARK H PARENT 8 19 25 27 23 29 19 32 21 34 27 36
REMARK Flexibility Score: inf
ROOT
ATOM      1  C   UNL     1     179.687 178.674 175.139  1.00  0.00     0.065 A 
ATOM      2  C   UNL     1     180.736 177.985 174.515  1.00  0.00     0.208 A 
ATOM      3  O   UNL     1     180.513 177.218 173.456  1.00  0.00    -0.463 OA
ATOM      4  C   UNL     1     179.307 177.048 172.919  1.00  0.00     0.147 A 
ATOM      5  C   UNL     1     178.191 177.706 173.487  1.00  0.00     0.066 A 
ATOM      6  C   UNL     1     178.390 178.521 174.616  1.00  0.00     0.200 A 
ATOM      7  O   UNL     1     177.411 179.097 175.168  1.00  0.00    -0.288 OA
ATOM      8  C   UNL     1     176.919 177.534 172.916  1.00  0.00     0.020 A 
ATOM      9  C   UNL     1     176.760 176.731 171.789  1.00  0.00     0.047 A 
ATOM     10  C   UNL     1     177.858 176.078 171.216  1.00  0.00     0.125 A 
ATOM     11  C   UNL     1     179.144 176.215 171.787  1.00  0.00     0.069 A 
ENDROOT
BRANCH   1  12
ATOM     12  C   UNL     1     179.963 179.532 176.320  1.00  0.00    -0.011 A 
ATOM     13  C   UNL     1     180.380 178.955 177.533  1.00  0.00     0.013 A 
ATOM     14  C   UNL     1     180.649 179.761 178.643  1.00  0.00     0.047 A 
ATOM     15  C   UNL     1     180.510 181.149 178.556  1.00  0.00     0.115 A 
ATOM     16  C   UNL     1     179.831 180.929 176.237  1.00  0.00     0.013 A 
ATOM     17  C   UNL     1     180.101 181.732 177.349  1.00  0.00     0.047 A 
BRANCH  15  18
ATOM     18  O   UNL     1     180.781 181.939 179.671  1.00  0.00    -0.508 OA
ATOM     19  H   UNL     1     181.626 181.812 180.216  1.00  0.00     0.293 HD
ENDBRANCH  15  18
ENDBRANCH   1  12
BRANCH  11  20
ATOM     20  C   UNL     1     180.347 175.526 171.157  1.00  0.00     0.188 C 
ATOM     21  C   UNL     1     180.503 175.979 169.685  1.00  0.00     0.179 C 
ATOM     22  O   UNL     1     180.179 174.119 171.257  1.00  0.00    -0.362 OA
ATOM     23  C   UNL     1     181.682 175.246 169.028  1.00  0.00     0.177 C 
ATOM     24  C   UNL     1     181.271 173.385 170.715  1.00  0.00     0.176 C 
ATOM     25  C   UNL     1     181.528 173.726 169.227  1.00  0.00     0.177 C 
BRANCH  21  26
ATOM     26  O   UNL     1     180.678 177.372 169.597  1.00  0.00    -0.387 OA
ATOM     27  H   UNL     1     181.362 177.548 168.898  1.00  0.00     0.211 HD
ENDBRANCH  21  26
BRANCH  23  28
ATOM     28  O   UNL     1     181.727 175.562 167.661  1.00  0.00    -0.387 OA
ATOM     29  H   UNL     1     181.441 176.510 167.577  1.00  0.00     0.211 HD
ENDBRANCH  23  28
BRANCH  24  30
ATOM     30  C   UNL     1     182.534 173.470 171.603  1.00  0.00     0.191 C 
BRANCH  30  31
ATOM     31  O   UNL     1     183.691 173.270 170.837  1.00  0.00    -0.394 OA
ATOM     32  H   UNL     1     184.072 174.168 170.655  1.00  0.00     0.210 HD
ENDBRANCH  30  31
ENDBRANCH  24  30
BRANCH  25  33
ATOM     33  O   UNL     1     180.450 173.246 168.462  1.00  0.00    -0.388 OA
ATOM     34  H   UNL     1     179.953 172.602 169.030  1.00  0.00     0.211 HD
ENDBRANCH  25  33
ENDBRANCH  11  20
BRANCH  10  35
ATOM     35  O   UNL     1     177.670 175.295 170.076  1.00  0.00    -0.507 OA
ATOM     36  H   UNL     1     177.368 175.698 169.197  1.00  0.00     0.293 HD
ENDBRANCH  10  35
TORSDOF 9
ENDMDL
