MODEL 1
REMARK VINA RESULT:    -4.610      0.000      0.000
REMARK INTER + INTRA:          -6.195
REMARK INTER:                  -5.958
REMARK INTRA:                  -0.237
REMARK UNBOUND:                -0.237
REMARK SMILES C=CC(=O)CCCCC
REMARK SMILES IDX 6 1 7 2 8 3 9 4 5 5 3 6 4 7 2 8 1 9
REMARK H PARENT
REMARK Flexibility Score: inf
ROOT
ATOM      1  C   UNL     1     -25.852  19.433 -33.178  1.00  0.00     0.008 C 
ENDROOT
BRANCH   1   2
ATOM      2  C   UNL     1     -27.324  19.806 -33.409  1.00  0.00     0.000 C 
BRANCH   2   3
ATOM      3  C   UNL     1     -27.489  21.201 -34.034  1.00  0.00    -0.003 C 
ATOM      4  C   UNL     1     -27.612  22.307 -32.987  1.00  0.00     0.004 C 
ENDBRANCH   2   3
ENDBRANCH   1   2
BRANCH   1   5
ATOM      5  C   UNL     1     -24.969  19.941 -34.328  1.00  0.00     0.080 C 
BRANCH   5   6
ATOM      6  C   UNL     1     -23.491  19.756 -34.065  1.00  0.00     0.155 C 
ATOM      7  O   UNL     1     -22.870  18.797 -34.596  1.00  0.00    -0.295 OA
BRANCH   6   8
ATOM      8  C   UNL     1     -22.736  20.675 -33.189  1.00  0.00     0.039 C 
ATOM      9  C   UNL     1     -22.437  20.403 -31.918  1.00  0.00     0.012 C 
ENDBRANCH   6   8
ENDBRANCH   5   6
ENDBRANCH   1   5
TORSDOF 5
ENDMDL
MODEL 2
REMARK VINA RESULT:    -4.252      2.094      4.875
REMARK INTER + INTRA:          -5.733
REMARK INTER:                  -5.607
REMARK INTRA:                  -0.125
REMARK UNBOUND:                -0.237
REMARK SMILES C=CC(=O)CCCCC
REMARK SMILES IDX 6 1 7 2 8 3 9 4 5 5 3 6 4 7 2 8 1 9
REMARK H PARENT
REMARK Flexibility Score: inf
ROOT
ATOM      1  C   UNL     1     -25.067  19.560 -33.101  1.00  0.00     0.008 C 
ENDROOT
BRANCH   1   2
ATOM      2  C   UNL     1     -23.977  19.740 -34.167  1.00  0.00     0.000 C 
BRANCH   2   3
ATOM      3  C   UNL     1     -22.705  20.395 -33.607  1.00  0.00    -0.003 C 
ATOM      4  C   UNL     1     -22.599  20.279 -32.087  1.00  0.00     0.004 C 
ENDBRANCH   2   3
ENDBRANCH   1   2
BRANCH   1   5
ATOM      5  C   UNL     1     -26.444  19.965 -33.649  1.00  0.00     0.080 C 
BRANCH   5   6
ATOM      6  C   UNL     1     -27.585  19.221 -32.992  1.00  0.00     0.155 C 
ATOM      7  O   UNL     1     -27.362  18.153 -32.359  1.00  0.00    -0.295 OA
BRANCH   6   8
ATOM      8  C   UNL     1     -28.978  19.708 -33.067  1.00  0.00     0.039 C 
ATOM      9  C   UNL     1     -30.041  18.905 -33.041  1.00  0.00     0.012 C 
ENDBRANCH   6   8
ENDBRANCH   5   6
ENDBRANCH   1   5
TORSDOF 5
ENDMDL
MODEL 3
REMARK VINA RESULT:    -3.977      8.158      9.085
REMARK INTER + INTRA:          -5.376
REMARK INTER:                  -4.903
REMARK INTRA:                  -0.473
REMARK UNBOUND:                -0.237
REMARK SMILES C=CC(=O)CCCCC
REMARK SMILES IDX 6 1 7 2 8 3 9 4 5 5 3 6 4 7 2 8 1 9
REMARK H PARENT
REMARK Flexibility Score: inf
ROOT
ATOM      1  C   UNL     1     -27.703  10.629 -30.282  1.00  0.00     0.008 C 
ENDROOT
BRANCH   1   2
ATOM      2  C   UNL     1     -29.118  11.066 -30.687  1.00  0.00     0.000 C 
BRANCH   2   3
ATOM      3  C   UNL     1     -29.704  12.124 -29.739  1.00  0.00    -0.003 C 
ATOM      4  C   UNL     1     -29.072  12.087 -28.348  1.00  0.00     0.004 C 
ENDBRANCH   2   3
ENDBRANCH   1   2
BRANCH   1   5
ATOM      5  C   UNL     1     -26.679  11.009 -31.363  1.00  0.00     0.080 C 
BRANCH   5   6
ATOM      6  C   UNL     1     -26.360  12.487 -31.381  1.00  0.00     0.155 C 
ATOM      7  O   UNL     1     -26.347  13.118 -32.473  1.00  0.00    -0.295 OA
BRANCH   6   8
ATOM      8  C   UNL     1     -26.055  13.233 -30.143  1.00  0.00     0.039 C 
ATOM      9  C   UNL     1     -25.644  14.501 -30.129  1.00  0.00     0.012 C 
ENDBRANCH   6   8
ENDBRANCH   5   6
ENDBRANCH   1   5
TORSDOF 5
ENDMDL
MODEL 4
REMARK VINA RESULT:    -3.976      2.463      4.844
REMARK INTER + INTRA:          -5.376
REMARK INTER:                  -5.172
REMARK INTRA:                  -0.204
REMARK UNBOUND:                -0.237
REMARK SMILES C=CC(=O)CCCCC
REMARK SMILES IDX 6 1 7 2 8 3 9 4 5 5 3 6 4 7 2 8 1 9
REMARK H PARENT
REMARK Flexibility Score: inf
ROOT
ATOM      1  C   UNL     1     -25.434  19.628 -33.530  1.00  0.00     0.008 C 
ENDROOT
BRANCH   1   2
ATOM      2  C   UNL     1     -24.062  20.303 -33.385  1.00  0.00     0.000 C 
BRANCH   2   3
ATOM      3  C   UNL     1     -23.118  19.529 -32.451  1.00  0.00    -0.003 C 
ATOM      4  C   UNL     1     -23.813  18.371 -31.735  1.00  0.00     0.004 C 
ENDBRANCH   2   3
ENDBRANCH   1   2
BRANCH   1   5
ATOM      5  C   UNL     1     -26.416  20.537 -34.286  1.00  0.00     0.080 C 
BRANCH   5   6
ATOM      6  C   UNL     1     -27.559  21.019 -33.422  1.00  0.00     0.155 C 
ATOM      7  O   UNL     1     -27.704  22.251 -33.194  1.00  0.00    -0.295 OA
BRANCH   6   8
ATOM      8  C   UNL     1     -28.531  20.082 -32.822  1.00  0.00     0.039 C 
ATOM      9  C   UNL     1     -29.361  19.322 -33.536  1.00  0.00     0.012 C 
ENDBRANCH   6   8
ENDBRANCH   5   6
ENDBRANCH   1   5
TORSDOF 5
ENDMDL
MODEL 5
REMARK VINA RESULT:    -3.974      8.789      9.722
REMARK INTER + INTRA:          -5.373
REMARK INTER:                  -4.865
REMARK INTRA:                  -0.508
REMARK UNBOUND:                -0.237
REMARK SMILES C=CC(=O)CCCCC
REMARK SMILES IDX 6 1 7 2 8 3 9 4 5 5 3 6 4 7 2 8 1 9
REMARK H PARENT
REMARK Flexibility Score: inf
ROOT
ATOM      1  C   UNL     1     -26.570  12.448 -29.126  1.00  0.00     0.008 C 
ENDROOT
BRANCH   1   2
ATOM      2  C   UNL     1     -27.615  11.632 -28.352  1.00  0.00     0.000 C 
BRANCH   2   3
ATOM      3  C   UNL     1     -29.014  12.267 -28.399  1.00  0.00    -0.003 C 
ATOM      4  C   UNL     1     -29.699  12.089 -29.754  1.00  0.00     0.004 C 
ENDBRANCH   2   3
ENDBRANCH   1   2
BRANCH   1   5
ATOM      5  C   UNL     1     -25.957  11.618 -30.264  1.00  0.00     0.080 C 
BRANCH   5   6
ATOM      6  C   UNL     1     -26.455  12.031 -31.631  1.00  0.00     0.155 C 
ATOM      7  O   UNL     1     -26.356  13.231 -32.005  1.00  0.00    -0.295 OA
BRANCH   6   8
ATOM      8  C   UNL     1     -27.068  11.061 -32.562  1.00  0.00     0.039 C 
ATOM      9  C   UNL     1     -27.744   9.983 -32.165  1.00  0.00     0.012 C 
ENDBRANCH   6   8
ENDBRANCH   5   6
ENDBRANCH   1   5
TORSDOF 5
ENDMDL
MODEL 6
REMARK VINA RESULT:    -3.905      8.712     10.029
REMARK INTER + INTRA:          -5.284
REMARK INTER:                  -4.800
REMARK INTRA:                  -0.484
REMARK UNBOUND:                -0.237
REMARK SMILES C=CC(=O)CCCCC
REMARK SMILES IDX 6 1 7 2 8 3 9 4 5 5 3 6 4 7 2 8 1 9
REMARK H PARENT
REMARK Flexibility Score: inf
ROOT
ATOM      1  C   UNL     1     -25.885  11.567 -30.335  1.00  0.00     0.008 C 
ENDROOT
BRANCH   1   2
ATOM      2  C   UNL     1     -24.717  12.220 -29.582  1.00  0.00     0.000 C 
BRANCH   2   3
ATOM      3  C   UNL     1     -24.471  13.674 -30.017  1.00  0.00    -0.003 C 
ATOM      4  C   UNL     1     -25.767  14.464 -30.199  1.00  0.00     0.004 C 
ENDBRANCH   2   3
ENDBRANCH   1   2
BRANCH   1   5
ATOM      5  C   UNL     1     -26.714  10.676 -29.398  1.00  0.00     0.080 C 
BRANCH   5   6
ATOM      6  C   UNL     1     -27.219  11.411 -28.177  1.00  0.00     0.155 C 
ATOM      7  O   UNL     1     -26.759  11.134 -27.036  1.00  0.00    -0.295 OA
BRANCH   6   8
ATOM      8  C   UNL     1     -28.255  12.460 -28.273  1.00  0.00     0.039 C 
ATOM      9  C   UNL     1     -29.237  12.446 -29.173  1.00  0.00     0.012 C 
ENDBRANCH   6   8
ENDBRANCH   5   6
ENDBRANCH   1   5
TORSDOF 5
ENDMDL
MODEL 7
REMARK VINA RESULT:    -3.846     10.911     11.821
REMARK INTER + INTRA:          -5.208
REMARK INTER:                  -4.629
REMARK INTRA:                  -0.579
REMARK UNBOUND:                -0.237
REMARK SMILES C=CC(=O)CCCCC
REMARK SMILES IDX 6 1 7 2 8 3 9 4 5 5 3 6 4 7 2 8 1 9
REMARK H PARENT
REMARK Flexibility Score: inf
ROOT
ATOM      1  C   UNL     1     -17.284  13.976 -29.317  1.00  0.00     0.008 C 
ENDROOT
BRANCH   1   2
ATOM      2  C   UNL     1     -16.720  12.845 -28.445  1.00  0.00     0.000 C 
BRANCH   2   3
ATOM      3  C   UNL     1     -17.368  11.485 -28.749  1.00  0.00    -0.003 C 
ATOM      4  C   UNL     1     -18.485  11.581 -29.788  1.00  0.00     0.004 C 
ENDBRANCH   2   3
ENDBRANCH   1   2
BRANCH   1   5
ATOM      5  C   UNL     1     -16.200  14.547 -30.245  1.00  0.00     0.080 C 
BRANCH   5   6
ATOM      6  C   UNL     1     -16.231  13.943 -31.631  1.00  0.00     0.155 C 
ATOM      7  O   UNL     1     -17.160  14.239 -32.430  1.00  0.00    -0.295 OA
BRANCH   6   8
ATOM      8  C   UNL     1     -15.192  12.998 -32.091  1.00  0.00     0.039 C 
ATOM      9  C   UNL     1     -14.714  12.005 -31.341  1.00  0.00     0.012 C 
ENDBRANCH   6   8
ENDBRANCH   5   6
ENDBRANCH   1   5
TORSDOF 5
ENDMDL
MODEL 8
REMARK VINA RESULT:    -3.825     10.995     12.355
REMARK INTER + INTRA:          -5.180
REMARK INTER:                  -4.822
REMARK INTRA:                  -0.358
REMARK UNBOUND:                -0.237
REMARK SMILES C=CC(=O)CCCCC
REMARK SMILES IDX 6 1 7 2 8 3 9 4 5 5 3 6 4 7 2 8 1 9
REMARK H PARENT
REMARK Flexibility Score: inf
ROOT
ATOM      1  C   UNL     1     -14.237  12.611 -31.280  1.00  0.00     0.008 C 
ENDROOT
BRANCH   1   2
ATOM      2  C   UNL     1     -13.071  13.598 -31.132  1.00  0.00     0.000 C 
BRANCH   2   3
ATOM      3  C   UNL     1     -13.399  14.990 -31.695  1.00  0.00    -0.003 C 
ATOM      4  C   UNL     1     -14.004  15.924 -30.648  1.00  0.00     0.004 C 
ENDBRANCH   2   3
ENDBRANCH   1   2
BRANCH   1   5
ATOM      5  C   UNL     1     -15.172  13.031 -32.424  1.00  0.00     0.080 C 
BRANCH   5   6
ATOM      6  C   UNL     1     -16.517  13.523 -31.939  1.00  0.00     0.155 C 
ATOM      7  O   UNL     1     -17.214  14.281 -32.666  1.00  0.00    -0.295 OA
BRANCH   6   8
ATOM      8  C   UNL     1     -17.055  13.140 -30.617  1.00  0.00     0.039 C 
ATOM      9  C   UNL     1     -17.020  13.936 -29.549  1.00  0.00     0.012 C 
ENDBRANCH   6   8
ENDBRANCH   5   6
ENDBRANCH   1   5
TORSDOF 5
ENDMDL
MODEL 9
REMARK VINA RESULT:    -3.691      9.012     10.297
REMARK INTER + INTRA:          -5.007
REMARK INTER:                  -4.628
REMARK INTRA:                  -0.379
REMARK UNBOUND:                -0.237
REMARK SMILES C=CC(=O)CCCCC
REMARK SMILES IDX 6 1 7 2 8 3 9 4 5 5 3 6 4 7 2 8 1 9
REMARK H PARENT
REMARK Flexibility Score: inf
ROOT
ATOM      1  C   UNL     1     -26.154  12.412 -30.640  1.00  0.00     0.008 C 
ENDROOT
BRANCH   1   2
ATOM      2  C   UNL     1     -25.998  10.899 -30.431  1.00  0.00     0.000 C 
BRANCH   2   3
ATOM      3  C   UNL     1     -26.414  10.085 -31.667  1.00  0.00    -0.003 C 
ATOM      4  C   UNL     1     -27.131  10.932 -32.719  1.00  0.00     0.004 C 
ENDBRANCH   2   3
ENDBRANCH   1   2
BRANCH   1   5
ATOM      5  C   UNL     1     -26.469  13.121 -29.314  1.00  0.00     0.080 C 
BRANCH   5   6
ATOM      6  C   UNL     1     -27.530  12.413 -28.502  1.00  0.00     0.155 C 
ATOM      7  O   UNL     1     -27.201  11.692 -27.522  1.00  0.00    -0.295 OA
BRANCH   6   8
ATOM      8  C   UNL     1     -28.967  12.536 -28.824  1.00  0.00     0.039 C 
ATOM      9  C   UNL     1     -29.584  11.791 -29.740  1.00  0.00     0.012 C 
ENDBRANCH   6   8
ENDBRANCH   5   6
ENDBRANCH   1   5
TORSDOF 5
ENDMDL
