MODEL 1
REMARK VINA RESULT:    -5.437      0.000      0.000
REMARK INTER + INTRA:          -7.346
REMARK INTER:                  -6.868
REMARK INTRA:                  -0.478
REMARK UNBOUND:                -0.478
REMARK SMILES Oc1cc(O)cc(CCc2ccccc2O)c1
REMARK SMILES IDX 9 1 10 2 12 3 13 4 11 5 14 6 15 7 16 8 8 10 7 11 6 12 17 13
REMARK SMILES IDX 4 14 2 15 3 16 5 17 1 19
REMARK H PARENT 16 9 5 18 1 20
REMARK Flexibility Score: inf
ROOT
ATOM      1  C   UNL     1     128.069 140.238 107.290  1.00  0.00     0.044 C 
ENDROOT
BRANCH   1   2
ATOM      2  C   UNL     1     127.775 138.869 106.729  1.00  0.00    -0.006 A 
ATOM      3  C   UNL     1     127.524 137.407 104.801  1.00  0.00     0.001 A 
ATOM      4  C   UNL     1     127.298 136.321 105.648  1.00  0.00     0.004 A 
ATOM      5  C   UNL     1     127.766 138.675 105.337  1.00  0.00     0.007 A 
ATOM      6  C   UNL     1     127.318 136.498 107.034  1.00  0.00     0.046 A 
ATOM      7  C   UNL     1     127.562 137.767 107.582  1.00  0.00     0.118 A 
BRANCH   7   8
ATOM      8  O   UNL     1     127.594 137.933 108.966  1.00  0.00    -0.508 OA
ATOM      9  H   UNL     1     128.193 138.622 109.405  1.00  0.00     0.293 HD
ENDBRANCH   7   8
ENDBRANCH   1   2
BRANCH   1  10
ATOM     10  C   UNL     1     128.639 141.154 106.203  1.00  0.00     0.040 C 
BRANCH  10  11
ATOM     11  C   UNL     1     128.042 142.533 106.308  1.00  0.00    -0.040 A 
ATOM     12  C   UNL     1     127.848 143.308 105.153  1.00  0.00     0.050 A 
ATOM     13  C   UNL     1     127.730 143.076 107.565  1.00  0.00     0.050 A 
ATOM     14  C   UNL     1     127.326 144.602 105.251  1.00  0.00     0.119 A 
ATOM     15  C   UNL     1     127.207 144.372 107.665  1.00  0.00     0.119 A 
ATOM     16  C   UNL     1     127.002 145.131 106.507  1.00  0.00     0.092 A 
BRANCH  14  17
ATOM     17  O   UNL     1     127.133 145.354 104.094  1.00  0.00    -0.508 OA
ATOM     18  H   UNL     1     127.127 146.367 104.116  1.00  0.00     0.293 HD
ENDBRANCH  14  17
BRANCH  15  19
ATOM     19  O   UNL     1     126.887 144.914 108.907  1.00  0.00    -0.508 OA
ATOM     20  H   UNL     1     125.963 145.279 109.104  1.00  0.00     0.293 HD
ENDBRANCH  15  19
ENDBRANCH  10  11
ENDBRANCH   1  10
TORSDOF 6
ENDMDL
MODEL 2
REMARK VINA RESULT:    -5.374      0.154      2.039
REMARK INTER + INTRA:          -7.265
REMARK INTER:                  -6.810
REMARK INTRA:                  -0.455
REMARK UNBOUND:                -0.478
REMARK SMILES Oc1cc(O)cc(CCc2ccccc2O)c1
REMARK SMILES IDX 9 1 10 2 12 3 13 4 11 5 14 6 15 7 16 8 8 10 7 11 6 12 17 13
REMARK SMILES IDX 4 14 2 15 3 16 5 17 1 19
REMARK H PARENT 16 9 5 18 1 20
REMARK Flexibility Score: inf
ROOT
ATOM      1  C   UNL     1     127.887 140.320 107.228  1.00  0.00     0.044 C 
ENDROOT
BRANCH   1   2
ATOM      2  C   UNL     1     127.720 138.906 106.730  1.00  0.00    -0.006 A 
ATOM      3  C   UNL     1     127.593 137.344 104.870  1.00  0.00     0.001 A 
ATOM      4  C   UNL     1     127.480 136.279 105.765  1.00  0.00     0.004 A 
ATOM      5  C   UNL     1     127.717 138.651 105.347  1.00  0.00     0.007 A 
ATOM      6  C   UNL     1     127.496 136.518 107.142  1.00  0.00     0.046 A 
ATOM      7  C   UNL     1     127.622 137.826 107.631  1.00  0.00     0.118 A 
BRANCH   7   8
ATOM      8  O   UNL     1     127.651 138.055 109.007  1.00  0.00    -0.508 OA
ATOM      9  H   UNL     1     127.631 138.993 109.390  1.00  0.00     0.293 HD
ENDBRANCH   7   8
ENDBRANCH   1   2
BRANCH   1  10
ATOM     10  C   UNL     1     128.457 141.215 106.124  1.00  0.00     0.040 C 
BRANCH  10  11
ATOM     11  C   UNL     1     127.964 142.629 106.283  1.00  0.00    -0.040 A 
ATOM     12  C   UNL     1     127.694 143.144 107.561  1.00  0.00     0.050 A 
ATOM     13  C   UNL     1     127.715 143.423 105.152  1.00  0.00     0.050 A 
ATOM     14  C   UNL     1     127.204 144.446 107.709  1.00  0.00     0.119 A 
ATOM     15  C   UNL     1     127.224 144.728 105.298  1.00  0.00     0.119 A 
ATOM     16  C   UNL     1     126.973 145.238 106.577  1.00  0.00     0.092 A 
BRANCH  14  17
ATOM     17  O   UNL     1     126.949 144.943 108.985  1.00  0.00    -0.508 OA
ATOM     18  H   UNL     1     126.053 145.350 109.226  1.00  0.00     0.293 HD
ENDBRANCH  14  17
BRANCH  15  19
ATOM     19  O   UNL     1     126.982 145.524 104.181  1.00  0.00    -0.508 OA
ATOM     20  H   UNL     1     127.116 146.528 104.207  1.00  0.00     0.293 HD
ENDBRANCH  15  19
ENDBRANCH  10  11
ENDBRANCH   1  10
TORSDOF 6
ENDMDL
MODEL 3
REMARK VINA RESULT:    -5.354      2.861      6.352
REMARK INTER + INTRA:          -7.240
REMARK INTER:                  -6.548
REMARK INTRA:                  -0.693
REMARK UNBOUND:                -0.478
REMARK SMILES Oc1cc(O)cc(CCc2ccccc2O)c1
REMARK SMILES IDX 9 1 10 2 12 3 13 4 11 5 14 6 15 7 16 8 8 10 7 11 6 12 17 13
REMARK SMILES IDX 4 14 2 15 3 16 5 17 1 19
REMARK H PARENT 16 9 5 18 1 20
REMARK Flexibility Score: inf
ROOT
ATOM      1  C   UNL     1     128.229 145.631 105.565  1.00  0.00     0.044 C 
ENDROOT
BRANCH   1   2
ATOM      2  C   UNL     1     128.187 145.655 107.072  1.00  0.00    -0.006 A 
ATOM      3  C   UNL     1     126.889 145.646 109.129  1.00  0.00     0.001 A 
ATOM      4  C   UNL     1     128.067 145.628 109.878  1.00  0.00     0.004 A 
ATOM      5  C   UNL     1     126.946 145.655 107.733  1.00  0.00     0.007 A 
ATOM      6  C   UNL     1     129.306 145.613 109.233  1.00  0.00     0.046 A 
ATOM      7  C   UNL     1     129.374 145.620 107.831  1.00  0.00     0.118 A 
BRANCH   7   8
ATOM      8  O   UNL     1     130.615 145.591 107.194  1.00  0.00    -0.508 OA
ATOM      9  H   UNL     1     130.999 144.733 106.818  1.00  0.00     0.293 HD
ENDBRANCH   7   8
ENDBRANCH   1   2
BRANCH   1  10
ATOM     10  C   UNL     1     127.456 144.425 105.023  1.00  0.00     0.040 C 
BRANCH  10  11
ATOM     11  C   UNL     1     128.029 143.143 105.565  1.00  0.00    -0.040 A 
ATOM     12  C   UNL     1     129.377 142.820 105.340  1.00  0.00     0.050 A 
ATOM     13  C   UNL     1     127.207 142.233 106.249  1.00  0.00     0.050 A 
ATOM     14  C   UNL     1     129.904 141.614 105.814  1.00  0.00     0.119 A 
ATOM     15  C   UNL     1     127.733 141.023 106.724  1.00  0.00     0.119 A 
ATOM     16  C   UNL     1     129.081 140.718 106.508  1.00  0.00     0.092 A 
BRANCH  14  17
ATOM     17  O   UNL     1     131.246 141.314 105.587  1.00  0.00    -0.508 OA
ATOM     18  H   UNL     1     131.587 140.361 105.613  1.00  0.00     0.293 HD
ENDBRANCH  14  17
BRANCH  15  19
ATOM     19  O   UNL     1     126.925 140.120 107.410  1.00  0.00    -0.508 OA
ATOM     20  H   UNL     1     127.306 139.279 107.828  1.00  0.00     0.293 HD
ENDBRANCH  15  19
ENDBRANCH  10  11
ENDBRANCH   1  10
TORSDOF 6
ENDMDL
MODEL 4
REMARK VINA RESULT:    -5.294      1.415      6.632
REMARK INTER + INTRA:          -7.165
REMARK INTER:                  -6.633
REMARK INTRA:                  -0.532
REMARK UNBOUND:                -0.478
REMARK SMILES Oc1cc(O)cc(CCc2ccccc2O)c1
REMARK SMILES IDX 9 1 10 2 12 3 13 4 11 5 14 6 15 7 16 8 8 10 7 11 6 12 17 13
REMARK SMILES IDX 4 14 2 15 3 16 5 17 1 19
REMARK H PARENT 16 9 5 18 1 20
REMARK Flexibility Score: inf
ROOT
ATOM      1  C   UNL     1     127.813 142.113 107.807  1.00  0.00     0.044 C 
ENDROOT
BRANCH   1   2
ATOM      2  C   UNL     1     127.596 143.340 106.958  1.00  0.00    -0.006 A 
ATOM      3  C   UNL     1     127.534 144.381 104.760  1.00  0.00     0.001 A 
ATOM      4  C   UNL     1     127.132 145.586 105.337  1.00  0.00     0.004 A 
ATOM      5  C   UNL     1     127.760 143.261 105.564  1.00  0.00     0.007 A 
ATOM      6  C   UNL     1     126.951 145.675 106.719  1.00  0.00     0.046 A 
ATOM      7  C   UNL     1     127.174 144.556 107.535  1.00  0.00     0.118 A 
BRANCH   7   8
ATOM      8  O   UNL     1     126.978 144.648 108.913  1.00  0.00    -0.508 OA
ATOM      9  H   UNL     1     127.737 144.502 109.568  1.00  0.00     0.293 HD
ENDBRANCH   7   8
ENDBRANCH   1   2
BRANCH   1  10
ATOM     10  C   UNL     1     128.863 141.197 107.170  1.00  0.00     0.040 C 
BRANCH  10  11
ATOM     11  C   UNL     1     128.315 139.806 106.995  1.00  0.00    -0.040 A 
ATOM     12  C   UNL     1     127.982 139.032 108.118  1.00  0.00     0.050 A 
ATOM     13  C   UNL     1     128.187 139.252 105.712  1.00  0.00     0.050 A 
ATOM     14  C   UNL     1     127.504 137.726 107.960  1.00  0.00     0.119 A 
ATOM     15  C   UNL     1     127.708 137.944 105.551  1.00  0.00     0.119 A 
ATOM     16  C   UNL     1     127.365 137.185 106.675  1.00  0.00     0.092 A 
BRANCH  14  17
ATOM     17  O   UNL     1     127.172 136.975 109.085  1.00  0.00    -0.508 OA
ATOM     18  H   UNL     1     127.077 137.403 109.999  1.00  0.00     0.293 HD
ENDBRANCH  14  17
BRANCH  15  19
ATOM     19  O   UNL     1     127.572 137.390 104.280  1.00  0.00    -0.508 OA
ATOM     20  H   UNL     1     127.693 137.948 103.443  1.00  0.00     0.293 HD
ENDBRANCH  15  19
ENDBRANCH  10  11
ENDBRANCH   1  10
TORSDOF 6
ENDMDL
MODEL 5
REMARK VINA RESULT:    -5.248      1.448      6.294
REMARK INTER + INTRA:          -7.107
REMARK INTER:                  -6.567
REMARK INTRA:                  -0.539
REMARK UNBOUND:                -0.478
REMARK SMILES Oc1cc(O)cc(CCc2ccccc2O)c1
REMARK SMILES IDX 9 1 10 2 12 3 13 4 11 5 14 6 15 7 16 8 8 10 7 11 6 12 17 13
REMARK SMILES IDX 4 14 2 15 3 16 5 17 1 19
REMARK H PARENT 16 9 5 18 1 20
REMARK Flexibility Score: inf
ROOT
ATOM      1  C   UNL     1     127.913 142.169 107.869  1.00  0.00     0.044 C 
ENDROOT
BRANCH   1   2
ATOM      2  C   UNL     1     127.642 143.398 107.038  1.00  0.00    -0.006 A 
ATOM      3  C   UNL     1     127.516 144.461 104.854  1.00  0.00     0.001 A 
ATOM      4  C   UNL     1     127.080 145.645 105.450  1.00  0.00     0.004 A 
ATOM      5  C   UNL     1     127.792 143.341 105.641  1.00  0.00     0.007 A 
ATOM      6  C   UNL     1     126.913 145.711 106.835  1.00  0.00     0.046 A 
ATOM      7  C   UNL     1     127.185 144.591 107.635  1.00  0.00     0.118 A 
BRANCH   7   8
ATOM      8  O   UNL     1     127.003 144.660 109.016  1.00  0.00    -0.508 OA
ATOM      9  H   UNL     1     126.126 144.964 109.421  1.00  0.00     0.293 HD
ENDBRANCH   7   8
ENDBRANCH   1   2
BRANCH   1  10
ATOM     10  C   UNL     1     128.963 141.283 107.193  1.00  0.00     0.040 C 
BRANCH  10  11
ATOM     11  C   UNL     1     128.445 139.878 107.031  1.00  0.00    -0.040 A 
ATOM     12  C   UNL     1     128.256 139.339 105.749  1.00  0.00     0.050 A 
ATOM     13  C   UNL     1     128.092 139.120 108.159  1.00  0.00     0.050 A 
ATOM     14  C   UNL     1     127.743 138.046 105.595  1.00  0.00     0.119 A 
ATOM     15  C   UNL     1     127.578 137.824 108.007  1.00  0.00     0.119 A 
ATOM     16  C   UNL     1     127.408 137.289 106.725  1.00  0.00     0.092 A 
BRANCH  14  17
ATOM     17  O   UNL     1     127.569 137.524 104.315  1.00  0.00    -0.508 OA
ATOM     18  H   UNL     1     128.358 137.233 103.750  1.00  0.00     0.293 HD
ENDBRANCH  14  17
BRANCH  15  19
ATOM     19  O   UNL     1     127.233 137.063 109.120  1.00  0.00    -0.508 OA
ATOM     20  H   UNL     1     127.111 137.485 110.034  1.00  0.00     0.293 HD
ENDBRANCH  15  19
ENDBRANCH  10  11
ENDBRANCH   1  10
TORSDOF 6
ENDMDL
MODEL 6
REMARK VINA RESULT:    -5.242      5.599      7.771
REMARK INTER + INTRA:          -7.099
REMARK INTER:                  -6.715
REMARK INTRA:                  -0.384
REMARK UNBOUND:                -0.478
REMARK SMILES Oc1cc(O)cc(CCc2ccccc2O)c1
REMARK SMILES IDX 9 1 10 2 12 3 13 4 11 5 14 6 15 7 16 8 8 10 7 11 6 12 17 13
REMARK SMILES IDX 4 14 2 15 3 16 5 17 1 19
REMARK H PARENT 16 9 5 18 1 20
REMARK Flexibility Score: inf
ROOT
ATOM      1  C   UNL     1     131.921 146.337 106.344  1.00  0.00     0.044 C 
ENDROOT
BRANCH   1   2
ATOM      2  C   UNL     1     133.395 146.025 106.292  1.00  0.00    -0.006 A 
ATOM      3  C   UNL     1     135.300 145.115 105.084  1.00  0.00     0.001 A 
ATOM      4  C   UNL     1     136.148 145.492 106.127  1.00  0.00     0.004 A 
ATOM      5  C   UNL     1     133.932 145.384 105.161  1.00  0.00     0.007 A 
ATOM      6  C   UNL     1     135.630 146.142 107.250  1.00  0.00     0.046 A 
ATOM      7  C   UNL     1     134.257 146.419 107.336  1.00  0.00     0.118 A 
BRANCH   7   8
ATOM      8  O   UNL     1     133.749 147.081 108.454  1.00  0.00    -0.508 OA
ATOM      9  H   UNL     1     133.868 148.079 108.580  1.00  0.00     0.293 HD
ENDBRANCH   7   8
ENDBRANCH   1   2
BRANCH   1  10
ATOM     10  C   UNL     1     131.125 145.100 106.773  1.00  0.00     0.040 C 
BRANCH  10  11
ATOM     11  C   UNL     1     129.647 145.384 106.740  1.00  0.00    -0.040 A 
ATOM     12  C   UNL     1     128.939 145.582 107.937  1.00  0.00     0.050 A 
ATOM     13  C   UNL     1     128.954 145.396 105.519  1.00  0.00     0.050 A 
ATOM     14  C   UNL     1     127.560 145.814 107.912  1.00  0.00     0.119 A 
ATOM     15  C   UNL     1     127.572 145.628 105.492  1.00  0.00     0.119 A 
ATOM     16  C   UNL     1     126.878 145.840 106.688  1.00  0.00     0.092 A 
BRANCH  14  17
ATOM     17  O   UNL     1     126.875 146.016 109.108  1.00  0.00    -0.508 OA
ATOM     18  H   UNL     1     127.017 146.850 109.666  1.00  0.00     0.293 HD
ENDBRANCH  14  17
BRANCH  15  19
ATOM     19  O   UNL     1     126.880 145.649 104.283  1.00  0.00    -0.508 OA
ATOM     20  H   UNL     1     127.176 145.087 103.493  1.00  0.00     0.293 HD
ENDBRANCH  15  19
ENDBRANCH  10  11
ENDBRANCH   1  10
TORSDOF 6
ENDMDL
MODEL 7
REMARK VINA RESULT:    -5.187      2.067      6.519
REMARK INTER + INTRA:          -7.029
REMARK INTER:                  -6.487
REMARK INTRA:                  -0.542
REMARK UNBOUND:                -0.478
REMARK SMILES Oc1cc(O)cc(CCc2ccccc2O)c1
REMARK SMILES IDX 9 1 10 2 12 3 13 4 11 5 14 6 15 7 16 8 8 10 7 11 6 12 17 13
REMARK SMILES IDX 4 14 2 15 3 16 5 17 1 19
REMARK H PARENT 16 9 5 18 1 20
REMARK Flexibility Score: inf
ROOT
ATOM      1  C   UNL     1     127.932 142.258 107.339  1.00  0.00     0.044 C 
ENDROOT
BRANCH   1   2
ATOM      2  C   UNL     1     127.613 143.602 106.735  1.00  0.00    -0.006 A 
ATOM      3  C   UNL     1     127.360 145.003 104.762  1.00  0.00     0.001 A 
ATOM      4  C   UNL     1     126.960 146.071 105.566  1.00  0.00     0.004 A 
ATOM      5  C   UNL     1     127.681 143.772 105.341  1.00  0.00     0.007 A 
ATOM      6  C   UNL     1     126.875 145.912 106.951  1.00  0.00     0.046 A 
ATOM      7  C   UNL     1     127.193 144.679 107.542  1.00  0.00     0.118 A 
BRANCH   7   8
ATOM      8  O   UNL     1     127.093 144.523 108.925  1.00  0.00    -0.508 OA
ATOM      9  H   UNL     1     127.913 144.389 109.505  1.00  0.00     0.293 HD
ENDBRANCH   7   8
ENDBRANCH   1   2
BRANCH   1  10
ATOM     10  C   UNL     1     127.218 141.140 106.573  1.00  0.00     0.040 C 
BRANCH  10  11
ATOM     11  C   UNL     1     128.188 140.052 106.199  1.00  0.00    -0.040 A 
ATOM     12  C   UNL     1     129.567 140.313 106.173  1.00  0.00     0.050 A 
ATOM     13  C   UNL     1     127.718 138.784 105.818  1.00  0.00     0.050 A 
ATOM     14  C   UNL     1     130.469 139.313 105.793  1.00  0.00     0.119 A 
ATOM     15  C   UNL     1     128.620 137.781 105.437  1.00  0.00     0.119 A 
ATOM     16  C   UNL     1     129.994 138.047 105.429  1.00  0.00     0.092 A 
BRANCH  14  17
ATOM     17  O   UNL     1     131.835 139.588 105.780  1.00  0.00    -0.508 OA
ATOM     18  H   UNL     1     132.486 139.065 106.352  1.00  0.00     0.293 HD
ENDBRANCH  14  17
BRANCH  15  19
ATOM     19  O   UNL     1     128.162 136.520 105.065  1.00  0.00    -0.508 OA
ATOM     20  H   UNL     1     127.830 135.853 105.753  1.00  0.00     0.293 HD
ENDBRANCH  15  19
ENDBRANCH  10  11
ENDBRANCH   1  10
TORSDOF 6
ENDMDL
MODEL 8
REMARK VINA RESULT:    -5.158      2.069      6.499
REMARK INTER + INTRA:          -6.992
REMARK INTER:                  -6.447
REMARK INTRA:                  -0.546
REMARK UNBOUND:                -0.478
REMARK SMILES Oc1cc(O)cc(CCc2ccccc2O)c1
REMARK SMILES IDX 9 1 10 2 12 3 13 4 11 5 14 6 15 7 16 8 8 10 7 11 6 12 17 13
REMARK SMILES IDX 4 14 2 15 3 16 5 17 1 19
REMARK H PARENT 16 9 5 18 1 20
REMARK Flexibility Score: inf
ROOT
ATOM      1  C   UNL     1     128.012 142.265 107.343  1.00  0.00     0.044 C 
ENDROOT
BRANCH   1   2
ATOM      2  C   UNL     1     127.660 143.610 106.761  1.00  0.00    -0.006 A 
ATOM      3  C   UNL     1     127.362 145.034 104.811  1.00  0.00     0.001 A 
ATOM      4  C   UNL     1     126.946 146.081 105.633  1.00  0.00     0.004 A 
ATOM      5  C   UNL     1     127.713 143.802 105.369  1.00  0.00     0.007 A 
ATOM      6  C   UNL     1     126.875 145.900 107.017  1.00  0.00     0.046 A 
ATOM      7  C   UNL     1     127.224 144.666 107.587  1.00  0.00     0.118 A 
BRANCH   7   8
ATOM      8  O   UNL     1     127.138 144.488 108.968  1.00  0.00    -0.508 OA
ATOM      9  H   UNL     1     127.484 145.186 109.616  1.00  0.00     0.293 HD
ENDBRANCH   7   8
ENDBRANCH   1   2
BRANCH   1  10
ATOM     10  C   UNL     1     127.245 141.150 106.625  1.00  0.00     0.040 C 
BRANCH  10  11
ATOM     11  C   UNL     1     128.190 140.076 106.155  1.00  0.00    -0.040 A 
ATOM     12  C   UNL     1     127.694 138.824 105.756  1.00  0.00     0.050 A 
ATOM     13  C   UNL     1     129.577 140.297 106.168  1.00  0.00     0.050 A 
ATOM     14  C   UNL     1     128.572 137.813 105.351  1.00  0.00     0.119 A 
ATOM     15  C   UNL     1     130.458 139.285 105.763  1.00  0.00     0.119 A 
ATOM     16  C   UNL     1     129.953 138.046 105.353  1.00  0.00     0.092 A 
BRANCH  14  17
ATOM     17  O   UNL     1     128.062 136.579 104.952  1.00  0.00    -0.508 OA
ATOM     18  H   UNL     1     127.441 136.045 105.548  1.00  0.00     0.293 HD
ENDBRANCH  14  17
BRANCH  15  19
ATOM     19  O   UNL     1     131.834 139.500 105.766  1.00  0.00    -0.508 OA
ATOM     20  H   UNL     1     132.489 138.744 105.602  1.00  0.00     0.293 HD
ENDBRANCH  15  19
ENDBRANCH  10  11
ENDBRANCH   1  10
TORSDOF 6
ENDMDL
MODEL 9
REMARK VINA RESULT:    -5.073      4.767      7.065
REMARK INTER + INTRA:          -6.886
REMARK INTER:                  -6.295
REMARK INTRA:                  -0.591
REMARK UNBOUND:                -0.478
REMARK SMILES Oc1cc(O)cc(CCc2ccccc2O)c1
REMARK SMILES IDX 9 1 10 2 12 3 13 4 11 5 14 6 15 7 16 8 8 10 7 11 6 12 17 13
REMARK SMILES IDX 4 14 2 15 3 16 5 17 1 19
REMARK H PARENT 16 9 5 18 1 20
REMARK Flexibility Score: inf
ROOT
ATOM      1  C   UNL     1     131.960 145.050 107.844  1.00  0.00     0.044 C 
ENDROOT
BRANCH   1   2
ATOM      2  C   UNL     1     133.076 145.134 106.833  1.00  0.00    -0.006 A 
ATOM      3  C   UNL     1     134.026 144.445 104.703  1.00  0.00     0.001 A 
ATOM      4  C   UNL     1     135.100 145.315 104.895  1.00  0.00     0.004 A 
ATOM      5  C   UNL     1     133.015 144.357 105.663  1.00  0.00     0.007 A 
ATOM      6  C   UNL     1     135.165 146.104 106.046  1.00  0.00     0.046 A 
ATOM      7  C   UNL     1     134.154 146.024 107.016  1.00  0.00     0.118 A 
BRANCH   7   8
ATOM      8  O   UNL     1     134.219 146.824 108.157  1.00  0.00    -0.508 OA
ATOM      9  H   UNL     1     134.123 146.433 109.086  1.00  0.00     0.293 HD
ENDBRANCH   7   8
ENDBRANCH   1   2
BRANCH   1  10
ATOM     10  C   UNL     1     130.811 145.985 107.457  1.00  0.00     0.040 C 
BRANCH  10  11
ATOM     11  C   UNL     1     129.589 145.193 107.074  1.00  0.00    -0.040 A 
ATOM     12  C   UNL     1     128.973 145.401 105.830  1.00  0.00     0.050 A 
ATOM     13  C   UNL     1     129.024 144.282 107.981  1.00  0.00     0.050 A 
ATOM     14  C   UNL     1     127.819 144.690 105.485  1.00  0.00     0.119 A 
ATOM     15  C   UNL     1     127.867 143.568 107.638  1.00  0.00     0.119 A 
ATOM     16  C   UNL     1     127.269 143.772 106.389  1.00  0.00     0.092 A 
BRANCH  14  17
ATOM     17  O   UNL     1     127.225 144.905 104.244  1.00  0.00    -0.508 OA
ATOM     18  H   UNL     1     126.350 144.460 103.991  1.00  0.00     0.293 HD
ENDBRANCH  14  17
BRANCH  15  19
ATOM     19  O   UNL     1     127.305 142.657 108.529  1.00  0.00    -0.508 OA
ATOM     20  H   UNL     1     126.952 142.949 109.432  1.00  0.00     0.293 HD
ENDBRANCH  15  19
ENDBRANCH  10  11
ENDBRANCH   1  10
TORSDOF 6
ENDMDL
