MODEL 1
REMARK VINA RESULT:    -5.937      0.000      0.000
REMARK INTER + INTRA:          -9.120
REMARK INTER:                  -8.367
REMARK INTRA:                  -0.753
REMARK UNBOUND:                -0.753
REMARK SMILES COc1ccc(-c2cc(=O)c3c(OC)c(OC)c(OC)c(OC)c3o2)cc1OC
REMARK SMILES IDX 7 1 8 2 9 3 10 4 11 5 24 6 25 7 21 8 18 9 15 10 12 11 6 12
REMARK SMILES IDX 3 13 27 14 4 15 26 16 5 17 2 18 1 19 28 20 29 21 22 22 23 23
REMARK SMILES IDX 13 24 14 25 19 26 20 27 16 28 17 29
REMARK H PARENT
REMARK Flexibility Score: inf
ROOT
ATOM      1  C   UNL     1       2.122  -4.105  22.954  1.00  0.00     0.138 A 
ATOM      2  C   UNL     1       3.180  -4.645  23.700  1.00  0.00     0.100 A 
ATOM      3  C   UNL     1       3.166  -4.533  25.089  1.00  0.00     0.197 A 
ATOM      4  O   UNL     1       4.125  -5.026  25.742  1.00  0.00    -0.289 OA
ATOM      5  C   UNL     1       2.092  -3.873  25.732  1.00  0.00     0.115 A 
ATOM      6  C   UNL     1       1.072  -3.345  24.909  1.00  0.00     0.188 A 
ATOM      7  O   UNL     1       1.130  -3.485  23.587  1.00  0.00    -0.452 OA
ATOM      8  C   UNL     1      -0.015  -2.665  25.460  1.00  0.00     0.209 A 
ATOM      9  C   UNL     1      -0.065  -2.451  26.854  1.00  0.00     0.211 A 
ATOM     10  C   UNL     1       0.895  -3.049  27.704  1.00  0.00     0.208 A 
ATOM     11  C   UNL     1       2.002  -3.739  27.140  1.00  0.00     0.179 A 
ENDROOT
BRANCH   1  12
ATOM     12  C   UNL     1       2.083  -4.184  21.472  1.00  0.00     0.021 A 
ATOM     13  C   UNL     1       2.038  -4.387  18.655  1.00  0.00     0.160 A 
ATOM     14  C   UNL     1       1.468  -3.272  19.283  1.00  0.00     0.161 A 
ATOM     15  C   UNL     1       2.640  -5.392  19.435  1.00  0.00     0.051 A 
ATOM     16  C   UNL     1       1.497  -3.171  20.689  1.00  0.00     0.062 A 
ATOM     17  C   UNL     1       2.664  -5.287  20.826  1.00  0.00     0.016 A 
BRANCH  13  18
ATOM     18  O   UNL     1       1.988  -4.462  17.253  1.00  0.00    -0.493 OA
ATOM     19  C   UNL     1       2.980  -3.933  16.381  1.00  0.00     0.278 C 
ENDBRANCH  13  18
BRANCH  14  20
ATOM     20  O   UNL     1       0.882  -2.282  18.477  1.00  0.00    -0.493 OA
ATOM     21  C   UNL     1      -0.360  -1.643  18.755  1.00  0.00     0.278 C 
ENDBRANCH  14  20
ENDBRANCH   1  12
BRANCH   8  22
ATOM     22  O   UNL     1      -1.011  -2.217  24.573  1.00  0.00    -0.490 OA
ATOM     23  C   UNL     1      -2.260  -2.855  24.331  1.00  0.00     0.278 C 
ENDBRANCH   8  22
BRANCH  11  24
ATOM     24  O   UNL     1       3.027  -4.310  27.925  1.00  0.00    -0.492 OA
ATOM     25  C   UNL     1       2.941  -5.463  28.758  1.00  0.00     0.278 C 
ENDBRANCH  11  24
BRANCH   9  26
ATOM     26  O   UNL     1      -1.027  -1.593  27.387  1.00  0.00    -0.490 OA
ATOM     27  C   UNL     1      -0.809  -0.187  27.425  1.00  0.00     0.279 C 
ENDBRANCH   9  26
BRANCH  10  28
ATOM     28  O   UNL     1       0.783  -2.969  29.103  1.00  0.00    -0.490 OA
ATOM     29  C   UNL     1      -0.018  -3.817  29.923  1.00  0.00     0.278 C 
ENDBRANCH  10  28
TORSDOF 7
ENDMDL
MODEL 2
REMARK VINA RESULT:    -5.504      2.786      5.546
REMARK INTER + INTRA:          -8.509
REMARK INTER:                  -7.849
REMARK INTRA:                  -0.660
REMARK UNBOUND:                -0.753
REMARK SMILES COc1ccc(-c2cc(=O)c3c(OC)c(OC)c(OC)c(OC)c3o2)cc1OC
REMARK SMILES IDX 7 1 8 2 9 3 10 4 11 5 24 6 25 7 21 8 18 9 15 10 12 11 6 12
REMARK SMILES IDX 3 13 27 14 4 15 26 16 5 17 2 18 1 19 28 20 29 21 22 22 23 23
REMARK SMILES IDX 13 24 14 25 19 26 20 27 16 28 17 29
REMARK H PARENT
REMARK Flexibility Score: inf
ROOT
ATOM      1  C   UNL     1      -1.998  -1.687  23.687  1.00  0.00     0.138 A 
ATOM      2  C   UNL     1      -2.183  -1.279  25.015  1.00  0.00     0.100 A 
ATOM      3  C   UNL     1      -1.257  -1.659  25.985  1.00  0.00     0.197 A 
ATOM      4  O   UNL     1      -1.440  -1.281  27.173  1.00  0.00    -0.289 OA
ATOM      5  C   UNL     1      -0.145  -2.456  25.623  1.00  0.00     0.115 A 
ATOM      6  C   UNL     1      -0.037  -2.837  24.267  1.00  0.00     0.188 A 
ATOM      7  O   UNL     1      -0.947  -2.441  23.379  1.00  0.00    -0.452 OA
ATOM      8  C   UNL     1       1.020  -3.636  23.827  1.00  0.00     0.209 A 
ATOM      9  C   UNL     1       1.960  -4.118  24.762  1.00  0.00     0.211 A 
ATOM     10  C   UNL     1       1.924  -3.676  26.106  1.00  0.00     0.208 A 
ATOM     11  C   UNL     1       0.846  -2.864  26.550  1.00  0.00     0.179 A 
ENDROOT
BRANCH   1  12
ATOM     12  C   UNL     1      -2.953  -1.322  22.610  1.00  0.00     0.021 A 
ATOM     13  C   UNL     1      -4.816  -0.643  20.600  1.00  0.00     0.160 A 
ATOM     14  C   UNL     1      -3.442  -0.533  20.344  1.00  0.00     0.161 A 
ATOM     15  C   UNL     1      -5.255  -1.103  21.854  1.00  0.00     0.051 A 
ATOM     16  C   UNL     1      -2.515  -0.878  21.347  1.00  0.00     0.062 A 
ATOM     17  C   UNL     1      -4.331  -1.442  22.845  1.00  0.00     0.016 A 
BRANCH  13  18
ATOM     18  O   UNL     1      -5.715  -0.285  19.581  1.00  0.00    -0.493 OA
ATOM     19  C   UNL     1      -6.305   1.004  19.442  1.00  0.00     0.278 C 
ENDBRANCH  13  18
BRANCH  14  20
ATOM     20  O   UNL     1      -3.036  -0.078  19.078  1.00  0.00    -0.493 OA
ATOM     21  C   UNL     1      -2.325  -0.863  18.126  1.00  0.00     0.278 C 
ENDBRANCH  14  20
ENDBRANCH   1  12
BRANCH   8  22
ATOM     22  O   UNL     1       1.079  -3.926  22.452  1.00  0.00    -0.490 OA
ATOM     23  C   UNL     1       1.715  -3.129  21.459  1.00  0.00     0.278 C 
ENDBRANCH   8  22
BRANCH  11  24
ATOM     24  O   UNL     1       0.716  -2.433  27.889  1.00  0.00    -0.492 OA
ATOM     25  C   UNL     1       0.385  -3.225  29.026  1.00  0.00     0.278 C 
ENDBRANCH  11  24
BRANCH   9  26
ATOM     26  O   UNL     1       2.887  -5.085  24.374  1.00  0.00    -0.490 OA
ATOM     27  C   UNL     1       4.125  -4.712  23.778  1.00  0.00     0.279 C 
ENDBRANCH   9  26
BRANCH  10  28
ATOM     28  O   UNL     1       2.933  -4.028  27.018  1.00  0.00    -0.490 OA
ATOM     29  C   UNL     1       3.080  -5.300  27.646  1.00  0.00     0.278 C 
ENDBRANCH  10  28
TORSDOF 7
ENDMDL
MODEL 3
REMARK VINA RESULT:    -5.460      3.508      6.153
REMARK INTER + INTRA:          -8.446
REMARK INTER:                  -7.793
REMARK INTRA:                  -0.654
REMARK UNBOUND:                -0.753
REMARK SMILES COc1ccc(-c2cc(=O)c3c(OC)c(OC)c(OC)c(OC)c3o2)cc1OC
REMARK SMILES IDX 7 1 8 2 9 3 10 4 11 5 24 6 25 7 21 8 18 9 15 10 12 11 6 12
REMARK SMILES IDX 3 13 27 14 4 15 26 16 5 17 2 18 1 19 28 20 29 21 22 22 23 23
REMARK SMILES IDX 13 24 14 25 19 26 20 27 16 28 17 29
REMARK H PARENT
REMARK Flexibility Score: inf
ROOT
ATOM      1  C   UNL     1      -2.614  -1.143  22.752  1.00  0.00     0.138 A 
ATOM      2  C   UNL     1      -3.036  -0.964  24.078  1.00  0.00     0.100 A 
ATOM      3  C   UNL     1      -2.280  -1.504  25.116  1.00  0.00     0.197 A 
ATOM      4  O   UNL     1      -2.675  -1.331  26.301  1.00  0.00    -0.289 OA
ATOM      5  C   UNL     1      -1.101  -2.231  24.826  1.00  0.00     0.115 A 
ATOM      6  C   UNL     1      -0.751  -2.378  23.465  1.00  0.00     0.188 A 
ATOM      7  O   UNL     1      -1.506  -1.836  22.511  1.00  0.00    -0.452 OA
ATOM      8  C   UNL     1       0.387  -3.093  23.090  1.00  0.00     0.209 A 
ATOM      9  C   UNL     1       1.165  -3.728  24.080  1.00  0.00     0.211 A 
ATOM     10  C   UNL     1       0.887  -3.519  25.452  1.00  0.00     0.208 A 
ATOM     11  C   UNL     1      -0.274  -2.791  25.831  1.00  0.00     0.179 A 
ENDROOT
BRANCH   1  12
ATOM     12  C   UNL     1      -3.380  -0.599  21.602  1.00  0.00     0.021 A 
ATOM     13  C   UNL     1      -4.787   0.427  19.379  1.00  0.00     0.160 A 
ATOM     14  C   UNL     1      -5.424   0.333  20.625  1.00  0.00     0.161 A 
ATOM     15  C   UNL     1      -3.447   0.021  19.251  1.00  0.00     0.051 A 
ATOM     16  C   UNL     1      -4.717  -0.175  21.734  1.00  0.00     0.062 A 
ATOM     17  C   UNL     1      -2.753  -0.483  20.352  1.00  0.00     0.016 A 
BRANCH  13  18
ATOM     18  O   UNL     1      -5.521   0.931  18.292  1.00  0.00    -0.493 OA
ATOM     19  C   UNL     1      -5.172   0.737  16.925  1.00  0.00     0.278 C 
ENDBRANCH  13  18
BRANCH  14  20
ATOM     20  O   UNL     1      -6.760   0.754  20.723  1.00  0.00    -0.493 OA
ATOM     21  C   UNL     1      -7.224   1.774  21.602  1.00  0.00     0.278 C 
ENDBRANCH  14  20
ENDBRANCH   1  12
BRANCH   8  22
ATOM     22  O   UNL     1       0.689  -3.147  21.717  1.00  0.00    -0.490 OA
ATOM     23  C   UNL     1       1.899  -2.705  21.112  1.00  0.00     0.278 C 
ENDBRANCH   8  22
BRANCH  11  24
ATOM     24  O   UNL     1      -0.644  -2.592  27.179  1.00  0.00    -0.492 OA
ATOM     25  C   UNL     1       0.000  -1.763  28.142  1.00  0.00     0.278 C 
ENDBRANCH  11  24
BRANCH   9  26
ATOM     26  O   UNL     1       2.171  -4.617  23.704  1.00  0.00    -0.490 OA
ATOM     27  C   UNL     1       1.873  -5.983  23.433  1.00  0.00     0.279 C 
ENDBRANCH   9  26
BRANCH  10  28
ATOM     28  O   UNL     1       1.733  -4.022  26.455  1.00  0.00    -0.490 OA
ATOM     29  C   UNL     1       3.009  -3.494  26.810  1.00  0.00     0.278 C 
ENDBRANCH  10  28
TORSDOF 7
ENDMDL
MODEL 4
REMARK VINA RESULT:    -5.377      2.910      5.652
REMARK INTER + INTRA:          -8.330
REMARK INTER:                  -7.556
REMARK INTRA:                  -0.774
REMARK UNBOUND:                -0.753
REMARK SMILES COc1ccc(-c2cc(=O)c3c(OC)c(OC)c(OC)c(OC)c3o2)cc1OC
REMARK SMILES IDX 7 1 8 2 9 3 10 4 11 5 24 6 25 7 21 8 18 9 15 10 12 11 6 12
REMARK SMILES IDX 3 13 27 14 4 15 26 16 5 17 2 18 1 19 28 20 29 21 22 22 23 23
REMARK SMILES IDX 13 24 14 25 19 26 20 27 16 28 17 29
REMARK H PARENT
REMARK Flexibility Score: inf
ROOT
ATOM      1  C   UNL     1      -2.670  -1.420  23.588  1.00  0.00     0.138 A 
ATOM      2  C   UNL     1      -3.138  -1.046  24.856  1.00  0.00     0.100 A 
ATOM      3  C   UNL     1      -2.378  -1.351  25.984  1.00  0.00     0.197 A 
ATOM      4  O   UNL     1      -2.815  -1.005  27.115  1.00  0.00    -0.289 OA
ATOM      5  C   UNL     1      -1.149  -2.038  25.841  1.00  0.00     0.115 A 
ATOM      6  C   UNL     1      -0.755  -2.391  24.531  1.00  0.00     0.188 A 
ATOM      7  O   UNL     1      -1.515  -2.070  23.487  1.00  0.00    -0.452 OA
ATOM      8  C   UNL     1       0.435  -3.084  24.302  1.00  0.00     0.209 A 
ATOM      9  C   UNL     1       1.224  -3.489  25.399  1.00  0.00     0.211 A 
ATOM     10  C   UNL     1       0.897  -3.068  26.710  1.00  0.00     0.208 A 
ATOM     11  C   UNL     1      -0.316  -2.364  26.940  1.00  0.00     0.179 A 
ENDROOT
BRANCH   1  12
ATOM     12  C   UNL     1      -3.437  -1.131  22.349  1.00  0.00     0.021 A 
ATOM     13  C   UNL     1      -4.947  -0.592  20.024  1.00  0.00     0.160 A 
ATOM     14  C   UNL     1      -3.547  -0.564  19.969  1.00  0.00     0.161 A 
ATOM     15  C   UNL     1      -5.588  -0.901  21.237  1.00  0.00     0.051 A 
ATOM     16  C   UNL     1      -2.796  -0.840  21.130  1.00  0.00     0.062 A 
ATOM     17  C   UNL     1      -4.839  -1.171  22.384  1.00  0.00     0.016 A 
BRANCH  13  18
ATOM     18  O   UNL     1      -5.667  -0.307  18.852  1.00  0.00    -0.493 OA
ATOM     19  C   UNL     1      -6.278   0.947  18.566  1.00  0.00     0.278 C 
ENDBRANCH  13  18
BRANCH  14  20
ATOM     20  O   UNL     1      -2.936  -0.261  18.741  1.00  0.00    -0.493 OA
ATOM     21  C   UNL     1      -1.915  -1.043  18.130  1.00  0.00     0.278 C 
ENDBRANCH  14  20
ENDBRANCH   1  12
BRANCH   8  22
ATOM     22  O   UNL     1       0.777  -3.350  22.964  1.00  0.00    -0.490 OA
ATOM     23  C   UNL     1       1.739  -2.640  22.192  1.00  0.00     0.278 C 
ENDBRANCH   8  22
BRANCH  11  24
ATOM     24  O   UNL     1      -0.734  -1.963  28.228  1.00  0.00    -0.492 OA
ATOM     25  C   UNL     1      -0.167  -0.942  29.045  1.00  0.00     0.278 C 
ENDBRANCH  11  24
BRANCH   9  26
ATOM     26  O   UNL     1       2.293  -4.362  25.197  1.00  0.00    -0.490 OA
ATOM     27  C   UNL     1       3.622  -3.869  25.060  1.00  0.00     0.279 C 
ENDBRANCH   9  26
BRANCH  10  28
ATOM     28  O   UNL     1       1.746  -3.337  27.798  1.00  0.00    -0.490 OA
ATOM     29  C   UNL     1       1.677  -4.483  28.643  1.00  0.00     0.278 C 
ENDBRANCH  10  28
TORSDOF 7
ENDMDL
MODEL 5
REMARK VINA RESULT:    -5.344      1.385      2.038
REMARK INTER + INTRA:          -8.284
REMARK INTER:                  -7.513
REMARK INTRA:                  -0.771
REMARK UNBOUND:                -0.753
REMARK SMILES COc1ccc(-c2cc(=O)c3c(OC)c(OC)c(OC)c(OC)c3o2)cc1OC
REMARK SMILES IDX 7 1 8 2 9 3 10 4 11 5 24 6 25 7 21 8 18 9 15 10 12 11 6 12
REMARK SMILES IDX 3 13 27 14 4 15 26 16 5 17 2 18 1 19 28 20 29 21 22 22 23 23
REMARK SMILES IDX 13 24 14 25 19 26 20 27 16 28 17 29
REMARK H PARENT
REMARK Flexibility Score: inf
ROOT
ATOM      1  C   UNL     1       1.222  -3.481  23.624  1.00  0.00     0.138 A 
ATOM      2  C   UNL     1       2.034  -3.868  24.700  1.00  0.00     0.100 A 
ATOM      3  C   UNL     1       1.670  -3.508  25.996  1.00  0.00     0.197 A 
ATOM      4  O   UNL     1       2.413  -3.866  26.950  1.00  0.00    -0.289 OA
ATOM      5  C   UNL     1       0.494  -2.753  26.214  1.00  0.00     0.115 A 
ATOM      6  C   UNL     1      -0.262  -2.391  25.077  1.00  0.00     0.188 A 
ATOM      7  O   UNL     1       0.126  -2.766  23.860  1.00  0.00    -0.452 OA
ATOM      8  C   UNL     1      -1.428  -1.633  25.202  1.00  0.00     0.209 A 
ATOM      9  C   UNL     1      -1.823  -1.172  26.475  1.00  0.00     0.211 A 
ATOM     10  C   UNL     1      -1.134  -1.598  27.635  1.00  0.00     0.208 A 
ATOM     11  C   UNL     1       0.053  -2.368  27.506  1.00  0.00     0.179 A 
ENDROOT
BRANCH   1  12
ATOM     12  C   UNL     1       1.559  -3.826  22.219  1.00  0.00     0.021 A 
ATOM     13  C   UNL     1       2.229  -4.530  19.568  1.00  0.00     0.160 A 
ATOM     14  C   UNL     1       1.480  -3.372  19.814  1.00  0.00     0.161 A 
ATOM     15  C   UNL     1       2.653  -5.326  20.648  1.00  0.00     0.051 A 
ATOM     16  C   UNL     1       1.152  -3.020  21.138  1.00  0.00     0.062 A 
ATOM     17  C   UNL     1       2.323  -4.974  21.958  1.00  0.00     0.016 A 
BRANCH  13  18
ATOM     18  O   UNL     1       2.535  -4.858  18.237  1.00  0.00    -0.493 OA
ATOM     19  C   UNL     1       2.581  -6.184  17.722  1.00  0.00     0.278 C 
ENDBRANCH  13  18
BRANCH  14  20
ATOM     20  O   UNL     1       1.079  -2.593  18.715  1.00  0.00    -0.493 OA
ATOM     21  C   UNL     1       0.054  -1.606  18.754  1.00  0.00     0.278 C 
ENDBRANCH  14  20
ENDBRANCH   1  12
BRANCH   8  22
ATOM     22  O   UNL     1      -2.147  -1.361  24.023  1.00  0.00    -0.490 OA
ATOM     23  C   UNL     1      -3.263  -2.100  23.539  1.00  0.00     0.278 C 
ENDBRANCH   8  22
BRANCH  11  24
ATOM     24  O   UNL     1       0.822  -2.779  28.616  1.00  0.00    -0.492 OA
ATOM     25  C   UNL     1       0.447  -3.698  29.638  1.00  0.00     0.278 C 
ENDBRANCH  11  24
BRANCH   9  26
ATOM     26  O   UNL     1      -2.856  -0.241  26.583  1.00  0.00    -0.490 OA
ATOM     27  C   UNL     1      -4.194  -0.661  26.830  1.00  0.00     0.279 C 
ENDBRANCH   9  26
BRANCH  10  28
ATOM     28  O   UNL     1      -1.596  -1.269  28.921  1.00  0.00    -0.490 OA
ATOM     29  C   UNL     1      -1.153  -0.166  29.708  1.00  0.00     0.278 C 
ENDBRANCH  10  28
TORSDOF 7
ENDMDL
MODEL 6
REMARK VINA RESULT:    -5.227      2.714      5.129
REMARK INTER + INTRA:          -8.119
REMARK INTER:                  -7.445
REMARK INTRA:                  -0.674
REMARK UNBOUND:                -0.753
REMARK SMILES COc1ccc(-c2cc(=O)c3c(OC)c(OC)c(OC)c(OC)c3o2)cc1OC
REMARK SMILES IDX 7 1 8 2 9 3 10 4 11 5 24 6 25 7 21 8 18 9 15 10 12 11 6 12
REMARK SMILES IDX 3 13 27 14 4 15 26 16 5 17 2 18 1 19 28 20 29 21 22 22 23 23
REMARK SMILES IDX 13 24 14 25 19 26 20 27 16 28 17 29
REMARK H PARENT
REMARK Flexibility Score: inf
ROOT
ATOM      1  C   UNL     1      -1.083  -2.277  23.195  1.00  0.00     0.138 A 
ATOM      2  C   UNL     1       0.007  -2.659  22.400  1.00  0.00     0.100 A 
ATOM      3  C   UNL     1       1.164  -3.142  23.010  1.00  0.00     0.197 A 
ATOM      4  O   UNL     1       2.133  -3.481  22.278  1.00  0.00    -0.289 OA
ATOM      5  C   UNL     1       1.230  -3.236  24.420  1.00  0.00     0.115 A 
ATOM      6  C   UNL     1       0.095  -2.819  25.150  1.00  0.00     0.188 A 
ATOM      7  O   UNL     1      -0.988  -2.371  24.518  1.00  0.00    -0.452 OA
ATOM      8  C   UNL     1       0.082  -2.863  26.545  1.00  0.00     0.209 A 
ATOM      9  C   UNL     1       1.240  -3.275  27.237  1.00  0.00     0.211 A 
ATOM     10  C   UNL     1       2.355  -3.783  26.527  1.00  0.00     0.208 A 
ATOM     11  C   UNL     1       2.366  -3.734  25.107  1.00  0.00     0.179 A 
ENDROOT
BRANCH   1  12
ATOM     12  C   UNL     1      -2.339  -1.748  22.606  1.00  0.00     0.021 A 
ATOM     13  C   UNL     1      -4.760  -0.770  21.529  1.00  0.00     0.160 A 
ATOM     14  C   UNL     1      -3.543  -0.452  20.912  1.00  0.00     0.161 A 
ATOM     15  C   UNL     1      -4.765  -1.586  22.675  1.00  0.00     0.051 A 
ATOM     16  C   UNL     1      -2.337  -0.946  21.448  1.00  0.00     0.062 A 
ATOM     17  C   UNL     1      -3.568  -2.071  23.203  1.00  0.00     0.016 A 
BRANCH  13  18
ATOM     18  O   UNL     1      -5.944  -0.256  20.975  1.00  0.00    -0.493 OA
ATOM     19  C   UNL     1      -6.538   0.983  21.347  1.00  0.00     0.278 C 
ENDBRANCH  13  18
BRANCH  14  20
ATOM     20  O   UNL     1      -3.571   0.359  19.764  1.00  0.00    -0.493 OA
ATOM     21  C   UNL     1      -3.437  -0.123  18.431  1.00  0.00     0.278 C 
ENDBRANCH  14  20
ENDBRANCH   1  12
BRANCH   8  22
ATOM     22  O   UNL     1      -1.108  -2.478  27.190  1.00  0.00    -0.490 OA
ATOM     23  C   UNL     1      -1.390  -1.188  27.718  1.00  0.00     0.278 C 
ENDBRANCH   8  22
BRANCH  11  24
ATOM     24  O   UNL     1       3.466  -4.170  24.336  1.00  0.00    -0.492 OA
ATOM     25  C   UNL     1       3.865  -5.513  24.078  1.00  0.00     0.278 C 
ENDBRANCH  11  24
BRANCH   9  26
ATOM     26  O   UNL     1       1.311  -3.118  28.621  1.00  0.00    -0.490 OA
ATOM     27  C   UNL     1       0.751  -4.093  29.495  1.00  0.00     0.279 C 
ENDBRANCH   9  26
BRANCH  10  28
ATOM     28  O   UNL     1       3.460  -4.331  27.199  1.00  0.00    -0.490 OA
ATOM     29  C   UNL     1       3.554  -5.664  27.698  1.00  0.00     0.278 C 
ENDBRANCH  10  28
TORSDOF 7
ENDMDL
MODEL 7
REMARK VINA RESULT:    -5.191      1.085      3.409
REMARK INTER + INTRA:          -8.068
REMARK INTER:                  -7.445
REMARK INTRA:                  -0.623
REMARK UNBOUND:                -0.753
REMARK SMILES COc1ccc(-c2cc(=O)c3c(OC)c(OC)c(OC)c(OC)c3o2)cc1OC
REMARK SMILES IDX 7 1 8 2 9 3 10 4 11 5 24 6 25 7 21 8 18 9 15 10 12 11 6 12
REMARK SMILES IDX 3 13 27 14 4 15 26 16 5 17 2 18 1 19 28 20 29 21 22 22 23 23
REMARK SMILES IDX 13 24 14 25 19 26 20 27 16 28 17 29
REMARK H PARENT
REMARK Flexibility Score: inf
ROOT
ATOM      1  C   UNL     1       0.795  -3.113  22.736  1.00  0.00     0.138 A 
ATOM      2  C   UNL     1      -0.425  -2.701  23.291  1.00  0.00     0.100 A 
ATOM      3  C   UNL     1      -0.579  -2.689  24.676  1.00  0.00     0.197 A 
ATOM      4  O   UNL     1      -1.683  -2.314  25.156  1.00  0.00    -0.289 OA
ATOM      5  C   UNL     1       0.492  -3.096  25.508  1.00  0.00     0.115 A 
ATOM      6  C   UNL     1       1.683  -3.510  24.871  1.00  0.00     0.188 A 
ATOM      7  O   UNL     1       1.779  -3.497  23.544  1.00  0.00    -0.452 OA
ATOM      8  C   UNL     1       2.782  -3.942  25.616  1.00  0.00     0.209 A 
ATOM      9  C   UNL     1       2.680  -4.023  27.020  1.00  0.00     0.211 A 
ATOM     10  C   UNL     1       1.532  -3.528  27.684  1.00  0.00     0.208 A 
ATOM     11  C   UNL     1       0.414  -3.091  26.923  1.00  0.00     0.179 A 
ENDROOT
BRANCH   1  12
ATOM     12  C   UNL     1       1.017  -3.157  21.269  1.00  0.00     0.021 A 
ATOM     13  C   UNL     1       1.484  -3.283  18.487  1.00  0.00     0.160 A 
ATOM     14  C   UNL     1       0.528  -2.392  18.994  1.00  0.00     0.161 A 
ATOM     15  C   UNL     1       2.213  -4.098  19.371  1.00  0.00     0.051 A 
ATOM     16  C   UNL     1       0.301  -2.328  20.384  1.00  0.00     0.062 A 
ATOM     17  C   UNL     1       1.983  -4.031  20.746  1.00  0.00     0.016 A 
BRANCH  13  18
ATOM     18  O   UNL     1       1.682  -3.328  17.097  1.00  0.00    -0.493 OA
ATOM     19  C   UNL     1       2.943  -3.527  16.468  1.00  0.00     0.278 C 
ENDBRANCH  13  18
BRANCH  14  20
ATOM     20  O   UNL     1      -0.178  -1.586  18.086  1.00  0.00    -0.493 OA
ATOM     21  C   UNL     1      -1.524  -1.156  18.263  1.00  0.00     0.278 C 
ENDBRANCH  14  20
ENDBRANCH   1  12
BRANCH   8  22
ATOM     22  O   UNL     1       3.946  -4.287  24.904  1.00  0.00    -0.490 OA
ATOM     23  C   UNL     1       4.122  -5.455  24.111  1.00  0.00     0.278 C 
ENDBRANCH   8  22
BRANCH  11  24
ATOM     24  O   UNL     1      -0.785  -2.639  27.517  1.00  0.00    -0.492 OA
ATOM     25  C   UNL     1      -0.989  -1.435  28.252  1.00  0.00     0.278 C 
ENDBRANCH  11  24
BRANCH   9  26
ATOM     26  O   UNL     1       3.687  -4.653  27.751  1.00  0.00    -0.490 OA
ATOM     27  C   UNL     1       3.639  -6.054  28.000  1.00  0.00     0.279 C 
ENDBRANCH   9  26
BRANCH  10  28
ATOM     28  O   UNL     1       1.468  -3.466  29.086  1.00  0.00    -0.490 OA
ATOM     29  C   UNL     1       0.912  -4.464  29.939  1.00  0.00     0.278 C 
ENDBRANCH  10  28
TORSDOF 7
ENDMDL
MODEL 8
REMARK VINA RESULT:    -5.037      2.556      8.012
REMARK INTER + INTRA:          -7.851
REMARK INTER:                  -7.140
REMARK INTRA:                  -0.711
REMARK UNBOUND:                -0.753
REMARK SMILES COc1ccc(-c2cc(=O)c3c(OC)c(OC)c(OC)c(OC)c3o2)cc1OC
REMARK SMILES IDX 7 1 8 2 9 3 10 4 11 5 24 6 25 7 21 8 18 9 15 10 12 11 6 12
REMARK SMILES IDX 3 13 27 14 4 15 26 16 5 17 2 18 1 19 28 20 29 21 22 22 23 23
REMARK SMILES IDX 13 24 14 25 19 26 20 27 16 28 17 29
REMARK H PARENT
REMARK Flexibility Score: inf
ROOT
ATOM      1  C   UNL     1      -1.482  -1.920  25.602  1.00  0.00     0.138 A 
ATOM      2  C   UNL     1      -1.498  -2.034  24.204  1.00  0.00     0.100 A 
ATOM      3  C   UNL     1      -0.422  -2.635  23.554  1.00  0.00     0.197 A 
ATOM      4  O   UNL     1      -0.455  -2.730  22.297  1.00  0.00    -0.289 OA
ATOM      5  C   UNL     1       0.676  -3.118  24.306  1.00  0.00     0.115 A 
ATOM      6  C   UNL     1       0.621  -2.953  25.708  1.00  0.00     0.188 A 
ATOM      7  O   UNL     1      -0.434  -2.377  26.280  1.00  0.00    -0.452 OA
ATOM      8  C   UNL     1       1.669  -3.386  26.523  1.00  0.00     0.209 A 
ATOM      9  C   UNL     1       2.823  -3.942  25.932  1.00  0.00     0.211 A 
ATOM     10  C   UNL     1       2.861  -4.200  24.541  1.00  0.00     0.208 A 
ATOM     11  C   UNL     1       1.794  -3.756  23.714  1.00  0.00     0.179 A 
ENDROOT
BRANCH   1  12
ATOM     12  C   UNL     1      -2.594  -1.283  26.352  1.00  0.00     0.021 A 
ATOM     13  C   UNL     1      -4.743  -0.075  27.730  1.00  0.00     0.160 A 
ATOM     14  C   UNL     1      -3.514  -0.259  28.379  1.00  0.00     0.161 A 
ATOM     15  C   UNL     1      -4.891  -0.483  26.392  1.00  0.00     0.051 A 
ATOM     16  C   UNL     1      -2.441  -0.857  27.686  1.00  0.00     0.062 A 
ATOM     17  C   UNL     1      -3.826  -1.076  25.712  1.00  0.00     0.016 A 
BRANCH  13  18
ATOM     18  O   UNL     1      -5.794   0.518  28.449  1.00  0.00    -0.493 OA
ATOM     19  C   UNL     1      -6.932   1.132  27.854  1.00  0.00     0.278 C 
ENDBRANCH  13  18
BRANCH  14  20
ATOM     20  O   UNL     1      -3.395   0.166  29.712  1.00  0.00    -0.493 OA
ATOM     21  C   UNL     1      -2.737   1.360  30.125  1.00  0.00     0.278 C 
ENDBRANCH  14  20
ENDBRANCH   1  12
BRANCH   8  22
ATOM     22  O   UNL     1       1.509  -3.229  27.912  1.00  0.00    -0.490 OA
ATOM     23  C   UNL     1       0.968  -4.198  28.803  1.00  0.00     0.278 C 
ENDBRANCH   8  22
BRANCH  11  24
ATOM     24  O   UNL     1       1.792  -3.929  22.312  1.00  0.00    -0.492 OA
ATOM     25  C   UNL     1       2.619  -3.273  21.356  1.00  0.00     0.278 C 
ENDBRANCH  11  24
BRANCH   9  26
ATOM     26  O   UNL     1       3.954  -4.175  26.713  1.00  0.00    -0.490 OA
ATOM     27  C   UNL     1       4.123  -5.411  27.400  1.00  0.00     0.279 C 
ENDBRANCH   9  26
BRANCH  10  28
ATOM     28  O   UNL     1       3.940  -4.883  23.954  1.00  0.00    -0.490 OA
ATOM     29  C   UNL     1       3.898  -6.208  23.427  1.00  0.00     0.278 C 
ENDBRANCH  10  28
TORSDOF 7
ENDMDL
MODEL 9
REMARK VINA RESULT:    -5.015      3.044      6.184
REMARK INTER + INTRA:          -7.820
REMARK INTER:                  -7.179
REMARK INTRA:                  -0.642
REMARK UNBOUND:                -0.753
REMARK SMILES COc1ccc(-c2cc(=O)c3c(OC)c(OC)c(OC)c(OC)c3o2)cc1OC
REMARK SMILES IDX 7 1 8 2 9 3 10 4 11 5 24 6 25 7 21 8 18 9 15 10 12 11 6 12
REMARK SMILES IDX 3 13 27 14 4 15 26 16 5 17 2 18 1 19 28 20 29 21 22 22 23 23
REMARK SMILES IDX 13 24 14 25 19 26 20 27 16 28 17 29
REMARK H PARENT
REMARK Flexibility Score: inf
ROOT
ATOM      1  C   UNL     1      -2.003  -1.541  24.599  1.00  0.00     0.138 A 
ATOM      2  C   UNL     1      -2.022  -1.391  25.993  1.00  0.00     0.100 A 
ATOM      3  C   UNL     1      -0.976  -1.913  26.753  1.00  0.00     0.197 A 
ATOM      4  O   UNL     1      -1.010  -1.766  28.005  1.00  0.00    -0.289 OA
ATOM      5  C   UNL     1       0.087  -2.594  26.114  1.00  0.00     0.115 A 
ATOM      6  C   UNL     1       0.025  -2.716  24.708  1.00  0.00     0.188 A 
ATOM      7  O   UNL     1      -0.994  -2.193  24.029  1.00  0.00    -0.452 OA
ATOM      8  C   UNL     1       1.024  -3.386  24.001  1.00  0.00     0.209 A 
ATOM      9  C   UNL     1       2.079  -4.002  24.706  1.00  0.00     0.211 A 
ATOM     10  C   UNL     1       2.211  -3.815  26.102  1.00  0.00     0.208 A 
ATOM     11  C   UNL     1       1.191  -3.134  26.820  1.00  0.00     0.179 A 
ENDROOT
BRANCH   1  12
ATOM     12  C   UNL     1      -3.091  -1.015  23.736  1.00  0.00     0.021 A 
ATOM     13  C   UNL     1      -5.153  -0.063  22.058  1.00  0.00     0.160 A 
ATOM     14  C   UNL     1      -4.764   0.684  23.178  1.00  0.00     0.161 A 
ATOM     15  C   UNL     1      -4.503  -1.277  21.773  1.00  0.00     0.051 A 
ATOM     16  C   UNL     1      -3.731   0.209  24.011  1.00  0.00     0.062 A 
ATOM     17  C   UNL     1      -3.481  -1.743  22.602  1.00  0.00     0.016 A 
BRANCH  13  18
ATOM     18  O   UNL     1      -6.191   0.434  21.252  1.00  0.00    -0.493 OA
ATOM     19  C   UNL     1      -6.138   0.521  19.832  1.00  0.00     0.278 C 
ENDBRANCH  13  18
BRANCH  14  20
ATOM     20  O   UNL     1      -5.427   1.896  23.432  1.00  0.00    -0.493 OA
ATOM     21  C   UNL     1      -6.302   2.125  24.533  1.00  0.00     0.278 C 
ENDBRANCH  14  20
ENDBRANCH   1  12
BRANCH   8  22
ATOM     22  O   UNL     1       0.910  -3.416  22.598  1.00  0.00    -0.490 OA
ATOM     23  C   UNL     1       1.753  -2.731  21.679  1.00  0.00     0.278 C 
ENDBRANCH   8  22
BRANCH  11  24
ATOM     24  O   UNL     1       1.229  -2.961  28.221  1.00  0.00    -0.492 OA
ATOM     25  C   UNL     1       0.988  -3.945  29.223  1.00  0.00     0.278 C 
ENDBRANCH  11  24
BRANCH   9  26
ATOM     26  O   UNL     1       2.957  -4.851  24.032  1.00  0.00    -0.490 OA
ATOM     27  C   UNL     1       2.532  -6.135  23.587  1.00  0.00     0.279 C 
ENDBRANCH   9  26
BRANCH  10  28
ATOM     28  O   UNL     1       3.331  -4.298  26.802  1.00  0.00    -0.490 OA
ATOM     29  C   UNL     1       3.522  -5.640  27.242  1.00  0.00     0.278 C 
ENDBRANCH  10  28
TORSDOF 7
ENDMDL
