MODEL 1
REMARK VINA RESULT:    -5.253      0.000      0.000
REMARK INTER + INTRA:          -5.561
REMARK INTER:                  -5.561
REMARK INTRA:                   0.000
REMARK UNBOUND:                 0.000
REMARK SMILES O=c1ccc2cc(O)c(O)cc2o1
REMARK SMILES IDX 4 1 3 2 2 3 1 4 13 5 12 6 11 7 9 8 7 9 6 10 5 11 8 12 10 14
REMARK H PARENT 8 13 10 15
REMARK Flexibility Score: inf
ROOT
ATOM      1  C   UNL     1      27.236  44.661  78.493  1.00  0.00     0.019 A 
ATOM      2  C   UNL     1      28.156  45.222  77.607  1.00  0.00     0.094 A 
ATOM      3  C   UNL     1      29.488  44.798  77.656  1.00  0.00     0.336 A 
ATOM      4  O   UNL     1      30.333  45.293  76.864  1.00  0.00    -0.246 OA
ATOM      5  O   UNL     1      29.871  43.875  78.534  1.00  0.00    -0.423 OA
ATOM      6  C   UNL     1      29.025  43.314  79.397  1.00  0.00     0.142 A 
ATOM      7  C   UNL     1      29.484  42.349  80.298  1.00  0.00     0.098 A 
ATOM      8  C   UNL     1      28.603  41.755  81.208  1.00  0.00     0.161 A 
ATOM      9  C   UNL     1      27.246  42.130  81.219  1.00  0.00     0.158 A 
ATOM     10  C   UNL     1      26.781  43.099  80.317  1.00  0.00     0.062 A 
ATOM     11  C   UNL     1      27.666  43.692  79.406  1.00  0.00     0.022 A 
ENDROOT
BRANCH   9  12
ATOM     12  O   UNL     1      26.367  41.539  82.125  1.00  0.00    -0.504 OA
ATOM     13  H   UNL     1      26.543  41.554  83.123  1.00  0.00     0.293 HD
ENDBRANCH   9  12
BRANCH   8  14
ATOM     14  O   UNL     1      29.091  40.794  82.094  1.00  0.00    -0.504 OA
ATOM     15  H   UNL     1      28.518  40.402  82.830  1.00  0.00     0.293 HD
ENDBRANCH   8  14
TORSDOF 2
ENDMDL
MODEL 2
REMARK VINA RESULT:    -5.194      2.374      4.817
REMARK INTER + INTRA:          -5.498
REMARK INTER:                  -5.498
REMARK INTRA:                   0.000
REMARK UNBOUND:                 0.000
REMARK SMILES O=c1ccc2cc(O)c(O)cc2o1
REMARK SMILES IDX 4 1 3 2 2 3 1 4 13 5 12 6 11 7 9 8 7 9 6 10 5 11 8 12 10 14
REMARK H PARENT 8 13 10 15
REMARK Flexibility Score: inf
ROOT
ATOM      1  C   UNL     1      28.750  40.678  80.369  1.00  0.00     0.019 A 
ATOM      2  C   UNL     1      28.285  41.477  81.413  1.00  0.00     0.094 A 
ATOM      3  C   UNL     1      28.121  42.849  81.195  1.00  0.00     0.336 A 
ATOM      4  O   UNL     1      27.701  43.586  82.125  1.00  0.00    -0.246 OA
ATOM      5  O   UNL     1      28.404  43.381  80.009  1.00  0.00    -0.423 OA
ATOM      6  C   UNL     1      28.850  42.655  78.986  1.00  0.00     0.142 A 
ATOM      7  C   UNL     1      29.131  43.269  77.762  1.00  0.00     0.098 A 
ATOM      8  C   UNL     1      29.601  42.514  76.682  1.00  0.00     0.161 A 
ATOM      9  C   UNL     1      29.792  41.127  76.826  1.00  0.00     0.158 A 
ATOM     10  C   UNL     1      29.511  40.505  78.052  1.00  0.00     0.062 A 
ATOM     11  C   UNL     1      29.041  41.265  79.132  1.00  0.00     0.022 A 
ENDROOT
BRANCH   9  12
ATOM     12  O   UNL     1      30.259  40.372  75.751  1.00  0.00    -0.504 OA
ATOM     13  H   UNL     1      29.757  39.558  75.415  1.00  0.00     0.293 HD
ENDBRANCH   9  12
BRANCH   8  14
ATOM     14  O   UNL     1      29.873  43.156  75.474  1.00  0.00    -0.504 OA
ATOM     15  H   UNL     1      29.254  43.858  75.087  1.00  0.00     0.293 HD
ENDBRANCH   8  14
TORSDOF 2
ENDMDL
MODEL 3
REMARK VINA RESULT:    -5.126      2.342      2.914
REMARK INTER + INTRA:          -5.426
REMARK INTER:                  -5.426
REMARK INTRA:                   0.000
REMARK UNBOUND:                 0.000
REMARK SMILES O=c1ccc2cc(O)c(O)cc2o1
REMARK SMILES IDX 4 1 3 2 2 3 1 4 13 5 12 6 11 7 9 8 7 9 6 10 5 11 8 12 10 14
REMARK H PARENT 8 13 10 15
REMARK Flexibility Score: inf
ROOT
ATOM      1  C   UNL     1      29.401  40.370  77.506  1.00  0.00     0.019 A 
ATOM      2  C   UNL     1      29.687  40.903  76.249  1.00  0.00     0.094 A 
ATOM      3  C   UNL     1      29.600  42.286  76.063  1.00  0.00     0.336 A 
ATOM      4  O   UNL     1      29.854  42.785  74.936  1.00  0.00    -0.246 OA
ATOM      5  O   UNL     1      29.249  43.081  77.071  1.00  0.00    -0.423 OA
ATOM      6  C   UNL     1      28.967  42.614  78.286  1.00  0.00     0.142 A 
ATOM      7  C   UNL     1      28.603  43.497  79.307  1.00  0.00     0.098 A 
ATOM      8  C   UNL     1      28.305  43.015  80.586  1.00  0.00     0.161 A 
ATOM      9  C   UNL     1      28.372  41.634  80.850  1.00  0.00     0.158 A 
ATOM     10  C   UNL     1      28.736  40.744  79.829  1.00  0.00     0.062 A 
ATOM     11  C   UNL     1      29.034  41.229  78.548  1.00  0.00     0.022 A 
ENDROOT
BRANCH   9  12
ATOM     12  O   UNL     1      28.076  41.152  82.124  1.00  0.00    -0.504 OA
ATOM     13  H   UNL     1      28.392  41.632  82.960  1.00  0.00     0.293 HD
ENDBRANCH   9  12
BRANCH   8  14
ATOM     14  O   UNL     1      27.946  43.922  81.584  1.00  0.00    -0.504 OA
ATOM     15  H   UNL     1      27.290  44.674  81.416  1.00  0.00     0.293 HD
ENDBRANCH   8  14
TORSDOF 2
ENDMDL
MODEL 4
REMARK VINA RESULT:    -5.124     12.946     14.630
REMARK INTER + INTRA:          -5.424
REMARK INTER:                  -5.424
REMARK INTRA:                   0.000
REMARK UNBOUND:                 0.000
REMARK SMILES O=c1ccc2cc(O)c(O)cc2o1
REMARK SMILES IDX 4 1 3 2 2 3 1 4 13 5 12 6 11 7 9 8 7 9 6 10 5 11 8 12 10 14
REMARK H PARENT 8 13 10 15
REMARK Flexibility Score: inf
ROOT
ATOM      1  C   UNL     1      16.938  36.180  78.800  1.00  0.00     0.019 A 
ATOM      2  C   UNL     1      16.376  35.394  77.794  1.00  0.00     0.094 A 
ATOM      3  C   UNL     1      15.115  35.733  77.293  1.00  0.00     0.336 A 
ATOM      4  O   UNL     1      14.592  35.036  76.385  1.00  0.00    -0.246 OA
ATOM      5  O   UNL     1      14.462  36.789  77.770  1.00  0.00    -0.423 OA
ATOM      6  C   UNL     1      14.962  37.566  78.730  1.00  0.00     0.142 A 
ATOM      7  C   UNL     1      14.230  38.664  79.192  1.00  0.00     0.098 A 
ATOM      8  C   UNL     1      14.747  39.485  80.200  1.00  0.00     0.161 A 
ATOM      9  C   UNL     1      16.011  39.207  80.753  1.00  0.00     0.158 A 
ATOM     10  C   UNL     1      16.749  38.107  80.293  1.00  0.00     0.062 A 
ATOM     11  C   UNL     1      16.229  37.286  79.283  1.00  0.00     0.022 A 
ENDROOT
BRANCH   9  12
ATOM     12  O   UNL     1      16.528  40.025  81.757  1.00  0.00    -0.504 OA
ATOM     13  H   UNL     1      16.084  40.900  82.011  1.00  0.00     0.293 HD
ENDBRANCH   9  12
BRANCH   8  14
ATOM     14  O   UNL     1      13.993  40.573  80.640  1.00  0.00    -0.504 OA
ATOM     15  H   UNL     1      13.249  40.473  81.320  1.00  0.00     0.293 HD
ENDBRANCH   8  14
TORSDOF 2
ENDMDL
MODEL 5
REMARK VINA RESULT:    -5.072     13.544     14.679
REMARK INTER + INTRA:          -5.368
REMARK INTER:                  -5.368
REMARK INTRA:                   0.000
REMARK UNBOUND:                 0.000
REMARK SMILES O=c1ccc2cc(O)c(O)cc2o1
REMARK SMILES IDX 4 1 3 2 2 3 1 4 13 5 12 6 11 7 9 8 7 9 6 10 5 11 8 12 10 14
REMARK H PARENT 8 13 10 15
REMARK Flexibility Score: inf
ROOT
ATOM      1  C   UNL     1      15.594  39.980  80.352  1.00  0.00     0.019 A 
ATOM      2  C   UNL     1      15.981  39.110  81.371  1.00  0.00     0.094 A 
ATOM      3  C   UNL     1      16.031  37.738  81.107  1.00  0.00     0.336 A 
ATOM      4  O   UNL     1      16.379  36.937  82.014  1.00  0.00    -0.246 OA
ATOM      5  O   UNL     1      15.713  37.270  79.903  1.00  0.00    -0.423 OA
ATOM      6  C   UNL     1      15.338  38.066  78.903  1.00  0.00     0.142 A 
ATOM      7  C   UNL     1      15.015  37.518  77.657  1.00  0.00     0.098 A 
ATOM      8  C   UNL     1      14.620  38.346  76.601  1.00  0.00     0.161 A 
ATOM      9  C   UNL     1      14.546  39.739  76.791  1.00  0.00     0.158 A 
ATOM     10  C   UNL     1      14.869  40.294  78.038  1.00  0.00     0.062 A 
ATOM     11  C   UNL     1      15.264  39.462  79.095  1.00  0.00     0.022 A 
ENDROOT
BRANCH   9  12
ATOM     12  O   UNL     1      14.153  40.566  75.739  1.00  0.00    -0.504 OA
ATOM     13  H   UNL     1      13.478  41.310  75.873  1.00  0.00     0.293 HD
ENDBRANCH   9  12
BRANCH   8  14
ATOM     14  O   UNL     1      14.305  37.769  75.371  1.00  0.00    -0.504 OA
ATOM     15  H   UNL     1      14.083  38.328  74.556  1.00  0.00     0.293 HD
ENDBRANCH   8  14
TORSDOF 2
ENDMDL
MODEL 6
REMARK VINA RESULT:    -5.031     12.195     14.257
REMARK INTER + INTRA:          -5.325
REMARK INTER:                  -5.325
REMARK INTRA:                   0.000
REMARK UNBOUND:                 0.000
REMARK SMILES O=c1ccc2cc(O)c(O)cc2o1
REMARK SMILES IDX 4 1 3 2 2 3 1 4 13 5 12 6 11 7 9 8 7 9 6 10 5 11 8 12 10 14
REMARK H PARENT 8 13 10 15
REMARK Flexibility Score: inf
ROOT
ATOM      1  C   UNL     1      16.318  37.381  79.110  1.00  0.00     0.019 A 
ATOM      2  C   UNL     1      17.336  37.210  80.048  1.00  0.00     0.094 A 
ATOM      3  C   UNL     1      17.493  38.163  81.059  1.00  0.00     0.336 A 
ATOM      4  O   UNL     1      18.405  38.026  81.915  1.00  0.00    -0.246 OA
ATOM      5  O   UNL     1      16.682  39.216  81.124  1.00  0.00    -0.423 OA
ATOM      6  C   UNL     1      15.699  39.417  80.249  1.00  0.00     0.142 A 
ATOM      7  C   UNL     1      14.878  40.543  80.367  1.00  0.00     0.098 A 
ATOM      8  C   UNL     1      13.842  40.762  79.452  1.00  0.00     0.161 A 
ATOM      9  C   UNL     1      13.623  39.846  78.407  1.00  0.00     0.158 A 
ATOM     10  C   UNL     1      14.444  38.715  78.283  1.00  0.00     0.062 A 
ATOM     11  C   UNL     1      15.481  38.498  79.201  1.00  0.00     0.022 A 
ENDROOT
BRANCH   9  12
ATOM     12  O   UNL     1      12.591  40.063  77.494  1.00  0.00    -0.504 OA
ATOM     13  H   UNL     1      12.241  39.318  76.902  1.00  0.00     0.293 HD
ENDBRANCH   9  12
BRANCH   8  14
ATOM     14  O   UNL     1      13.040  41.895  79.596  1.00  0.00    -0.504 OA
ATOM     15  H   UNL     1      13.144  42.531  80.377  1.00  0.00     0.293 HD
ENDBRANCH   8  14
TORSDOF 2
ENDMDL
MODEL 7
REMARK VINA RESULT:    -5.010      1.363      4.995
REMARK INTER + INTRA:          -5.303
REMARK INTER:                  -5.303
REMARK INTRA:                   0.000
REMARK UNBOUND:                 0.000
REMARK SMILES O=c1ccc2cc(O)c(O)cc2o1
REMARK SMILES IDX 4 1 3 2 2 3 1 4 13 5 12 6 11 7 9 8 7 9 6 10 5 11 8 12 10 14
REMARK H PARENT 8 13 10 15
REMARK Flexibility Score: inf
ROOT
ATOM      1  C   UNL     1      28.786  41.806  81.042  1.00  0.00     0.019 A 
ATOM      2  C   UNL     1      27.646  41.461  81.768  1.00  0.00     0.094 A 
ATOM      3  C   UNL     1      26.438  42.104  81.478  1.00  0.00     0.336 A 
ATOM      4  O   UNL     1      25.398  41.807  82.122  1.00  0.00    -0.246 OA
ATOM      5  O   UNL     1      26.379  43.030  80.524  1.00  0.00    -0.423 OA
ATOM      6  C   UNL     1      27.443  43.388  79.808  1.00  0.00     0.142 A 
ATOM      7  C   UNL     1      27.321  44.368  78.818  1.00  0.00     0.098 A 
ATOM      8  C   UNL     1      28.434  44.751  78.061  1.00  0.00     0.161 A 
ATOM      9  C   UNL     1      29.683  44.148  78.295  1.00  0.00     0.158 A 
ATOM     10  C   UNL     1      29.812  43.165  79.288  1.00  0.00     0.062 A 
ATOM     11  C   UNL     1      28.695  42.783  80.044  1.00  0.00     0.022 A 
ENDROOT
BRANCH   9  12
ATOM     12  O   UNL     1      30.793  44.528  77.541  1.00  0.00    -0.504 OA
ATOM     13  H   UNL     1      30.718  44.734  76.551  1.00  0.00     0.293 HD
ENDBRANCH   9  12
BRANCH   8  14
ATOM     14  O   UNL     1      28.280  45.731  77.080  1.00  0.00    -0.504 OA
ATOM     15  H   UNL     1      27.955  45.511  76.146  1.00  0.00     0.293 HD
ENDBRANCH   8  14
TORSDOF 2
ENDMDL
MODEL 8
REMARK VINA RESULT:    -4.987     12.532     14.287
REMARK INTER + INTRA:          -5.278
REMARK INTER:                  -5.278
REMARK INTRA:                   0.000
REMARK UNBOUND:                 0.000
REMARK SMILES O=c1ccc2cc(O)c(O)cc2o1
REMARK SMILES IDX 4 1 3 2 2 3 1 4 13 5 12 6 11 7 9 8 7 9 6 10 5 11 8 12 10 14
REMARK H PARENT 8 13 10 15
REMARK Flexibility Score: inf
ROOT
ATOM      1  C   UNL     1      15.884  36.007  77.872  1.00  0.00     0.019 A 
ATOM      2  C   UNL     1      14.871  36.175  76.928  1.00  0.00     0.094 A 
ATOM      3  C   UNL     1      14.055  37.308  77.004  1.00  0.00     0.336 A 
ATOM      4  O   UNL     1      13.136  37.478  76.161  1.00  0.00    -0.246 OA
ATOM      5  O   UNL     1      14.244  38.211  77.963  1.00  0.00    -0.423 OA
ATOM      6  C   UNL     1      15.199  38.090  78.883  1.00  0.00     0.142 A 
ATOM      7  C   UNL     1      15.350  39.071  79.867  1.00  0.00     0.098 A 
ATOM      8  C   UNL     1      16.350  38.951  80.839  1.00  0.00     0.161 A 
ATOM      9  C   UNL     1      17.211  37.837  80.826  1.00  0.00     0.158 A 
ATOM     10  C   UNL     1      17.063  36.849  79.841  1.00  0.00     0.062 A 
ATOM     11  C   UNL     1      16.060  36.972  78.869  1.00  0.00     0.022 A 
ENDROOT
BRANCH   9  12
ATOM     12  O   UNL     1      18.208  37.716  81.793  1.00  0.00    -0.504 OA
ATOM     13  H   UNL     1      19.039  37.158  81.631  1.00  0.00     0.293 HD
ENDBRANCH   9  12
BRANCH   8  14
ATOM     14  O   UNL     1      16.476  39.947  81.807  1.00  0.00    -0.504 OA
ATOM     15  H   UNL     1      16.235  39.787  82.777  1.00  0.00     0.293 HD
ENDBRANCH   8  14
TORSDOF 2
ENDMDL
MODEL 9
REMARK VINA RESULT:    -4.939     12.535     14.153
REMARK INTER + INTRA:          -5.228
REMARK INTER:                  -5.228
REMARK INTRA:                   0.000
REMARK UNBOUND:                 0.000
REMARK SMILES O=c1ccc2cc(O)c(O)cc2o1
REMARK SMILES IDX 4 1 3 2 2 3 1 4 13 5 12 6 11 7 9 8 7 9 6 10 5 11 8 12 10 14
REMARK H PARENT 8 13 10 15
REMARK Flexibility Score: inf
ROOT
ATOM      1  C   UNL     1      14.193  38.136  77.894  1.00  0.00     0.019 A 
ATOM      2  C   UNL     1      14.060  37.100  76.969  1.00  0.00     0.094 A 
ATOM      3  C   UNL     1      14.929  36.007  77.047  1.00  0.00     0.336 A 
ATOM      4  O   UNL     1      14.824  35.062  76.222  1.00  0.00    -0.246 OA
ATOM      5  O   UNL     1      15.867  35.957  77.989  1.00  0.00    -0.423 OA
ATOM      6  C   UNL     1      16.028  36.923  78.891  1.00  0.00     0.142 A 
ATOM      7  C   UNL     1      17.031  36.817  79.859  1.00  0.00     0.098 A 
ATOM      8  C   UNL     1      17.208  37.828  80.810  1.00  0.00     0.161 A 
ATOM      9  C   UNL     1      16.371  38.959  80.795  1.00  0.00     0.158 A 
ATOM     10  C   UNL     1      15.363  39.072  79.826  1.00  0.00     0.062 A 
ATOM     11  C   UNL     1      15.188  38.058  78.874  1.00  0.00     0.022 A 
ENDROOT
BRANCH   9  12
ATOM     12  O   UNL     1      16.545  39.968  81.742  1.00  0.00    -0.504 OA
ATOM     13  H   UNL     1      15.788  40.263  82.348  1.00  0.00     0.293 HD
ENDBRANCH   9  12
BRANCH   8  14
ATOM     14  O   UNL     1      18.217  37.692  81.762  1.00  0.00    -0.504 OA
ATOM     15  H   UNL     1      18.294  38.315  82.557  1.00  0.00     0.293 HD
ENDBRANCH   8  14
TORSDOF 2
ENDMDL
