MODEL 1
REMARK VINA RESULT:    -2.761      0.000      0.000
REMARK INTER + INTRA:          -7.359
REMARK INTER:                  -5.989
REMARK INTRA:                  -1.370
REMARK UNBOUND:                -1.370
REMARK SMILES CCCCCCCCCCCCCCCCCCCCCC(=O)[O-]
REMARK SMILES IDX 12 1 11 2 10 3 9 4 8 5 7 6 6 7 5 8 4 9 3 10 2 11 1 12 13 13
REMARK SMILES IDX 14 14 15 15 16 16 17 17 18 18 19 19 20 20 21 21 22 22 23 23
REMARK SMILES IDX 24 24
REMARK H PARENT
REMARK Flexibility Score: inf
ROOT
ATOM      1  C   UNL     1      -4.997  35.940  23.145  1.00  0.00     0.000 C 
ENDROOT
BRANCH   1   2
ATOM      2  C   UNL     1      -6.118  35.583  22.155  1.00  0.00     0.000 C 
BRANCH   2   3
ATOM      3  C   UNL     1      -6.091  36.441  20.879  1.00  0.00     0.000 C 
BRANCH   3   4
ATOM      4  C   UNL     1      -5.922  35.655  19.564  1.00  0.00    -0.000 C 
BRANCH   4   5
ATOM      5  C   UNL     1      -4.452  35.468  19.129  1.00  0.00    -0.000 C 
BRANCH   5   6
ATOM      6  C   UNL     1      -4.315  35.330  17.603  1.00  0.00    -0.000 C 
BRANCH   6   7
ATOM      7  C   UNL     1      -3.645  36.552  16.952  1.00  0.00    -0.000 C 
BRANCH   7   8
ATOM      8  C   UNL     1      -2.203  36.268  16.495  1.00  0.00    -0.000 C 
BRANCH   8   9
ATOM      9  C   UNL     1      -1.618  37.400  15.632  1.00  0.00    -0.000 C 
BRANCH   9  10
ATOM     10  C   UNL     1      -2.151  37.459  14.186  1.00  0.00    -0.000 C 
BRANCH  10  11
ATOM     11  C   UNL     1      -3.640  37.831  14.059  1.00  0.00    -0.003 C 
ATOM     12  C   UNL     1      -3.905  39.317  14.298  1.00  0.00     0.004 C 
ENDBRANCH  10  11
ENDBRANCH   9  10
ENDBRANCH   8   9
ENDBRANCH   7   8
ENDBRANCH   6   7
ENDBRANCH   5   6
ENDBRANCH   4   5
ENDBRANCH   3   4
ENDBRANCH   2   3
ENDBRANCH   1   2
BRANCH   1  13
ATOM     13  C   UNL     1      -5.533  36.364  24.524  1.00  0.00     0.000 C 
BRANCH  13  14
ATOM     14  C   UNL     1      -4.646  37.398  25.247  1.00  0.00     0.000 C 
BRANCH  14  15
ATOM     15  C   UNL     1      -5.349  38.757  25.423  1.00  0.00     0.000 C 
BRANCH  15  16
ATOM     16  C   UNL     1      -5.648  39.449  24.082  1.00  0.00     0.000 C 
BRANCH  16  17
ATOM     17  C   UNL     1      -4.372  39.843  23.320  1.00  0.00     0.000 C 
BRANCH  17  18
ATOM     18  C   UNL     1      -4.527  39.584  21.812  1.00  0.00     0.000 C 
BRANCH  18  19
ATOM     19  C   UNL     1      -3.467  38.611  21.270  1.00  0.00     0.000 C 
BRANCH  19  20
ATOM     20  C   UNL     1      -3.259  38.747  19.753  1.00  0.00     0.006 C 
BRANCH  20  21
ATOM     21  C   UNL     1      -2.144  37.812  19.273  1.00  0.00     0.053 C 
BRANCH  21  22
ATOM     22  C   UNL     1      -0.858  38.561  19.122  1.00  0.00     0.041 C 
ATOM     23  O   UNL     1      -0.867  39.804  18.923  1.00  0.00    -0.550 OA
ATOM     24  O   UNL     1       0.353  37.882  19.174  1.00  0.00    -0.550 OA
ENDBRANCH  21  22
ENDBRANCH  20  21
ENDBRANCH  19  20
ENDBRANCH  18  19
ENDBRANCH  17  18
ENDBRANCH  16  17
ENDBRANCH  15  16
ENDBRANCH  14  15
ENDBRANCH  13  14
ENDBRANCH   1  13
TORSDOF 20
ENDMDL
MODEL 2
REMARK VINA RESULT:    -2.593      2.162      3.780
REMARK INTER + INTRA:          -6.996
REMARK INTER:                  -6.878
REMARK INTRA:                  -0.118
REMARK UNBOUND:                -1.370
REMARK SMILES CCCCCCCCCCCCCCCCCCCCCC(=O)[O-]
REMARK SMILES IDX 12 1 11 2 10 3 9 4 8 5 7 6 6 7 5 8 4 9 3 10 2 11 1 12 13 13
REMARK SMILES IDX 14 14 15 15 16 16 17 17 18 18 19 19 20 20 21 21 22 22 23 23
REMARK SMILES IDX 24 24
REMARK H PARENT
REMARK Flexibility Score: inf
ROOT
ATOM      1  C   UNL     1      -3.910  35.655  21.143  1.00  0.00     0.000 C 
ENDROOT
BRANCH   1   2
ATOM      2  C   UNL     1      -4.527  35.871  19.751  1.00  0.00     0.000 C 
BRANCH   2   3
ATOM      3  C   UNL     1      -4.848  37.346  19.457  1.00  0.00     0.000 C 
BRANCH   3   4
ATOM      4  C   UNL     1      -3.665  38.183  18.934  1.00  0.00    -0.000 C 
BRANCH   4   5
ATOM      5  C   UNL     1      -2.298  37.472  19.040  1.00  0.00    -0.000 C 
BRANCH   5   6
ATOM      6  C   UNL     1      -1.289  38.006  18.007  1.00  0.00    -0.000 C 
BRANCH   6   7
ATOM      7  C   UNL     1      -1.922  38.253  16.628  1.00  0.00    -0.000 C 
BRANCH   7   8
ATOM      8  C   UNL     1      -2.816  37.088  16.166  1.00  0.00    -0.000 C 
BRANCH   8   9
ATOM      9  C   UNL     1      -2.888  36.964  14.634  1.00  0.00    -0.000 C 
BRANCH   9  10
ATOM     10  C   UNL     1      -3.845  37.957  13.945  1.00  0.00    -0.000 C 
BRANCH  10  11
ATOM     11  C   UNL     1      -3.568  39.441  14.247  1.00  0.00    -0.003 C 
ATOM     12  C   UNL     1      -4.764  40.343  13.949  1.00  0.00     0.004 C 
ENDBRANCH  10  11
ENDBRANCH   9  10
ENDBRANCH   8   9
ENDBRANCH   7   8
ENDBRANCH   6   7
ENDBRANCH   5   6
ENDBRANCH   4   5
ENDBRANCH   3   4
ENDBRANCH   2   3
ENDBRANCH   1   2
BRANCH   1  13
ATOM     13  C   UNL     1      -4.591  36.502  22.234  1.00  0.00     0.000 C 
BRANCH  13  14
ATOM     14  C   UNL     1      -6.035  36.066  22.552  1.00  0.00     0.000 C 
BRANCH  14  15
ATOM     15  C   UNL     1      -6.098  35.003  23.665  1.00  0.00     0.000 C 
BRANCH  15  16
ATOM     16  C   UNL     1      -6.125  35.619  25.073  1.00  0.00     0.000 C 
BRANCH  16  17
ATOM     17  C   UNL     1      -5.993  37.151  25.054  1.00  0.00     0.000 C 
BRANCH  17  18
ATOM     18  C   UNL     1      -4.556  37.586  25.386  1.00  0.00     0.000 C 
BRANCH  18  19
ATOM     19  C   UNL     1      -4.149  38.879  24.660  1.00  0.00     0.000 C 
BRANCH  19  20
ATOM     20  C   UNL     1      -5.359  39.667  24.133  1.00  0.00     0.006 C 
BRANCH  20  21
ATOM     21  C   UNL     1      -4.920  40.696  23.086  1.00  0.00     0.053 C 
BRANCH  21  22
ATOM     22  C   UNL     1      -5.647  40.476  21.797  1.00  0.00     0.041 C 
ATOM     23  O   UNL     1      -5.944  39.310  21.426  1.00  0.00    -0.550 OA
ATOM     24  O   UNL     1      -5.973  41.558  20.988  1.00  0.00    -0.550 OA
ENDBRANCH  21  22
ENDBRANCH  20  21
ENDBRANCH  19  20
ENDBRANCH  18  19
ENDBRANCH  17  18
ENDBRANCH  16  17
ENDBRANCH  15  16
ENDBRANCH  14  15
ENDBRANCH  13  14
ENDBRANCH   1  13
TORSDOF 20
ENDMDL
MODEL 3
REMARK VINA RESULT:    -2.318      2.137      6.305
REMARK INTER + INTRA:          -6.398
REMARK INTER:                  -5.309
REMARK INTRA:                  -1.089
REMARK UNBOUND:                -1.370
REMARK SMILES CCCCCCCCCCCCCCCCCCCCCC(=O)[O-]
REMARK SMILES IDX 12 1 11 2 10 3 9 4 8 5 7 6 6 7 5 8 4 9 3 10 2 11 1 12 13 13
REMARK SMILES IDX 14 14 15 15 16 16 17 17 18 18 19 19 20 20 21 21 22 22 23 23
REMARK SMILES IDX 24 24
REMARK H PARENT
REMARK Flexibility Score: inf
ROOT
ATOM      1  C   UNL     1      -4.495  36.526  21.052  1.00  0.00     0.000 C 
ENDROOT
BRANCH   1   2
ATOM      2  C   UNL     1      -3.829  35.253  21.600  1.00  0.00     0.000 C 
BRANCH   2   3
ATOM      3  C   UNL     1      -4.034  35.068  23.113  1.00  0.00     0.000 C 
BRANCH   3   4
ATOM      4  C   UNL     1      -5.504  35.020  23.574  1.00  0.00    -0.000 C 
BRANCH   4   5
ATOM      5  C   UNL     1      -6.117  36.408  23.860  1.00  0.00    -0.000 C 
BRANCH   5   6
ATOM      6  C   UNL     1      -5.720  36.940  25.249  1.00  0.00    -0.000 C 
BRANCH   6   7
ATOM      7  C   UNL     1      -4.554  37.941  25.192  1.00  0.00    -0.000 C 
BRANCH   7   8
ATOM      8  C   UNL     1      -4.985  39.328  24.684  1.00  0.00    -0.000 C 
BRANCH   8   9
ATOM      9  C   UNL     1      -3.957  39.956  23.725  1.00  0.00    -0.000 C 
BRANCH   9  10
ATOM     10  C   UNL     1      -4.555  40.578  22.446  1.00  0.00    -0.000 C 
BRANCH  10  11
ATOM     11  C   UNL     1      -5.690  39.764  21.799  1.00  0.00    -0.003 C 
ATOM     12  C   UNL     1      -5.819  40.013  20.297  1.00  0.00     0.004 C 
ENDBRANCH  10  11
ENDBRANCH   9  10
ENDBRANCH   8   9
ENDBRANCH   7   8
ENDBRANCH   6   7
ENDBRANCH   5   6
ENDBRANCH   4   5
ENDBRANCH   3   4
ENDBRANCH   2   3
ENDBRANCH   1   2
BRANCH   1  13
ATOM     13  C   UNL     1      -5.770  36.230  20.242  1.00  0.00     0.000 C 
BRANCH  13  14
ATOM     14  C   UNL     1      -5.497  35.713  18.815  1.00  0.00     0.000 C 
BRANCH  14  15
ATOM     15  C   UNL     1      -4.070  36.033  18.335  1.00  0.00     0.000 C 
BRANCH  15  16
ATOM     16  C   UNL     1      -3.773  37.543  18.323  1.00  0.00     0.000 C 
BRANCH  16  17
ATOM     17  C   UNL     1      -2.357  37.873  18.822  1.00  0.00     0.000 C 
BRANCH  17  18
ATOM     18  C   UNL     1      -1.400  38.126  17.646  1.00  0.00     0.000 C 
BRANCH  18  19
ATOM     19  C   UNL     1      -1.249  36.896  16.735  1.00  0.00     0.000 C 
BRANCH  19  20
ATOM     20  C   UNL     1      -2.149  36.965  15.492  1.00  0.00     0.006 C 
BRANCH  20  21
ATOM     21  C   UNL     1      -2.285  38.410  15.001  1.00  0.00     0.053 C 
BRANCH  21  22
ATOM     22  C   UNL     1      -3.619  38.624  14.359  1.00  0.00     0.041 C 
ATOM     23  O   UNL     1      -4.106  39.781  14.275  1.00  0.00    -0.550 OA
ATOM     24  O   UNL     1      -4.341  37.538  13.877  1.00  0.00    -0.550 OA
ENDBRANCH  21  22
ENDBRANCH  20  21
ENDBRANCH  19  20
ENDBRANCH  18  19
ENDBRANCH  17  18
ENDBRANCH  16  17
ENDBRANCH  15  16
ENDBRANCH  14  15
ENDBRANCH  13  14
ENDBRANCH   1  13
TORSDOF 20
ENDMDL
MODEL 4
REMARK VINA RESULT:    -2.210      1.999      5.515
REMARK INTER + INTRA:          -6.165
REMARK INTER:                  -5.213
REMARK INTRA:                  -0.952
REMARK UNBOUND:                -1.370
REMARK SMILES CCCCCCCCCCCCCCCCCCCCCC(=O)[O-]
REMARK SMILES IDX 12 1 11 2 10 3 9 4 8 5 7 6 6 7 5 8 4 9 3 10 2 11 1 12 13 13
REMARK SMILES IDX 14 14 15 15 16 16 17 17 18 18 19 19 20 20 21 21 22 22 23 23
REMARK SMILES IDX 24 24
REMARK H PARENT
REMARK Flexibility Score: inf
ROOT
ATOM      1  C   UNL     1      -5.165  36.168  24.170  1.00  0.00     0.000 C 
ENDROOT
BRANCH   1   2
ATOM      2  C   UNL     1      -6.092  36.748  25.251  1.00  0.00     0.000 C 
BRANCH   2   3
ATOM      3  C   UNL     1      -5.859  38.247  25.504  1.00  0.00     0.000 C 
BRANCH   3   4
ATOM      4  C   UNL     1      -4.387  38.656  25.707  1.00  0.00    -0.000 C 
BRANCH   4   5
ATOM      5  C   UNL     1      -3.734  39.293  24.461  1.00  0.00    -0.000 C 
BRANCH   5   6
ATOM      6  C   UNL     1      -4.695  40.248  23.731  1.00  0.00    -0.000 C 
BRANCH   6   7
ATOM      7  C   UNL     1      -5.113  39.729  22.345  1.00  0.00    -0.000 C 
BRANCH   7   8
ATOM      8  C   UNL     1      -3.947  39.082  21.576  1.00  0.00    -0.000 C 
BRANCH   8   9
ATOM      9  C   UNL     1      -4.249  38.905  20.077  1.00  0.00    -0.000 C 
BRANCH   9  10
ATOM     10  C   UNL     1      -3.026  38.553  19.204  1.00  0.00    -0.000 C 
BRANCH  10  11
ATOM     11  C   UNL     1      -1.671  39.007  19.774  1.00  0.00    -0.003 C 
ATOM     12  C   UNL     1      -0.480  38.456  18.990  1.00  0.00     0.004 C 
ENDBRANCH  10  11
ENDBRANCH   9  10
ENDBRANCH   8   9
ENDBRANCH   7   8
ENDBRANCH   6   7
ENDBRANCH   5   6
ENDBRANCH   4   5
ENDBRANCH   3   4
ENDBRANCH   2   3
ENDBRANCH   1   2
BRANCH   1  13
ATOM     13  C   UNL     1      -5.891  35.196  23.222  1.00  0.00     0.000 C 
BRANCH  13  14
ATOM     14  C   UNL     1      -6.125  35.763  21.807  1.00  0.00     0.000 C 
BRANCH  14  15
ATOM     15  C   UNL     1      -4.838  35.789  20.962  1.00  0.00     0.000 C 
BRANCH  15  16
ATOM     16  C   UNL     1      -5.119  35.940  19.458  1.00  0.00     0.000 C 
BRANCH  16  17
ATOM     17  C   UNL     1      -4.180  35.087  18.590  1.00  0.00     0.000 C 
BRANCH  17  18
ATOM     18  C   UNL     1      -4.009  35.701  17.191  1.00  0.00     0.000 C 
BRANCH  18  19
ATOM     19  C   UNL     1      -2.927  36.793  17.156  1.00  0.00     0.000 C 
BRANCH  19  20
ATOM     20  C   UNL     1      -2.174  36.838  15.817  1.00  0.00     0.006 C 
BRANCH  20  21
ATOM     21  C   UNL     1      -2.256  38.236  15.195  1.00  0.00     0.053 C 
BRANCH  21  22
ATOM     22  C   UNL     1      -3.523  38.390  14.414  1.00  0.00     0.041 C 
ATOM     23  O   UNL     1      -4.003  39.534  14.202  1.00  0.00    -0.550 OA
ATOM     24  O   UNL     1      -4.190  37.265  13.942  1.00  0.00    -0.550 OA
ENDBRANCH  21  22
ENDBRANCH  20  21
ENDBRANCH  19  20
ENDBRANCH  18  19
ENDBRANCH  17  18
ENDBRANCH  16  17
ENDBRANCH  15  16
ENDBRANCH  14  15
ENDBRANCH  13  14
ENDBRANCH   1  13
TORSDOF 20
ENDMDL
MODEL 5
REMARK VINA RESULT:    -1.991      1.163      5.633
REMARK INTER + INTRA:          -5.689
REMARK INTER:                  -3.707
REMARK INTRA:                  -1.981
REMARK UNBOUND:                -1.370
REMARK SMILES CCCCCCCCCCCCCCCCCCCCCC(=O)[O-]
REMARK SMILES IDX 12 1 11 2 10 3 9 4 8 5 7 6 6 7 5 8 4 9 3 10 2 11 1 12 13 13
REMARK SMILES IDX 14 14 15 15 16 16 17 17 18 18 19 19 20 20 21 21 22 22 23 23
REMARK SMILES IDX 24 24
REMARK H PARENT
REMARK Flexibility Score: inf
ROOT
ATOM      1  C   UNL     1      -4.673  35.791  22.628  1.00  0.00     0.000 C 
ENDROOT
BRANCH   1   2
ATOM      2  C   UNL     1      -6.084  35.916  23.225  1.00  0.00     0.000 C 
BRANCH   2   3
ATOM      3  C   UNL     1      -6.125  36.773  24.501  1.00  0.00     0.000 C 
BRANCH   3   4
ATOM      4  C   UNL     1      -4.758  37.015  25.172  1.00  0.00    -0.000 C 
BRANCH   4   5
ATOM      5  C   UNL     1      -4.618  38.406  25.827  1.00  0.00    -0.000 C 
BRANCH   5   6
ATOM      6  C   UNL     1      -5.166  39.526  24.924  1.00  0.00    -0.000 C 
BRANCH   6   7
ATOM      7  C   UNL     1      -4.212  39.884  23.772  1.00  0.00    -0.000 C 
BRANCH   7   8
ATOM      8  C   UNL     1      -4.952  40.404  22.527  1.00  0.00    -0.000 C 
BRANCH   8   9
ATOM      9  C   UNL     1      -5.645  39.282  21.734  1.00  0.00    -0.000 C 
BRANCH   9  10
ATOM     10  C   UNL     1      -5.635  39.465  20.202  1.00  0.00    -0.000 C 
BRANCH  10  11
ATOM     11  C   UNL     1      -4.364  38.960  19.497  1.00  0.00    -0.003 C 
ATOM     12  C   UNL     1      -3.338  38.374  20.467  1.00  0.00     0.004 C 
ENDBRANCH  10  11
ENDBRANCH   9  10
ENDBRANCH   8   9
ENDBRANCH   7   8
ENDBRANCH   6   7
ENDBRANCH   5   6
ENDBRANCH   4   5
ENDBRANCH   3   4
ENDBRANCH   2   3
ENDBRANCH   1   2
BRANCH   1  13
ATOM     13  C   UNL     1      -4.688  35.606  21.099  1.00  0.00     0.000 C 
BRANCH  13  14
ATOM     14  C   UNL     1      -6.070  35.834  20.456  1.00  0.00     0.000 C 
BRANCH  14  15
ATOM     15  C   UNL     1      -6.072  35.544  18.944  1.00  0.00     0.000 C 
BRANCH  15  16
ATOM     16  C   UNL     1      -4.677  35.181  18.408  1.00  0.00     0.000 C 
BRANCH  16  17
ATOM     17  C   UNL     1      -3.930  36.394  17.829  1.00  0.00     0.000 C 
BRANCH  17  18
ATOM     18  C   UNL     1      -3.099  35.995  16.598  1.00  0.00     0.000 C 
BRANCH  18  19
ATOM     19  C   UNL     1      -2.579  37.214  15.818  1.00  0.00     0.000 C 
BRANCH  19  20
ATOM     20  C   UNL     1      -1.846  38.222  16.717  1.00  0.00     0.006 C 
BRANCH  20  21
ATOM     21  C   UNL     1      -0.832  37.508  17.617  1.00  0.00     0.053 C 
BRANCH  21  22
ATOM     22  C   UNL     1      -0.439  38.385  18.764  1.00  0.00     0.041 C 
ATOM     23  O   UNL     1      -0.084  37.877  19.859  1.00  0.00    -0.550 OA
ATOM     24  O   UNL     1      -0.492  39.768  18.632  1.00  0.00    -0.550 OA
ENDBRANCH  21  22
ENDBRANCH  20  21
ENDBRANCH  19  20
ENDBRANCH  18  19
ENDBRANCH  17  18
ENDBRANCH  16  17
ENDBRANCH  15  16
ENDBRANCH  14  15
ENDBRANCH  13  14
ENDBRANCH   1  13
TORSDOF 20
ENDMDL
MODEL 6
REMARK VINA RESULT:    -1.706      1.153      6.849
REMARK INTER + INTRA:          -5.072
REMARK INTER:                  -3.371
REMARK INTRA:                  -1.701
REMARK UNBOUND:                -1.370
REMARK SMILES CCCCCCCCCCCCCCCCCCCCCC(=O)[O-]
REMARK SMILES IDX 12 1 11 2 10 3 9 4 8 5 7 6 6 7 5 8 4 9 3 10 2 11 1 12 13 13
REMARK SMILES IDX 14 14 15 15 16 16 17 17 18 18 19 19 20 20 21 21 22 22 23 23
REMARK SMILES IDX 24 24
REMARK H PARENT
REMARK Flexibility Score: inf
ROOT
ATOM      1  C   UNL     1      -4.364  36.799  20.514  1.00  0.00     0.000 C 
ENDROOT
BRANCH   1   2
ATOM      2  C   UNL     1      -4.160  38.322  20.467  1.00  0.00     0.000 C 
BRANCH   2   3
ATOM      3  C   UNL     1      -5.463  39.097  20.210  1.00  0.00     0.000 C 
BRANCH   3   4
ATOM      4  C   UNL     1      -5.711  40.293  21.150  1.00  0.00    -0.000 C 
BRANCH   4   5
ATOM      5  C   UNL     1      -5.645  39.936  22.651  1.00  0.00    -0.000 C 
BRANCH   5   6
ATOM      6  C   UNL     1      -4.205  39.649  23.113  1.00  0.00    -0.000 C 
BRANCH   6   7
ATOM      7  C   UNL     1      -4.090  39.488  24.638  1.00  0.00    -0.000 C 
BRANCH   7   8
ATOM      8  C   UNL     1      -5.389  38.973  25.282  1.00  0.00    -0.000 C 
BRANCH   8   9
ATOM      9  C   UNL     1      -5.259  37.537  25.820  1.00  0.00    -0.000 C 
BRANCH   9  10
ATOM     10  C   UNL     1      -6.125  36.488  25.093  1.00  0.00    -0.000 C 
BRANCH  10  11
ATOM     11  C   UNL     1      -5.760  36.259  23.615  1.00  0.00    -0.003 C 
ATOM     12  C   UNL     1      -5.461  34.795  23.295  1.00  0.00     0.004 C 
ENDBRANCH  10  11
ENDBRANCH   9  10
ENDBRANCH   8   9
ENDBRANCH   7   8
ENDBRANCH   6   7
ENDBRANCH   5   6
ENDBRANCH   4   5
ENDBRANCH   3   4
ENDBRANCH   2   3
ENDBRANCH   1   2
BRANCH   1  13
ATOM     13  C   UNL     1      -5.698  36.357  19.887  1.00  0.00     0.000 C 
BRANCH  13  14
ATOM     14  C   UNL     1      -5.537  35.455  18.647  1.00  0.00     0.000 C 
BRANCH  14  15
ATOM     15  C   UNL     1      -4.061  35.200  18.292  1.00  0.00     0.000 C 
BRANCH  15  16
ATOM     16  C   UNL     1      -3.676  35.766  16.914  1.00  0.00     0.000 C 
BRANCH  16  17
ATOM     17  C   UNL     1      -3.753  37.300  16.860  1.00  0.00     0.000 C 
BRANCH  17  18
ATOM     18  C   UNL     1      -2.974  37.850  15.653  1.00  0.00     0.000 C 
BRANCH  18  19
ATOM     19  C   UNL     1      -1.616  37.155  15.462  1.00  0.00     0.000 C 
BRANCH  19  20
ATOM     20  C   UNL     1      -0.889  36.900  16.792  1.00  0.00     0.006 C 
BRANCH  20  21
ATOM     21  C   UNL     1      -0.300  38.202  17.346  1.00  0.00     0.053 C 
BRANCH  21  22
ATOM     22  C   UNL     1      -0.723  38.407  18.766  1.00  0.00     0.041 C 
ATOM     23  O   UNL     1      -0.855  37.422  19.538  1.00  0.00    -0.550 OA
ATOM     24  O   UNL     1      -1.000  39.687  19.232  1.00  0.00    -0.550 OA
ENDBRANCH  21  22
ENDBRANCH  20  21
ENDBRANCH  19  20
ENDBRANCH  18  19
ENDBRANCH  17  18
ENDBRANCH  16  17
ENDBRANCH  15  16
ENDBRANCH  14  15
ENDBRANCH  13  14
ENDBRANCH   1  13
TORSDOF 20
ENDMDL
MODEL 7
REMARK VINA RESULT:    -1.476      2.071      6.837
REMARK INTER + INTRA:          -4.572
REMARK INTER:                  -3.277
REMARK INTRA:                  -1.296
REMARK UNBOUND:                -1.370
REMARK SMILES CCCCCCCCCCCCCCCCCCCCCC(=O)[O-]
REMARK SMILES IDX 12 1 11 2 10 3 9 4 8 5 7 6 6 7 5 8 4 9 3 10 2 11 1 12 13 13
REMARK SMILES IDX 14 14 15 15 16 16 17 17 18 18 19 19 20 20 21 21 22 22 23 23
REMARK SMILES IDX 24 24
REMARK H PARENT
REMARK Flexibility Score: inf
ROOT
ATOM      1  C   UNL     1      -5.552  39.479  20.423  1.00  0.00     0.000 C 
ENDROOT
BRANCH   1   2
ATOM      2  C   UNL     1      -5.766  40.198  21.766  1.00  0.00     0.000 C 
BRANCH   2   3
ATOM      3  C   UNL     1      -4.472  40.347  22.583  1.00  0.00     0.000 C 
BRANCH   3   4
ATOM      4  C   UNL     1      -4.288  39.316  23.713  1.00  0.00    -0.000 C 
BRANCH   4   5
ATOM      5  C   UNL     1      -4.483  39.897  25.131  1.00  0.00    -0.000 C 
BRANCH   5   6
ATOM      6  C   UNL     1      -5.045  38.852  26.110  1.00  0.00    -0.000 C 
BRANCH   6   7
ATOM      7  C   UNL     1      -6.125  37.960  25.475  1.00  0.00    -0.000 C 
BRANCH   7   8
ATOM      8  C   UNL     1      -5.563  36.626  24.952  1.00  0.00    -0.000 C 
BRANCH   8   9
ATOM      9  C   UNL     1      -5.953  36.350  23.489  1.00  0.00    -0.000 C 
BRANCH   9  10
ATOM     10  C   UNL     1      -5.343  35.068  22.883  1.00  0.00    -0.000 C 
BRANCH  10  11
ATOM     11  C   UNL     1      -3.806  35.000  22.925  1.00  0.00    -0.003 C 
ATOM     12  C   UNL     1      -3.209  34.285  21.713  1.00  0.00     0.004 C 
ENDBRANCH  10  11
ENDBRANCH   9  10
ENDBRANCH   8   9
ENDBRANCH   7   8
ENDBRANCH   6   7
ENDBRANCH   5   6
ENDBRANCH   4   5
ENDBRANCH   3   4
ENDBRANCH   2   3
ENDBRANCH   1   2
BRANCH   1  13
ATOM     13  C   UNL     1      -4.125  38.923  20.267  1.00  0.00     0.000 C 
BRANCH  13  14
ATOM     14  C   UNL     1      -4.019  37.403  20.501  1.00  0.00     0.000 C 
BRANCH  14  15
ATOM     15  C   UNL     1      -5.306  36.654  20.109  1.00  0.00     0.000 C 
BRANCH  15  16
ATOM     16  C   UNL     1      -5.240  36.063  18.691  1.00  0.00     0.000 C 
BRANCH  16  17
ATOM     17  C   UNL     1      -3.821  35.618  18.298  1.00  0.00     0.000 C 
BRANCH  17  18
ATOM     18  C   UNL     1      -3.476  36.067  16.869  1.00  0.00     0.000 C 
BRANCH  18  19
ATOM     19  C   UNL     1      -2.801  37.448  16.832  1.00  0.00     0.000 C 
BRANCH  19  20
ATOM     20  C   UNL     1      -1.681  37.531  15.782  1.00  0.00     0.006 C 
BRANCH  20  21
ATOM     21  C   UNL     1      -2.258  37.434  14.366  1.00  0.00     0.053 C 
BRANCH  21  22
ATOM     22  C   UNL     1      -3.522  38.229  14.258  1.00  0.00     0.041 C 
ATOM     23  O   UNL     1      -3.513  39.468  14.478  1.00  0.00    -0.550 OA
ATOM     24  O   UNL     1      -4.717  37.594  13.942  1.00  0.00    -0.550 OA
ENDBRANCH  21  22
ENDBRANCH  20  21
ENDBRANCH  19  20
ENDBRANCH  18  19
ENDBRANCH  17  18
ENDBRANCH  16  17
ENDBRANCH  15  16
ENDBRANCH  14  15
ENDBRANCH  13  14
ENDBRANCH   1  13
TORSDOF 20
ENDMDL
MODEL 8
REMARK VINA RESULT:    -1.464      1.463      6.467
REMARK INTER + INTRA:          -4.547
REMARK INTER:                  -2.787
REMARK INTRA:                  -1.760
REMARK UNBOUND:                -1.370
REMARK SMILES CCCCCCCCCCCCCCCCCCCCCC(=O)[O-]
REMARK SMILES IDX 12 1 11 2 10 3 9 4 8 5 7 6 6 7 5 8 4 9 3 10 2 11 1 12 13 13
REMARK SMILES IDX 14 14 15 15 16 16 17 17 18 18 19 19 20 20 21 21 22 22 23 23
REMARK SMILES IDX 24 24
REMARK H PARENT
REMARK Flexibility Score: inf
ROOT
ATOM      1  C   UNL     1      -3.948  38.561  21.176  1.00  0.00     0.000 C 
ENDROOT
BRANCH   1   2
ATOM      2  C   UNL     1      -5.010  38.420  22.279  1.00  0.00     0.000 C 
BRANCH   2   3
ATOM      3  C   UNL     1      -5.449  39.770  22.870  1.00  0.00     0.000 C 
BRANCH   3   4
ATOM      4  C   UNL     1      -4.573  40.296  24.023  1.00  0.00    -0.000 C 
BRANCH   4   5
ATOM      5  C   UNL     1      -4.267  39.244  25.111  1.00  0.00    -0.000 C 
BRANCH   5   6
ATOM      6  C   UNL     1      -5.474  39.003  26.036  1.00  0.00    -0.000 C 
BRANCH   6   7
ATOM      7  C   UNL     1      -6.053  37.585  25.904  1.00  0.00    -0.000 C 
BRANCH   7   8
ATOM      8  C   UNL     1      -5.242  36.698  24.942  1.00  0.00    -0.000 C 
BRANCH   8   9
ATOM      9  C   UNL     1      -6.124  35.718  24.150  1.00  0.00    -0.000 C 
BRANCH   9  10
ATOM     10  C   UNL     1      -5.363  34.806  23.166  1.00  0.00    -0.000 C 
BRANCH  10  11
ATOM     11  C   UNL     1      -3.906  35.220  22.893  1.00  0.00    -0.003 C 
ATOM     12  C   UNL     1      -3.353  34.634  21.595  1.00  0.00     0.004 C 
ENDBRANCH  10  11
ENDBRANCH   9  10
ENDBRANCH   8   9
ENDBRANCH   7   8
ENDBRANCH   6   7
ENDBRANCH   5   6
ENDBRANCH   4   5
ENDBRANCH   3   4
ENDBRANCH   2   3
ENDBRANCH   1   2
BRANCH   1  13
ATOM     13  C   UNL     1      -4.564  38.782  19.782  1.00  0.00     0.000 C 
BRANCH  13  14
ATOM     14  C   UNL     1      -5.784  37.887  19.489  1.00  0.00     0.000 C 
BRANCH  14  15
ATOM     15  C   UNL     1      -5.552  36.421  19.900  1.00  0.00     0.000 C 
BRANCH  15  16
ATOM     16  C   UNL     1      -5.937  35.426  18.792  1.00  0.00     0.000 C 
BRANCH  16  17
ATOM     17  C   UNL     1      -4.725  34.948  17.976  1.00  0.00     0.000 C 
BRANCH  17  18
ATOM     18  C   UNL     1      -3.573  35.964  18.049  1.00  0.00     0.000 C 
BRANCH  18  19
ATOM     19  C   UNL     1      -3.365  36.715  16.723  1.00  0.00     0.000 C 
BRANCH  19  20
ATOM     20  C   UNL     1      -2.554  38.009  16.897  1.00  0.00     0.006 C 
BRANCH  20  21
ATOM     21  C   UNL     1      -1.078  37.692  17.159  1.00  0.00     0.053 C 
BRANCH  21  22
ATOM     22  C   UNL     1      -0.649  38.245  18.481  1.00  0.00     0.041 C 
ATOM     23  O   UNL     1      -1.442  38.942  19.166  1.00  0.00    -0.550 OA
ATOM     24  O   UNL     1       0.641  38.015  18.945  1.00  0.00    -0.550 OA
ENDBRANCH  21  22
ENDBRANCH  20  21
ENDBRANCH  19  20
ENDBRANCH  18  19
ENDBRANCH  17  18
ENDBRANCH  16  17
ENDBRANCH  15  16
ENDBRANCH  14  15
ENDBRANCH  13  14
ENDBRANCH   1  13
TORSDOF 20
ENDMDL
