MODEL 1
REMARK VINA RESULT:    -0.699      0.000      0.000
REMARK INTER + INTRA:          -8.819
REMARK INTER:                  -1.844
REMARK INTRA:                  -6.975
REMARK UNBOUND:                -6.975
REMARK SMILES CCCCCCCCCCCCCCCCCCCCCCCCCCCCCC(=O)[O-]
REMARK SMILES IDX 16 1 17 2 18 3 19 4 20 5 21 6 22 7 23 8 24 9 25 10 26 11
REMARK SMILES IDX 27 12 28 13 29 14 30 15 31 16 32 17 15 18 14 19 13 20 12 21
REMARK SMILES IDX 11 22 10 23 9 24 8 25 7 26 6 27 5 28 4 29 3 30 2 31 1 32
REMARK H PARENT
REMARK Flexibility Score: inf
ROOT
ATOM      1  C   UNL     1      23.495  -5.404  19.661  1.00  0.00     0.000 C 
ENDROOT
BRANCH   1   2
ATOM      2  C   UNL     1      24.843  -4.949  20.258  1.00  0.00     0.000 C 
BRANCH   2   3
ATOM      3  C   UNL     1      26.078  -5.491  19.512  1.00  0.00     0.000 C 
BRANCH   3   4
ATOM      4  C   UNL     1      27.190  -6.065  20.409  1.00  0.00     0.000 C 
BRANCH   4   5
ATOM      5  C   UNL     1      27.121  -5.647  21.893  1.00  0.00     0.000 C 
BRANCH   5   6
ATOM      6  C   UNL     1      27.054  -6.813  22.895  1.00  0.00     0.000 C 
BRANCH   6   7
ATOM      7  C   UNL     1      28.426  -7.174  23.485  1.00  0.00     0.000 C 
BRANCH   7   8
ATOM      8  C   UNL     1      28.427  -8.608  24.031  1.00  0.00     0.000 C 
BRANCH   8   9
ATOM      9  C   UNL     1      27.695  -9.563  23.077  1.00  0.00     0.000 C 
BRANCH   9  10
ATOM     10  C   UNL     1      28.555 -10.776  22.684  1.00  0.00     0.000 C 
BRANCH  10  11
ATOM     11  C   UNL     1      28.830 -10.838  21.172  1.00  0.00     0.000 C 
BRANCH  11  12
ATOM     12  C   UNL     1      28.856  -9.437  20.523  1.00  0.00     0.000 C 
BRANCH  12  13
ATOM     13  C   UNL     1      28.361  -9.419  19.064  1.00  0.00     0.006 C 
BRANCH  13  14
ATOM     14  C   UNL     1      28.624 -10.721  18.291  1.00  0.00     0.053 C 
BRANCH  14  15
ATOM     15  C   UNL     1      29.759 -10.588  17.320  1.00  0.00     0.041 C 
ATOM     16  O   UNL     1      30.922 -10.343  17.735  1.00  0.00    -0.550 OA
ATOM     17  O   UNL     1      29.537 -10.752  15.957  1.00  0.00    -0.550 OA
ENDBRANCH  14  15
ENDBRANCH  13  14
ENDBRANCH  12  13
ENDBRANCH  11  12
ENDBRANCH  10  11
ENDBRANCH   9  10
ENDBRANCH   8   9
ENDBRANCH   7   8
ENDBRANCH   6   7
ENDBRANCH   5   6
ENDBRANCH   4   5
ENDBRANCH   3   4
ENDBRANCH   2   3
ENDBRANCH   1   2
BRANCH   1  18
ATOM     18  C   UNL     1      23.166  -6.877  19.971  1.00  0.00     0.000 C 
BRANCH  18  19
ATOM     19  C   UNL     1      23.390  -7.244  21.451  1.00  0.00     0.000 C 
BRANCH  19  20
ATOM     20  C   UNL     1      24.148  -8.562  21.691  1.00  0.00     0.000 C 
BRANCH  20  21
ATOM     21  C   UNL     1      25.022  -8.980  20.497  1.00  0.00     0.000 C 
BRANCH  21  22
ATOM     22  C   UNL     1      25.202 -10.507  20.394  1.00  0.00     0.000 C 
BRANCH  22  23
ATOM     23  C   UNL     1      24.795 -11.125  19.040  1.00  0.00     0.000 C 
BRANCH  23  24
ATOM     24  C   UNL     1      23.627 -10.417  18.326  1.00  0.00    -0.000 C 
BRANCH  24  25
ATOM     25  C   UNL     1      23.948  -9.909  16.906  1.00  0.00    -0.000 C 
BRANCH  25  26
ATOM     26  C   UNL     1      24.067  -8.379  16.777  1.00  0.00    -0.000 C 
BRANCH  26  27
ATOM     27  C   UNL     1      25.515  -7.880  16.921  1.00  0.00    -0.000 C 
BRANCH  27  28
ATOM     28  C   UNL     1      26.505  -8.667  16.048  1.00  0.00    -0.000 C 
BRANCH  28  29
ATOM     29  C   UNL     1      27.629  -7.781  15.485  1.00  0.00    -0.000 C 
BRANCH  29  30
ATOM     30  C   UNL     1      28.005  -6.620  16.423  1.00  0.00    -0.000 C 
BRANCH  30  31
ATOM     31  C   UNL     1      29.383  -6.746  17.097  1.00  0.00    -0.003 C 
ATOM     32  C   UNL     1      30.497  -7.119  16.118  1.00  0.00     0.004 C 
ENDBRANCH  30  31
ENDBRANCH  29  30
ENDBRANCH  28  29
ENDBRANCH  27  28
ENDBRANCH  26  27
ENDBRANCH  25  26
ENDBRANCH  24  25
ENDBRANCH  23  24
ENDBRANCH  22  23
ENDBRANCH  21  22
ENDBRANCH  20  21
ENDBRANCH  19  20
ENDBRANCH  18  19
ENDBRANCH   1  18
TORSDOF 28
ENDMDL
MODEL 2
REMARK VINA RESULT:    -0.673      2.644      5.316
REMARK INTER + INTRA:          -8.750
REMARK INTER:                  -2.013
REMARK INTRA:                  -6.737
REMARK UNBOUND:                -6.975
REMARK SMILES CCCCCCCCCCCCCCCCCCCCCCCCCCCCCC(=O)[O-]
REMARK SMILES IDX 16 1 17 2 18 3 19 4 20 5 21 6 22 7 23 8 24 9 25 10 26 11
REMARK SMILES IDX 27 12 28 13 29 14 30 15 31 16 32 17 15 18 14 19 13 20 12 21
REMARK SMILES IDX 11 22 10 23 9 24 8 25 7 26 6 27 5 28 4 29 3 30 2 31 1 32
REMARK H PARENT
REMARK Flexibility Score: inf
ROOT
ATOM      1  C   UNL     1      27.418  -7.013  19.009  1.00  0.00     0.000 C 
ENDROOT
BRANCH   1   2
ATOM      2  C   UNL     1      26.986  -7.858  20.226  1.00  0.00     0.000 C 
BRANCH   2   3
ATOM      3  C   UNL     1      27.670  -7.455  21.547  1.00  0.00     0.000 C 
BRANCH   3   4
ATOM      4  C   UNL     1      28.651  -8.494  22.125  1.00  0.00     0.000 C 
BRANCH   4   5
ATOM      5  C   UNL     1      30.117  -8.026  22.233  1.00  0.00     0.000 C 
BRANCH   5   6
ATOM      6  C   UNL     1      31.022  -8.445  21.061  1.00  0.00     0.000 C 
BRANCH   6   7
ATOM      7  C   UNL     1      30.458  -9.630  20.263  1.00  0.00     0.000 C 
BRANCH   7   8
ATOM      8  C   UNL     1      30.957  -9.602  18.813  1.00  0.00     0.000 C 
BRANCH   8   9
ATOM      9  C   UNL     1      30.079 -10.480  17.909  1.00  0.00     0.000 C 
BRANCH   9  10
ATOM     10  C   UNL     1      28.720 -10.811  18.551  1.00  0.00     0.000 C 
BRANCH  10  11
ATOM     11  C   UNL     1      27.535 -10.440  17.644  1.00  0.00     0.000 C 
BRANCH  11  12
ATOM     12  C   UNL     1      26.172 -10.760  18.297  1.00  0.00     0.000 C 
BRANCH  12  13
ATOM     13  C   UNL     1      24.961 -10.367  17.430  1.00  0.00     0.006 C 
BRANCH  13  14
ATOM     14  C   UNL     1      24.322  -9.020  17.808  1.00  0.00     0.053 C 
BRANCH  14  15
ATOM     15  C   UNL     1      23.519  -9.106  19.072  1.00  0.00     0.041 C 
ATOM     16  O   UNL     1      23.480  -8.129  19.865  1.00  0.00    -0.550 OA
ATOM     17  O   UNL     1      22.798 -10.258  19.366  1.00  0.00    -0.550 OA
ENDBRANCH  14  15
ENDBRANCH  13  14
ENDBRANCH  12  13
ENDBRANCH  11  12
ENDBRANCH  10  11
ENDBRANCH   9  10
ENDBRANCH   8   9
ENDBRANCH   7   8
ENDBRANCH   6   7
ENDBRANCH   5   6
ENDBRANCH   4   5
ENDBRANCH   3   4
ENDBRANCH   2   3
ENDBRANCH   1   2
BRANCH   1  18
ATOM     18  C   UNL     1      28.652  -6.134  19.293  1.00  0.00     0.000 C 
BRANCH  18  19
ATOM     19  C   UNL     1      29.626  -6.064  18.101  1.00  0.00     0.000 C 
BRANCH  19  20
ATOM     20  C   UNL     1      29.295  -7.006  16.928  1.00  0.00     0.000 C 
BRANCH  20  21
ATOM     21  C   UNL     1      30.504  -7.284  16.020  1.00  0.00     0.000 C 
BRANCH  21  22
ATOM     22  C   UNL     1      30.096  -7.715  14.598  1.00  0.00     0.000 C 
BRANCH  22  23
ATOM     23  C   UNL     1      30.133  -9.235  14.338  1.00  0.00     0.000 C 
BRANCH  23  24
ATOM     24  C   UNL     1      28.754  -9.922  14.293  1.00  0.00    -0.000 C 
BRANCH  24  25
ATOM     25  C   UNL     1      27.616  -9.054  13.720  1.00  0.00    -0.000 C 
BRANCH  25  26
ATOM     26  C   UNL     1      26.559  -8.610  14.747  1.00  0.00    -0.000 C 
BRANCH  26  27
ATOM     27  C   UNL     1      25.797  -7.346  14.311  1.00  0.00    -0.000 C 
BRANCH  27  28
ATOM     28  C   UNL     1      26.557  -6.050  14.638  1.00  0.00    -0.000 C 
BRANCH  28  29
ATOM     29  C   UNL     1      26.016  -5.351  15.896  1.00  0.00    -0.000 C 
BRANCH  29  30
ATOM     30  C   UNL     1      26.949  -4.241  16.414  1.00  0.00    -0.000 C 
BRANCH  30  31
ATOM     31  C   UNL     1      26.293  -3.235  17.377  1.00  0.00    -0.003 C 
ATOM     32  C   UNL     1      25.567  -3.908  18.543  1.00  0.00     0.004 C 
ENDBRANCH  30  31
ENDBRANCH  29  30
ENDBRANCH  28  29
ENDBRANCH  27  28
ENDBRANCH  26  27
ENDBRANCH  25  26
ENDBRANCH  24  25
ENDBRANCH  23  24
ENDBRANCH  22  23
ENDBRANCH  21  22
ENDBRANCH  20  21
ENDBRANCH  19  20
ENDBRANCH  18  19
ENDBRANCH   1  18
TORSDOF 28
ENDMDL
MODEL 3
REMARK VINA RESULT:    -0.661      2.828      6.246
REMARK INTER + INTRA:          -8.718
REMARK INTER:                  -2.228
REMARK INTRA:                  -6.490
REMARK UNBOUND:                -6.975
REMARK SMILES CCCCCCCCCCCCCCCCCCCCCCCCCCCCCC(=O)[O-]
REMARK SMILES IDX 16 1 17 2 18 3 19 4 20 5 21 6 22 7 23 8 24 9 25 10 26 11
REMARK SMILES IDX 27 12 28 13 29 14 30 15 31 16 32 17 15 18 14 19 13 20 12 21
REMARK SMILES IDX 11 22 10 23 9 24 8 25 7 26 6 27 5 28 4 29 3 30 2 31 1 32
REMARK H PARENT
REMARK Flexibility Score: inf
ROOT
ATOM      1  C   UNL     1      26.279  -6.846  15.753  1.00  0.00     0.000 C 
ENDROOT
BRANCH   1   2
ATOM      2  C   UNL     1      26.166  -7.269  14.273  1.00  0.00     0.000 C 
BRANCH   2   3
ATOM      3  C   UNL     1      27.490  -7.177  13.489  1.00  0.00     0.000 C 
BRANCH   3   4
ATOM      4  C   UNL     1      27.897  -8.455  12.731  1.00  0.00     0.000 C 
BRANCH   4   5
ATOM      5  C   UNL     1      27.453  -9.779  13.388  1.00  0.00     0.000 C 
BRANCH   5   6
ATOM      6  C   UNL     1      28.476 -10.400  14.356  1.00  0.00     0.000 C 
BRANCH   6   7
ATOM      7  C   UNL     1      29.789 -10.798  13.665  1.00  0.00     0.000 C 
BRANCH   7   8
ATOM      8  C   UNL     1      31.000 -10.257  14.437  1.00  0.00     0.000 C 
BRANCH   8   9
ATOM      9  C   UNL     1      30.589  -9.116  15.380  1.00  0.00     0.000 C 
BRANCH   9  10
ATOM     10  C   UNL     1      31.124  -9.313  16.809  1.00  0.00     0.000 C 
BRANCH  10  11
ATOM     11  C   UNL     1      30.400 -10.445  17.558  1.00  0.00     0.000 C 
BRANCH  11  12
ATOM     12  C   UNL     1      29.977 -10.029  18.984  1.00  0.00     0.000 C 
BRANCH  12  13
ATOM     13  C   UNL     1      31.090  -9.320  19.779  1.00  0.00     0.006 C 
BRANCH  13  14
ATOM     14  C   UNL     1      31.125  -9.676  21.274  1.00  0.00     0.053 C 
BRANCH  14  15
ATOM     15  C   UNL     1      30.241  -8.784  22.093  1.00  0.00     0.041 C 
ATOM     16  O   UNL     1      30.397  -7.535  22.059  1.00  0.00    -0.550 OA
ATOM     17  O   UNL     1      29.232  -9.329  22.879  1.00  0.00    -0.550 OA
ENDBRANCH  14  15
ENDBRANCH  13  14
ENDBRANCH  12  13
ENDBRANCH  11  12
ENDBRANCH  10  11
ENDBRANCH   9  10
ENDBRANCH   8   9
ENDBRANCH   7   8
ENDBRANCH   6   7
ENDBRANCH   5   6
ENDBRANCH   4   5
ENDBRANCH   3   4
ENDBRANCH   2   3
ENDBRANCH   1   2
BRANCH   1  18
ATOM     18  C   UNL     1      27.460  -7.513  16.482  1.00  0.00     0.000 C 
BRANCH  18  19
ATOM     19  C   UNL     1      27.030  -8.709  17.353  1.00  0.00     0.000 C 
BRANCH  19  20
ATOM     20  C   UNL     1      26.191  -8.348  18.592  1.00  0.00     0.000 C 
BRANCH  20  21
ATOM     21  C   UNL     1      26.959  -8.525  19.913  1.00  0.00     0.000 C 
BRANCH  21  22
ATOM     22  C   UNL     1      27.068  -7.218  20.720  1.00  0.00     0.000 C 
BRANCH  22  23
ATOM     23  C   UNL     1      27.244  -5.939  19.876  1.00  0.00     0.000 C 
BRANCH  23  24
ATOM     24  C   UNL     1      28.688  -5.407  19.793  1.00  0.00    -0.000 C 
BRANCH  24  25
ATOM     25  C   UNL     1      29.637  -6.241  18.909  1.00  0.00    -0.000 C 
BRANCH  25  26
ATOM     26  C   UNL     1      30.728  -5.431  18.187  1.00  0.00    -0.000 C 
BRANCH  26  27
ATOM     27  C   UNL     1      30.692  -5.614  16.659  1.00  0.00    -0.000 C 
BRANCH  27  28
ATOM     28  C   UNL     1      30.416  -4.301  15.909  1.00  0.00    -0.000 C 
BRANCH  28  29
ATOM     29  C   UNL     1      29.162  -4.381  15.022  1.00  0.00    -0.000 C 
BRANCH  29  30
ATOM     30  C   UNL     1      28.049  -3.414  15.465  1.00  0.00    -0.000 C 
BRANCH  30  31
ATOM     31  C   UNL     1      27.634  -3.533  16.943  1.00  0.00    -0.003 C 
ATOM     32  C   UNL     1      26.122  -3.428  17.151  1.00  0.00     0.004 C 
ENDBRANCH  30  31
ENDBRANCH  29  30
ENDBRANCH  28  29
ENDBRANCH  27  28
ENDBRANCH  26  27
ENDBRANCH  25  26
ENDBRANCH  24  25
ENDBRANCH  23  24
ENDBRANCH  22  23
ENDBRANCH  21  22
ENDBRANCH  20  21
ENDBRANCH  19  20
ENDBRANCH  18  19
ENDBRANCH   1  18
TORSDOF 28
ENDMDL
MODEL 4
REMARK VINA RESULT:    -0.659      2.354      6.304
REMARK INTER + INTRA:          -8.712
REMARK INTER:                  -2.351
REMARK INTRA:                  -6.361
REMARK UNBOUND:                -6.975
REMARK SMILES CCCCCCCCCCCCCCCCCCCCCCCCCCCCCC(=O)[O-]
REMARK SMILES IDX 16 1 17 2 18 3 19 4 20 5 21 6 22 7 23 8 24 9 25 10 26 11
REMARK SMILES IDX 27 12 28 13 29 14 30 15 31 16 32 17 15 18 14 19 13 20 12 21
REMARK SMILES IDX 11 22 10 23 9 24 8 25 7 26 6 27 5 28 4 29 3 30 2 31 1 32
REMARK H PARENT
REMARK Flexibility Score: inf
ROOT
ATOM      1  C   UNL     1      24.259  -8.072  20.114  1.00  0.00     0.000 C 
ENDROOT
BRANCH   1   2
ATOM      2  C   UNL     1      25.126  -6.914  20.652  1.00  0.00     0.000 C 
BRANCH   2   3
ATOM      3  C   UNL     1      25.923  -6.166  19.565  1.00  0.00     0.000 C 
BRANCH   3   4
ATOM      4  C   UNL     1      27.430  -6.480  19.520  1.00  0.00     0.000 C 
BRANCH   4   5
ATOM      5  C   UNL     1      28.011  -6.712  18.109  1.00  0.00     0.000 C 
BRANCH   5   6
ATOM      6  C   UNL     1      26.994  -6.603  16.960  1.00  0.00     0.000 C 
BRANCH   6   7
ATOM      7  C   UNL     1      27.527  -7.166  15.634  1.00  0.00     0.000 C 
BRANCH   7   8
ATOM      8  C   UNL     1      29.058  -7.270  15.658  1.00  0.00     0.000 C 
BRANCH   8   9
ATOM      9  C   UNL     1      29.658  -6.900  14.293  1.00  0.00     0.000 C 
BRANCH   9  10
ATOM     10  C   UNL     1      30.816  -7.829  13.889  1.00  0.00     0.000 C 
BRANCH  10  11
ATOM     11  C   UNL     1      30.465  -9.316  14.063  1.00  0.00     0.000 C 
BRANCH  11  12
ATOM     12  C   UNL     1      29.460  -9.810  12.999  1.00  0.00     0.000 C 
BRANCH  12  13
ATOM     13  C   UNL     1      28.435 -10.827  13.539  1.00  0.00     0.006 C 
BRANCH  13  14
ATOM     14  C   UNL     1      27.003 -10.281  13.651  1.00  0.00     0.053 C 
BRANCH  14  15
ATOM     15  C   UNL     1      26.577  -9.541  12.418  1.00  0.00     0.041 C 
ATOM     16  O   UNL     1      26.386  -8.297  12.460  1.00  0.00    -0.550 OA
ATOM     17  O   UNL     1      26.410 -10.221  11.216  1.00  0.00    -0.550 OA
ENDBRANCH  14  15
ENDBRANCH  13  14
ENDBRANCH  12  13
ENDBRANCH  11  12
ENDBRANCH  10  11
ENDBRANCH   9  10
ENDBRANCH   8   9
ENDBRANCH   7   8
ENDBRANCH   6   7
ENDBRANCH   5   6
ENDBRANCH   4   5
ENDBRANCH   3   4
ENDBRANCH   2   3
ENDBRANCH   1   2
BRANCH   1  18
ATOM     18  C   UNL     1      25.091  -9.197  19.469  1.00  0.00     0.000 C 
BRANCH  18  19
ATOM     19  C   UNL     1      24.749  -9.421  17.983  1.00  0.00     0.000 C 
BRANCH  19  20
ATOM     20  C   UNL     1      25.764 -10.274  17.200  1.00  0.00     0.000 C 
BRANCH  20  21
ATOM     21  C   UNL     1      27.055 -10.550  17.988  1.00  0.00     0.000 C 
BRANCH  21  22
ATOM     22  C   UNL     1      28.327 -10.329  17.148  1.00  0.00     0.000 C 
BRANCH  22  23
ATOM     23  C   UNL     1      29.567 -11.119  17.615  1.00  0.00     0.000 C 
BRANCH  23  24
ATOM     24  C   UNL     1      30.907 -10.371  17.472  1.00  0.00    -0.000 C 
BRANCH  24  25
ATOM     25  C   UNL     1      31.061  -9.136  18.382  1.00  0.00    -0.000 C 
BRANCH  25  26
ATOM     26  C   UNL     1      31.055  -9.438  19.891  1.00  0.00    -0.000 C 
BRANCH  26  27
ATOM     27  C   UNL     1      29.925  -8.710  20.640  1.00  0.00    -0.000 C 
BRANCH  27  28
ATOM     28  C   UNL     1      28.783  -9.652  21.056  1.00  0.00    -0.000 C 
BRANCH  28  29
ATOM     29  C   UNL     1      27.952  -9.093  22.223  1.00  0.00    -0.000 C 
BRANCH  29  30
ATOM     30  C   UNL     1      26.740  -9.974  22.573  1.00  0.00    -0.000 C 
BRANCH  30  31
ATOM     31  C   UNL     1      25.991  -9.572  23.856  1.00  0.00    -0.003 C 
ATOM     32  C   UNL     1      24.532  -9.186  23.603  1.00  0.00     0.004 C 
ENDBRANCH  30  31
ENDBRANCH  29  30
ENDBRANCH  28  29
ENDBRANCH  27  28
ENDBRANCH  26  27
ENDBRANCH  25  26
ENDBRANCH  24  25
ENDBRANCH  23  24
ENDBRANCH  22  23
ENDBRANCH  21  22
ENDBRANCH  20  21
ENDBRANCH  19  20
ENDBRANCH  18  19
ENDBRANCH   1  18
TORSDOF 28
ENDMDL
MODEL 5
REMARK VINA RESULT:    -0.628      2.970      6.839
REMARK INTER + INTRA:          -8.630
REMARK INTER:                  -2.136
REMARK INTRA:                  -6.494
REMARK UNBOUND:                -6.975
REMARK SMILES CCCCCCCCCCCCCCCCCCCCCCCCCCCCCC(=O)[O-]
REMARK SMILES IDX 16 1 17 2 18 3 19 4 20 5 21 6 22 7 23 8 24 9 25 10 26 11
REMARK SMILES IDX 27 12 28 13 29 14 30 15 31 16 32 17 15 18 14 19 13 20 12 21
REMARK SMILES IDX 11 22 10 23 9 24 8 25 7 26 6 27 5 28 4 29 3 30 2 31 1 32
REMARK H PARENT
REMARK Flexibility Score: inf
ROOT
ATOM      1  C   UNL     1      24.859  -7.713  18.645  1.00  0.00     0.000 C 
ENDROOT
BRANCH   1   2
ATOM      2  C   UNL     1      23.567  -7.164  18.003  1.00  0.00     0.000 C 
BRANCH   2   3
ATOM      3  C   UNL     1      22.948  -8.092  16.940  1.00  0.00     0.000 C 
BRANCH   3   4
ATOM      4  C   UNL     1      23.355  -7.793  15.485  1.00  0.00     0.000 C 
BRANCH   4   5
ATOM      5  C   UNL     1      23.909  -8.997  14.696  1.00  0.00     0.000 C 
BRANCH   5   6
ATOM      6  C   UNL     1      24.579  -8.644  13.356  1.00  0.00     0.000 C 
BRANCH   6   7
ATOM      7  C   UNL     1      25.834  -9.484  13.075  1.00  0.00     0.000 C 
BRANCH   7   8
ATOM      8  C   UNL     1      26.281 -10.239  14.333  1.00  0.00     0.000 C 
BRANCH   8   9
ATOM      9  C   UNL     1      27.787 -10.064  14.577  1.00  0.00     0.000 C 
BRANCH   9  10
ATOM     10  C   UNL     1      28.192  -8.586  14.719  1.00  0.00     0.000 C 
BRANCH  10  11
ATOM     11  C   UNL     1      27.628  -7.942  15.996  1.00  0.00     0.000 C 
BRANCH  11  12
ATOM     12  C   UNL     1      26.854  -6.637  15.704  1.00  0.00     0.000 C 
BRANCH  12  13
ATOM     13  C   UNL     1      27.416  -5.836  14.514  1.00  0.00     0.006 C 
BRANCH  13  14
ATOM     14  C   UNL     1      26.370  -5.465  13.451  1.00  0.00     0.053 C 
BRANCH  14  15
ATOM     15  C   UNL     1      26.017  -4.007  13.485  1.00  0.00     0.041 C 
ATOM     16  O   UNL     1      24.817  -3.643  13.369  1.00  0.00    -0.550 OA
ATOM     17  O   UNL     1      27.010  -3.051  13.663  1.00  0.00    -0.550 OA
ENDBRANCH  14  15
ENDBRANCH  13  14
ENDBRANCH  12  13
ENDBRANCH  11  12
ENDBRANCH  10  11
ENDBRANCH   9  10
ENDBRANCH   8   9
ENDBRANCH   7   8
ENDBRANCH   6   7
ENDBRANCH   5   6
ENDBRANCH   4   5
ENDBRANCH   3   4
ENDBRANCH   2   3
ENDBRANCH   1   2
BRANCH   1  18
ATOM     18  C   UNL     1      25.088  -9.208  18.353  1.00  0.00     0.000 C 
BRANCH  18  19
ATOM     19  C   UNL     1      25.439 -10.019  19.615  1.00  0.00     0.000 C 
BRANCH  19  20
ATOM     20  C   UNL     1      26.553 -11.066  19.432  1.00  0.00     0.000 C 
BRANCH  20  21
ATOM     21  C   UNL     1      27.488 -10.751  18.252  1.00  0.00     0.000 C 
BRANCH  21  22
ATOM     22  C   UNL     1      28.960 -11.093  18.549  1.00  0.00     0.000 C 
BRANCH  22  23
ATOM     23  C   UNL     1      29.951 -10.769  17.412  1.00  0.00     0.000 C 
BRANCH  23  24
ATOM     24  C   UNL     1      31.078  -9.788  17.790  1.00  0.00    -0.000 C 
BRANCH  24  25
ATOM     25  C   UNL     1      31.094  -9.359  19.270  1.00  0.00    -0.000 C 
BRANCH  25  26
ATOM     26  C   UNL     1      31.025  -7.839  19.505  1.00  0.00    -0.000 C 
BRANCH  26  27
ATOM     27  C   UNL     1      29.792  -7.190  18.850  1.00  0.00    -0.000 C 
BRANCH  27  28
ATOM     28  C   UNL     1      28.483  -7.526  19.582  1.00  0.00    -0.000 C 
BRANCH  28  29
ATOM     29  C   UNL     1      28.585  -7.308  21.101  1.00  0.00    -0.000 C 
BRANCH  29  30
ATOM     30  C   UNL     1      27.924  -8.435  21.915  1.00  0.00    -0.000 C 
BRANCH  30  31
ATOM     31  C   UNL     1      28.755  -9.725  22.036  1.00  0.00    -0.003 C 
ATOM     32  C   UNL     1      29.935  -9.591  23.001  1.00  0.00     0.004 C 
ENDBRANCH  30  31
ENDBRANCH  29  30
ENDBRANCH  28  29
ENDBRANCH  27  28
ENDBRANCH  26  27
ENDBRANCH  25  26
ENDBRANCH  24  25
ENDBRANCH  23  24
ENDBRANCH  22  23
ENDBRANCH  21  22
ENDBRANCH  20  21
ENDBRANCH  19  20
ENDBRANCH  18  19
ENDBRANCH   1  18
TORSDOF 28
ENDMDL
MODEL 6
REMARK VINA RESULT:    -0.583      3.530      6.784
REMARK INTER + INTRA:          -8.513
REMARK INTER:                  -2.325
REMARK INTRA:                  -6.188
REMARK UNBOUND:                -6.975
REMARK SMILES CCCCCCCCCCCCCCCCCCCCCCCCCCCCCC(=O)[O-]
REMARK SMILES IDX 16 1 17 2 18 3 19 4 20 5 21 6 22 7 23 8 24 9 25 10 26 11
REMARK SMILES IDX 27 12 28 13 29 14 30 15 31 16 32 17 15 18 14 19 13 20 12 21
REMARK SMILES IDX 11 22 10 23 9 24 8 25 7 26 6 27 5 28 4 29 3 30 2 31 1 32
REMARK H PARENT
REMARK Flexibility Score: inf
ROOT
ATOM      1  C   UNL     1      26.491  -6.825  17.058  1.00  0.00     0.000 C 
ENDROOT
BRANCH   1   2
ATOM      2  C   UNL     1      26.634  -8.352  17.237  1.00  0.00     0.000 C 
BRANCH   2   3
ATOM      3  C   UNL     1      28.001  -8.912  16.800  1.00  0.00     0.000 C 
BRANCH   3   4
ATOM      4  C   UNL     1      28.271 -10.376  17.196  1.00  0.00     0.000 C 
BRANCH   4   5
ATOM      5  C   UNL     1      29.727 -10.692  17.598  1.00  0.00     0.000 C 
BRANCH   5   6
ATOM      6  C   UNL     1      30.339  -9.733  18.635  1.00  0.00     0.000 C 
BRANCH   6   7
ATOM      7  C   UNL     1      29.562  -9.709  19.960  1.00  0.00     0.000 C 
BRANCH   7   8
ATOM      8  C   UNL     1      29.156  -8.277  20.331  1.00  0.00     0.000 C 
BRANCH   8   9
ATOM      9  C   UNL     1      29.965  -7.247  19.529  1.00  0.00     0.000 C 
BRANCH   9  10
ATOM     10  C   UNL     1      29.220  -5.911  19.367  1.00  0.00     0.000 C 
BRANCH  10  11
ATOM     11  C   UNL     1      29.612  -5.172  18.076  1.00  0.00     0.000 C 
BRANCH  11  12
ATOM     12  C   UNL     1      30.394  -6.075  17.097  1.00  0.00     0.000 C 
BRANCH  12  13
ATOM     13  C   UNL     1      29.872  -6.019  15.648  1.00  0.00     0.006 C 
BRANCH  13  14
ATOM     14  C   UNL     1      29.082  -4.745  15.309  1.00  0.00     0.053 C 
BRANCH  14  15
ATOM     15  C   UNL     1      29.946  -3.689  14.687  1.00  0.00     0.041 C 
ATOM     16  O   UNL     1      29.837  -2.488  15.049  1.00  0.00    -0.550 OA
ATOM     17  O   UNL     1      30.885  -4.032  13.721  1.00  0.00    -0.550 OA
ENDBRANCH  14  15
ENDBRANCH  13  14
ENDBRANCH  12  13
ENDBRANCH  11  12
ENDBRANCH  10  11
ENDBRANCH   9  10
ENDBRANCH   8   9
ENDBRANCH   7   8
ENDBRANCH   6   7
ENDBRANCH   5   6
ENDBRANCH   4   5
ENDBRANCH   3   4
ENDBRANCH   2   3
ENDBRANCH   1   2
BRANCH   1  18
ATOM     18  C   UNL     1      25.655  -6.439  15.823  1.00  0.00     0.000 C 
BRANCH  18  19
ATOM     19  C   UNL     1      25.829  -7.422  14.649  1.00  0.00     0.000 C 
BRANCH  19  20
ATOM     20  C   UNL     1      26.123  -6.768  13.286  1.00  0.00     0.000 C 
BRANCH  20  21
ATOM     21  C   UNL     1      27.442  -7.249  12.659  1.00  0.00     0.000 C 
BRANCH  21  22
ATOM     22  C   UNL     1      28.224  -6.116  11.968  1.00  0.00     0.000 C 
BRANCH  22  23
ATOM     23  C   UNL     1      29.667  -6.471  11.554  1.00  0.00     0.000 C 
BRANCH  23  24
ATOM     24  C   UNL     1      30.311  -7.617  12.359  1.00  0.00    -0.000 C 
BRANCH  24  25
ATOM     25  C   UNL     1      31.125  -8.621  11.519  1.00  0.00    -0.000 C 
BRANCH  25  26
ATOM     26  C   UNL     1      30.890 -10.101  11.871  1.00  0.00    -0.000 C 
BRANCH  26  27
ATOM     27  C   UNL     1      30.964 -10.372  13.384  1.00  0.00    -0.000 C 
BRANCH  27  28
ATOM     28  C   UNL     1      29.732 -11.122  13.915  1.00  0.00    -0.000 C 
BRANCH  28  29
ATOM     29  C   UNL     1      28.546 -11.077  12.937  1.00  0.00    -0.000 C 
BRANCH  29  30
ATOM     30  C   UNL     1      27.210 -10.750  13.628  1.00  0.00    -0.000 C 
BRANCH  30  31
ATOM     31  C   UNL     1      25.965 -10.876  12.732  1.00  0.00    -0.003 C 
ATOM     32  C   UNL     1      26.235 -10.501  11.273  1.00  0.00     0.004 C 
ENDBRANCH  30  31
ENDBRANCH  29  30
ENDBRANCH  28  29
ENDBRANCH  27  28
ENDBRANCH  26  27
ENDBRANCH  25  26
ENDBRANCH  24  25
ENDBRANCH  23  24
ENDBRANCH  22  23
ENDBRANCH  21  22
ENDBRANCH  20  21
ENDBRANCH  19  20
ENDBRANCH  18  19
ENDBRANCH   1  18
TORSDOF 28
ENDMDL
MODEL 7
REMARK VINA RESULT:    -0.564      7.505     11.580
REMARK INTER + INTRA:          -8.462
REMARK INTER:                  -1.268
REMARK INTRA:                  -7.194
REMARK UNBOUND:                -6.975
REMARK SMILES CCCCCCCCCCCCCCCCCCCCCCCCCCCCCC(=O)[O-]
REMARK SMILES IDX 16 1 17 2 18 3 19 4 20 5 21 6 22 7 23 8 24 9 25 10 26 11
REMARK SMILES IDX 27 12 28 13 29 14 30 15 31 16 32 17 15 18 14 19 13 20 12 21
REMARK SMILES IDX 11 22 10 23 9 24 8 25 7 26 6 27 5 28 4 29 3 30 2 31 1 32
REMARK H PARENT
REMARK Flexibility Score: inf
ROOT
ATOM      1  C   UNL     1      20.485  -4.803  11.291  1.00  0.00     0.000 C 
ENDROOT
BRANCH   1   2
ATOM      2  C   UNL     1      19.186  -4.321  10.610  1.00  0.00     0.000 C 
BRANCH   2   3
ATOM      3  C   UNL     1      17.925  -4.469  11.483  1.00  0.00     0.000 C 
BRANCH   3   4
ATOM      4  C   UNL     1      17.082  -5.730  11.214  1.00  0.00     0.000 C 
BRANCH   4   5
ATOM      5  C   UNL     1      17.379  -6.449   9.882  1.00  0.00     0.000 C 
BRANCH   5   6
ATOM      6  C   UNL     1      17.464  -7.982   9.974  1.00  0.00     0.000 C 
BRANCH   6   7
ATOM      7  C   UNL     1      16.341  -8.594  10.825  1.00  0.00     0.000 C 
BRANCH   7   8
ATOM      8  C   UNL     1      16.746  -9.976  11.355  1.00  0.00     0.000 C 
BRANCH   8   9
ATOM      9  C   UNL     1      18.257 -10.205  11.202  1.00  0.00     0.000 C 
BRANCH   9  10
ATOM     10  C   UNL     1      18.833 -11.091  12.321  1.00  0.00     0.000 C 
BRANCH  10  11
ATOM     11  C   UNL     1      20.358 -10.945  12.460  1.00  0.00     0.000 C 
BRANCH  11  12
ATOM     12  C   UNL     1      20.821 -11.000  13.932  1.00  0.00     0.000 C 
BRANCH  12  13
ATOM     13  C   UNL     1      21.881  -9.940  14.289  1.00  0.00     0.006 C 
BRANCH  13  14
ATOM     14  C   UNL     1      21.697  -9.302  15.675  1.00  0.00     0.053 C 
BRANCH  14  15
ATOM     15  C   UNL     1      22.444 -10.040  16.745  1.00  0.00     0.041 C 
ATOM     16  O   UNL     1      23.601  -9.671  17.079  1.00  0.00    -0.550 OA
ATOM     17  O   UNL     1      21.857 -11.124  17.388  1.00  0.00    -0.550 OA
ENDBRANCH  14  15
ENDBRANCH  13  14
ENDBRANCH  12  13
ENDBRANCH  11  12
ENDBRANCH  10  11
ENDBRANCH   9  10
ENDBRANCH   8   9
ENDBRANCH   7   8
ENDBRANCH   6   7
ENDBRANCH   5   6
ENDBRANCH   4   5
ENDBRANCH   3   4
ENDBRANCH   2   3
ENDBRANCH   1   2
BRANCH   1  18
ATOM     18  C   UNL     1      20.943  -6.190  10.802  1.00  0.00     0.000 C 
BRANCH  18  19
ATOM     19  C   UNL     1      20.580  -7.322  11.783  1.00  0.00     0.000 C 
BRANCH  19  20
ATOM     20  C   UNL     1      20.124  -6.858  13.178  1.00  0.00     0.000 C 
BRANCH  20  21
ATOM     21  C   UNL     1      18.941  -7.673  13.727  1.00  0.00     0.000 C 
BRANCH  21  22
ATOM     22  C   UNL     1      18.531  -7.247  15.149  1.00  0.00     0.000 C 
BRANCH  22  23
ATOM     23  C   UNL     1      18.663  -5.739  15.446  1.00  0.00     0.000 C 
BRANCH  23  24
ATOM     24  C   UNL     1      17.388  -4.911  15.192  1.00  0.00    -0.000 C 
BRANCH  24  25
ATOM     25  C   UNL     1      16.067  -5.647  15.491  1.00  0.00    -0.000 C 
BRANCH  25  26
ATOM     26  C   UNL     1      15.127  -5.806  14.283  1.00  0.00    -0.000 C 
BRANCH  26  27
ATOM     27  C   UNL     1      14.884  -7.278  13.906  1.00  0.00    -0.000 C 
BRANCH  27  28
ATOM     28  C   UNL     1      15.050  -8.233  15.098  1.00  0.00    -0.000 C 
BRANCH  28  29
ATOM     29  C   UNL     1      15.120  -9.707  14.668  1.00  0.00    -0.000 C 
BRANCH  29  30
ATOM     30  C   UNL     1      16.457 -10.378  15.034  1.00  0.00    -0.000 C 
BRANCH  30  31
ATOM     31  C   UNL     1      16.863 -10.255  16.514  1.00  0.00    -0.003 C 
ATOM     32  C   UNL     1      18.341 -10.565  16.757  1.00  0.00     0.004 C 
ENDBRANCH  30  31
ENDBRANCH  29  30
ENDBRANCH  28  29
ENDBRANCH  27  28
ENDBRANCH  26  27
ENDBRANCH  25  26
ENDBRANCH  24  25
ENDBRANCH  23  24
ENDBRANCH  22  23
ENDBRANCH  21  22
ENDBRANCH  20  21
ENDBRANCH  19  20
ENDBRANCH  18  19
ENDBRANCH   1  18
TORSDOF 28
ENDMDL
MODEL 8
REMARK VINA RESULT:    -0.545      2.530      5.714
REMARK INTER + INTRA:          -8.412
REMARK INTER:                  -1.872
REMARK INTRA:                  -6.540
REMARK UNBOUND:                -6.975
REMARK SMILES CCCCCCCCCCCCCCCCCCCCCCCCCCCCCC(=O)[O-]
REMARK SMILES IDX 16 1 17 2 18 3 19 4 20 5 21 6 22 7 23 8 24 9 25 10 26 11
REMARK SMILES IDX 27 12 28 13 29 14 30 15 31 16 32 17 15 18 14 19 13 20 12 21
REMARK SMILES IDX 11 22 10 23 9 24 8 25 7 26 6 27 5 28 4 29 3 30 2 31 1 32
REMARK H PARENT
REMARK Flexibility Score: inf
ROOT
ATOM      1  C   UNL     1      25.598  -5.332  17.342  1.00  0.00     0.000 C 
ENDROOT
BRANCH   1   2
ATOM      2  C   UNL     1      26.591  -6.249  18.088  1.00  0.00     0.000 C 
BRANCH   2   3
ATOM      3  C   UNL     1      28.072  -5.880  17.876  1.00  0.00     0.000 C 
BRANCH   3   4
ATOM      4  C   UNL     1      28.930  -6.962  17.193  1.00  0.00     0.000 C 
BRANCH   4   5
ATOM      5  C   UNL     1      29.961  -6.438  16.173  1.00  0.00     0.000 C 
BRANCH   5   6
ATOM      6  C   UNL     1      31.104  -7.413  15.842  1.00  0.00     0.000 C 
BRANCH   6   7
ATOM      7  C   UNL     1      30.925  -8.107  14.484  1.00  0.00     0.000 C 
BRANCH   7   8
ATOM      8  C   UNL     1      30.792  -9.626  14.657  1.00  0.00     0.000 C 
BRANCH   8   9
ATOM      9  C   UNL     1      31.120 -10.048  16.097  1.00  0.00     0.000 C 
BRANCH   9  10
ATOM     10  C   UNL     1      29.944 -10.767  16.782  1.00  0.00     0.000 C 
BRANCH  10  11
ATOM     11  C   UNL     1      29.860 -10.456  18.286  1.00  0.00     0.000 C 
BRANCH  11  12
ATOM     12  C   UNL     1      31.086  -9.664  18.791  1.00  0.00     0.000 C 
BRANCH  12  13
ATOM     13  C   UNL     1      30.877  -9.011  20.171  1.00  0.00     0.006 C 
BRANCH  13  14
ATOM     14  C   UNL     1      30.610  -7.498  20.121  1.00  0.00     0.053 C 
BRANCH  14  15
ATOM     15  C   UNL     1      29.755  -7.032  21.261  1.00  0.00     0.041 C 
ATOM     16  O   UNL     1      29.534  -5.804  21.427  1.00  0.00    -0.550 OA
ATOM     17  O   UNL     1      29.186  -7.956  22.132  1.00  0.00    -0.550 OA
ENDBRANCH  14  15
ENDBRANCH  13  14
ENDBRANCH  12  13
ENDBRANCH  11  12
ENDBRANCH  10  11
ENDBRANCH   9  10
ENDBRANCH   8   9
ENDBRANCH   7   8
ENDBRANCH   6   7
ENDBRANCH   5   6
ENDBRANCH   4   5
ENDBRANCH   3   4
ENDBRANCH   2   3
ENDBRANCH   1   2
BRANCH   1  18
ATOM     18  C   UNL     1      26.213  -4.667  16.096  1.00  0.00     0.000 C 
BRANCH  18  19
ATOM     19  C   UNL     1      25.770  -5.334  14.779  1.00  0.00     0.000 C 
BRANCH  19  20
ATOM     20  C   UNL     1      26.806  -6.278  14.142  1.00  0.00     0.000 C 
BRANCH  20  21
ATOM     21  C   UNL     1      26.180  -7.292  13.170  1.00  0.00     0.000 C 
BRANCH  21  22
ATOM     22  C   UNL     1      26.459  -8.754  13.571  1.00  0.00     0.000 C 
BRANCH  22  23
ATOM     23  C   UNL     1      27.231  -8.935  14.894  1.00  0.00     0.000 C 
BRANCH  23  24
ATOM     24  C   UNL     1      26.378  -9.413  16.085  1.00  0.00    -0.000 C 
BRANCH  24  25
ATOM     25  C   UNL     1      24.874  -9.566  15.785  1.00  0.00    -0.000 C 
BRANCH  25  26
ATOM     26  C   UNL     1      23.985  -8.439  16.342  1.00  0.00    -0.000 C 
BRANCH  26  27
ATOM     27  C   UNL     1      22.773  -8.970  17.128  1.00  0.00    -0.000 C 
BRANCH  27  28
ATOM     28  C   UNL     1      23.098  -9.249  18.605  1.00  0.00    -0.000 C 
BRANCH  28  29
ATOM     29  C   UNL     1      23.479  -7.974  19.375  1.00  0.00    -0.000 C 
BRANCH  29  30
ATOM     30  C   UNL     1      24.555  -8.221  20.449  1.00  0.00    -0.000 C 
BRANCH  30  31
ATOM     31  C   UNL     1      25.305  -9.559  20.324  1.00  0.00    -0.003 C 
ATOM     32  C   UNL     1      26.719  -9.404  19.762  1.00  0.00     0.004 C 
ENDBRANCH  30  31
ENDBRANCH  29  30
ENDBRANCH  28  29
ENDBRANCH  27  28
ENDBRANCH  26  27
ENDBRANCH  25  26
ENDBRANCH  24  25
ENDBRANCH  23  24
ENDBRANCH  22  23
ENDBRANCH  21  22
ENDBRANCH  20  21
ENDBRANCH  19  20
ENDBRANCH  18  19
ENDBRANCH   1  18
TORSDOF 28
ENDMDL
