MODEL 1
REMARK VINA RESULT:    -3.979      0.000      0.000
REMARK INTER + INTRA:          -9.154
REMARK INTER:                  -7.235
REMARK INTRA:                  -1.919
REMARK UNBOUND:                -1.919
REMARK SMILES CCCCCCCCCCCCCCCC(=O)[O-]
REMARK SMILES IDX 9 1 10 2 11 3 12 4 13 5 14 6 15 7 16 8 17 9 18 10 8 11 7 12
REMARK SMILES IDX 6 13 5 14 4 15 3 16 2 17 1 18
REMARK H PARENT
REMARK Flexibility Score: inf
ROOT
ATOM      1  C   UNL     1      22.971  34.103  10.924  1.00  0.00     0.000 C 
ENDROOT
BRANCH   1   2
ATOM      2  C   UNL     1      22.895  34.988  12.173  1.00  0.00     0.000 C 
BRANCH   2   3
ATOM      3  C   UNL     1      22.575  34.151  13.421  1.00  0.00     0.000 C 
BRANCH   3   4
ATOM      4  C   UNL     1      22.916  34.882  14.730  1.00  0.00     0.000 C 
BRANCH   4   5
ATOM      5  C   UNL     1      21.940  36.031  15.035  1.00  0.00     0.000 C 
BRANCH   5   6
ATOM      6  C   UNL     1      22.655  37.340  15.419  1.00  0.00     0.006 C 
BRANCH   6   7
ATOM      7  C   UNL     1      24.003  37.550  14.708  1.00  0.00     0.053 C 
BRANCH   7   8
ATOM      8  C   UNL     1      24.240  38.983  14.337  1.00  0.00     0.041 C 
ATOM      9  O   UNL     1      23.894  39.409  13.204  1.00  0.00    -0.550 OA
ATOM     10  O   UNL     1      24.876  39.840  15.227  1.00  0.00    -0.550 OA
ENDBRANCH   7   8
ENDBRANCH   6   7
ENDBRANCH   5   6
ENDBRANCH   4   5
ENDBRANCH   3   4
ENDBRANCH   2   3
ENDBRANCH   1   2
BRANCH   1  11
ATOM     11  C   UNL     1      24.385  33.530  10.741  1.00  0.00     0.000 C 
BRANCH  11  12
ATOM     12  C   UNL     1      24.376  32.087  10.212  1.00  0.00    -0.000 C 
BRANCH  12  13
ATOM     13  C   UNL     1      25.292  31.156  11.022  1.00  0.00    -0.000 C 
BRANCH  13  14
ATOM     14  C   UNL     1      25.091  31.365  12.530  1.00  0.00    -0.000 C 
BRANCH  14  15
ATOM     15  C   UNL     1      26.353  31.892  13.235  1.00  0.00    -0.000 C 
BRANCH  15  16
ATOM     16  C   UNL     1      26.079  33.066  14.198  1.00  0.00    -0.000 C 
BRANCH  16  17
ATOM     17  C   UNL     1      26.509  34.416  13.606  1.00  0.00    -0.003 C 
ATOM     18  C   UNL     1      27.311  34.225  12.322  1.00  0.00     0.004 C 
ENDBRANCH  16  17
ENDBRANCH  15  16
ENDBRANCH  14  15
ENDBRANCH  13  14
ENDBRANCH  12  13
ENDBRANCH  11  12
ENDBRANCH   1  11
TORSDOF 14
ENDMDL
MODEL 2
REMARK VINA RESULT:    -3.717      1.942      5.279
REMARK INTER + INTRA:          -8.678
REMARK INTER:                  -6.722
REMARK INTRA:                  -1.955
REMARK UNBOUND:                -1.919
REMARK SMILES CCCCCCCCCCCCCCCC(=O)[O-]
REMARK SMILES IDX 9 1 10 2 11 3 12 4 13 5 14 6 15 7 16 8 17 9 18 10 8 11 7 12
REMARK SMILES IDX 6 13 5 14 4 15 3 16 2 17 1 18
REMARK H PARENT
REMARK Flexibility Score: inf
ROOT
ATOM      1  C   UNL     1      23.062  34.545  11.252  1.00  0.00     0.000 C 
ENDROOT
BRANCH   1   2
ATOM      2  C   UNL     1      23.637  33.152  11.530  1.00  0.00     0.000 C 
BRANCH   2   3
ATOM      3  C   UNL     1      24.732  32.796  10.511  1.00  0.00     0.000 C 
BRANCH   3   4
ATOM      4  C   UNL     1      25.512  31.528  10.897  1.00  0.00     0.000 C 
BRANCH   4   5
ATOM      5  C   UNL     1      25.362  31.174  12.385  1.00  0.00     0.000 C 
BRANCH   5   6
ATOM      6  C   UNL     1      26.465  31.794  13.264  1.00  0.00     0.006 C 
BRANCH   6   7
ATOM      7  C   UNL     1      25.932  32.634  14.438  1.00  0.00     0.053 C 
BRANCH   7   8
ATOM      8  C   UNL     1      26.326  34.077  14.338  1.00  0.00     0.041 C 
ATOM      9  O   UNL     1      26.364  34.646  13.215  1.00  0.00    -0.550 OA
ATOM     10  O   UNL     1      26.688  34.784  15.478  1.00  0.00    -0.550 OA
ENDBRANCH   7   8
ENDBRANCH   6   7
ENDBRANCH   5   6
ENDBRANCH   4   5
ENDBRANCH   3   4
ENDBRANCH   2   3
ENDBRANCH   1   2
BRANCH   1  11
ATOM     11  C   UNL     1      22.852  35.325  12.559  1.00  0.00     0.000 C 
BRANCH  11  12
ATOM     12  C   UNL     1      22.585  34.407  13.762  1.00  0.00    -0.000 C 
BRANCH  12  13
ATOM     13  C   UNL     1      22.847  35.104  15.106  1.00  0.00    -0.000 C 
BRANCH  13  14
ATOM     14  C   UNL     1      21.965  36.352  15.258  1.00  0.00    -0.000 C 
BRANCH  14  15
ATOM     15  C   UNL     1      22.776  37.628  15.541  1.00  0.00    -0.000 C 
BRANCH  15  16
ATOM     16  C   UNL     1      24.280  37.488  15.225  1.00  0.00    -0.000 C 
BRANCH  16  17
ATOM     17  C   UNL     1      24.654  38.129  13.880  1.00  0.00    -0.003 C 
ATOM     18  C   UNL     1      23.831  39.387  13.622  1.00  0.00     0.004 C 
ENDBRANCH  16  17
ENDBRANCH  15  16
ENDBRANCH  14  15
ENDBRANCH  13  14
ENDBRANCH  12  13
ENDBRANCH  11  12
ENDBRANCH   1  11
TORSDOF 14
ENDMDL
MODEL 3
REMARK VINA RESULT:    -3.674      2.700      5.809
REMARK INTER + INTRA:          -8.599
REMARK INTER:                  -6.136
REMARK INTRA:                  -2.463
REMARK UNBOUND:                -1.919
REMARK SMILES CCCCCCCCCCCCCCCC(=O)[O-]
REMARK SMILES IDX 9 1 10 2 11 3 12 4 13 5 14 6 15 7 16 8 17 9 18 10 8 11 7 12
REMARK SMILES IDX 6 13 5 14 4 15 3 16 2 17 1 18
REMARK H PARENT
REMARK Flexibility Score: inf
ROOT
ATOM      1  C   UNL     1      25.378  32.795  16.097  1.00  0.00     0.000 C 
ENDROOT
BRANCH   1   2
ATOM      2  C   UNL     1      25.579  34.309  15.966  1.00  0.00     0.000 C 
BRANCH   2   3
ATOM      3  C   UNL     1      26.634  34.634  14.897  1.00  0.00     0.000 C 
BRANCH   3   4
ATOM      4  C   UNL     1      26.027  34.795  13.493  1.00  0.00     0.000 C 
BRANCH   4   5
ATOM      5  C   UNL     1      26.721  33.910  12.446  1.00  0.00     0.000 C 
BRANCH   5   6
ATOM      6  C   UNL     1      26.254  32.443  12.494  1.00  0.00     0.006 C 
BRANCH   6   7
ATOM      7  C   UNL     1      24.765  32.248  12.158  1.00  0.00     0.053 C 
BRANCH   7   8
ATOM      8  C   UNL     1      24.421  32.723  10.779  1.00  0.00     0.041 C 
ATOM      9  O   UNL     1      24.740  32.034   9.774  1.00  0.00    -0.550 OA
ATOM     10  O   UNL     1      23.780  33.944  10.598  1.00  0.00    -0.550 OA
ENDBRANCH   7   8
ENDBRANCH   6   7
ENDBRANCH   5   6
ENDBRANCH   4   5
ENDBRANCH   3   4
ENDBRANCH   2   3
ENDBRANCH   1   2
BRANCH   1  11
ATOM     11  C   UNL     1      23.980  32.381  15.616  1.00  0.00     0.000 C 
BRANCH  11  12
ATOM     12  C   UNL     1      22.961  33.529  15.694  1.00  0.00    -0.000 C 
BRANCH  12  13
ATOM     13  C   UNL     1      22.294  33.820  14.341  1.00  0.00    -0.000 C 
BRANCH  13  14
ATOM     14  C   UNL     1      22.458  35.298  13.956  1.00  0.00    -0.000 C 
BRANCH  14  15
ATOM     15  C   UNL     1      22.164  36.258  15.121  1.00  0.00    -0.000 C 
BRANCH  15  16
ATOM     16  C   UNL     1      22.998  37.555  15.080  1.00  0.00    -0.000 C 
BRANCH  16  17
ATOM     17  C   UNL     1      23.816  37.680  13.786  1.00  0.00    -0.003 C 
ATOM     18  C   UNL     1      24.736  38.896  13.831  1.00  0.00     0.004 C 
ENDBRANCH  16  17
ENDBRANCH  15  16
ENDBRANCH  14  15
ENDBRANCH  13  14
ENDBRANCH  12  13
ENDBRANCH  11  12
ENDBRANCH   1  11
TORSDOF 14
ENDMDL
MODEL 4
REMARK VINA RESULT:    -3.605      2.722      5.868
REMARK INTER + INTRA:          -8.475
REMARK INTER:                  -6.465
REMARK INTRA:                  -2.010
REMARK UNBOUND:                -1.919
REMARK SMILES CCCCCCCCCCCCCCCC(=O)[O-]
REMARK SMILES IDX 9 1 10 2 11 3 12 4 13 5 14 6 15 7 16 8 17 9 18 10 8 11 7 12
REMARK SMILES IDX 6 13 5 14 4 15 3 16 2 17 1 18
REMARK H PARENT
REMARK Flexibility Score: inf
ROOT
ATOM      1  C   UNL     1      22.627  32.819  14.905  1.00  0.00     0.000 C 
ENDROOT
BRANCH   1   2
ATOM      2  C   UNL     1      24.028  32.234  15.120  1.00  0.00     0.000 C 
BRANCH   2   3
ATOM      3  C   UNL     1      25.038  33.339  15.467  1.00  0.00     0.000 C 
BRANCH   3   4
ATOM      4  C   UNL     1      26.303  33.283  14.594  1.00  0.00     0.000 C 
BRANCH   4   5
ATOM      5  C   UNL     1      26.307  34.357  13.493  1.00  0.00     0.000 C 
BRANCH   5   6
ATOM      6  C   UNL     1      26.573  33.778  12.091  1.00  0.00     0.006 C 
BRANCH   6   7
ATOM      7  C   UNL     1      25.815  32.471  11.798  1.00  0.00     0.053 C 
BRANCH   7   8
ATOM      8  C   UNL     1      24.841  32.613  10.668  1.00  0.00     0.041 C 
ATOM      9  O   UNL     1      24.787  31.736   9.765  1.00  0.00    -0.550 OA
ATOM     10  O   UNL     1      24.018  33.730  10.589  1.00  0.00    -0.550 OA
ENDBRANCH   7   8
ENDBRANCH   6   7
ENDBRANCH   5   6
ENDBRANCH   4   5
ENDBRANCH   3   4
ENDBRANCH   2   3
ENDBRANCH   1   2
BRANCH   1  11
ATOM     11  C   UNL     1      22.636  33.874  13.788  1.00  0.00     0.000 C 
BRANCH  11  12
ATOM     12  C   UNL     1      21.822  35.126  14.148  1.00  0.00    -0.000 C 
BRANCH  12  13
ATOM     13  C   UNL     1      22.016  35.558  15.609  1.00  0.00    -0.000 C 
BRANCH  13  14
ATOM     14  C   UNL     1      22.687  36.937  15.690  1.00  0.00    -0.000 C 
BRANCH  14  15
ATOM     15  C   UNL     1      24.172  36.905  15.291  1.00  0.00    -0.000 C 
BRANCH  15  16
ATOM     16  C   UNL     1      24.479  37.669  13.986  1.00  0.00    -0.000 C 
BRANCH  16  17
ATOM     17  C   UNL     1      24.128  39.161  14.089  1.00  0.00    -0.003 C 
ATOM     18  C   UNL     1      24.947  39.845  15.179  1.00  0.00     0.004 C 
ENDBRANCH  16  17
ENDBRANCH  15  16
ENDBRANCH  14  15
ENDBRANCH  13  14
ENDBRANCH  12  13
ENDBRANCH  11  12
ENDBRANCH   1  11
TORSDOF 14
ENDMDL
MODEL 5
REMARK VINA RESULT:    -3.594      1.264      2.801
REMARK INTER + INTRA:          -8.454
REMARK INTER:                  -6.031
REMARK INTRA:                  -2.423
REMARK UNBOUND:                -1.919
REMARK SMILES CCCCCCCCCCCCCCCC(=O)[O-]
REMARK SMILES IDX 9 1 10 2 11 3 12 4 13 5 14 6 15 7 16 8 17 9 18 10 8 11 7 12
REMARK SMILES IDX 6 13 5 14 4 15 3 16 2 17 1 18
REMARK H PARENT
REMARK Flexibility Score: inf
ROOT
ATOM      1  C   UNL     1      22.945  32.200  15.600  1.00  0.00     0.000 C 
ENDROOT
BRANCH   1   2
ATOM      2  C   UNL     1      22.103  33.400  15.149  1.00  0.00     0.000 C 
BRANCH   2   3
ATOM      3  C   UNL     1      22.492  33.841  13.729  1.00  0.00     0.000 C 
BRANCH   3   4
ATOM      4  C   UNL     1      22.676  35.363  13.610  1.00  0.00     0.000 C 
BRANCH   4   5
ATOM      5  C   UNL     1      22.368  36.098  14.925  1.00  0.00     0.000 C 
BRANCH   5   6
ATOM      6  C   UNL     1      23.548  36.950  15.427  1.00  0.00     0.006 C 
BRANCH   6   7
ATOM      7  C   UNL     1      24.460  37.481  14.307  1.00  0.00     0.053 C 
BRANCH   7   8
ATOM      8  C   UNL     1      24.374  38.969  14.153  1.00  0.00     0.041 C 
ATOM      9  O   UNL     1      23.872  39.471  13.113  1.00  0.00    -0.550 OA
ATOM     10  O   UNL     1      24.880  39.805  15.142  1.00  0.00    -0.550 OA
ENDBRANCH   7   8
ENDBRANCH   6   7
ENDBRANCH   5   6
ENDBRANCH   4   5
ENDBRANCH   3   4
ENDBRANCH   2   3
ENDBRANCH   1   2
BRANCH   1  11
ATOM     11  C   UNL     1      23.921  31.766  14.497  1.00  0.00     0.000 C 
BRANCH  11  12
ATOM     12  C   UNL     1      25.281  31.314  15.052  1.00  0.00    -0.000 C 
BRANCH  12  13
ATOM     13  C   UNL     1      26.449  32.152  14.509  1.00  0.00    -0.000 C 
BRANCH  13  14
ATOM     14  C   UNL     1      26.160  33.654  14.651  1.00  0.00    -0.000 C 
BRANCH  14  15
ATOM     15  C   UNL     1      26.247  34.410  13.315  1.00  0.00    -0.000 C 
BRANCH  15  16
ATOM     16  C   UNL     1      26.458  33.490  12.095  1.00  0.00    -0.000 C 
BRANCH  16  17
ATOM     17  C   UNL     1      25.219  33.431  11.190  1.00  0.00    -0.003 C 
ATOM     18  C   UNL     1      24.893  31.994  10.796  1.00  0.00     0.004 C 
ENDBRANCH  16  17
ENDBRANCH  15  16
ENDBRANCH  14  15
ENDBRANCH  13  14
ENDBRANCH  12  13
ENDBRANCH  11  12
ENDBRANCH   1  11
TORSDOF 14
ENDMDL
MODEL 6
REMARK VINA RESULT:    -3.434      1.089      2.720
REMARK INTER + INTRA:          -8.163
REMARK INTER:                  -6.371
REMARK INTRA:                  -1.792
REMARK UNBOUND:                -1.919
REMARK SMILES CCCCCCCCCCCCCCCC(=O)[O-]
REMARK SMILES IDX 9 1 10 2 11 3 12 4 13 5 14 6 15 7 16 8 17 9 18 10 8 11 7 12
REMARK SMILES IDX 6 13 5 14 4 15 3 16 2 17 1 18
REMARK H PARENT
REMARK Flexibility Score: inf
ROOT
ATOM      1  C   UNL     1      23.750  35.142  12.693  1.00  0.00     0.000 C 
ENDROOT
BRANCH   1   2
ATOM      2  C   UNL     1      22.501  34.323  13.039  1.00  0.00     0.000 C 
BRANCH   2   3
ATOM      3  C   UNL     1      22.291  34.257  14.560  1.00  0.00     0.000 C 
BRANCH   3   4
ATOM      4  C   UNL     1      21.305  35.322  15.069  1.00  0.00     0.000 C 
BRANCH   4   5
ATOM      5  C   UNL     1      21.959  36.308  16.051  1.00  0.00     0.000 C 
BRANCH   5   6
ATOM      6  C   UNL     1      22.431  37.608  15.372  1.00  0.00     0.006 C 
BRANCH   6   7
ATOM      7  C   UNL     1      23.792  38.119  15.876  1.00  0.00     0.053 C 
BRANCH   7   8
ATOM      8  C   UNL     1      24.435  39.078  14.920  1.00  0.00     0.041 C 
ATOM      9  O   UNL     1      25.045  40.091  15.353  1.00  0.00    -0.550 OA
ATOM     10  O   UNL     1      24.331  38.874  13.549  1.00  0.00    -0.550 OA
ENDBRANCH   7   8
ENDBRANCH   6   7
ENDBRANCH   5   6
ENDBRANCH   4   5
ENDBRANCH   3   4
ENDBRANCH   2   3
ENDBRANCH   1   2
BRANCH   1  11
ATOM     11  C   UNL     1      24.751  35.138  13.858  1.00  0.00     0.000 C 
BRANCH  11  12
ATOM     12  C   UNL     1      26.059  34.408  13.514  1.00  0.00    -0.000 C 
BRANCH  12  13
ATOM     13  C   UNL     1      26.253  33.124  14.335  1.00  0.00    -0.000 C 
BRANCH  13  14
ATOM     14  C   UNL     1      26.503  31.919  13.417  1.00  0.00    -0.000 C 
BRANCH  14  15
ATOM     15  C   UNL     1      25.221  31.133  13.096  1.00  0.00    -0.000 C 
BRANCH  15  16
ATOM     16  C   UNL     1      24.575  31.525  11.750  1.00  0.00    -0.000 C 
BRANCH  16  17
ATOM     17  C   UNL     1      25.464  31.163  10.552  1.00  0.00    -0.003 C 
ATOM     18  C   UNL     1      24.697  31.289   9.239  1.00  0.00     0.004 C 
ENDBRANCH  16  17
ENDBRANCH  15  16
ENDBRANCH  14  15
ENDBRANCH  13  14
ENDBRANCH  12  13
ENDBRANCH  11  12
ENDBRANCH   1  11
TORSDOF 14
ENDMDL
MODEL 7
REMARK VINA RESULT:    -3.408      1.293      2.149
REMARK INTER + INTRA:          -8.117
REMARK INTER:                  -6.016
REMARK INTRA:                  -2.100
REMARK UNBOUND:                -1.919
REMARK SMILES CCCCCCCCCCCCCCCC(=O)[O-]
REMARK SMILES IDX 9 1 10 2 11 3 12 4 13 5 14 6 15 7 16 8 17 9 18 10 8 11 7 12
REMARK SMILES IDX 6 13 5 14 4 15 3 16 2 17 1 18
REMARK H PARENT
REMARK Flexibility Score: inf
ROOT
ATOM      1  C   UNL     1      22.956  33.881  12.325  1.00  0.00     0.000 C 
ENDROOT
BRANCH   1   2
ATOM      2  C   UNL     1      22.956  35.272  12.970  1.00  0.00     0.000 C 
BRANCH   2   3
ATOM      3  C   UNL     1      22.996  35.167  14.503  1.00  0.00     0.000 C 
BRANCH   3   4
ATOM      4  C   UNL     1      21.805  35.868  15.177  1.00  0.00     0.000 C 
BRANCH   4   5
ATOM      5  C   UNL     1      22.195  37.211  15.816  1.00  0.00     0.000 C 
BRANCH   5   6
ATOM      6  C   UNL     1      23.701  37.314  16.123  1.00  0.00     0.006 C 
BRANCH   6   7
ATOM      7  C   UNL     1      24.337  38.649  15.697  1.00  0.00     0.053 C 
BRANCH   7   8
ATOM      8  C   UNL     1      24.361  38.826  14.209  1.00  0.00     0.041 C 
ATOM      9  O   UNL     1      25.103  38.099  13.497  1.00  0.00    -0.550 OA
ATOM     10  O   UNL     1      23.592  39.816  13.609  1.00  0.00    -0.550 OA
ENDBRANCH   7   8
ENDBRANCH   6   7
ENDBRANCH   5   6
ENDBRANCH   4   5
ENDBRANCH   3   4
ENDBRANCH   2   3
ENDBRANCH   1   2
BRANCH   1  11
ATOM     11  C   UNL     1      23.616  33.917  10.939  1.00  0.00     0.000 C 
BRANCH  11  12
ATOM     12  C   UNL     1      24.833  32.983  10.836  1.00  0.00    -0.000 C 
BRANCH  12  13
ATOM     13  C   UNL     1      26.054  33.518  11.600  1.00  0.00    -0.000 C 
BRANCH  13  14
ATOM     14  C   UNL     1      26.386  32.620  12.801  1.00  0.00    -0.000 C 
BRANCH  14  15
ATOM     15  C   UNL     1      26.254  33.349  14.149  1.00  0.00    -0.000 C 
BRANCH  15  16
ATOM     16  C   UNL     1      25.465  32.552  15.209  1.00  0.00    -0.000 C 
BRANCH  16  17
ATOM     17  C   UNL     1      24.670  31.392  14.592  1.00  0.00    -0.003 C 
ATOM     18  C   UNL     1      23.207  31.436  15.021  1.00  0.00     0.004 C 
ENDBRANCH  16  17
ENDBRANCH  15  16
ENDBRANCH  14  15
ENDBRANCH  13  14
ENDBRANCH  12  13
ENDBRANCH  11  12
ENDBRANCH   1  11
TORSDOF 14
ENDMDL
MODEL 8
REMARK VINA RESULT:    -3.385      0.916      2.886
REMARK INTER + INTRA:          -8.076
REMARK INTER:                  -6.213
REMARK INTRA:                  -1.862
REMARK UNBOUND:                -1.919
REMARK SMILES CCCCCCCCCCCCCCCC(=O)[O-]
REMARK SMILES IDX 9 1 10 2 11 3 12 4 13 5 14 6 15 7 16 8 17 9 18 10 8 11 7 12
REMARK SMILES IDX 6 13 5 14 4 15 3 16 2 17 1 18
REMARK H PARENT
REMARK Flexibility Score: inf
ROOT
ATOM      1  C   UNL     1      25.793  34.869  13.860  1.00  0.00     0.000 C 
ENDROOT
BRANCH   1   2
ATOM      2  C   UNL     1      25.984  34.644  15.365  1.00  0.00     0.000 C 
BRANCH   2   3
ATOM      3  C   UNL     1      24.642  34.340  16.050  1.00  0.00     0.000 C 
BRANCH   3   4
ATOM      4  C   UNL     1      23.433  34.673  15.160  1.00  0.00     0.000 C 
BRANCH   4   5
ATOM      5  C   UNL     1      22.540  35.769  15.765  1.00  0.00     0.000 C 
BRANCH   5   6
ATOM      6  C   UNL     1      22.768  37.151  15.124  1.00  0.00     0.006 C 
BRANCH   6   7
ATOM      7  C   UNL     1      24.018  37.883  15.643  1.00  0.00     0.053 C 
BRANCH   7   8
ATOM      8  C   UNL     1      24.372  39.077  14.810  1.00  0.00     0.041 C 
ATOM      9  O   UNL     1      23.979  39.155  13.616  1.00  0.00    -0.550 OA
ATOM     10  O   UNL     1      25.165  40.089  15.338  1.00  0.00    -0.550 OA
ENDBRANCH   7   8
ENDBRANCH   6   7
ENDBRANCH   5   6
ENDBRANCH   4   5
ENDBRANCH   3   4
ENDBRANCH   2   3
ENDBRANCH   1   2
BRANCH   1  11
ATOM     11  C   UNL     1      26.698  33.933  13.044  1.00  0.00     0.000 C 
BRANCH  11  12
ATOM     12  C   UNL     1      26.562  32.461  13.464  1.00  0.00    -0.000 C 
BRANCH  12  13
ATOM     13  C   UNL     1      25.351  31.772  12.818  1.00  0.00    -0.000 C 
BRANCH  13  14
ATOM     14  C   UNL     1      25.619  31.465  11.337  1.00  0.00    -0.000 C 
BRANCH  14  15
ATOM     15  C   UNL     1      24.482  31.930  10.413  1.00  0.00    -0.000 C 
BRANCH  15  16
ATOM     16  C   UNL     1      24.177  33.440  10.519  1.00  0.00    -0.000 C 
BRANCH  16  17
ATOM     17  C   UNL     1      23.075  33.739  11.545  1.00  0.00    -0.003 C 
ATOM     18  C   UNL     1      22.824  35.240  11.662  1.00  0.00     0.004 C 
ENDBRANCH  16  17
ENDBRANCH  15  16
ENDBRANCH  14  15
ENDBRANCH  13  14
ENDBRANCH  12  13
ENDBRANCH  11  12
ENDBRANCH   1  11
TORSDOF 14
ENDMDL
MODEL 9
REMARK VINA RESULT:    -3.232      2.768      6.259
REMARK INTER + INTRA:          -7.796
REMARK INTER:                  -5.574
REMARK INTRA:                  -2.222
REMARK UNBOUND:                -1.919
REMARK SMILES CCCCCCCCCCCCCCCC(=O)[O-]
REMARK SMILES IDX 9 1 10 2 11 3 12 4 13 5 14 6 15 7 16 8 17 9 18 10 8 11 7 12
REMARK SMILES IDX 6 13 5 14 4 15 3 16 2 17 1 18
REMARK H PARENT
REMARK Flexibility Score: inf
ROOT
ATOM      1  C   UNL     1      25.442  35.898  13.927  1.00  0.00     0.000 C 
ENDROOT
BRANCH   1   2
ATOM      2  C   UNL     1      26.313  34.647  14.098  1.00  0.00     0.000 C 
BRANCH   2   3
ATOM      3  C   UNL     1      25.758  33.739  15.207  1.00  0.00     0.000 C 
BRANCH   3   4
ATOM      4  C   UNL     1      26.305  32.304  15.127  1.00  0.00     0.000 C 
BRANCH   4   5
ATOM      5  C   UNL     1      25.411  31.379  14.284  1.00  0.00     0.000 C 
BRANCH   5   6
ATOM      6  C   UNL     1      25.871  31.272  12.818  1.00  0.00     0.006 C 
BRANCH   6   7
ATOM      7  C   UNL     1      24.716  31.180  11.805  1.00  0.00     0.053 C 
BRANCH   7   8
ATOM      8  C   UNL     1      24.887  32.121  10.652  1.00  0.00     0.041 C 
ATOM      9  O   UNL     1      25.138  33.338  10.860  1.00  0.00    -0.550 OA
ATOM     10  O   UNL     1      24.733  31.666   9.348  1.00  0.00    -0.550 OA
ENDBRANCH   7   8
ENDBRANCH   6   7
ENDBRANCH   5   6
ENDBRANCH   4   5
ENDBRANCH   3   4
ENDBRANCH   2   3
ENDBRANCH   1   2
BRANCH   1  11
ATOM     11  C   UNL     1      24.756  36.276  15.248  1.00  0.00     0.000 C 
BRANCH  11  12
ATOM     12  C   UNL     1      24.088  37.659  15.195  1.00  0.00    -0.000 C 
BRANCH  12  13
ATOM     13  C   UNL     1      22.568  37.589  15.403  1.00  0.00    -0.000 C 
BRANCH  13  14
ATOM     14  C   UNL     1      22.160  36.241  16.017  1.00  0.00    -0.000 C 
BRANCH  14  15
ATOM     15  C   UNL     1      21.392  35.343  15.033  1.00  0.00    -0.000 C 
BRANCH  15  16
ATOM     16  C   UNL     1      21.917  33.892  14.981  1.00  0.00    -0.000 C 
BRANCH  16  17
ATOM     17  C   UNL     1      22.525  33.542  13.615  1.00  0.00    -0.003 C 
ATOM     18  C   UNL     1      22.449  34.728  12.658  1.00  0.00     0.004 C 
ENDBRANCH  16  17
ENDBRANCH  15  16
ENDBRANCH  14  15
ENDBRANCH  13  14
ENDBRANCH  12  13
ENDBRANCH  11  12
ENDBRANCH   1  11
TORSDOF 14
ENDMDL
