MODEL 1
REMARK VINA RESULT:    -3.487      0.000      0.000
REMARK INTER + INTRA:          -4.350
REMARK INTER:                  -4.302
REMARK INTRA:                  -0.048
REMARK UNBOUND:                -0.048
REMARK SMILES CCCCCC(=O)[O-]
REMARK SMILES IDX 4 1 5 2 6 3 7 4 8 5 3 6 2 7 1 8
REMARK H PARENT
REMARK Flexibility Score: inf
ROOT
ATOM      1  C   UNL     1      10.966   7.288  -6.661  1.00  0.00     0.006 C 
ENDROOT
BRANCH   1   2
ATOM      2  C   UNL     1      10.206   6.047  -7.147  1.00  0.00     0.053 C 
BRANCH   2   3
ATOM      3  C   UNL     1      10.871   4.779  -6.709  1.00  0.00     0.041 C 
ATOM      4  O   UNL     1      11.720   4.220  -7.452  1.00  0.00    -0.550 OA
ATOM      5  O   UNL     1      10.578   4.232  -5.466  1.00  0.00    -0.550 OA
ENDBRANCH   2   3
ENDBRANCH   1   2
BRANCH   1   6
ATOM      6  C   UNL     1      10.587   8.549  -7.451  1.00  0.00     0.000 C 
BRANCH   6   7
ATOM      7  C   UNL     1      11.756   9.540  -7.496  1.00  0.00    -0.003 C 
ATOM      8  C   UNL     1      11.707  10.393  -8.761  1.00  0.00     0.004 C 
ENDBRANCH   6   7
ENDBRANCH   1   6
TORSDOF 4
ENDMDL
MODEL 2
REMARK VINA RESULT:    -3.348     15.613     16.250
REMARK INTER + INTRA:          -4.179
REMARK INTER:                  -4.017
REMARK INTRA:                  -0.163
REMARK UNBOUND:                -0.048
REMARK SMILES CCCCCC(=O)[O-]
REMARK SMILES IDX 4 1 5 2 6 3 7 4 8 5 3 6 2 7 1 8
REMARK H PARENT
REMARK Flexibility Score: inf
ROOT
ATOM      1  C   UNL     1      23.939  10.280   3.561  1.00  0.00     0.006 C 
ENDROOT
BRANCH   1   2
ATOM      2  C   UNL     1      24.222   9.555   2.239  1.00  0.00     0.053 C 
BRANCH   2   3
ATOM      3  C   UNL     1      24.502  10.516   1.125  1.00  0.00     0.041 C 
ATOM      4  O   UNL     1      24.283  11.746   1.281  1.00  0.00    -0.550 OA
ATOM      5  O   UNL     1      25.035  10.058  -0.073  1.00  0.00    -0.550 OA
ENDBRANCH   2   3
ENDBRANCH   1   2
BRANCH   1   6
ATOM      6  C   UNL     1      22.476  10.131   4.004  1.00  0.00     0.000 C 
BRANCH   6   7
ATOM      7  C   UNL     1      21.719   9.166   3.084  1.00  0.00    -0.003 C 
ATOM      8  C   UNL     1      20.438   9.802   2.552  1.00  0.00     0.004 C 
ENDBRANCH   6   7
ENDBRANCH   1   6
TORSDOF 4
ENDMDL
MODEL 3
REMARK VINA RESULT:    -3.336     14.887     15.571
REMARK INTER + INTRA:          -4.163
REMARK INTER:                  -3.976
REMARK INTRA:                  -0.188
REMARK UNBOUND:                -0.048
REMARK SMILES CCCCCC(=O)[O-]
REMARK SMILES IDX 4 1 5 2 6 3 7 4 8 5 3 6 2 7 1 8
REMARK H PARENT
REMARK Flexibility Score: inf
ROOT
ATOM      1  C   UNL     1      22.228  11.092   2.664  1.00  0.00     0.006 C 
ENDROOT
BRANCH   1   2
ATOM      2  C   UNL     1      23.155  11.338   1.466  1.00  0.00     0.053 C 
BRANCH   2   3
ATOM      3  C   UNL     1      24.186  10.260   1.331  1.00  0.00     0.041 C 
ATOM      4  O   UNL     1      24.861  10.161   0.273  1.00  0.00    -0.550 OA
ATOM      5  O   UNL     1      24.424   9.387   2.384  1.00  0.00    -0.550 OA
ENDBRANCH   2   3
ENDBRANCH   1   2
BRANCH   1   6
ATOM      6  C   UNL     1      20.758  10.951   2.243  1.00  0.00     0.000 C 
BRANCH   6   7
ATOM      7  C   UNL     1      20.204   9.577   2.635  1.00  0.00    -0.003 C 
ATOM      8  C   UNL     1      21.113   8.885   3.647  1.00  0.00     0.004 C 
ENDBRANCH   6   7
ENDBRANCH   1   6
TORSDOF 4
ENDMDL
MODEL 4
REMARK VINA RESULT:    -3.314      3.936      5.332
REMARK INTER + INTRA:          -4.136
REMARK INTER:                  -4.087
REMARK INTRA:                  -0.049
REMARK UNBOUND:                -0.048
REMARK SMILES CCCCCC(=O)[O-]
REMARK SMILES IDX 4 1 5 2 6 3 7 4 8 5 3 6 2 7 1 8
REMARK H PARENT
REMARK Flexibility Score: inf
ROOT
ATOM      1  C   UNL     1      11.628   9.235  -7.444  1.00  0.00     0.006 C 
ENDROOT
BRANCH   1   2
ATOM      2  C   UNL     1      11.336  10.188  -8.610  1.00  0.00     0.053 C 
BRANCH   2   3
ATOM      3  C   UNL     1      12.583  10.839  -9.122  1.00  0.00     0.041 C 
ATOM      4  O   UNL     1      12.867  10.786 -10.347  1.00  0.00    -0.550 OA
ATOM      5  O   UNL     1      13.414  11.533  -8.253  1.00  0.00    -0.550 OA
ENDBRANCH   2   3
ENDBRANCH   1   2
BRANCH   1   6
ATOM      6  C   UNL     1      10.534   8.169  -7.276  1.00  0.00     0.000 C 
BRANCH   6   7
ATOM      7  C   UNL     1      11.076   6.939  -6.538  1.00  0.00    -0.003 C 
ATOM      8  C   UNL     1      10.576   5.648  -7.179  1.00  0.00     0.004 C 
ENDBRANCH   6   7
ENDBRANCH   1   6
TORSDOF 4
ENDMDL
MODEL 5
REMARK VINA RESULT:    -3.265     16.352     16.851
REMARK INTER + INTRA:          -4.076
REMARK INTER:                  -3.997
REMARK INTRA:                  -0.079
REMARK UNBOUND:                -0.048
REMARK SMILES CCCCCC(=O)[O-]
REMARK SMILES IDX 4 1 5 2 6 3 7 4 8 5 3 6 2 7 1 8
REMARK H PARENT
REMARK Flexibility Score: inf
ROOT
ATOM      1  C   UNL     1      25.474  -0.610 -11.123  1.00  0.00     0.006 C 
ENDROOT
BRANCH   1   2
ATOM      2  C   UNL     1      25.240  -0.559  -9.608  1.00  0.00     0.053 C 
BRANCH   2   3
ATOM      3  C   UNL     1      26.453  -0.992  -8.842  1.00  0.00     0.041 C 
ATOM      4  O   UNL     1      27.010  -2.088  -9.108  1.00  0.00    -0.550 OA
ATOM      5  O   UNL     1      26.986  -0.169  -7.858  1.00  0.00    -0.550 OA
ENDBRANCH   2   3
ENDBRANCH   1   2
BRANCH   1   6
ATOM      6  C   UNL     1      24.159  -0.583 -11.916  1.00  0.00     0.000 C 
BRANCH   6   7
ATOM      7  C   UNL     1      24.407  -0.194 -13.377  1.00  0.00    -0.003 C 
ATOM      8  C   UNL     1      24.729   1.293 -13.505  1.00  0.00     0.004 C 
ENDBRANCH   6   7
ENDBRANCH   1   6
TORSDOF 4
ENDMDL
MODEL 6
REMARK VINA RESULT:    -3.232     16.505     17.459
REMARK INTER + INTRA:          -4.035
REMARK INTER:                  -3.912
REMARK INTRA:                  -0.124
REMARK UNBOUND:                -0.048
REMARK SMILES CCCCCC(=O)[O-]
REMARK SMILES IDX 4 1 5 2 6 3 7 4 8 5 3 6 2 7 1 8
REMARK H PARENT
REMARK Flexibility Score: inf
ROOT
ATOM      1  C   UNL     1      24.914  -2.861  -7.899  1.00  0.00     0.006 C 
ENDROOT
BRANCH   1   2
ATOM      2  C   UNL     1      24.464  -1.888  -8.996  1.00  0.00     0.053 C 
BRANCH   2   3
ATOM      3  C   UNL     1      25.541  -0.908  -9.347  1.00  0.00     0.041 C 
ATOM      4  O   UNL     1      26.470  -0.670  -8.531  1.00  0.00    -0.550 OA
ATOM      5  O   UNL     1      25.538  -0.282 -10.587  1.00  0.00    -0.550 OA
ENDBRANCH   2   3
ENDBRANCH   1   2
BRANCH   1   6
ATOM      6  C   UNL     1      24.742  -4.329  -8.317  1.00  0.00     0.000 C 
BRANCH   6   7
ATOM      7  C   UNL     1      23.740  -4.457  -9.471  1.00  0.00    -0.003 C 
ATOM      8  C   UNL     1      23.050  -5.818  -9.453  1.00  0.00     0.004 C 
ENDBRANCH   6   7
ENDBRANCH   1   6
TORSDOF 4
ENDMDL
MODEL 7
REMARK VINA RESULT:    -3.216     14.734     15.317
REMARK INTER + INTRA:          -4.016
REMARK INTER:                  -3.863
REMARK INTRA:                  -0.152
REMARK UNBOUND:                -0.048
REMARK SMILES CCCCCC(=O)[O-]
REMARK SMILES IDX 4 1 5 2 6 3 7 4 8 5 3 6 2 7 1 8
REMARK H PARENT
REMARK Flexibility Score: inf
ROOT
ATOM      1  C   UNL     1      22.815   9.884   3.464  1.00  0.00     0.006 C 
ENDROOT
BRANCH   1   2
ATOM      2  C   UNL     1      21.506   9.221   3.017  1.00  0.00     0.053 C 
BRANCH   2   3
ATOM      3  C   UNL     1      20.560  10.210   2.407  1.00  0.00     0.041 C 
ATOM      4  O   UNL     1      19.397   9.855   2.081  1.00  0.00    -0.550 OA
ATOM      5  O   UNL     1      20.952  11.530   2.230  1.00  0.00    -0.550 OA
ENDBRANCH   2   3
ENDBRANCH   1   2
BRANCH   1   6
ATOM      6  C   UNL     1      23.989   9.537   2.537  1.00  0.00     0.000 C 
BRANCH   6   7
ATOM      7  C   UNL     1      24.318  10.710   1.607  1.00  0.00    -0.003 C 
ATOM      8  C   UNL     1      24.892  10.218   0.281  1.00  0.00     0.004 C 
ENDBRANCH   6   7
ENDBRANCH   1   6
TORSDOF 4
ENDMDL
MODEL 8
REMARK VINA RESULT:    -3.187      4.629      6.298
REMARK INTER + INTRA:          -3.980
REMARK INTER:                  -3.923
REMARK INTRA:                  -0.057
REMARK UNBOUND:                -0.048
REMARK SMILES CCCCCC(=O)[O-]
REMARK SMILES IDX 4 1 5 2 6 3 7 4 8 5 3 6 2 7 1 8
REMARK H PARENT
REMARK Flexibility Score: inf
ROOT
ATOM      1  C   UNL     1      11.516  10.617  -8.996  1.00  0.00     0.006 C 
ENDROOT
BRANCH   1   2
ATOM      2  C   UNL     1      12.759  10.754  -9.885  1.00  0.00     0.053 C 
BRANCH   2   3
ATOM      3  C   UNL     1      12.443  11.425 -11.186  1.00  0.00     0.041 C 
ATOM      4  O   UNL     1      11.274  11.383 -11.651  1.00  0.00    -0.550 OA
ATOM      5  O   UNL     1      13.430  12.124 -11.867  1.00  0.00    -0.550 OA
ENDBRANCH   2   3
ENDBRANCH   1   2
BRANCH   1   6
ATOM      6  C   UNL     1      11.812   9.856  -7.695  1.00  0.00     0.000 C 
BRANCH   6   7
ATOM      7  C   UNL     1      10.684   8.871  -7.368  1.00  0.00    -0.003 C 
ATOM      8  C   UNL     1      11.230   7.610  -6.703  1.00  0.00     0.004 C 
ENDBRANCH   6   7
ENDBRANCH   1   6
TORSDOF 4
ENDMDL
MODEL 9
REMARK VINA RESULT:    -3.185      3.066      4.652
REMARK INTER + INTRA:          -3.978
REMARK INTER:                  -3.901
REMARK INTRA:                  -0.076
REMARK UNBOUND:                -0.048
REMARK SMILES CCCCCC(=O)[O-]
REMARK SMILES IDX 4 1 5 2 6 3 7 4 8 5 3 6 2 7 1 8
REMARK H PARENT
REMARK Flexibility Score: inf
ROOT
ATOM      1  C   UNL     1      11.027   7.226  -6.709  1.00  0.00     0.006 C 
ENDROOT
BRANCH   1   2
ATOM      2  C   UNL     1      10.620   8.483  -7.489  1.00  0.00     0.053 C 
BRANCH   2   3
ATOM      3  C   UNL     1      11.580   9.610  -7.267  1.00  0.00     0.041 C 
ATOM      4  O   UNL     1      12.422   9.908  -8.155  1.00  0.00    -0.550 OA
ATOM      5  O   UNL     1      11.524  10.353  -6.095  1.00  0.00    -0.550 OA
ENDBRANCH   2   3
ENDBRANCH   1   2
BRANCH   1   6
ATOM      6  C   UNL     1      10.175   6.005  -7.089  1.00  0.00     0.000 C 
BRANCH   6   7
ATOM      7  C   UNL     1      11.008   4.719  -7.044  1.00  0.00    -0.003 C 
ATOM      8  C   UNL     1      12.034   4.766  -5.916  1.00  0.00     0.004 C 
ENDBRANCH   6   7
ENDBRANCH   1   6
TORSDOF 4
ENDMDL
