MODEL 1
REMARK VINA RESULT:    -6.914      0.000      0.000
REMARK INTER + INTRA:          -8.391
REMARK INTER:                  -8.126
REMARK INTRA:                  -0.265
REMARK UNBOUND:                -0.265
REMARK SMILES O=c1cc(-c2ccc(O)c(O)c2)oc2cc(O)cc(O)c12
REMARK SMILES IDX 4 1 3 2 2 3 1 4 21 5 19 6 18 7 16 8 15 9 14 10 13 11 5 12
REMARK SMILES IDX 6 13 7 14 8 15 12 16 10 17 9 18 11 20 20 22 17 24
REMARK H PARENT 9 19 11 21 20 23 17 25
REMARK Flexibility Score: inf
ROOT
ATOM      1  C   UNL     1      -5.557  -9.186  23.323  1.00  0.00     0.138 A 
ATOM      2  C   UNL     1      -5.360  -7.998  22.606  1.00  0.00     0.100 A 
ATOM      3  C   UNL     1      -6.320  -6.987  22.669  1.00  0.00     0.197 A 
ATOM      4  O   UNL     1      -6.145  -5.958  21.966  1.00  0.00    -0.289 OA
ATOM      5  C   UNL     1      -7.467  -7.157  23.480  1.00  0.00     0.107 A 
ATOM      6  C   UNL     1      -8.491  -6.178  23.653  1.00  0.00     0.134 A 
ATOM      7  C   UNL     1      -9.638  -6.502  24.389  1.00  0.00     0.093 A 
ATOM      8  C   UNL     1      -9.770  -7.748  25.007  1.00  0.00     0.123 A 
ATOM      9  C   UNL     1      -8.752  -8.690  24.888  1.00  0.00     0.094 A 
ATOM     10  C   UNL     1      -7.611  -8.410  24.133  1.00  0.00     0.146 A 
ATOM     11  O   UNL     1      -6.669  -9.342  24.033  1.00  0.00    -0.456 OA
ENDROOT
BRANCH   1  12
ATOM     12  C   UNL     1      -4.568 -10.294  23.292  1.00  0.00     0.021 A 
ATOM     13  C   UNL     1      -4.629 -11.248  22.261  1.00  0.00     0.016 A 
ATOM     14  C   UNL     1      -3.715 -12.303  22.214  1.00  0.00     0.051 A 
ATOM     15  C   UNL     1      -2.730 -12.428  23.201  1.00  0.00     0.157 A 
ATOM     16  C   UNL     1      -3.582 -10.434  24.288  1.00  0.00     0.062 A 
ATOM     17  C   UNL     1      -2.665 -11.494  24.241  1.00  0.00     0.158 A 
BRANCH  15  18
ATOM     18  O   UNL     1      -1.815 -13.478  23.155  1.00  0.00    -0.504 OA
ATOM     19  H   UNL     1      -1.903 -14.230  22.482  1.00  0.00     0.293 HD
ENDBRANCH  15  18
BRANCH  17  20
ATOM     20  O   UNL     1      -1.690 -11.628  25.228  1.00  0.00    -0.504 OA
ATOM     21  H   UNL     1      -1.615 -12.467  25.790  1.00  0.00     0.293 HD
ENDBRANCH  17  20
ENDBRANCH   1  12
BRANCH   6  22
ATOM     22  O   UNL     1      -8.420  -4.875  23.150  1.00  0.00    -0.507 OA
ATOM     23  H   UNL     1      -8.055  -4.626  22.244  1.00  0.00     0.293 HD
ENDBRANCH   6  22
BRANCH   8  24
ATOM     24  O   UNL     1     -10.908  -8.056  25.749  1.00  0.00    -0.508 OA
ATOM     25  H   UNL     1     -11.704  -8.523  25.330  1.00  0.00     0.293 HD
ENDBRANCH   8  24
TORSDOF 5
ENDMDL
MODEL 2
REMARK VINA RESULT:    -6.823      2.000      7.457
REMARK INTER + INTRA:          -8.284
REMARK INTER:                  -7.992
REMARK INTRA:                  -0.292
REMARK UNBOUND:                -0.265
REMARK SMILES O=c1cc(-c2ccc(O)c(O)c2)oc2cc(O)cc(O)c12
REMARK SMILES IDX 4 1 3 2 2 3 1 4 21 5 19 6 18 7 16 8 15 9 14 10 13 11 5 12
REMARK SMILES IDX 6 13 7 14 8 15 12 16 10 17 9 18 11 20 20 22 17 24
REMARK H PARENT 9 19 11 21 20 23 17 25
REMARK Flexibility Score: inf
ROOT
ATOM      1  C   UNL     1      -7.796  -7.705  24.500  1.00  0.00     0.138 A 
ATOM      2  C   UNL     1      -7.713  -9.103  24.523  1.00  0.00     0.100 A 
ATOM      3  C   UNL     1      -6.522  -9.731  24.156  1.00  0.00     0.197 A 
ATOM      4  O   UNL     1      -6.497 -10.988  24.126  1.00  0.00    -0.289 OA
ATOM      5  C   UNL     1      -5.399  -8.948  23.795  1.00  0.00     0.107 A 
ATOM      6  C   UNL     1      -4.120  -9.477  23.442  1.00  0.00     0.134 A 
ATOM      7  C   UNL     1      -3.117  -8.612  22.991  1.00  0.00     0.093 A 
ATOM      8  C   UNL     1      -3.326  -7.231  22.937  1.00  0.00     0.123 A 
ATOM      9  C   UNL     1      -4.552  -6.701  23.330  1.00  0.00     0.094 A 
ATOM     10  C   UNL     1      -5.584  -7.541  23.753  1.00  0.00     0.146 A 
ATOM     11  O   UNL     1      -6.743  -6.996  24.105  1.00  0.00    -0.456 OA
ENDROOT
BRANCH   1  12
ATOM     12  C   UNL     1      -9.039  -6.987  24.882  1.00  0.00     0.021 A 
ATOM     13  C   UNL     1      -9.242  -5.669  24.434  1.00  0.00     0.016 A 
ATOM     14  C   UNL     1     -10.399  -4.970  24.785  1.00  0.00     0.051 A 
ATOM     15  C   UNL     1     -11.368  -5.570  25.598  1.00  0.00     0.157 A 
ATOM     16  C   UNL     1     -10.012  -7.579  25.710  1.00  0.00     0.062 A 
ATOM     17  C   UNL     1     -11.172  -6.876  26.064  1.00  0.00     0.158 A 
BRANCH  15  18
ATOM     18  O   UNL     1     -12.523  -4.875  25.949  1.00  0.00    -0.504 OA
ATOM     19  H   UNL     1     -12.831  -4.809  26.912  1.00  0.00     0.293 HD
ENDBRANCH  15  18
BRANCH  17  20
ATOM     20  O   UNL     1     -12.134  -7.466  26.882  1.00  0.00    -0.504 OA
ATOM     21  H   UNL     1     -13.097  -7.564  26.583  1.00  0.00     0.293 HD
ENDBRANCH  17  20
ENDBRANCH   1  12
BRANCH   6  22
ATOM     22  O   UNL     1      -3.780 -10.830  23.542  1.00  0.00    -0.507 OA
ATOM     23  H   UNL     1      -4.439 -11.582  23.674  1.00  0.00     0.293 HD
ENDBRANCH   6  22
BRANCH   8  24
ATOM     24  O   UNL     1      -2.316  -6.377  22.499  1.00  0.00    -0.508 OA
ATOM     25  H   UNL     1      -2.296  -5.399  22.765  1.00  0.00     0.293 HD
ENDBRANCH   8  24
TORSDOF 5
ENDMDL
MODEL 3
REMARK VINA RESULT:    -6.780      2.118      7.429
REMARK INTER + INTRA:          -8.234
REMARK INTER:                  -7.917
REMARK INTRA:                  -0.318
REMARK UNBOUND:                -0.265
REMARK SMILES O=c1cc(-c2ccc(O)c(O)c2)oc2cc(O)cc(O)c12
REMARK SMILES IDX 4 1 3 2 2 3 1 4 21 5 19 6 18 7 16 8 15 9 14 10 13 11 5 12
REMARK SMILES IDX 6 13 7 14 8 15 12 16 10 17 9 18 11 20 20 22 17 24
REMARK H PARENT 9 19 11 21 20 23 17 25
REMARK Flexibility Score: inf
ROOT
ATOM      1  C   UNL     1      -4.927  -8.921  23.872  1.00  0.00     0.138 A 
ATOM      2  C   UNL     1      -4.893 -10.248  24.322  1.00  0.00     0.100 A 
ATOM      3  C   UNL     1      -3.667 -10.902  24.451  1.00  0.00     0.197 A 
ATOM      4  O   UNL     1      -3.673 -12.111  24.796  1.00  0.00    -0.289 OA
ATOM      5  C   UNL     1      -2.468 -10.211  24.158  1.00  0.00     0.107 A 
ATOM      6  C   UNL     1      -1.158 -10.763  24.292  1.00  0.00     0.134 A 
ATOM      7  C   UNL     1      -0.050 -10.023  23.862  1.00  0.00     0.093 A 
ATOM      8  C   UNL     1      -0.199  -8.728  23.359  1.00  0.00     0.123 A 
ATOM      9  C   UNL     1      -1.468  -8.160  23.274  1.00  0.00     0.094 A 
ATOM     10  C   UNL     1      -2.596  -8.886  23.663  1.00  0.00     0.146 A 
ATOM     11  O   UNL     1      -3.790  -8.313  23.552  1.00  0.00    -0.456 OA
ENDROOT
BRANCH   1  12
ATOM     12  C   UNL     1      -6.203  -8.178  23.718  1.00  0.00     0.021 A 
ATOM     13  C   UNL     1      -7.417  -8.812  24.041  1.00  0.00     0.016 A 
ATOM     14  C   UNL     1      -8.631  -8.137  23.899  1.00  0.00     0.051 A 
ATOM     15  C   UNL     1      -8.656  -6.821  23.421  1.00  0.00     0.157 A 
ATOM     16  C   UNL     1      -6.238  -6.858  23.226  1.00  0.00     0.062 A 
ATOM     17  C   UNL     1      -7.458  -6.181  23.082  1.00  0.00     0.158 A 
BRANCH  15  18
ATOM     18  O   UNL     1      -9.866  -6.145  23.279  1.00  0.00    -0.504 OA
ATOM     19  H   UNL     1     -10.309  -6.034  22.375  1.00  0.00     0.293 HD
ENDBRANCH  15  18
BRANCH  17  20
ATOM     20  O   UNL     1      -7.487  -4.875  22.597  1.00  0.00    -0.504 OA
ATOM     21  H   UNL     1      -6.636  -4.354  22.426  1.00  0.00     0.293 HD
ENDBRANCH  17  20
ENDBRANCH   1  12
BRANCH   6  22
ATOM     22  O   UNL     1      -0.893 -12.012  24.861  1.00  0.00    -0.507 OA
ATOM     23  H   UNL     1      -0.167 -12.642  24.557  1.00  0.00     0.293 HD
ENDBRANCH   6  22
BRANCH   8  24
ATOM     24  O   UNL     1       0.911  -7.994  22.947  1.00  0.00    -0.508 OA
ATOM     25  H   UNL     1       0.986  -7.630  22.004  1.00  0.00     0.293 HD
ENDBRANCH   8  24
TORSDOF 5
ENDMDL
MODEL 4
REMARK VINA RESULT:    -6.690      2.194      7.410
REMARK INTER + INTRA:          -8.128
REMARK INTER:                  -7.832
REMARK INTRA:                  -0.297
REMARK UNBOUND:                -0.265
REMARK SMILES O=c1cc(-c2ccc(O)c(O)c2)oc2cc(O)cc(O)c12
REMARK SMILES IDX 4 1 3 2 2 3 1 4 21 5 19 6 18 7 16 8 15 9 14 10 13 11 5 12
REMARK SMILES IDX 6 13 7 14 8 15 12 16 10 17 9 18 11 20 20 22 17 24
REMARK H PARENT 9 19 11 21 20 23 17 25
REMARK Flexibility Score: inf
ROOT
ATOM      1  C   UNL     1      -4.994  -8.758  23.906  1.00  0.00     0.138 A 
ATOM      2  C   UNL     1      -4.936 -10.108  24.278  1.00  0.00     0.100 A 
ATOM      3  C   UNL     1      -3.700 -10.752  24.347  1.00  0.00     0.197 A 
ATOM      4  O   UNL     1      -3.684 -11.979  24.623  1.00  0.00    -0.289 OA
ATOM      5  C   UNL     1      -2.515 -10.029  24.072  1.00  0.00     0.107 A 
ATOM      6  C   UNL     1      -1.196 -10.570  24.151  1.00  0.00     0.134 A 
ATOM      7  C   UNL     1      -0.106  -9.792  23.744  1.00  0.00     0.093 A 
ATOM      8  C   UNL     1      -0.280  -8.473  23.318  1.00  0.00     0.123 A 
ATOM      9  C   UNL     1      -1.557  -7.918  23.289  1.00  0.00     0.094 A 
ATOM     10  C   UNL     1      -2.668  -8.680  23.656  1.00  0.00     0.146 A 
ATOM     11  O   UNL     1      -3.871  -8.117  23.600  1.00  0.00    -0.456 OA
ENDROOT
BRANCH   1  12
ATOM     12  C   UNL     1      -6.282  -8.024  23.818  1.00  0.00     0.021 A 
ATOM     13  C   UNL     1      -6.286  -6.681  23.401  1.00  0.00     0.016 A 
ATOM     14  C   UNL     1      -7.484  -5.966  23.316  1.00  0.00     0.051 A 
ATOM     15  C   UNL     1      -8.696  -6.578  23.656  1.00  0.00     0.157 A 
ATOM     16  C   UNL     1      -7.505  -8.628  24.170  1.00  0.00     0.062 A 
ATOM     17  C   UNL     1      -8.707  -7.910  24.087  1.00  0.00     0.158 A 
BRANCH  15  18
ATOM     18  O   UNL     1      -9.892  -5.868  23.572  1.00  0.00    -0.504 OA
ATOM     19  H   UNL     1     -10.723  -6.166  24.070  1.00  0.00     0.293 HD
ENDBRANCH  15  18
BRANCH  17  20
ATOM     20  O   UNL     1      -9.915  -8.512  24.434  1.00  0.00    -0.504 OA
ATOM     21  H   UNL     1      -9.981  -9.509  24.602  1.00  0.00     0.293 HD
ENDBRANCH  17  20
ENDBRANCH   1  12
BRANCH   6  22
ATOM     22  O   UNL     1      -0.904 -11.846  24.643  1.00  0.00    -0.507 OA
ATOM     23  H   UNL     1      -1.355 -12.697  24.344  1.00  0.00     0.293 HD
ENDBRANCH   6  22
BRANCH   8  24
ATOM     24  O   UNL     1       0.813  -7.702  22.928  1.00  0.00    -0.508 OA
ATOM     25  H   UNL     1       1.700  -8.126  22.681  1.00  0.00     0.293 HD
ENDBRANCH   8  24
TORSDOF 5
ENDMDL
MODEL 5
REMARK VINA RESULT:    -6.654      2.267      7.289
REMARK INTER + INTRA:          -8.086
REMARK INTER:                  -7.788
REMARK INTRA:                  -0.297
REMARK UNBOUND:                -0.265
REMARK SMILES O=c1cc(-c2ccc(O)c(O)c2)oc2cc(O)cc(O)c12
REMARK SMILES IDX 4 1 3 2 2 3 1 4 21 5 19 6 18 7 16 8 15 9 14 10 13 11 5 12
REMARK SMILES IDX 6 13 7 14 8 15 12 16 10 17 9 18 11 20 20 22 17 24
REMARK H PARENT 9 19 11 21 20 23 17 25
REMARK Flexibility Score: inf
ROOT
ATOM      1  C   UNL     1      -8.206  -6.622  24.650  1.00  0.00     0.138 A 
ATOM      2  C   UNL     1      -7.237  -5.611  24.588  1.00  0.00     0.100 A 
ATOM      3  C   UNL     1      -5.947  -5.918  24.155  1.00  0.00     0.197 A 
ATOM      4  O   UNL     1      -5.083  -5.004  24.169  1.00  0.00    -0.289 OA
ATOM      5  C   UNL     1      -5.636  -7.239  23.752  1.00  0.00     0.107 A 
ATOM      6  C   UNL     1      -4.366  -7.658  23.254  1.00  0.00     0.134 A 
ATOM      7  C   UNL     1      -4.141  -9.016  22.995  1.00  0.00     0.093 A 
ATOM      8  C   UNL     1      -5.158  -9.960  23.160  1.00  0.00     0.123 A 
ATOM      9  C   UNL     1      -6.416  -9.552  23.594  1.00  0.00     0.094 A 
ATOM     10  C   UNL     1      -6.663  -8.210  23.892  1.00  0.00     0.146 A 
ATOM     11  O   UNL     1      -7.873  -7.865  24.318  1.00  0.00    -0.456 OA
ENDROOT
BRANCH   1  12
ATOM     12  C   UNL     1      -9.594  -6.351  25.102  1.00  0.00     0.021 A 
ATOM     13  C   UNL     1     -10.229  -5.159  24.709  1.00  0.00     0.016 A 
ATOM     14  C   UNL     1     -11.532  -4.877  25.127  1.00  0.00     0.051 A 
ATOM     15  C   UNL     1     -12.219  -5.775  25.952  1.00  0.00     0.157 A 
ATOM     16  C   UNL     1     -10.288  -7.243  25.943  1.00  0.00     0.062 A 
ATOM     17  C   UNL     1     -11.595  -6.958  26.364  1.00  0.00     0.158 A 
BRANCH  15  18
ATOM     18  O   UNL     1     -13.519  -5.496  26.369  1.00  0.00    -0.504 OA
ATOM     19  H   UNL     1     -13.721  -5.197  27.315  1.00  0.00     0.293 HD
ENDBRANCH  15  18
BRANCH  17  20
ATOM     20  O   UNL     1     -12.278  -7.845  27.194  1.00  0.00    -0.504 OA
ATOM     21  H   UNL     1     -12.754  -8.659  26.823  1.00  0.00     0.293 HD
ENDBRANCH  17  20
ENDBRANCH   1  12
BRANCH   6  22
ATOM     22  O   UNL     1      -3.310  -6.785  22.974  1.00  0.00    -0.507 OA
ATOM     23  H   UNL     1      -2.852  -6.702  22.079  1.00  0.00     0.293 HD
ENDBRANCH   6  22
BRANCH   8  24
ATOM     24  O   UNL     1      -4.928 -11.306  22.886  1.00  0.00    -0.508 OA
ATOM     25  H   UNL     1      -4.183 -11.602  22.267  1.00  0.00     0.293 HD
ENDBRANCH   8  24
TORSDOF 5
ENDMDL
MODEL 6
REMARK VINA RESULT:    -6.619      1.846      7.005
REMARK INTER + INTRA:          -8.044
REMARK INTER:                  -7.728
REMARK INTRA:                  -0.317
REMARK UNBOUND:                -0.265
REMARK SMILES O=c1cc(-c2ccc(O)c(O)c2)oc2cc(O)cc(O)c12
REMARK SMILES IDX 4 1 3 2 2 3 1 4 21 5 19 6 18 7 16 8 15 9 14 10 13 11 5 12
REMARK SMILES IDX 6 13 7 14 8 15 12 16 10 17 9 18 11 20 20 22 17 24
REMARK H PARENT 9 19 11 21 20 23 17 25
REMARK Flexibility Score: inf
ROOT
ATOM      1  C   UNL     1      -4.921  -8.254  23.819  1.00  0.00     0.138 A 
ATOM      2  C   UNL     1      -3.754  -7.481  23.756  1.00  0.00     0.100 A 
ATOM      3  C   UNL     1      -2.510  -8.111  23.716  1.00  0.00     0.197 A 
ATOM      4  O   UNL     1      -1.479  -7.391  23.723  1.00  0.00    -0.289 OA
ATOM      5  C   UNL     1      -2.438  -9.524  23.708  1.00  0.00     0.107 A 
ATOM      6  C   UNL     1      -1.227 -10.276  23.628  1.00  0.00     0.134 A 
ATOM      7  C   UNL     1      -1.272 -11.670  23.745  1.00  0.00     0.093 A 
ATOM      8  C   UNL     1      -2.489 -12.345  23.878  1.00  0.00     0.123 A 
ATOM      9  C   UNL     1      -3.680 -11.623  23.902  1.00  0.00     0.094 A 
ATOM     10  C   UNL     1      -3.666 -10.229  23.822  1.00  0.00     0.146 A 
ATOM     11  O   UNL     1      -4.823  -9.578  23.864  1.00  0.00    -0.456 OA
ENDROOT
BRANCH   1  12
ATOM     12  C   UNL     1      -6.271  -7.635  23.861  1.00  0.00     0.021 A 
ATOM     13  C   UNL     1      -6.400  -6.246  23.682  1.00  0.00     0.016 A 
ATOM     14  C   UNL     1      -7.658  -5.638  23.724  1.00  0.00     0.051 A 
ATOM     15  C   UNL     1      -8.805  -6.406  23.956  1.00  0.00     0.157 A 
ATOM     16  C   UNL     1      -7.429  -8.398  24.107  1.00  0.00     0.062 A 
ATOM     17  C   UNL     1      -8.690  -7.787  24.151  1.00  0.00     0.158 A 
BRANCH  15  18
ATOM     18  O   UNL     1     -10.061  -5.803  23.998  1.00  0.00    -0.504 OA
ATOM     19  H   UNL     1     -10.555  -5.548  23.151  1.00  0.00     0.293 HD
ENDBRANCH  15  18
BRANCH  17  20
ATOM     20  O   UNL     1      -9.834  -8.546  24.392  1.00  0.00    -0.504 OA
ATOM     21  H   UNL     1     -10.591  -8.197  24.967  1.00  0.00     0.293 HD
ENDBRANCH  17  20
ENDBRANCH   1  12
BRANCH   6  22
ATOM     22  O   UNL     1       0.032  -9.707  23.411  1.00  0.00    -0.507 OA
ATOM     23  H   UNL     1       0.200  -8.855  22.898  1.00  0.00     0.293 HD
ENDBRANCH   6  22
BRANCH   8  24
ATOM     24  O   UNL     1      -2.524 -13.733  23.979  1.00  0.00    -0.508 OA
ATOM     25  H   UNL     1      -3.109 -14.201  24.661  1.00  0.00     0.293 HD
ENDBRANCH   8  24
TORSDOF 5
ENDMDL
MODEL 7
REMARK VINA RESULT:    -6.306      2.693      3.857
REMARK INTER + INTRA:          -7.677
REMARK INTER:                  -7.361
REMARK INTRA:                  -0.316
REMARK UNBOUND:                -0.265
REMARK SMILES O=c1cc(-c2ccc(O)c(O)c2)oc2cc(O)cc(O)c12
REMARK SMILES IDX 4 1 3 2 2 3 1 4 21 5 19 6 18 7 16 8 15 9 14 10 13 11 5 12
REMARK SMILES IDX 6 13 7 14 8 15 12 16 10 17 9 18 11 20 20 22 17 24
REMARK H PARENT 9 19 11 21 20 23 17 25
REMARK Flexibility Score: inf
ROOT
ATOM      1  C   UNL     1      -3.819  -8.717  23.783  1.00  0.00     0.138 A 
ATOM      2  C   UNL     1      -4.538  -9.729  24.433  1.00  0.00     0.100 A 
ATOM      3  C   UNL     1      -5.919  -9.605  24.585  1.00  0.00     0.197 A 
ATOM      4  O   UNL     1      -6.528 -10.499  25.227  1.00  0.00    -0.289 OA
ATOM      5  C   UNL     1      -6.586  -8.476  24.053  1.00  0.00     0.107 A 
ATOM      6  C   UNL     1      -7.997  -8.264  24.112  1.00  0.00     0.134 A 
ATOM      7  C   UNL     1      -8.532  -7.054  23.654  1.00  0.00     0.093 A 
ATOM      8  C   UNL     1      -7.715  -6.073  23.085  1.00  0.00     0.123 A 
ATOM      9  C   UNL     1      -6.344  -6.294  22.974  1.00  0.00     0.094 A 
ATOM     10  C   UNL     1      -5.776  -7.476  23.453  1.00  0.00     0.146 A 
ATOM     11  O   UNL     1      -4.462  -7.641  23.341  1.00  0.00    -0.456 OA
ENDROOT
BRANCH   1  12
ATOM     12  C   UNL     1      -2.348  -8.798  23.593  1.00  0.00     0.021 A 
ATOM     13  C   UNL     1      -1.683 -10.010  23.852  1.00  0.00     0.016 A 
ATOM     14  C   UNL     1      -0.299 -10.110  23.688  1.00  0.00     0.051 A 
ATOM     15  C   UNL     1       0.445  -9.000  23.273  1.00  0.00     0.157 A 
ATOM     16  C   UNL     1      -1.590  -7.681  23.188  1.00  0.00     0.062 A 
ATOM     17  C   UNL     1      -0.201  -7.783  23.025  1.00  0.00     0.158 A 
BRANCH  15  18
ATOM     18  O   UNL     1       1.825  -9.097  23.107  1.00  0.00    -0.504 OA
ATOM     19  H   UNL     1       2.243  -9.210  22.191  1.00  0.00     0.293 HD
ENDBRANCH  15  18
BRANCH  17  20
ATOM     20  O   UNL     1       0.545  -6.676  22.622  1.00  0.00    -0.504 OA
ATOM     21  H   UNL     1       0.242  -6.082  21.860  1.00  0.00     0.293 HD
ENDBRANCH  17  20
ENDBRANCH   1  12
BRANCH   6  22
ATOM     22  O   UNL     1      -8.910  -9.212  24.583  1.00  0.00    -0.507 OA
ATOM     23  H   UNL     1      -8.713 -10.194  24.702  1.00  0.00     0.293 HD
ENDBRANCH   6  22
BRANCH   8  24
ATOM     24  O   UNL     1      -8.258  -4.878  22.619  1.00  0.00    -0.508 OA
ATOM     25  H   UNL     1      -9.183  -4.842  22.206  1.00  0.00     0.293 HD
ENDBRANCH   8  24
TORSDOF 5
ENDMDL
MODEL 8
REMARK VINA RESULT:    -6.201      1.533      7.188
REMARK INTER + INTRA:          -7.553
REMARK INTER:                  -7.287
REMARK INTRA:                  -0.266
REMARK UNBOUND:                -0.265
REMARK SMILES O=c1cc(-c2ccc(O)c(O)c2)oc2cc(O)cc(O)c12
REMARK SMILES IDX 4 1 3 2 2 3 1 4 21 5 19 6 18 7 16 8 15 9 14 10 13 11 5 12
REMARK SMILES IDX 6 13 7 14 8 15 12 16 10 17 9 18 11 20 20 22 17 24
REMARK H PARENT 9 19 11 21 20 23 17 25
REMARK Flexibility Score: inf
ROOT
ATOM      1  C   UNL     1      -5.493  -9.018  23.472  1.00  0.00     0.138 A 
ATOM      2  C   UNL     1      -5.612  -9.817  22.327  1.00  0.00     0.100 A 
ATOM      3  C   UNL     1      -4.662 -10.807  22.074  1.00  0.00     0.197 A 
ATOM      4  O   UNL     1      -4.761 -11.466  21.007  1.00  0.00    -0.289 OA
ATOM      5  C   UNL     1      -3.605 -11.017  22.991  1.00  0.00     0.107 A 
ATOM      6  C   UNL     1      -2.602 -12.024  22.858  1.00  0.00     0.134 A 
ATOM      7  C   UNL     1      -1.538 -12.063  23.767  1.00  0.00     0.093 A 
ATOM      8  C   UNL     1      -1.474 -11.170  24.840  1.00  0.00     0.123 A 
ATOM      9  C   UNL     1      -2.476 -10.218  25.009  1.00  0.00     0.094 A 
ATOM     10  C   UNL     1      -3.532 -10.132  24.099  1.00  0.00     0.146 A 
ATOM     11  O   UNL     1      -4.460  -9.201  24.289  1.00  0.00    -0.456 OA
ENDROOT
BRANCH   1  12
ATOM     12  C   UNL     1      -6.476  -7.952  23.790  1.00  0.00     0.021 A 
ATOM     13  C   UNL     1      -6.055  -6.610  23.825  1.00  0.00     0.016 A 
ATOM     14  C   UNL     1      -6.959  -5.589  24.128  1.00  0.00     0.051 A 
ATOM     15  C   UNL     1      -8.296  -5.891  24.412  1.00  0.00     0.157 A 
ATOM     16  C   UNL     1      -7.820  -8.249  24.090  1.00  0.00     0.062 A 
ATOM     17  C   UNL     1      -8.727  -7.223  24.396  1.00  0.00     0.158 A 
BRANCH  15  18
ATOM     18  O   UNL     1      -9.200  -4.875  24.714  1.00  0.00    -0.504 OA
ATOM     19  H   UNL     1      -9.119  -4.327  25.562  1.00  0.00     0.293 HD
ENDBRANCH  15  18
BRANCH  17  20
ATOM     20  O   UNL     1     -10.056  -7.521  24.690  1.00  0.00    -0.504 OA
ATOM     21  H   UNL     1     -10.439  -7.379  25.617  1.00  0.00     0.293 HD
ENDBRANCH  17  20
ENDBRANCH   1  12
BRANCH   6  22
ATOM     22  O   UNL     1      -2.619 -13.017  21.873  1.00  0.00    -0.507 OA
ATOM     23  H   UNL     1      -2.614 -14.009  22.054  1.00  0.00     0.293 HD
ENDBRANCH   6  22
BRANCH   8  24
ATOM     24  O   UNL     1      -0.419 -11.226  25.748  1.00  0.00    -0.508 OA
ATOM     25  H   UNL     1      -0.380 -10.613  26.554  1.00  0.00     0.293 HD
ENDBRANCH   8  24
TORSDOF 5
ENDMDL
MODEL 9
REMARK VINA RESULT:    -6.175      0.967      1.675
REMARK INTER + INTRA:          -7.523
REMARK INTER:                  -7.242
REMARK INTRA:                  -0.281
REMARK UNBOUND:                -0.265
REMARK SMILES O=c1cc(-c2ccc(O)c(O)c2)oc2cc(O)cc(O)c12
REMARK SMILES IDX 4 1 3 2 2 3 1 4 21 5 19 6 18 7 16 8 15 9 14 10 13 11 5 12
REMARK SMILES IDX 6 13 7 14 8 15 12 16 10 17 9 18 11 20 20 22 17 24
REMARK H PARENT 9 19 11 21 20 23 17 25
REMARK Flexibility Score: inf
ROOT
ATOM      1  C   UNL     1      -5.123  -8.467  23.844  1.00  0.00     0.138 A 
ATOM      2  C   UNL     1      -5.039  -7.390  22.950  1.00  0.00     0.100 A 
ATOM      3  C   UNL     1      -6.167  -6.605  22.707  1.00  0.00     0.197 A 
ATOM      4  O   UNL     1      -6.078  -5.686  21.853  1.00  0.00    -0.289 OA
ATOM      5  C   UNL     1      -7.377  -6.883  23.388  1.00  0.00     0.107 A 
ATOM      6  C   UNL     1      -8.579  -6.125  23.251  1.00  0.00     0.134 A 
ATOM      7  C   UNL     1      -9.746  -6.563  23.887  1.00  0.00     0.093 A 
ATOM      8  C   UNL     1      -9.741  -7.697  24.704  1.00  0.00     0.123 A 
ATOM      9  C   UNL     1      -8.560  -8.412  24.887  1.00  0.00     0.094 A 
ATOM     10  C   UNL     1      -7.387  -8.020  24.239  1.00  0.00     0.146 A 
ATOM     11  O   UNL     1      -6.285  -8.738  24.429  1.00  0.00    -0.456 OA
ENDROOT
BRANCH   1  12
ATOM     12  C   UNL     1      -3.954  -9.333  24.140  1.00  0.00     0.021 A 
ATOM     13  C   UNL     1      -2.764  -8.750  24.612  1.00  0.00     0.016 A 
ATOM     14  C   UNL     1      -1.647  -9.542  24.891  1.00  0.00     0.051 A 
ATOM     15  C   UNL     1      -1.697 -10.927  24.694  1.00  0.00     0.157 A 
ATOM     16  C   UNL     1      -3.991 -10.726  23.932  1.00  0.00     0.062 A 
ATOM     17  C   UNL     1      -2.870 -11.519  24.211  1.00  0.00     0.158 A 
BRANCH  15  18
ATOM     18  O   UNL     1      -0.585 -11.720  24.973  1.00  0.00    -0.504 OA
ATOM     19  H   UNL     1      -0.668 -12.719  25.117  1.00  0.00     0.293 HD
ENDBRANCH  15  18
BRANCH  17  20
ATOM     20  O   UNL     1      -2.912 -12.897  24.006  1.00  0.00    -0.504 OA
ATOM     21  H   UNL     1      -2.214 -13.514  24.404  1.00  0.00     0.293 HD
ENDBRANCH  17  20
ENDBRANCH   1  12
BRANCH   6  22
ATOM     22  O   UNL     1      -8.671  -4.932  22.528  1.00  0.00    -0.507 OA
ATOM     23  H   UNL     1      -7.946  -4.559  21.934  1.00  0.00     0.293 HD
ENDBRANCH   6  22
BRANCH   8  24
ATOM     24  O   UNL     1     -10.904  -8.117  25.344  1.00  0.00    -0.508 OA
ATOM     25  H   UNL     1     -11.323  -7.576  26.092  1.00  0.00     0.293 HD
ENDBRANCH   8  24
TORSDOF 5
ENDMDL
