MODEL 1
REMARK VINA RESULT:    -5.286      0.000      0.000
REMARK INTER + INTRA:         -18.072
REMARK INTER:                 -13.938
REMARK INTRA:                  -4.134
REMARK UNBOUND:                -4.134
REMARK SMILES CCCCCCCCCCCCCCCCCCCCCCCCCCCCCC(=O)[O-]
REMARK SMILES IDX 16 1 17 2 18 3 19 4 20 5 21 6 22 7 23 8 24 9 25 10 26 11
REMARK SMILES IDX 27 12 28 13 29 14 30 15 31 16 32 17 15 18 14 19 13 20 12 21
REMARK SMILES IDX 11 22 10 23 9 24 8 25 7 26 6 27 5 28 4 29 3 30 2 31 1 32
REMARK H PARENT
REMARK Flexibility Score: inf
ROOT
ATOM      1  C   UNL     1      43.176  -5.450  27.104  1.00  0.00     0.000 C 
ENDROOT
BRANCH   1   2
ATOM      2  C   UNL     1      43.589  -5.780  28.551  1.00  0.00     0.000 C 
BRANCH   2   3
ATOM      3  C   UNL     1      42.535  -5.451  29.628  1.00  0.00     0.000 C 
BRANCH   3   4
ATOM      4  C   UNL     1      41.073  -5.720  29.224  1.00  0.00     0.000 C 
BRANCH   4   5
ATOM      5  C   UNL     1      40.062  -5.062  30.178  1.00  0.00     0.000 C 
BRANCH   5   6
ATOM      6  C   UNL     1      40.294  -3.549  30.347  1.00  0.00     0.000 C 
BRANCH   6   7
ATOM      7  C   UNL     1      40.024  -2.699  29.089  1.00  0.00     0.000 C 
BRANCH   7   8
ATOM      8  C   UNL     1      38.605  -2.827  28.500  1.00  0.00     0.000 C 
BRANCH   8   9
ATOM      9  C   UNL     1      38.540  -3.407  27.073  1.00  0.00     0.000 C 
BRANCH   9  10
ATOM     10  C   UNL     1      38.379  -4.936  27.003  1.00  0.00     0.000 C 
BRANCH  10  11
ATOM     11  C   UNL     1      38.601  -5.495  25.589  1.00  0.00     0.000 C 
BRANCH  11  12
ATOM     12  C   UNL     1      38.748  -7.023  25.623  1.00  0.00     0.000 C 
BRANCH  12  13
ATOM     13  C   UNL     1      37.403  -7.746  25.792  1.00  0.00     0.006 C 
BRANCH  13  14
ATOM     14  C   UNL     1      37.122  -8.135  27.250  1.00  0.00     0.053 C 
BRANCH  14  15
ATOM     15  C   UNL     1      38.249  -8.947  27.804  1.00  0.00     0.041 C 
ATOM     16  O   UNL     1      38.919  -8.519  28.781  1.00  0.00    -0.550 OA
ATOM     17  O   UNL     1      38.534 -10.197  27.268  1.00  0.00    -0.550 OA
ENDBRANCH  14  15
ENDBRANCH  13  14
ENDBRANCH  12  13
ENDBRANCH  11  12
ENDBRANCH  10  11
ENDBRANCH   9  10
ENDBRANCH   8   9
ENDBRANCH   7   8
ENDBRANCH   6   7
ENDBRANCH   5   6
ENDBRANCH   4   5
ENDBRANCH   3   4
ENDBRANCH   2   3
ENDBRANCH   1   2
BRANCH   1  18
ATOM     18  C   UNL     1      44.166  -5.996  26.063  1.00  0.00     0.000 C 
BRANCH  18  19
ATOM     19  C   UNL     1      45.167  -6.999  26.659  1.00  0.00     0.000 C 
BRANCH  19  20
ATOM     20  C   UNL     1      45.939  -7.784  25.588  1.00  0.00     0.000 C 
BRANCH  20  21
ATOM     21  C   UNL     1      45.846  -7.092  24.219  1.00  0.00     0.000 C 
BRANCH  21  22
ATOM     22  C   UNL     1      46.867  -7.636  23.208  1.00  0.00     0.000 C 
BRANCH  22  23
ATOM     23  C   UNL     1      48.281  -7.067  23.425  1.00  0.00     0.000 C 
BRANCH  23  24
ATOM     24  C   UNL     1      48.268  -5.680  24.088  1.00  0.00    -0.000 C 
BRANCH  24  25
ATOM     25  C   UNL     1      49.115  -5.628  25.373  1.00  0.00    -0.000 C 
BRANCH  25  26
ATOM     26  C   UNL     1      48.411  -4.878  26.524  1.00  0.00    -0.000 C 
BRANCH  26  27
ATOM     27  C   UNL     1      47.292  -3.925  26.062  1.00  0.00    -0.000 C 
BRANCH  27  28
ATOM     28  C   UNL     1      46.408  -3.353  27.183  1.00  0.00    -0.000 C 
BRANCH  28  29
ATOM     29  C   UNL     1      46.311  -1.818  27.141  1.00  0.00    -0.000 C 
BRANCH  29  30
ATOM     30  C   UNL     1      45.441  -1.248  28.273  1.00  0.00    -0.000 C 
BRANCH  30  31
ATOM     31  C   UNL     1      44.284  -2.183  28.659  1.00  0.00    -0.003 C 
ATOM     32  C   UNL     1      43.523  -1.647  29.869  1.00  0.00     0.004 C 
ENDBRANCH  30  31
ENDBRANCH  29  30
ENDBRANCH  28  29
ENDBRANCH  27  28
ENDBRANCH  26  27
ENDBRANCH  25  26
ENDBRANCH  24  25
ENDBRANCH  23  24
ENDBRANCH  22  23
ENDBRANCH  21  22
ENDBRANCH  20  21
ENDBRANCH  19  20
ENDBRANCH  18  19
ENDBRANCH   1  18
TORSDOF 28
ENDMDL
MODEL 2
REMARK VINA RESULT:    -5.114      3.404      9.289
REMARK INTER + INTRA:         -17.618
REMARK INTER:                 -12.786
REMARK INTRA:                  -4.832
REMARK UNBOUND:                -4.134
REMARK SMILES CCCCCCCCCCCCCCCCCCCCCCCCCCCCCC(=O)[O-]
REMARK SMILES IDX 16 1 17 2 18 3 19 4 20 5 21 6 22 7 23 8 24 9 25 10 26 11
REMARK SMILES IDX 27 12 28 13 29 14 30 15 31 16 32 17 15 18 14 19 13 20 12 21
REMARK SMILES IDX 11 22 10 23 9 24 8 25 7 26 6 27 5 28 4 29 3 30 2 31 1 32
REMARK H PARENT
REMARK Flexibility Score: inf
ROOT
ATOM      1  C   UNL     1      36.560  -4.829  28.303  1.00  0.00     0.000 C 
ENDROOT
BRANCH   1   2
ATOM      2  C   UNL     1      36.859  -3.335  28.525  1.00  0.00     0.000 C 
BRANCH   2   3
ATOM      3  C   UNL     1      38.076  -2.786  27.752  1.00  0.00     0.000 C 
BRANCH   3   4
ATOM      4  C   UNL     1      39.379  -3.592  27.913  1.00  0.00     0.000 C 
BRANCH   4   5
ATOM      5  C   UNL     1      39.935  -4.098  26.571  1.00  0.00     0.000 C 
BRANCH   5   6
ATOM      6  C   UNL     1      41.050  -5.146  26.741  1.00  0.00     0.000 C 
BRANCH   6   7
ATOM      7  C   UNL     1      41.240  -5.675  28.177  1.00  0.00     0.000 C 
BRANCH   7   8
ATOM      8  C   UNL     1      42.694  -5.677  28.691  1.00  0.00     0.000 C 
BRANCH   8   9
ATOM      9  C   UNL     1      43.640  -4.690  27.977  1.00  0.00     0.000 C 
BRANCH   9  10
ATOM     10  C   UNL     1      45.070  -5.213  27.753  1.00  0.00     0.000 C 
BRANCH  10  11
ATOM     11  C   UNL     1      45.101  -6.623  27.145  1.00  0.00     0.000 C 
BRANCH  11  12
ATOM     12  C   UNL     1      44.984  -6.560  25.615  1.00  0.00     0.000 C 
BRANCH  12  13
ATOM     13  C   UNL     1      46.110  -7.323  24.901  1.00  0.00     0.006 C 
BRANCH  13  14
ATOM     14  C   UNL     1      47.375  -6.473  24.718  1.00  0.00     0.053 C 
BRANCH  14  15
ATOM     15  C   UNL     1      48.538  -7.337  24.346  1.00  0.00     0.041 C 
ATOM     16  O   UNL     1      48.596  -7.864  23.204  1.00  0.00    -0.550 OA
ATOM     17  O   UNL     1      49.581  -7.523  25.244  1.00  0.00    -0.550 OA
ENDBRANCH  14  15
ENDBRANCH  13  14
ENDBRANCH  12  13
ENDBRANCH  11  12
ENDBRANCH  10  11
ENDBRANCH   9  10
ENDBRANCH   8   9
ENDBRANCH   7   8
ENDBRANCH   6   7
ENDBRANCH   5   6
ENDBRANCH   4   5
ENDBRANCH   3   4
ENDBRANCH   2   3
ENDBRANCH   1   2
BRANCH   1  18
ATOM     18  C   UNL     1      35.937  -5.501  29.537  1.00  0.00     0.000 C 
BRANCH  18  19
ATOM     19  C   UNL     1      36.980  -5.874  30.604  1.00  0.00     0.000 C 
BRANCH  19  20
ATOM     20  C   UNL     1      38.302  -6.371  30.001  1.00  0.00     0.000 C 
BRANCH  20  21
ATOM     21  C   UNL     1      38.660  -7.770  30.525  1.00  0.00     0.000 C 
BRANCH  21  22
ATOM     22  C   UNL     1      38.711  -8.827  29.412  1.00  0.00     0.000 C 
BRANCH  22  23
ATOM     23  C   UNL     1      37.366  -8.986  28.680  1.00  0.00     0.000 C 
BRANCH  23  24
ATOM     24  C   UNL     1      37.510  -8.912  27.151  1.00  0.00    -0.000 C 
BRANCH  24  25
ATOM     25  C   UNL     1      38.699  -8.039  26.708  1.00  0.00    -0.000 C 
BRANCH  25  26
ATOM     26  C   UNL     1      38.432  -7.292  25.384  1.00  0.00    -0.000 C 
BRANCH  26  27
ATOM     27  C   UNL     1      37.042  -6.632  25.303  1.00  0.00    -0.000 C 
BRANCH  27  28
ATOM     28  C   UNL     1      36.106  -7.198  24.222  1.00  0.00    -0.000 C 
BRANCH  28  29
ATOM     29  C   UNL     1      34.767  -7.695  24.794  1.00  0.00    -0.000 C 
BRANCH  29  30
ATOM     30  C   UNL     1      34.344  -6.932  26.059  1.00  0.00    -0.000 C 
BRANCH  30  31
ATOM     31  C   UNL     1      33.973  -7.868  27.220  1.00  0.00    -0.003 C 
ATOM     32  C   UNL     1      33.857  -9.315  26.746  1.00  0.00     0.004 C 
ENDBRANCH  30  31
ENDBRANCH  29  30
ENDBRANCH  28  29
ENDBRANCH  27  28
ENDBRANCH  26  27
ENDBRANCH  25  26
ENDBRANCH  24  25
ENDBRANCH  23  24
ENDBRANCH  22  23
ENDBRANCH  21  22
ENDBRANCH  20  21
ENDBRANCH  19  20
ENDBRANCH  18  19
ENDBRANCH   1  18
TORSDOF 28
ENDMDL
MODEL 3
REMARK VINA RESULT:    -5.023      2.104      5.053
REMARK INTER + INTRA:         -17.379
REMARK INTER:                 -13.505
REMARK INTRA:                  -3.874
REMARK UNBOUND:                -4.134
REMARK SMILES CCCCCCCCCCCCCCCCCCCCCCCCCCCCCC(=O)[O-]
REMARK SMILES IDX 16 1 17 2 18 3 19 4 20 5 21 6 22 7 23 8 24 9 25 10 26 11
REMARK SMILES IDX 27 12 28 13 29 14 30 15 31 16 32 17 15 18 14 19 13 20 12 21
REMARK SMILES IDX 11 22 10 23 9 24 8 25 7 26 6 27 5 28 4 29 3 30 2 31 1 32
REMARK H PARENT
REMARK Flexibility Score: inf
ROOT
ATOM      1  C   UNL     1      42.089  -5.048  32.716  1.00  0.00     0.000 C 
ENDROOT
BRANCH   1   2
ATOM      2  C   UNL     1      43.197  -4.621  33.697  1.00  0.00     0.000 C 
BRANCH   2   3
ATOM      3  C   UNL     1      43.656  -3.153  33.573  1.00  0.00     0.000 C 
BRANCH   3   4
ATOM      4  C   UNL     1      42.533  -2.131  33.318  1.00  0.00     0.000 C 
BRANCH   4   5
ATOM      5  C   UNL     1      42.886  -1.122  32.211  1.00  0.00     0.000 C 
BRANCH   5   6
ATOM      6  C   UNL     1      41.644  -0.525  31.525  1.00  0.00     0.000 C 
BRANCH   6   7
ATOM      7  C   UNL     1      41.350  -1.067  30.112  1.00  0.00     0.000 C 
BRANCH   7   8
ATOM      8  C   UNL     1      39.885  -1.476  29.856  1.00  0.00     0.000 C 
BRANCH   8   9
ATOM      9  C   UNL     1      39.498  -2.876  30.371  1.00  0.00     0.000 C 
BRANCH   9  10
ATOM     10  C   UNL     1      38.483  -3.630  29.492  1.00  0.00     0.000 C 
BRANCH  10  11
ATOM     11  C   UNL     1      38.395  -3.067  28.066  1.00  0.00     0.000 C 
BRANCH  11  12
ATOM     12  C   UNL     1      39.063  -4.018  27.061  1.00  0.00     0.000 C 
BRANCH  12  13
ATOM     13  C   UNL     1      38.818  -5.499  27.392  1.00  0.00     0.006 C 
BRANCH  13  14
ATOM     14  C   UNL     1      37.415  -5.970  26.985  1.00  0.00     0.053 C 
BRANCH  14  15
ATOM     15  C   UNL     1      37.456  -6.655  25.656  1.00  0.00     0.041 C 
ATOM     16  O   UNL     1      36.566  -7.489  25.344  1.00  0.00    -0.550 OA
ATOM     17  O   UNL     1      38.455  -6.341  24.743  1.00  0.00    -0.550 OA
ENDBRANCH  14  15
ENDBRANCH  13  14
ENDBRANCH  12  13
ENDBRANCH  11  12
ENDBRANCH  10  11
ENDBRANCH   9  10
ENDBRANCH   8   9
ENDBRANCH   7   8
ENDBRANCH   6   7
ENDBRANCH   5   6
ENDBRANCH   4   5
ENDBRANCH   3   4
ENDBRANCH   2   3
ENDBRANCH   1   2
BRANCH   1  18
ATOM     18  C   UNL     1      42.630  -5.841  31.516  1.00  0.00     0.000 C 
BRANCH  18  19
ATOM     19  C   UNL     1      42.061  -5.353  30.173  1.00  0.00     0.000 C 
BRANCH  19  20
ATOM     20  C   UNL     1      42.826  -4.151  29.600  1.00  0.00     0.000 C 
BRANCH  20  21
ATOM     21  C   UNL     1      42.590  -4.013  28.088  1.00  0.00     0.000 C 
BRANCH  21  22
ATOM     22  C   UNL     1      42.607  -5.365  27.358  1.00  0.00     0.000 C 
BRANCH  22  23
ATOM     23  C   UNL     1      43.828  -5.527  26.435  1.00  0.00     0.000 C 
BRANCH  23  24
ATOM     24  C   UNL     1      45.143  -5.691  27.214  1.00  0.00    -0.000 C 
BRANCH  24  25
ATOM     25  C   UNL     1      45.952  -4.383  27.296  1.00  0.00    -0.000 C 
BRANCH  25  26
ATOM     26  C   UNL     1      46.839  -4.150  26.055  1.00  0.00    -0.000 C 
BRANCH  26  27
ATOM     27  C   UNL     1      48.152  -4.956  26.059  1.00  0.00    -0.000 C 
BRANCH  27  28
ATOM     28  C   UNL     1      48.525  -5.616  24.721  1.00  0.00    -0.000 C 
BRANCH  28  29
ATOM     29  C   UNL     1      48.193  -7.118  24.684  1.00  0.00    -0.000 C 
BRANCH  29  30
ATOM     30  C   UNL     1      46.779  -7.399  24.152  1.00  0.00    -0.000 C 
BRANCH  30  31
ATOM     31  C   UNL     1      46.714  -7.405  22.617  1.00  0.00    -0.003 C 
ATOM     32  C   UNL     1      48.004  -7.954  22.011  1.00  0.00     0.004 C 
ENDBRANCH  30  31
ENDBRANCH  29  30
ENDBRANCH  28  29
ENDBRANCH  27  28
ENDBRANCH  26  27
ENDBRANCH  25  26
ENDBRANCH  24  25
ENDBRANCH  23  24
ENDBRANCH  22  23
ENDBRANCH  21  22
ENDBRANCH  20  21
ENDBRANCH  19  20
ENDBRANCH  18  19
ENDBRANCH   1  18
TORSDOF 28
ENDMDL
MODEL 4
REMARK VINA RESULT:    -4.984      2.267      6.739
REMARK INTER + INTRA:         -17.277
REMARK INTER:                 -12.069
REMARK INTRA:                  -5.208
REMARK UNBOUND:                -4.134
REMARK SMILES CCCCCCCCCCCCCCCCCCCCCCCCCCCCCC(=O)[O-]
REMARK SMILES IDX 16 1 17 2 18 3 19 4 20 5 21 6 22 7 23 8 24 9 25 10 26 11
REMARK SMILES IDX 27 12 28 13 29 14 30 15 31 16 32 17 15 18 14 19 13 20 12 21
REMARK SMILES IDX 11 22 10 23 9 24 8 25 7 26 6 27 5 28 4 29 3 30 2 31 1 32
REMARK H PARENT
REMARK Flexibility Score: inf
ROOT
ATOM      1  C   UNL     1      37.660  -6.423  24.986  1.00  0.00     0.000 C 
ENDROOT
BRANCH   1   2
ATOM      2  C   UNL     1      36.591  -7.473  24.632  1.00  0.00     0.000 C 
BRANCH   2   3
ATOM      3  C   UNL     1      35.203  -6.903  24.273  1.00  0.00     0.000 C 
BRANCH   3   4
ATOM      4  C   UNL     1      34.004  -7.649  24.889  1.00  0.00     0.000 C 
BRANCH   4   5
ATOM      5  C   UNL     1      34.430  -8.727  25.900  1.00  0.00     0.000 C 
BRANCH   5   6
ATOM      6  C   UNL     1      33.407  -8.923  27.034  1.00  0.00     0.000 C 
BRANCH   6   7
ATOM      7  C   UNL     1      32.459  -7.731  27.277  1.00  0.00     0.000 C 
BRANCH   7   8
ATOM      8  C   UNL     1      32.945  -6.707  28.322  1.00  0.00     0.000 C 
BRANCH   8   9
ATOM      9  C   UNL     1      33.485  -5.385  27.739  1.00  0.00     0.000 C 
BRANCH   9  10
ATOM     10  C   UNL     1      34.927  -5.039  28.153  1.00  0.00     0.000 C 
BRANCH  10  11
ATOM     11  C   UNL     1      35.847  -6.268  28.194  1.00  0.00     0.000 C 
BRANCH  11  12
ATOM     12  C   UNL     1      36.419  -6.475  29.604  1.00  0.00     0.000 C 
BRANCH  12  13
ATOM     13  C   UNL     1      37.443  -7.618  29.668  1.00  0.00     0.006 C 
BRANCH  13  14
ATOM     14  C   UNL     1      37.153  -8.727  28.647  1.00  0.00     0.053 C 
BRANCH  14  15
ATOM     15  C   UNL     1      38.331  -9.640  28.516  1.00  0.00     0.041 C 
ATOM     16  O   UNL     1      39.079  -9.856  29.505  1.00  0.00    -0.550 OA
ATOM     17  O   UNL     1      38.576 -10.289  27.312  1.00  0.00    -0.550 OA
ENDBRANCH  14  15
ENDBRANCH  13  14
ENDBRANCH  12  13
ENDBRANCH  11  12
ENDBRANCH  10  11
ENDBRANCH   9  10
ENDBRANCH   8   9
ENDBRANCH   7   8
ENDBRANCH   6   7
ENDBRANCH   5   6
ENDBRANCH   4   5
ENDBRANCH   3   4
ENDBRANCH   2   3
ENDBRANCH   1   2
BRANCH   1  18
ATOM     18  C   UNL     1      38.787  -6.994  25.862  1.00  0.00     0.000 C 
BRANCH  18  19
ATOM     19  C   UNL     1      39.411  -5.942  26.793  1.00  0.00     0.000 C 
BRANCH  19  20
ATOM     20  C   UNL     1      39.165  -4.502  26.319  1.00  0.00     0.000 C 
BRANCH  20  21
ATOM     21  C   UNL     1      38.979  -3.549  27.511  1.00  0.00     0.000 C 
BRANCH  21  22
ATOM     22  C   UNL     1      39.133  -4.257  28.866  1.00  0.00     0.000 C 
BRANCH  22  23
ATOM     23  C   UNL     1      40.299  -3.698  29.700  1.00  0.00     0.000 C 
BRANCH  23  24
ATOM     24  C   UNL     1      41.617  -3.633  28.911  1.00  0.00    -0.000 C 
BRANCH  24  25
ATOM     25  C   UNL     1      42.627  -4.709  29.353  1.00  0.00    -0.000 C 
BRANCH  25  26
ATOM     26  C   UNL     1      42.848  -5.798  28.281  1.00  0.00    -0.000 C 
BRANCH  26  27
ATOM     27  C   UNL     1      43.002  -5.250  26.849  1.00  0.00    -0.000 C 
BRANCH  27  28
ATOM     28  C   UNL     1      44.269  -5.702  26.104  1.00  0.00    -0.000 C 
BRANCH  28  29
ATOM     29  C   UNL     1      45.129  -6.678  26.926  1.00  0.00    -0.000 C 
BRANCH  29  30
ATOM     30  C   UNL     1      45.666  -7.847  26.086  1.00  0.00    -0.000 C 
BRANCH  30  31
ATOM     31  C   UNL     1      45.296  -7.728  24.600  1.00  0.00    -0.003 C 
ATOM     32  C   UNL     1      46.529  -7.445  23.745  1.00  0.00     0.004 C 
ENDBRANCH  30  31
ENDBRANCH  29  30
ENDBRANCH  28  29
ENDBRANCH  27  28
ENDBRANCH  26  27
ENDBRANCH  25  26
ENDBRANCH  24  25
ENDBRANCH  23  24
ENDBRANCH  22  23
ENDBRANCH  21  22
ENDBRANCH  20  21
ENDBRANCH  19  20
ENDBRANCH  18  19
ENDBRANCH   1  18
TORSDOF 28
ENDMDL
MODEL 5
REMARK VINA RESULT:    -4.981      4.194     10.687
REMARK INTER + INTRA:         -17.268
REMARK INTER:                 -13.603
REMARK INTRA:                  -3.665
REMARK UNBOUND:                -4.134
REMARK SMILES CCCCCCCCCCCCCCCCCCCCCCCCCCCCCC(=O)[O-]
REMARK SMILES IDX 16 1 17 2 18 3 19 4 20 5 21 6 22 7 23 8 24 9 25 10 26 11
REMARK SMILES IDX 27 12 28 13 29 14 30 15 31 16 32 17 15 18 14 19 13 20 12 21
REMARK SMILES IDX 11 22 10 23 9 24 8 25 7 26 6 27 5 28 4 29 3 30 2 31 1 32
REMARK H PARENT
REMARK Flexibility Score: inf
ROOT
ATOM      1  C   UNL     1      38.752  -7.303  25.656  1.00  0.00     0.000 C 
ENDROOT
BRANCH   1   2
ATOM      2  C   UNL     1      39.014  -6.364  26.848  1.00  0.00     0.000 C 
BRANCH   2   3
ATOM      3  C   UNL     1      38.896  -4.858  26.537  1.00  0.00     0.000 C 
BRANCH   3   4
ATOM      4  C   UNL     1      40.111  -4.003  26.944  1.00  0.00     0.000 C 
BRANCH   4   5
ATOM      5  C   UNL     1      41.444  -4.757  26.801  1.00  0.00     0.000 C 
BRANCH   5   6
ATOM      6  C   UNL     1      42.209  -4.880  28.131  1.00  0.00     0.000 C 
BRANCH   6   7
ATOM      7  C   UNL     1      42.979  -3.616  28.565  1.00  0.00     0.000 C 
BRANCH   7   8
ATOM      8  C   UNL     1      44.493  -3.635  28.274  1.00  0.00     0.000 C 
BRANCH   8   9
ATOM      9  C   UNL     1      45.060  -5.006  27.858  1.00  0.00     0.000 C 
BRANCH   9  10
ATOM     10  C   UNL     1      45.378  -5.146  26.358  1.00  0.00     0.000 C 
BRANCH  10  11
ATOM     11  C   UNL     1      44.918  -6.491  25.774  1.00  0.00     0.000 C 
BRANCH  11  12
ATOM     12  C   UNL     1      46.114  -7.288  25.232  1.00  0.00     0.000 C 
BRANCH  12  13
ATOM     13  C   UNL     1      47.418  -6.477  25.234  1.00  0.00     0.006 C 
BRANCH  13  14
ATOM     14  C   UNL     1      48.666  -7.367  25.322  1.00  0.00     0.053 C 
BRANCH  14  15
ATOM     15  C   UNL     1      49.908  -6.533  25.309  1.00  0.00     0.041 C 
ATOM     16  O   UNL     1      50.011  -5.537  26.072  1.00  0.00    -0.550 OA
ATOM     17  O   UNL     1      50.970  -6.881  24.485  1.00  0.00    -0.550 OA
ENDBRANCH  14  15
ENDBRANCH  13  14
ENDBRANCH  12  13
ENDBRANCH  11  12
ENDBRANCH  10  11
ENDBRANCH   9  10
ENDBRANCH   8   9
ENDBRANCH   7   8
ENDBRANCH   6   7
ENDBRANCH   5   6
ENDBRANCH   4   5
ENDBRANCH   3   4
ENDBRANCH   2   3
ENDBRANCH   1   2
BRANCH   1  18
ATOM     18  C   UNL     1      37.704  -6.746  24.679  1.00  0.00     0.000 C 
BRANCH  18  19
ATOM     19  C   UNL     1      36.307  -7.351  24.892  1.00  0.00     0.000 C 
BRANCH  19  20
ATOM     20  C   UNL     1      35.314  -6.971  23.784  1.00  0.00     0.000 C 
BRANCH  20  21
ATOM     21  C   UNL     1      33.866  -7.250  24.217  1.00  0.00     0.000 C 
BRANCH  21  22
ATOM     22  C   UNL     1      33.137  -5.986  24.700  1.00  0.00     0.000 C 
BRANCH  22  23
ATOM     23  C   UNL     1      32.528  -6.151  26.104  1.00  0.00     0.000 C 
BRANCH  23  24
ATOM     24  C   UNL     1      31.769  -7.477  26.270  1.00  0.00    -0.000 C 
BRANCH  24  25
ATOM     25  C   UNL     1      31.507  -7.830  27.747  1.00  0.00    -0.000 C 
BRANCH  25  26
ATOM     26  C   UNL     1      32.442  -8.940  28.271  1.00  0.00    -0.000 C 
BRANCH  26  27
ATOM     27  C   UNL     1      33.361  -9.550  27.195  1.00  0.00    -0.000 C 
BRANCH  27  28
ATOM     28  C   UNL     1      34.866  -9.503  27.510  1.00  0.00    -0.000 C 
BRANCH  28  29
ATOM     29  C   UNL     1      35.213  -8.487  28.612  1.00  0.00    -0.000 C 
BRANCH  29  30
ATOM     30  C   UNL     1      35.624  -7.118  28.047  1.00  0.00    -0.000 C 
BRANCH  30  31
ATOM     31  C   UNL     1      34.953  -5.948  28.782  1.00  0.00    -0.003 C 
ATOM     32  C   UNL     1      34.578  -6.335  30.211  1.00  0.00     0.004 C 
ENDBRANCH  30  31
ENDBRANCH  29  30
ENDBRANCH  28  29
ENDBRANCH  27  28
ENDBRANCH  26  27
ENDBRANCH  25  26
ENDBRANCH  24  25
ENDBRANCH  23  24
ENDBRANCH  22  23
ENDBRANCH  21  22
ENDBRANCH  20  21
ENDBRANCH  19  20
ENDBRANCH  18  19
ENDBRANCH   1  18
TORSDOF 28
ENDMDL
MODEL 6
REMARK VINA RESULT:    -4.967      2.100      5.460
REMARK INTER + INTRA:         -17.232
REMARK INTER:                 -13.732
REMARK INTRA:                  -3.500
REMARK UNBOUND:                -4.134
REMARK SMILES CCCCCCCCCCCCCCCCCCCCCCCCCCCCCC(=O)[O-]
REMARK SMILES IDX 16 1 17 2 18 3 19 4 20 5 21 6 22 7 23 8 24 9 25 10 26 11
REMARK SMILES IDX 27 12 28 13 29 14 30 15 31 16 32 17 15 18 14 19 13 20 12 21
REMARK SMILES IDX 11 22 10 23 9 24 8 25 7 26 6 27 5 28 4 29 3 30 2 31 1 32
REMARK H PARENT
REMARK Flexibility Score: inf
ROOT
ATOM      1  C   UNL     1      42.934  -2.351  33.567  1.00  0.00     0.000 C 
ENDROOT
BRANCH   1   2
ATOM      2  C   UNL     1      42.245  -3.717  33.744  1.00  0.00     0.000 C 
BRANCH   2   3
ATOM      3  C   UNL     1      43.138  -4.945  33.471  1.00  0.00     0.000 C 
BRANCH   3   4
ATOM      4  C   UNL     1      42.638  -5.891  32.364  1.00  0.00     0.000 C 
BRANCH   4   5
ATOM      5  C   UNL     1      42.852  -5.320  30.952  1.00  0.00     0.000 C 
BRANCH   5   6
ATOM      6  C   UNL     1      41.596  -5.422  30.067  1.00  0.00     0.000 C 
BRANCH   6   7
ATOM      7  C   UNL     1      41.866  -5.683  28.571  1.00  0.00     0.000 C 
BRANCH   7   8
ATOM      8  C   UNL     1      41.360  -4.587  27.611  1.00  0.00     0.000 C 
BRANCH   8   9
ATOM      9  C   UNL     1      40.416  -3.547  28.246  1.00  0.00     0.000 C 
BRANCH   9  10
ATOM     10  C   UNL     1      38.956  -3.620  27.765  1.00  0.00     0.000 C 
BRANCH  10  11
ATOM     11  C   UNL     1      38.178  -4.783  28.399  1.00  0.00     0.000 C 
BRANCH  11  12
ATOM     12  C   UNL     1      37.473  -5.621  27.322  1.00  0.00     0.000 C 
BRANCH  12  13
ATOM     13  C   UNL     1      38.309  -5.763  26.040  1.00  0.00     0.006 C 
BRANCH  13  14
ATOM     14  C   UNL     1      38.071  -7.102  25.327  1.00  0.00     0.053 C 
BRANCH  14  15
ATOM     15  C   UNL     1      36.628  -7.255  24.966  1.00  0.00     0.041 C 
ATOM     16  O   UNL     1      35.803  -7.678  25.817  1.00  0.00    -0.550 OA
ATOM     17  O   UNL     1      36.186  -6.888  23.701  1.00  0.00    -0.550 OA
ENDBRANCH  14  15
ENDBRANCH  13  14
ENDBRANCH  12  13
ENDBRANCH  11  12
ENDBRANCH  10  11
ENDBRANCH   9  10
ENDBRANCH   8   9
ENDBRANCH   7   8
ENDBRANCH   6   7
ENDBRANCH   5   6
ENDBRANCH   4   5
ENDBRANCH   3   4
ENDBRANCH   2   3
ENDBRANCH   1   2
BRANCH   1  18
ATOM     18  C   UNL     1      42.104  -1.371  32.721  1.00  0.00     0.000 C 
BRANCH  18  19
ATOM     19  C   UNL     1      42.849  -0.888  31.466  1.00  0.00     0.000 C 
BRANCH  19  20
ATOM     20  C   UNL     1      43.471  -2.037  30.659  1.00  0.00     0.000 C 
BRANCH  20  21
ATOM     21  C   UNL     1      43.468  -1.722  29.155  1.00  0.00     0.000 C 
BRANCH  21  22
ATOM     22  C   UNL     1      44.834  -1.237  28.646  1.00  0.00     0.000 C 
BRANCH  22  23
ATOM     23  C   UNL     1      45.612  -2.332  27.895  1.00  0.00     0.000 C 
BRANCH  23  24
ATOM     24  C   UNL     1      44.933  -3.708  27.981  1.00  0.00    -0.000 C 
BRANCH  24  25
ATOM     25  C   UNL     1      45.820  -4.843  27.436  1.00  0.00    -0.000 C 
BRANCH  25  26
ATOM     26  C   UNL     1      45.086  -5.738  26.414  1.00  0.00    -0.000 C 
BRANCH  26  27
ATOM     27  C   UNL     1      45.229  -7.248  26.683  1.00  0.00    -0.000 C 
BRANCH  27  28
ATOM     28  C   UNL     1      45.553  -8.109  25.450  1.00  0.00    -0.000 C 
BRANCH  28  29
ATOM     29  C   UNL     1      45.915  -7.267  24.214  1.00  0.00    -0.000 C 
BRANCH  29  30
ATOM     30  C   UNL     1      47.357  -7.501  23.739  1.00  0.00    -0.000 C 
BRANCH  30  31
ATOM     31  C   UNL     1      48.390  -7.307  24.861  1.00  0.00    -0.003 C 
ATOM     32  C   UNL     1      48.645  -5.825  25.125  1.00  0.00     0.004 C 
ENDBRANCH  30  31
ENDBRANCH  29  30
ENDBRANCH  28  29
ENDBRANCH  27  28
ENDBRANCH  26  27
ENDBRANCH  25  26
ENDBRANCH  24  25
ENDBRANCH  23  24
ENDBRANCH  22  23
ENDBRANCH  21  22
ENDBRANCH  20  21
ENDBRANCH  19  20
ENDBRANCH  18  19
ENDBRANCH   1  18
TORSDOF 28
ENDMDL
MODEL 7
REMARK VINA RESULT:    -4.960      3.836      8.779
REMARK INTER + INTRA:         -17.213
REMARK INTER:                 -12.930
REMARK INTRA:                  -4.283
REMARK UNBOUND:                -4.134
REMARK SMILES CCCCCCCCCCCCCCCCCCCCCCCCCCCCCC(=O)[O-]
REMARK SMILES IDX 16 1 17 2 18 3 19 4 20 5 21 6 22 7 23 8 24 9 25 10 26 11
REMARK SMILES IDX 27 12 28 13 29 14 30 15 31 16 32 17 15 18 14 19 13 20 12 21
REMARK SMILES IDX 11 22 10 23 9 24 8 25 7 26 6 27 5 28 4 29 3 30 2 31 1 32
REMARK H PARENT
REMARK Flexibility Score: inf
ROOT
ATOM      1  C   UNL     1      43.625   1.458  33.073  1.00  0.00     0.000 C 
ENDROOT
BRANCH   1   2
ATOM      2  C   UNL     1      43.463   1.193  31.564  1.00  0.00     0.000 C 
BRANCH   2   3
ATOM      3  C   UNL     1      42.101   0.606  31.142  1.00  0.00     0.000 C 
BRANCH   3   4
ATOM      4  C   UNL     1      42.147  -0.827  30.579  1.00  0.00     0.000 C 
BRANCH   4   5
ATOM      5  C   UNL     1      43.569  -1.271  30.196  1.00  0.00     0.000 C 
BRANCH   5   6
ATOM      6  C   UNL     1      43.597  -2.202  28.970  1.00  0.00     0.000 C 
BRANCH   6   7
ATOM      7  C   UNL     1      43.195  -3.665  29.246  1.00  0.00     0.000 C 
BRANCH   7   8
ATOM      8  C   UNL     1      43.946  -4.722  28.412  1.00  0.00     0.000 C 
BRANCH   8   9
ATOM      9  C   UNL     1      45.261  -4.235  27.771  1.00  0.00     0.000 C 
BRANCH   9  10
ATOM     10  C   UNL     1      46.088  -5.333  27.078  1.00  0.00     0.000 C 
BRANCH  10  11
ATOM     11  C   UNL     1      45.318  -6.653  26.927  1.00  0.00     0.000 C 
BRANCH  11  12
ATOM     12  C   UNL     1      46.218  -7.746  26.332  1.00  0.00     0.000 C 
BRANCH  12  13
ATOM     13  C   UNL     1      46.976  -7.274  25.081  1.00  0.00     0.006 C 
BRANCH  13  14
ATOM     14  C   UNL     1      48.500  -7.365  25.246  1.00  0.00     0.053 C 
BRANCH  14  15
ATOM     15  C   UNL     1      49.146  -6.071  24.863  1.00  0.00     0.041 C 
ATOM     16  O   UNL     1      48.557  -5.272  24.090  1.00  0.00    -0.550 OA
ATOM     17  O   UNL     1      50.383  -5.728  25.396  1.00  0.00    -0.550 OA
ENDBRANCH  14  15
ENDBRANCH  13  14
ENDBRANCH  12  13
ENDBRANCH  11  12
ENDBRANCH  10  11
ENDBRANCH   9  10
ENDBRANCH   8   9
ENDBRANCH   7   8
ENDBRANCH   6   7
ENDBRANCH   5   6
ENDBRANCH   4   5
ENDBRANCH   3   4
ENDBRANCH   2   3
ENDBRANCH   1   2
BRANCH   1  18
ATOM     18  C   UNL     1      44.002   0.193  33.861  1.00  0.00     0.000 C 
BRANCH  18  19
ATOM     19  C   UNL     1      42.830  -0.369  34.683  1.00  0.00     0.000 C 
BRANCH  19  20
ATOM     20  C   UNL     1      42.647  -1.884  34.506  1.00  0.00     0.000 C 
BRANCH  20  21
ATOM     21  C   UNL     1      43.655  -2.450  33.493  1.00  0.00     0.000 C 
BRANCH  21  22
ATOM     22  C   UNL     1      43.325  -3.888  33.068  1.00  0.00     0.000 C 
BRANCH  22  23
ATOM     23  C   UNL     1      41.868  -4.052  32.600  1.00  0.00     0.000 C 
BRANCH  23  24
ATOM     24  C   UNL     1      41.202  -5.316  33.166  1.00  0.00    -0.000 C 
BRANCH  24  25
ATOM     25  C   UNL     1      41.728  -6.608  32.512  1.00  0.00    -0.000 C 
BRANCH  25  26
ATOM     26  C   UNL     1      41.808  -6.509  30.973  1.00  0.00    -0.000 C 
BRANCH  26  27
ATOM     27  C   UNL     1      40.491  -6.852  30.250  1.00  0.00    -0.000 C 
BRANCH  27  28
ATOM     28  C   UNL     1      40.012  -5.812  29.223  1.00  0.00    -0.000 C 
BRANCH  28  29
ATOM     29  C   UNL     1      39.160  -4.698  29.855  1.00  0.00    -0.000 C 
BRANCH  29  30
ATOM     30  C   UNL     1      39.627  -3.292  29.448  1.00  0.00    -0.000 C 
BRANCH  30  31
ATOM     31  C   UNL     1      38.510  -2.460  28.799  1.00  0.00    -0.003 C 
ATOM     32  C   UNL     1      38.275  -2.886  27.351  1.00  0.00     0.004 C 
ENDBRANCH  30  31
ENDBRANCH  29  30
ENDBRANCH  28  29
ENDBRANCH  27  28
ENDBRANCH  26  27
ENDBRANCH  25  26
ENDBRANCH  24  25
ENDBRANCH  23  24
ENDBRANCH  22  23
ENDBRANCH  21  22
ENDBRANCH  20  21
ENDBRANCH  19  20
ENDBRANCH  18  19
ENDBRANCH   1  18
TORSDOF 28
ENDMDL
MODEL 8
REMARK VINA RESULT:    -4.944      3.377      9.129
REMARK INTER + INTRA:         -17.169
REMARK INTER:                 -12.313
REMARK INTRA:                  -4.856
REMARK UNBOUND:                -4.134
REMARK SMILES CCCCCCCCCCCCCCCCCCCCCCCCCCCCCC(=O)[O-]
REMARK SMILES IDX 16 1 17 2 18 3 19 4 20 5 21 6 22 7 23 8 24 9 25 10 26 11
REMARK SMILES IDX 27 12 28 13 29 14 30 15 31 16 32 17 15 18 14 19 13 20 12 21
REMARK SMILES IDX 11 22 10 23 9 24 8 25 7 26 6 27 5 28 4 29 3 30 2 31 1 32
REMARK H PARENT
REMARK Flexibility Score: inf
ROOT
ATOM      1  C   UNL     1      41.363  -5.473  27.084  1.00  0.00     0.000 C 
ENDROOT
BRANCH   1   2
ATOM      2  C   UNL     1      40.773  -6.201  28.306  1.00  0.00     0.000 C 
BRANCH   2   3
ATOM      3  C   UNL     1      41.426  -5.851  29.659  1.00  0.00     0.000 C 
BRANCH   3   4
ATOM      4  C   UNL     1      40.594  -4.936  30.576  1.00  0.00     0.000 C 
BRANCH   4   5
ATOM      5  C   UNL     1      40.983  -3.453  30.449  1.00  0.00     0.000 C 
BRANCH   5   6
ATOM      6  C   UNL     1      42.506  -3.236  30.387  1.00  0.00     0.000 C 
BRANCH   6   7
ATOM      7  C   UNL     1      43.017  -2.519  29.121  1.00  0.00     0.000 C 
BRANCH   7   8
ATOM      8  C   UNL     1      44.431  -2.924  28.661  1.00  0.00     0.000 C 
BRANCH   8   9
ATOM      9  C   UNL     1      44.478  -4.031  27.589  1.00  0.00     0.000 C 
BRANCH   9  10
ATOM     10  C   UNL     1      45.420  -5.204  27.913  1.00  0.00     0.000 C 
BRANCH  10  11
ATOM     11  C   UNL     1      45.387  -6.308  26.845  1.00  0.00     0.000 C 
BRANCH  11  12
ATOM     12  C   UNL     1      46.592  -6.192  25.901  1.00  0.00     0.000 C 
BRANCH  12  13
ATOM     13  C   UNL     1      46.881  -7.496  25.142  1.00  0.00     0.006 C 
BRANCH  13  14
ATOM     14  C   UNL     1      47.068  -7.273  23.635  1.00  0.00     0.053 C 
BRANCH  14  15
ATOM     15  C   UNL     1      48.508  -7.420  23.258  1.00  0.00     0.041 C 
ATOM     16  O   UNL     1      48.824  -7.850  22.117  1.00  0.00    -0.550 OA
ATOM     17  O   UNL     1      49.503  -7.040  24.150  1.00  0.00    -0.550 OA
ENDBRANCH  14  15
ENDBRANCH  13  14
ENDBRANCH  12  13
ENDBRANCH  11  12
ENDBRANCH  10  11
ENDBRANCH   9  10
ENDBRANCH   8   9
ENDBRANCH   7   8
ENDBRANCH   6   7
ENDBRANCH   5   6
ENDBRANCH   4   5
ENDBRANCH   3   4
ENDBRANCH   2   3
ENDBRANCH   1   2
BRANCH   1  18
ATOM     18  C   UNL     1      40.639  -4.153  26.770  1.00  0.00     0.000 C 
BRANCH  18  19
ATOM     19  C   UNL     1      39.119  -4.328  26.620  1.00  0.00     0.000 C 
BRANCH  19  20
ATOM     20  C   UNL     1      38.317  -3.221  27.322  1.00  0.00     0.000 C 
BRANCH  20  21
ATOM     21  C   UNL     1      37.685  -3.737  28.625  1.00  0.00     0.000 C 
BRANCH  21  22
ATOM     22  C   UNL     1      36.877  -5.028  28.423  1.00  0.00     0.000 C 
BRANCH  22  23
ATOM     23  C   UNL     1      37.097  -6.051  29.551  1.00  0.00     0.000 C 
BRANCH  23  24
ATOM     24  C   UNL     1      37.861  -7.298  29.081  1.00  0.00    -0.000 C 
BRANCH  24  25
ATOM     25  C   UNL     1      36.932  -8.377  28.492  1.00  0.00    -0.000 C 
BRANCH  25  26
ATOM     26  C   UNL     1      37.415  -8.900  27.123  1.00  0.00    -0.000 C 
BRANCH  26  27
ATOM     27  C   UNL     1      38.120  -7.838  26.256  1.00  0.00    -0.000 C 
BRANCH  27  28
ATOM     28  C   UNL     1      37.209  -7.072  25.282  1.00  0.00    -0.000 C 
BRANCH  28  29
ATOM     29  C   UNL     1      35.806  -7.692  25.165  1.00  0.00    -0.000 C 
BRANCH  29  30
ATOM     30  C   UNL     1      34.724  -6.844  25.852  1.00  0.00    -0.000 C 
BRANCH  30  31
ATOM     31  C   UNL     1      33.576  -7.692  26.418  1.00  0.00    -0.003 C 
ATOM     32  C   UNL     1      33.939  -9.175  26.430  1.00  0.00     0.004 C 
ENDBRANCH  30  31
ENDBRANCH  29  30
ENDBRANCH  28  29
ENDBRANCH  27  28
ENDBRANCH  26  27
ENDBRANCH  25  26
ENDBRANCH  24  25
ENDBRANCH  23  24
ENDBRANCH  22  23
ENDBRANCH  21  22
ENDBRANCH  20  21
ENDBRANCH  19  20
ENDBRANCH  18  19
ENDBRANCH   1  18
TORSDOF 28
ENDMDL
MODEL 9
REMARK VINA RESULT:    -4.911      3.458      8.703
REMARK INTER + INTRA:         -17.085
REMARK INTER:                 -12.903
REMARK INTRA:                  -4.182
REMARK UNBOUND:                -4.134
REMARK SMILES CCCCCCCCCCCCCCCCCCCCCCCCCCCCCC(=O)[O-]
REMARK SMILES IDX 16 1 17 2 18 3 19 4 20 5 21 6 22 7 23 8 24 9 25 10 26 11
REMARK SMILES IDX 27 12 28 13 29 14 30 15 31 16 32 17 15 18 14 19 13 20 12 21
REMARK SMILES IDX 11 22 10 23 9 24 8 25 7 26 6 27 5 28 4 29 3 30 2 31 1 32
REMARK H PARENT
REMARK Flexibility Score: inf
ROOT
ATOM      1  C   UNL     1      41.273  -4.114  34.175  1.00  0.00     0.000 C 
ENDROOT
BRANCH   1   2
ATOM      2  C   UNL     1      40.330  -4.735  33.127  1.00  0.00     0.000 C 
BRANCH   2   3
ATOM      3  C   UNL     1      40.944  -5.866  32.277  1.00  0.00     0.000 C 
BRANCH   3   4
ATOM      4  C   UNL     1      40.292  -6.084  30.899  1.00  0.00     0.000 C 
BRANCH   4   5
ATOM      5  C   UNL     1      41.325  -6.239  29.770  1.00  0.00     0.000 C 
BRANCH   5   6
ATOM      6  C   UNL     1      42.627  -5.461  30.037  1.00  0.00     0.000 C 
BRANCH   6   7
ATOM      7  C   UNL     1      43.294  -4.851  28.788  1.00  0.00     0.000 C 
BRANCH   7   8
ATOM      8  C   UNL     1      43.189  -5.700  27.505  1.00  0.00     0.000 C 
BRANCH   8   9
ATOM      9  C   UNL     1      44.314  -5.470  26.476  1.00  0.00     0.000 C 
BRANCH   9  10
ATOM     10  C   UNL     1      45.709  -5.938  26.928  1.00  0.00     0.000 C 
BRANCH  10  11
ATOM     11  C   UNL     1      46.093  -7.310  26.354  1.00  0.00     0.000 C 
BRANCH  11  12
ATOM     12  C   UNL     1      46.177  -7.257  24.822  1.00  0.00     0.000 C 
BRANCH  12  13
ATOM     13  C   UNL     1      47.616  -7.397  24.301  1.00  0.00     0.006 C 
BRANCH  13  14
ATOM     14  C   UNL     1      48.323  -6.043  24.149  1.00  0.00     0.053 C 
BRANCH  14  15
ATOM     15  C   UNL     1      49.365  -5.874  25.208  1.00  0.00     0.041 C 
ATOM     16  O   UNL     1      49.171  -5.082  26.168  1.00  0.00    -0.550 OA
ATOM     17  O   UNL     1      50.534  -6.624  25.160  1.00  0.00    -0.550 OA
ENDBRANCH  14  15
ENDBRANCH  13  14
ENDBRANCH  12  13
ENDBRANCH  11  12
ENDBRANCH  10  11
ENDBRANCH   9  10
ENDBRANCH   8   9
ENDBRANCH   7   8
ENDBRANCH   6   7
ENDBRANCH   5   6
ENDBRANCH   4   5
ENDBRANCH   3   4
ENDBRANCH   2   3
ENDBRANCH   1   2
BRANCH   1  18
ATOM     18  C   UNL     1      42.757  -4.270  33.808  1.00  0.00     0.000 C 
BRANCH  18  19
ATOM     19  C   UNL     1      43.463  -2.922  33.591  1.00  0.00     0.000 C 
BRANCH  19  20
ATOM     20  C   UNL     1      43.275  -2.369  32.170  1.00  0.00     0.000 C 
BRANCH  20  21
ATOM     21  C   UNL     1      42.246  -1.228  32.152  1.00  0.00     0.000 C 
BRANCH  21  22
ATOM     22  C   UNL     1      42.016  -0.658  30.744  1.00  0.00     0.000 C 
BRANCH  22  23
ATOM     23  C   UNL     1      41.580  -1.731  29.731  1.00  0.00     0.000 C 
BRANCH  23  24
ATOM     24  C   UNL     1      40.308  -2.476  30.167  1.00  0.00    -0.000 C 
BRANCH  24  25
ATOM     25  C   UNL     1      39.334  -2.722  28.999  1.00  0.00    -0.000 C 
BRANCH  25  26
ATOM     26  C   UNL     1      39.924  -3.649  27.915  1.00  0.00    -0.000 C 
BRANCH  26  27
ATOM     27  C   UNL     1      38.865  -4.369  27.057  1.00  0.00    -0.000 C 
BRANCH  27  28
ATOM     28  C   UNL     1      39.368  -5.598  26.282  1.00  0.00    -0.000 C 
BRANCH  28  29
ATOM     29  C   UNL     1      38.911  -6.927  26.909  1.00  0.00    -0.000 C 
BRANCH  29  30
ATOM     30  C   UNL     1      37.571  -7.420  26.340  1.00  0.00    -0.000 C 
BRANCH  30  31
ATOM     31  C   UNL     1      37.341  -6.970  24.890  1.00  0.00    -0.003 C 
ATOM     32  C   UNL     1      35.924  -7.302  24.427  1.00  0.00     0.004 C 
ENDBRANCH  30  31
ENDBRANCH  29  30
ENDBRANCH  28  29
ENDBRANCH  27  28
ENDBRANCH  26  27
ENDBRANCH  25  26
ENDBRANCH  24  25
ENDBRANCH  23  24
ENDBRANCH  22  23
ENDBRANCH  21  22
ENDBRANCH  20  21
ENDBRANCH  19  20
ENDBRANCH  18  19
ENDBRANCH   1  18
TORSDOF 28
ENDMDL
