MODEL 1
REMARK VINA RESULT:    -5.201      0.000      0.000
REMARK INTER + INTRA:          -6.044
REMARK INTER:                  -5.961
REMARK INTRA:                  -0.083
REMARK UNBOUND:                -0.083
REMARK SMILES COc1cc(C(=O)[O-])ccc1O
REMARK SMILES IDX 5 1 9 2 4 3 10 4 3 5 11 6 6 7 7 8 8 9 2 10 1 11 12 12
REMARK H PARENT 12 13
REMARK Flexibility Score: inf
ROOT
ATOM      1  C   UNL     1      17.212  -3.635  68.831  1.00  0.00     0.001 A 
ATOM      2  C   UNL     1      16.149  -4.352  69.401  1.00  0.00     0.014 A 
ATOM      3  C   UNL     1      17.867  -4.163  67.702  1.00  0.00     0.060 A 
ATOM      4  C   UNL     1      15.747  -5.572  68.855  1.00  0.00     0.051 A 
ATOM      5  C   UNL     1      17.464  -5.395  67.147  1.00  0.00     0.161 A 
ATOM      6  C   UNL     1      16.397  -6.097  67.735  1.00  0.00     0.157 A 
ENDROOT
BRANCH   1   7
ATOM      7  C   UNL     1      17.636  -2.342  69.414  1.00  0.00     0.072 C 
ATOM      8  O   UNL     1      17.241  -1.995  70.559  1.00  0.00    -0.545 OA
ATOM      9  O   UNL     1      18.477  -1.492  68.706  1.00  0.00    -0.545 OA
ENDBRANCH   1   7
BRANCH   5  10
ATOM     10  O   UNL     1      18.098  -5.946  66.022  1.00  0.00    -0.493 OA
ATOM     11  C   UNL     1      19.480  -5.791  65.716  1.00  0.00     0.278 C 
ENDBRANCH   5  10
BRANCH   6  12
ATOM     12  O   UNL     1      15.966  -7.318  67.218  1.00  0.00    -0.504 OA
ATOM     13  H   UNL     1      15.659  -8.079  67.811  1.00  0.00     0.293 HD
ENDBRANCH   6  12
TORSDOF 3
ENDMDL
MODEL 2
REMARK VINA RESULT:    -5.078      2.214      3.581
REMARK INTER + INTRA:          -5.903
REMARK INTER:                  -5.814
REMARK INTRA:                  -0.090
REMARK UNBOUND:                -0.083
REMARK SMILES COc1cc(C(=O)[O-])ccc1O
REMARK SMILES IDX 5 1 9 2 4 3 10 4 3 5 11 6 6 7 7 8 8 9 2 10 1 11 12 12
REMARK H PARENT 12 13
REMARK Flexibility Score: inf
ROOT
ATOM      1  C   UNL     1      16.063  -4.621  68.157  1.00  0.00     0.001 A 
ATOM      2  C   UNL     1      15.737  -4.658  66.792  1.00  0.00     0.014 A 
ATOM      3  C   UNL     1      15.337  -5.424  69.056  1.00  0.00     0.060 A 
ATOM      4  C   UNL     1      14.707  -5.481  66.334  1.00  0.00     0.051 A 
ATOM      5  C   UNL     1      14.296  -6.256  68.599  1.00  0.00     0.161 A 
ATOM      6  C   UNL     1      13.986  -6.278  67.227  1.00  0.00     0.157 A 
ENDROOT
BRANCH   1   7
ATOM      7  C   UNL     1      17.157  -3.746  68.638  1.00  0.00     0.072 C 
ATOM      8  O   UNL     1      17.058  -3.142  69.739  1.00  0.00    -0.545 OA
ATOM      9  O   UNL     1      18.311  -3.581  67.881  1.00  0.00    -0.545 OA
ENDBRANCH   1   7
BRANCH   5  10
ATOM     10  O   UNL     1      13.554  -7.068  69.472  1.00  0.00    -0.493 OA
ATOM     11  C   UNL     1      13.902  -8.402  69.827  1.00  0.00     0.278 C 
ENDBRANCH   5  10
BRANCH   6  12
ATOM     12  O   UNL     1      12.963  -7.087  66.732  1.00  0.00    -0.504 OA
ATOM     13  H   UNL     1      12.578  -7.857  67.264  1.00  0.00     0.293 HD
ENDBRANCH   6  12
TORSDOF 3
ENDMDL
MODEL 3
REMARK VINA RESULT:    -5.028      1.134      2.520
REMARK INTER + INTRA:          -5.846
REMARK INTER:                  -5.747
REMARK INTRA:                  -0.099
REMARK UNBOUND:                -0.083
REMARK SMILES COc1cc(C(=O)[O-])ccc1O
REMARK SMILES IDX 5 1 9 2 4 3 10 4 3 5 11 6 6 7 7 8 8 9 2 10 1 11 12 12
REMARK H PARENT 12 13
REMARK Flexibility Score: inf
ROOT
ATOM      1  C   UNL     1      17.658  -3.152  69.004  1.00  0.00     0.001 A 
ATOM      2  C   UNL     1      18.772  -3.432  68.197  1.00  0.00     0.014 A 
ATOM      3  C   UNL     1      16.520  -3.974  68.910  1.00  0.00     0.060 A 
ATOM      4  C   UNL     1      18.749  -4.512  67.313  1.00  0.00     0.051 A 
ATOM      5  C   UNL     1      16.492  -5.066  68.020  1.00  0.00     0.161 A 
ATOM      6  C   UNL     1      17.619  -5.329  67.220  1.00  0.00     0.157 A 
ENDROOT
BRANCH   1   7
ATOM      7  C   UNL     1      17.687  -2.004  69.939  1.00  0.00     0.072 C 
ATOM      8  O   UNL     1      16.907  -1.963  70.928  1.00  0.00    -0.545 OA
ATOM      9  O   UNL     1      18.577  -0.955  69.740  1.00  0.00    -0.545 OA
ENDBRANCH   1   7
BRANCH   5  10
ATOM     10  O   UNL     1      15.371  -5.903  67.904  1.00  0.00    -0.493 OA
ATOM     11  C   UNL     1      14.253  -5.645  67.062  1.00  0.00     0.278 C 
ENDBRANCH   5  10
BRANCH   6  12
ATOM     12  O   UNL     1      17.634  -6.399  66.326  1.00  0.00    -0.504 OA
ATOM     13  H   UNL     1      16.789  -6.767  65.908  1.00  0.00     0.293 HD
ENDBRANCH   6  12
TORSDOF 3
ENDMDL
MODEL 4
REMARK VINA RESULT:    -4.960      1.692      3.682
REMARK INTER + INTRA:          -5.768
REMARK INTER:                  -5.691
REMARK INTRA:                  -0.077
REMARK UNBOUND:                -0.083
REMARK SMILES COc1cc(C(=O)[O-])ccc1O
REMARK SMILES IDX 5 1 9 2 4 3 10 4 3 5 11 6 6 7 7 8 8 9 2 10 1 11 12 12
REMARK H PARENT 12 13
REMARK Flexibility Score: inf
ROOT
ATOM      1  C   UNL     1      16.071  -4.982  67.858  1.00  0.00     0.001 A 
ATOM      2  C   UNL     1      16.304  -3.969  68.801  1.00  0.00     0.014 A 
ATOM      3  C   UNL     1      17.145  -5.457  67.083  1.00  0.00     0.060 A 
ATOM      4  C   UNL     1      17.584  -3.440  68.967  1.00  0.00     0.051 A 
ATOM      5  C   UNL     1      18.440  -4.925  67.247  1.00  0.00     0.161 A 
ATOM      6  C   UNL     1      18.651  -3.910  68.197  1.00  0.00     0.157 A 
ENDROOT
BRANCH   1   7
ATOM      7  C   UNL     1      14.710  -5.540  67.686  1.00  0.00     0.072 C 
ATOM      8  O   UNL     1      14.223  -5.699  66.535  1.00  0.00    -0.545 OA
ATOM      9  O   UNL     1      13.951  -5.900  68.793  1.00  0.00    -0.545 OA
ENDBRANCH   1   7
BRANCH   5  10
ATOM     10  O   UNL     1      19.532  -5.379  66.488  1.00  0.00    -0.493 OA
ATOM     11  C   UNL     1      19.425  -6.013  65.218  1.00  0.00     0.278 C 
ENDBRANCH   5  10
BRANCH   6  12
ATOM     12  O   UNL     1      19.917  -3.357  68.392  1.00  0.00    -0.504 OA
ATOM     13  H   UNL     1      20.108  -2.692  69.131  1.00  0.00     0.293 HD
ENDBRANCH   6  12
TORSDOF 3
ENDMDL
MODEL 5
REMARK VINA RESULT:    -4.953      1.966      2.890
REMARK INTER + INTRA:          -5.760
REMARK INTER:                  -5.684
REMARK INTRA:                  -0.076
REMARK UNBOUND:                -0.083
REMARK SMILES COc1cc(C(=O)[O-])ccc1O
REMARK SMILES IDX 5 1 9 2 4 3 10 4 3 5 11 6 6 7 7 8 8 9 2 10 1 11 12 12
REMARK H PARENT 12 13
REMARK Flexibility Score: inf
ROOT
ATOM      1  C   UNL     1      17.383  -4.979  67.507  1.00  0.00     0.001 A 
ATOM      2  C   UNL     1      16.520  -4.582  68.541  1.00  0.00     0.014 A 
ATOM      3  C   UNL     1      16.872  -5.748  66.445  1.00  0.00     0.060 A 
ATOM      4  C   UNL     1      15.174  -4.947  68.515  1.00  0.00     0.051 A 
ATOM      5  C   UNL     1      15.512  -6.118  66.415  1.00  0.00     0.161 A 
ATOM      6  C   UNL     1      14.666  -5.711  67.461  1.00  0.00     0.157 A 
ENDROOT
BRANCH   1   7
ATOM      7  C   UNL     1      18.811  -4.590  67.539  1.00  0.00     0.072 C 
ATOM      8  O   UNL     1      19.712  -5.433  67.280  1.00  0.00    -0.545 OA
ATOM      9  O   UNL     1      19.180  -3.287  67.853  1.00  0.00    -0.545 OA
ENDBRANCH   1   7
BRANCH   5  10
ATOM     10  O   UNL     1      14.974  -6.885  65.369  1.00  0.00    -0.493 OA
ATOM     11  C   UNL     1      15.682  -7.259  64.192  1.00  0.00     0.278 C 
ENDBRANCH   5  10
BRANCH   6  12
ATOM     12  O   UNL     1      13.314  -6.056  67.471  1.00  0.00    -0.504 OA
ATOM     13  H   UNL     1      12.589  -5.394  67.721  1.00  0.00     0.293 HD
ENDBRANCH   6  12
TORSDOF 3
ENDMDL
MODEL 6
REMARK VINA RESULT:    -4.946      1.868      3.187
REMARK INTER + INTRA:          -5.752
REMARK INTER:                  -5.665
REMARK INTRA:                  -0.086
REMARK UNBOUND:                -0.083
REMARK SMILES COc1cc(C(=O)[O-])ccc1O
REMARK SMILES IDX 5 1 9 2 4 3 10 4 3 5 11 6 6 7 7 8 8 9 2 10 1 11 12 12
REMARK H PARENT 12 13
REMARK Flexibility Score: inf
ROOT
ATOM      1  C   UNL     1      17.121  -4.923  67.927  1.00  0.00     0.001 A 
ATOM      2  C   UNL     1      18.452  -4.478  67.901  1.00  0.00     0.014 A 
ATOM      3  C   UNL     1      16.663  -5.774  66.903  1.00  0.00     0.060 A 
ATOM      4  C   UNL     1      19.309  -4.874  66.874  1.00  0.00     0.051 A 
ATOM      5  C   UNL     1      17.525  -6.176  65.863  1.00  0.00     0.161 A 
ATOM      6  C   UNL     1      18.855  -5.718  65.857  1.00  0.00     0.157 A 
ENDROOT
BRANCH   1   7
ATOM      7  C   UNL     1      16.215  -4.500  69.019  1.00  0.00     0.072 C 
ATOM      8  O   UNL     1      16.477  -3.480  69.710  1.00  0.00    -0.545 OA
ATOM      9  O   UNL     1      15.060  -5.222  69.296  1.00  0.00    -0.545 OA
ENDBRANCH   1   7
BRANCH   5  10
ATOM     10  O   UNL     1      17.097  -7.024  64.829  1.00  0.00    -0.493 OA
ATOM     11  C   UNL     1      15.852  -6.905  64.149  1.00  0.00     0.278 C 
ENDBRANCH   5  10
BRANCH   6  12
ATOM     12  O   UNL     1      19.742  -6.092  64.847  1.00  0.00    -0.504 OA
ATOM     13  H   UNL     1      19.899  -7.060  64.598  1.00  0.00     0.293 HD
ENDBRANCH   6  12
TORSDOF 3
ENDMDL
MODEL 7
REMARK VINA RESULT:    -4.810      1.758      4.755
REMARK INTER + INTRA:          -5.596
REMARK INTER:                  -5.517
REMARK INTRA:                  -0.079
REMARK UNBOUND:                -0.083
REMARK SMILES COc1cc(C(=O)[O-])ccc1O
REMARK SMILES IDX 5 1 9 2 4 3 10 4 3 5 11 6 6 7 7 8 8 9 2 10 1 11 12 12
REMARK H PARENT 12 13
REMARK Flexibility Score: inf
ROOT
ATOM      1  C   UNL     1      16.761  -4.354  68.274  1.00  0.00     0.001 A 
ATOM      2  C   UNL     1      17.893  -4.685  67.513  1.00  0.00     0.014 A 
ATOM      3  C   UNL     1      16.884  -3.405  69.307  1.00  0.00     0.060 A 
ATOM      4  C   UNL     1      19.123  -4.081  67.777  1.00  0.00     0.051 A 
ATOM      5  C   UNL     1      18.124  -2.793  69.577  1.00  0.00     0.161 A 
ATOM      6  C   UNL     1      19.245  -3.140  68.803  1.00  0.00     0.157 A 
ENDROOT
BRANCH   1   7
ATOM      7  C   UNL     1      15.458  -4.997  67.990  1.00  0.00     0.072 C 
ATOM      8  O   UNL     1      14.947  -4.931  66.840  1.00  0.00    -0.545 OA
ATOM      9  O   UNL     1      14.780  -5.687  68.989  1.00  0.00    -0.545 OA
ENDBRANCH   1   7
BRANCH   5  10
ATOM     10  O   UNL     1      18.277  -1.844  70.601  1.00  0.00    -0.493 OA
ATOM     11  C   UNL     1      17.298  -0.873  70.956  1.00  0.00     0.278 C 
ENDBRANCH   5  10
BRANCH   6  12
ATOM     12  O   UNL     1      20.491  -2.557  69.036  1.00  0.00    -0.504 OA
ATOM     13  H   UNL     1      20.591  -1.667  69.507  1.00  0.00     0.293 HD
ENDBRANCH   6  12
TORSDOF 3
ENDMDL
MODEL 8
REMARK VINA RESULT:    -4.774      2.651      5.139
REMARK INTER + INTRA:          -5.555
REMARK INTER:                  -5.474
REMARK INTRA:                  -0.080
REMARK UNBOUND:                -0.083
REMARK SMILES COc1cc(C(=O)[O-])ccc1O
REMARK SMILES IDX 5 1 9 2 4 3 10 4 3 5 11 6 6 7 7 8 8 9 2 10 1 11 12 12
REMARK H PARENT 12 13
REMARK Flexibility Score: inf
ROOT
ATOM      1  C   UNL     1      15.110  -6.961  65.535  1.00  0.00     0.001 A 
ATOM      2  C   UNL     1      14.044  -6.393  66.251  1.00  0.00     0.014 A 
ATOM      3  C   UNL     1      16.418  -6.499  65.773  1.00  0.00     0.060 A 
ATOM      4  C   UNL     1      14.280  -5.383  67.185  1.00  0.00     0.051 A 
ATOM      5  C   UNL     1      16.661  -5.480  66.716  1.00  0.00     0.161 A 
ATOM      6  C   UNL     1      15.579  -4.924  67.421  1.00  0.00     0.157 A 
ENDROOT
BRANCH   1   7
ATOM      7  C   UNL     1      14.855  -8.031  64.545  1.00  0.00     0.072 C 
ATOM      8  O   UNL     1      13.694  -8.495  64.387  1.00  0.00    -0.545 OA
ATOM      9  O   UNL     1      15.893  -8.539  63.772  1.00  0.00    -0.545 OA
ENDBRANCH   1   7
BRANCH   5  10
ATOM     10  O   UNL     1      17.955  -4.999  66.974  1.00  0.00    -0.493 OA
ATOM     11  C   UNL     1      19.132  -5.453  66.315  1.00  0.00     0.278 C 
ENDBRANCH   5  10
BRANCH   6  12
ATOM     12  O   UNL     1      15.774  -3.914  68.363  1.00  0.00    -0.504 OA
ATOM     13  H   UNL     1      16.143  -4.101  69.287  1.00  0.00     0.293 HD
ENDBRANCH   6  12
TORSDOF 3
ENDMDL
MODEL 9
REMARK VINA RESULT:    -4.727      1.360      4.461
REMARK INTER + INTRA:          -5.501
REMARK INTER:                  -5.399
REMARK INTRA:                  -0.103
REMARK UNBOUND:                -0.083
REMARK SMILES COc1cc(C(=O)[O-])ccc1O
REMARK SMILES IDX 5 1 9 2 4 3 10 4 3 5 11 6 6 7 7 8 8 9 2 10 1 11 12 12
REMARK H PARENT 12 13
REMARK Flexibility Score: inf
ROOT
ATOM      1  C   UNL     1      18.257  -4.939  67.110  1.00  0.00     0.001 A 
ATOM      2  C   UNL     1      17.001  -5.047  67.726  1.00  0.00     0.014 A 
ATOM      3  C   UNL     1      19.148  -3.940  67.542  1.00  0.00     0.060 A 
ATOM      4  C   UNL     1      16.641  -4.175  68.754  1.00  0.00     0.051 A 
ATOM      5  C   UNL     1      18.790  -3.056  68.580  1.00  0.00     0.161 A 
ATOM      6  C   UNL     1      17.526  -3.182  69.183  1.00  0.00     0.157 A 
ENDROOT
BRANCH   1   7
ATOM      7  C   UNL     1      18.634  -5.867  66.019  1.00  0.00     0.072 C 
ATOM      8  O   UNL     1      19.846  -6.095  65.761  1.00  0.00    -0.545 OA
ATOM      9  O   UNL     1      17.654  -6.502  65.265  1.00  0.00    -0.545 OA
ENDBRANCH   1   7
BRANCH   5  10
ATOM     10  O   UNL     1      19.658  -2.049  69.032  1.00  0.00    -0.493 OA
ATOM     11  C   UNL     1      19.833  -0.787  68.397  1.00  0.00     0.278 C 
ENDBRANCH   5  10
BRANCH   6  12
ATOM     12  O   UNL     1      17.131  -2.328  70.214  1.00  0.00    -0.504 OA
ATOM     13  H   UNL     1      16.933  -1.348  70.057  1.00  0.00     0.293 HD
ENDBRANCH   6  12
TORSDOF 3
ENDMDL
