MODEL 1
REMARK VINA RESULT:    -3.864      0.000      0.000
REMARK INTER + INTRA:         -11.966
REMARK INTER:                  -8.381
REMARK INTRA:                  -3.586
REMARK UNBOUND:                -3.586
REMARK SMILES CCCCCCCCCCCCCCCCCCCCCC(=O)[O-]
REMARK SMILES IDX 12 1 11 2 10 3 9 4 8 5 7 6 6 7 5 8 4 9 3 10 2 11 1 12 13 13
REMARK SMILES IDX 14 14 15 15 16 16 17 17 18 18 19 19 20 20 21 21 22 22 23 23
REMARK SMILES IDX 24 24
REMARK H PARENT
REMARK Flexibility Score: inf
ROOT
ATOM      1  C   UNL     1       2.781 128.603 111.020  1.00  0.00     0.000 C 
ENDROOT
BRANCH   1   2
ATOM      2  C   UNL     1       2.484 127.332 110.208  1.00  0.00     0.000 C 
BRANCH   2   3
ATOM      3  C   UNL     1       3.627 126.304 110.279  1.00  0.00     0.000 C 
BRANCH   3   4
ATOM      4  C   UNL     1       3.129 124.890 110.623  1.00  0.00    -0.000 C 
BRANCH   4   5
ATOM      5  C   UNL     1       3.697 124.372 111.957  1.00  0.00    -0.000 C 
BRANCH   5   6
ATOM      6  C   UNL     1       5.052 123.664 111.787  1.00  0.00    -0.000 C 
BRANCH   6   7
ATOM      7  C   UNL     1       6.194 124.388 112.521  1.00  0.00    -0.000 C 
BRANCH   7   8
ATOM      8  C   UNL     1       6.978 125.336 111.600  1.00  0.00    -0.000 C 
BRANCH   8   9
ATOM      9  C   UNL     1       8.215 124.667 110.973  1.00  0.00    -0.000 C 
BRANCH   9  10
ATOM     10  C   UNL     1       8.265 124.831 109.446  1.00  0.00    -0.000 C 
BRANCH  10  11
ATOM     11  C   UNL     1       6.931 125.318 108.861  1.00  0.00    -0.003 C 
ATOM     12  C   UNL     1       6.934 125.228 107.338  1.00  0.00     0.004 C 
ENDBRANCH  10  11
ENDBRANCH   9  10
ENDBRANCH   8   9
ENDBRANCH   7   8
ENDBRANCH   6   7
ENDBRANCH   5   6
ENDBRANCH   4   5
ENDBRANCH   3   4
ENDBRANCH   2   3
ENDBRANCH   1   2
BRANCH   1  13
ATOM     13  C   UNL     1       1.742 128.856 112.125  1.00  0.00     0.000 C 
BRANCH  13  14
ATOM     14  C   UNL     1       0.931 127.599 112.480  1.00  0.00     0.000 C 
BRANCH  14  15
ATOM     15  C   UNL     1       1.438 126.870 113.743  1.00  0.00     0.000 C 
BRANCH  15  16
ATOM     16  C   UNL     1       2.492 127.696 114.504  1.00  0.00     0.000 C 
BRANCH  16  17
ATOM     17  C   UNL     1       3.815 126.937 114.687  1.00  0.00     0.000 C 
BRANCH  17  18
ATOM     18  C   UNL     1       4.952 127.512 113.824  1.00  0.00     0.000 C 
BRANCH  18  19
ATOM     19  C   UNL     1       5.585 128.768 114.443  1.00  0.00     0.000 C 
BRANCH  19  20
ATOM     20  C   UNL     1       5.523 129.985 113.504  1.00  0.00     0.006 C 
BRANCH  20  21
ATOM     21  C   UNL     1       4.337 130.904 113.822  1.00  0.00     0.053 C 
BRANCH  21  22
ATOM     22  C   UNL     1       4.523 131.622 115.122  1.00  0.00     0.041 C 
ATOM     23  O   UNL     1       3.568 131.712 115.939  1.00  0.00    -0.550 OA
ATOM     24  O   UNL     1       5.740 132.224 115.417  1.00  0.00    -0.550 OA
ENDBRANCH  21  22
ENDBRANCH  20  21
ENDBRANCH  19  20
ENDBRANCH  18  19
ENDBRANCH  17  18
ENDBRANCH  16  17
ENDBRANCH  15  16
ENDBRANCH  14  15
ENDBRANCH  13  14
ENDBRANCH   1  13
TORSDOF 20
ENDMDL
MODEL 2
REMARK VINA RESULT:    -3.730      1.473      3.164
REMARK INTER + INTRA:         -11.678
REMARK INTER:                  -8.479
REMARK INTRA:                  -3.199
REMARK UNBOUND:                -3.586
REMARK SMILES CCCCCCCCCCCCCCCCCCCCCC(=O)[O-]
REMARK SMILES IDX 12 1 11 2 10 3 9 4 8 5 7 6 6 7 5 8 4 9 3 10 2 11 1 12 13 13
REMARK SMILES IDX 14 14 15 15 16 16 17 17 18 18 19 19 20 20 21 21 22 22 23 23
REMARK SMILES IDX 24 24
REMARK H PARENT
REMARK Flexibility Score: inf
ROOT
ATOM      1  C   UNL     1       2.999 125.117 110.639  1.00  0.00     0.000 C 
ENDROOT
BRANCH   1   2
ATOM      2  C   UNL     1       2.614 124.571 112.023  1.00  0.00     0.000 C 
BRANCH   2   3
ATOM      3  C   UNL     1       1.479 125.375 112.682  1.00  0.00     0.000 C 
BRANCH   3   4
ATOM      4  C   UNL     1       1.937 126.112 113.952  1.00  0.00    -0.000 C 
BRANCH   4   5
ATOM      5  C   UNL     1       3.249 125.544 114.523  1.00  0.00    -0.000 C 
BRANCH   5   6
ATOM      6  C   UNL     1       4.224 126.645 114.974  1.00  0.00    -0.000 C 
BRANCH   6   7
ATOM      7  C   UNL     1       5.549 126.619 114.193  1.00  0.00    -0.000 C 
BRANCH   7   8
ATOM      8  C   UNL     1       5.850 125.238 113.589  1.00  0.00    -0.000 C 
BRANCH   8   9
ATOM      9  C   UNL     1       6.410 125.326 112.157  1.00  0.00    -0.000 C 
BRANCH   9  10
ATOM     10  C   UNL     1       7.278 124.113 111.788  1.00  0.00    -0.000 C 
BRANCH  10  11
ATOM     11  C   UNL     1       8.608 124.515 111.135  1.00  0.00    -0.003 C 
ATOM     12  C   UNL     1       8.410 124.882 109.667  1.00  0.00     0.004 C 
ENDBRANCH  10  11
ENDBRANCH   9  10
ENDBRANCH   8   9
ENDBRANCH   7   8
ENDBRANCH   6   7
ENDBRANCH   5   6
ENDBRANCH   4   5
ENDBRANCH   3   4
ENDBRANCH   2   3
ENDBRANCH   1   2
BRANCH   1  13
ATOM     13  C   UNL     1       3.435 126.591 110.684  1.00  0.00     0.000 C 
BRANCH  13  14
ATOM     14  C   UNL     1       2.472 127.521 109.925  1.00  0.00     0.000 C 
BRANCH  14  15
ATOM     15  C   UNL     1       2.428 128.959 110.487  1.00  0.00     0.000 C 
BRANCH  15  16
ATOM     16  C   UNL     1       1.276 129.153 111.490  1.00  0.00     0.000 C 
BRANCH  16  17
ATOM     17  C   UNL     1       1.767 129.635 112.864  1.00  0.00     0.000 C 
BRANCH  17  18
ATOM     18  C   UNL     1       3.302 129.661 112.968  1.00  0.00     0.000 C 
BRANCH  18  19
ATOM     19  C   UNL     1       3.823 130.914 113.688  1.00  0.00     0.000 C 
BRANCH  19  20
ATOM     20  C   UNL     1       4.920 130.591 114.718  1.00  0.00     0.006 C 
BRANCH  20  21
ATOM     21  C   UNL     1       6.212 130.099 114.055  1.00  0.00     0.053 C 
BRANCH  21  22
ATOM     22  C   UNL     1       7.427 130.701 114.691  1.00  0.00     0.041 C 
ATOM     23  O   UNL     1       7.329 131.319 115.785  1.00  0.00    -0.550 OA
ATOM     24  O   UNL     1       8.661 130.612 114.059  1.00  0.00    -0.550 OA
ENDBRANCH  21  22
ENDBRANCH  20  21
ENDBRANCH  19  20
ENDBRANCH  18  19
ENDBRANCH  17  18
ENDBRANCH  16  17
ENDBRANCH  15  16
ENDBRANCH  14  15
ENDBRANCH  13  14
ENDBRANCH   1  13
TORSDOF 20
ENDMDL
MODEL 3
REMARK VINA RESULT:    -3.702      1.340      2.168
REMARK INTER + INTRA:         -11.616
REMARK INTER:                  -9.206
REMARK INTRA:                  -2.410
REMARK UNBOUND:                -3.586
REMARK SMILES CCCCCCCCCCCCCCCCCCCCCC(=O)[O-]
REMARK SMILES IDX 12 1 11 2 10 3 9 4 8 5 7 6 6 7 5 8 4 9 3 10 2 11 1 12 13 13
REMARK SMILES IDX 14 14 15 15 16 16 17 17 18 18 19 19 20 20 21 21 22 22 23 23
REMARK SMILES IDX 24 24
REMARK H PARENT
REMARK Flexibility Score: inf
ROOT
ATOM      1  C   UNL     1       3.389 126.227 110.888  1.00  0.00     0.000 C 
ENDROOT
BRANCH   1   2
ATOM      2  C   UNL     1       2.915 124.816 111.271  1.00  0.00     0.000 C 
BRANCH   2   3
ATOM      3  C   UNL     1       3.287 124.438 112.716  1.00  0.00     0.000 C 
BRANCH   3   4
ATOM      4  C   UNL     1       4.078 123.122 112.797  1.00  0.00    -0.000 C 
BRANCH   4   5
ATOM      5  C   UNL     1       5.354 123.146 111.935  1.00  0.00    -0.000 C 
BRANCH   5   6
ATOM      6  C   UNL     1       6.607 123.523 112.743  1.00  0.00    -0.000 C 
BRANCH   6   7
ATOM      7  C   UNL     1       7.626 124.326 111.915  1.00  0.00    -0.000 C 
BRANCH   7   8
ATOM      8  C   UNL     1       7.013 125.591 111.293  1.00  0.00    -0.000 C 
BRANCH   8   9
ATOM      9  C   UNL     1       7.261 125.686 109.777  1.00  0.00    -0.000 C 
BRANCH   9  10
ATOM     10  C   UNL     1       7.732 124.355 109.172  1.00  0.00    -0.000 C 
BRANCH  10  11
ATOM     11  C   UNL     1       8.185 124.498 107.711  1.00  0.00    -0.003 C 
ATOM     12  C   UNL     1       7.166 125.286 106.895  1.00  0.00     0.004 C 
ENDBRANCH  10  11
ENDBRANCH   9  10
ENDBRANCH   8   9
ENDBRANCH   7   8
ENDBRANCH   6   7
ENDBRANCH   5   6
ENDBRANCH   4   5
ENDBRANCH   3   4
ENDBRANCH   2   3
ENDBRANCH   1   2
BRANCH   1  13
ATOM     13  C   UNL     1       2.274 127.074 110.253  1.00  0.00     0.000 C 
BRANCH  13  14
ATOM     14  C   UNL     1       1.199 127.503 111.267  1.00  0.00     0.000 C 
BRANCH  14  15
ATOM     15  C   UNL     1       1.723 128.465 112.355  1.00  0.00     0.000 C 
BRANCH  15  16
ATOM     16  C   UNL     1       1.015 128.252 113.706  1.00  0.00     0.000 C 
BRANCH  16  17
ATOM     17  C   UNL     1       1.922 127.577 114.746  1.00  0.00     0.000 C 
BRANCH  17  18
ATOM     18  C   UNL     1       3.401 127.558 114.318  1.00  0.00     0.000 C 
BRANCH  18  19
ATOM     19  C   UNL     1       4.168 128.802 114.792  1.00  0.00     0.000 C 
BRANCH  19  20
ATOM     20  C   UNL     1       5.405 129.100 113.928  1.00  0.00     0.006 C 
BRANCH  20  21
ATOM     21  C   UNL     1       5.801 130.581 113.971  1.00  0.00     0.053 C 
BRANCH  21  22
ATOM     22  C   UNL     1       7.180 130.772 114.523  1.00  0.00     0.041 C 
ATOM     23  O   UNL     1       7.348 130.959 115.757  1.00  0.00    -0.550 OA
ATOM     24  O   UNL     1       8.276 130.781 113.669  1.00  0.00    -0.550 OA
ENDBRANCH  21  22
ENDBRANCH  20  21
ENDBRANCH  19  20
ENDBRANCH  18  19
ENDBRANCH  17  18
ENDBRANCH  16  17
ENDBRANCH  15  16
ENDBRANCH  14  15
ENDBRANCH  13  14
ENDBRANCH   1  13
TORSDOF 20
ENDMDL
MODEL 4
REMARK VINA RESULT:    -3.698      1.486      2.630
REMARK INTER + INTRA:         -11.607
REMARK INTER:                  -8.161
REMARK INTRA:                  -3.445
REMARK UNBOUND:                -3.586
REMARK SMILES CCCCCCCCCCCCCCCCCCCCCC(=O)[O-]
REMARK SMILES IDX 12 1 11 2 10 3 9 4 8 5 7 6 6 7 5 8 4 9 3 10 2 11 1 12 13 13
REMARK SMILES IDX 14 14 15 15 16 16 17 17 18 18 19 19 20 20 21 21 22 22 23 23
REMARK SMILES IDX 24 24
REMARK H PARENT
REMARK Flexibility Score: inf
ROOT
ATOM      1  C   UNL     1       0.782 126.798 113.355  1.00  0.00     0.000 C 
ENDROOT
BRANCH   1   2
ATOM      2  C   UNL     1       1.293 127.328 112.005  1.00  0.00     0.000 C 
BRANCH   2   3
ATOM      3  C   UNL     1       2.684 127.976 112.112  1.00  0.00     0.000 C 
BRANCH   3   4
ATOM      4  C   UNL     1       3.790 127.108 111.489  1.00  0.00    -0.000 C 
BRANCH   4   5
ATOM      5  C   UNL     1       3.260 126.190 110.372  1.00  0.00    -0.000 C 
BRANCH   5   6
ATOM      6  C   UNL     1       3.476 124.699 110.680  1.00  0.00    -0.000 C 
BRANCH   6   7
ATOM      7  C   UNL     1       4.327 124.471 111.941  1.00  0.00    -0.000 C 
BRANCH   7   8
ATOM      8  C   UNL     1       5.110 123.149 111.892  1.00  0.00    -0.000 C 
BRANCH   8   9
ATOM      9  C   UNL     1       6.633 123.364 111.822  1.00  0.00    -0.000 C 
BRANCH   9  10
ATOM     10  C   UNL     1       7.025 124.845 111.935  1.00  0.00    -0.000 C 
BRANCH  10  11
ATOM     11  C   UNL     1       7.943 125.302 110.792  1.00  0.00    -0.003 C 
ATOM     12  C   UNL     1       7.231 125.209 109.446  1.00  0.00     0.004 C 
ENDBRANCH  10  11
ENDBRANCH   9  10
ENDBRANCH   8   9
ENDBRANCH   7   8
ENDBRANCH   6   7
ENDBRANCH   5   6
ENDBRANCH   4   5
ENDBRANCH   3   4
ENDBRANCH   2   3
ENDBRANCH   1   2
BRANCH   1  13
ATOM     13  C   UNL     1       0.986 125.282 113.511  1.00  0.00     0.000 C 
BRANCH  13  14
ATOM     14  C   UNL     1       1.801 124.915 114.763  1.00  0.00     0.000 C 
BRANCH  14  15
ATOM     15  C   UNL     1       3.144 125.669 114.871  1.00  0.00     0.000 C 
BRANCH  15  16
ATOM     16  C   UNL     1       3.245 126.490 116.169  1.00  0.00     0.000 C 
BRANCH  16  17
ATOM     17  C   UNL     1       3.162 128.003 115.917  1.00  0.00     0.000 C 
BRANCH  17  18
ATOM     18  C   UNL     1       4.541 128.686 115.956  1.00  0.00     0.000 C 
BRANCH  18  19
ATOM     19  C   UNL     1       5.474 128.194 114.839  1.00  0.00     0.000 C 
BRANCH  19  20
ATOM     20  C   UNL     1       5.768 129.283 113.792  1.00  0.00     0.006 C 
BRANCH  20  21
ATOM     21  C   UNL     1       5.978 130.661 114.431  1.00  0.00     0.053 C 
BRANCH  21  22
ATOM     22  C   UNL     1       7.407 130.879 114.824  1.00  0.00     0.041 C 
ATOM     23  O   UNL     1       7.685 131.418 115.928  1.00  0.00    -0.550 OA
ATOM     24  O   UNL     1       8.430 130.522 113.955  1.00  0.00    -0.550 OA
ENDBRANCH  21  22
ENDBRANCH  20  21
ENDBRANCH  19  20
ENDBRANCH  18  19
ENDBRANCH  17  18
ENDBRANCH  16  17
ENDBRANCH  15  16
ENDBRANCH  14  15
ENDBRANCH  13  14
ENDBRANCH   1  13
TORSDOF 20
ENDMDL
MODEL 5
REMARK VINA RESULT:    -3.697      3.003      6.518
REMARK INTER + INTRA:         -11.604
REMARK INTER:                  -7.786
REMARK INTRA:                  -3.819
REMARK UNBOUND:                -3.586
REMARK SMILES CCCCCCCCCCCCCCCCCCCCCC(=O)[O-]
REMARK SMILES IDX 12 1 11 2 10 3 9 4 8 5 7 6 6 7 5 8 4 9 3 10 2 11 1 12 13 13
REMARK SMILES IDX 14 14 15 15 16 16 17 17 18 18 19 19 20 20 21 21 22 22 23 23
REMARK SMILES IDX 24 24
REMARK H PARENT
REMARK Flexibility Score: inf
ROOT
ATOM      1  C   UNL     1       5.551 126.035 114.320  1.00  0.00     0.000 C 
ENDROOT
BRANCH   1   2
ATOM      2  C   UNL     1       4.859 127.408 114.306  1.00  0.00     0.000 C 
BRANCH   2   3
ATOM      3  C   UNL     1       4.756 128.006 112.892  1.00  0.00     0.000 C 
BRANCH   3   4
ATOM      4  C   UNL     1       4.076 129.385 112.881  1.00  0.00    -0.000 C 
BRANCH   4   5
ATOM      5  C   UNL     1       2.624 129.330 113.391  1.00  0.00    -0.000 C 
BRANCH   5   6
ATOM      6  C   UNL     1       2.329 130.405 114.451  1.00  0.00    -0.000 C 
BRANCH   6   7
ATOM      7  C   UNL     1       3.609 131.021 115.041  1.00  0.00    -0.000 C 
BRANCH   7   8
ATOM      8  C   UNL     1       4.037 130.344 116.353  1.00  0.00    -0.000 C 
BRANCH   8   9
ATOM      9  C   UNL     1       5.562 130.373 116.566  1.00  0.00    -0.000 C 
BRANCH   9  10
ATOM     10  C   UNL     1       6.260 131.420 115.685  1.00  0.00    -0.000 C 
BRANCH  10  11
ATOM     11  C   UNL     1       7.541 130.883 115.030  1.00  0.00    -0.003 C 
ATOM     12  C   UNL     1       7.343 130.668 113.533  1.00  0.00     0.004 C 
ENDBRANCH  10  11
ENDBRANCH   9  10
ENDBRANCH   8   9
ENDBRANCH   7   8
ENDBRANCH   6   7
ENDBRANCH   5   6
ENDBRANCH   4   5
ENDBRANCH   3   4
ENDBRANCH   2   3
ENDBRANCH   1   2
BRANCH   1  13
ATOM     13  C   UNL     1       4.652 124.925 114.888  1.00  0.00     0.000 C 
BRANCH  13  14
ATOM     14  C   UNL     1       3.155 125.188 114.648  1.00  0.00     0.000 C 
BRANCH  14  15
ATOM     15  C   UNL     1       2.398 123.975 114.066  1.00  0.00     0.000 C 
BRANCH  15  16
ATOM     16  C   UNL     1       1.514 124.365 112.867  1.00  0.00     0.000 C 
BRANCH  16  17
ATOM     17  C   UNL     1       1.580 125.867 112.550  1.00  0.00     0.000 C 
BRANCH  17  18
ATOM     18  C   UNL     1       2.124 126.150 111.138  1.00  0.00     0.000 C 
BRANCH  18  19
ATOM     19  C   UNL     1       3.015 125.015 110.611  1.00  0.00     0.000 C 
BRANCH  19  20
ATOM     20  C   UNL     1       4.419 125.501 110.212  1.00  0.00     0.006 C 
BRANCH  20  21
ATOM     21  C   UNL     1       5.525 124.793 111.005  1.00  0.00     0.053 C 
BRANCH  21  22
ATOM     22  C   UNL     1       6.885 125.297 110.632  1.00  0.00     0.041 C 
ATOM     23  O   UNL     1       7.506 126.074 111.404  1.00  0.00    -0.550 OA
ATOM     24  O   UNL     1       7.451 124.937 109.415  1.00  0.00    -0.550 OA
ENDBRANCH  21  22
ENDBRANCH  20  21
ENDBRANCH  19  20
ENDBRANCH  18  19
ENDBRANCH  17  18
ENDBRANCH  16  17
ENDBRANCH  15  16
ENDBRANCH  14  15
ENDBRANCH  13  14
ENDBRANCH   1  13
TORSDOF 20
ENDMDL
MODEL 6
REMARK VINA RESULT:    -3.685      1.792      2.965
REMARK INTER + INTRA:         -11.579
REMARK INTER:                  -8.403
REMARK INTRA:                  -3.176
REMARK UNBOUND:                -3.586
REMARK SMILES CCCCCCCCCCCCCCCCCCCCCC(=O)[O-]
REMARK SMILES IDX 12 1 11 2 10 3 9 4 8 5 7 6 6 7 5 8 4 9 3 10 2 11 1 12 13 13
REMARK SMILES IDX 14 14 15 15 16 16 17 17 18 18 19 19 20 20 21 21 22 22 23 23
REMARK SMILES IDX 24 24
REMARK H PARENT
REMARK Flexibility Score: inf
ROOT
ATOM      1  C   UNL     1       1.957 123.561 114.151  1.00  0.00     0.000 C 
ENDROOT
BRANCH   1   2
ATOM      2  C   UNL     1       3.114 124.401 114.716  1.00  0.00     0.000 C 
BRANCH   2   3
ATOM      3  C   UNL     1       4.452 123.641 114.716  1.00  0.00     0.000 C 
BRANCH   3   4
ATOM      4  C   UNL     1       4.602 122.707 113.504  1.00  0.00    -0.000 C 
BRANCH   4   5
ATOM      5  C   UNL     1       5.479 123.316 112.394  1.00  0.00    -0.000 C 
BRANCH   5   6
ATOM      6  C   UNL     1       4.659 124.097 111.354  1.00  0.00    -0.000 C 
BRANCH   6   7
ATOM      7  C   UNL     1       5.397 125.341 110.830  1.00  0.00    -0.000 C 
BRANCH   7   8
ATOM      8  C   UNL     1       6.829 125.450 111.378  1.00  0.00    -0.000 C 
BRANCH   8   9
ATOM      9  C   UNL     1       7.892 125.454 110.265  1.00  0.00    -0.000 C 
BRANCH   9  10
ATOM     10  C   UNL     1       7.721 124.285 109.282  1.00  0.00    -0.000 C 
BRANCH  10  11
ATOM     11  C   UNL     1       7.936 124.705 107.821  1.00  0.00    -0.003 C 
ATOM     12  C   UNL     1       6.744 125.499 107.296  1.00  0.00     0.004 C 
ENDBRANCH  10  11
ENDBRANCH   9  10
ENDBRANCH   8   9
ENDBRANCH   7   8
ENDBRANCH   6   7
ENDBRANCH   5   6
ENDBRANCH   4   5
ENDBRANCH   3   4
ENDBRANCH   2   3
ENDBRANCH   1   2
BRANCH   1  13
ATOM     13  C   UNL     1       1.340 124.180 112.886  1.00  0.00     0.000 C 
BRANCH  13  14
ATOM     14  C   UNL     1       1.165 125.705 112.992  1.00  0.00     0.000 C 
BRANCH  14  15
ATOM     15  C   UNL     1       1.703 126.476 111.768  1.00  0.00     0.000 C 
BRANCH  15  16
ATOM     16  C   UNL     1       2.044 127.938 112.109  1.00  0.00     0.000 C 
BRANCH  16  17
ATOM     17  C   UNL     1       3.542 128.243 111.962  1.00  0.00     0.000 C 
BRANCH  17  18
ATOM     18  C   UNL     1       4.193 128.665 113.292  1.00  0.00     0.000 C 
BRANCH  18  19
ATOM     19  C   UNL     1       5.052 127.550 113.908  1.00  0.00     0.000 C 
BRANCH  19  20
ATOM     20  C   UNL     1       5.258 127.729 115.422  1.00  0.00     0.006 C 
BRANCH  20  21
ATOM     21  C   UNL     1       4.730 129.079 115.923  1.00  0.00     0.053 C 
BRANCH  21  22
ATOM     22  C   UNL     1       5.808 129.888 116.577  1.00  0.00     0.041 C 
ATOM     23  O   UNL     1       5.778 130.097 117.819  1.00  0.00    -0.550 OA
ATOM     24  O   UNL     1       6.825 130.443 115.809  1.00  0.00    -0.550 OA
ENDBRANCH  21  22
ENDBRANCH  20  21
ENDBRANCH  19  20
ENDBRANCH  18  19
ENDBRANCH  17  18
ENDBRANCH  16  17
ENDBRANCH  15  16
ENDBRANCH  14  15
ENDBRANCH  13  14
ENDBRANCH   1  13
TORSDOF 20
ENDMDL
MODEL 7
REMARK VINA RESULT:    -3.653      2.217      4.101
REMARK INTER + INTRA:         -11.510
REMARK INTER:                  -7.668
REMARK INTRA:                  -3.842
REMARK UNBOUND:                -3.586
REMARK SMILES CCCCCCCCCCCCCCCCCCCCCC(=O)[O-]
REMARK SMILES IDX 12 1 11 2 10 3 9 4 8 5 7 6 6 7 5 8 4 9 3 10 2 11 1 12 13 13
REMARK SMILES IDX 14 14 15 15 16 16 17 17 18 18 19 19 20 20 21 21 22 22 23 23
REMARK SMILES IDX 24 24
REMARK H PARENT
REMARK Flexibility Score: inf
ROOT
ATOM      1  C   UNL     1       1.288 124.726 113.114  1.00  0.00     0.000 C 
ENDROOT
BRANCH   1   2
ATOM      2  C   UNL     1       0.999 125.140 114.565  1.00  0.00     0.000 C 
BRANCH   2   3
ATOM      3  C   UNL     1       1.112 126.660 114.781  1.00  0.00     0.000 C 
BRANCH   3   4
ATOM      4  C   UNL     1       2.173 127.030 115.831  1.00  0.00    -0.000 C 
BRANCH   4   5
ATOM      5  C   UNL     1       3.314 125.999 115.905  1.00  0.00    -0.000 C 
BRANCH   5   6
ATOM      6  C   UNL     1       4.699 126.658 116.023  1.00  0.00    -0.000 C 
BRANCH   6   7
ATOM      7  C   UNL     1       5.660 126.219 114.905  1.00  0.00    -0.000 C 
BRANCH   7   8
ATOM      8  C   UNL     1       4.938 125.974 113.570  1.00  0.00    -0.000 C 
BRANCH   8   9
ATOM      9  C   UNL     1       5.791 125.168 112.573  1.00  0.00    -0.000 C 
BRANCH   9  10
ATOM     10  C   UNL     1       5.347 123.700 112.470  1.00  0.00    -0.000 C 
BRANCH  10  11
ATOM     11  C   UNL     1       4.278 123.332 113.509  1.00  0.00    -0.003 C 
ATOM     12  C   UNL     1       3.999 121.832 113.501  1.00  0.00     0.004 C 
ENDBRANCH  10  11
ENDBRANCH   9  10
ENDBRANCH   8   9
ENDBRANCH   7   8
ENDBRANCH   6   7
ENDBRANCH   5   6
ENDBRANCH   4   5
ENDBRANCH   3   4
ENDBRANCH   2   3
ENDBRANCH   1   2
BRANCH   1  13
ATOM     13  C   UNL     1       1.466 125.933 112.177  1.00  0.00     0.000 C 
BRANCH  13  14
ATOM     14  C   UNL     1       2.410 125.639 110.999  1.00  0.00     0.000 C 
BRANCH  14  15
ATOM     15  C   UNL     1       3.056 126.904 110.393  1.00  0.00     0.000 C 
BRANCH  15  16
ATOM     16  C   UNL     1       2.272 128.181 110.747  1.00  0.00     0.000 C 
BRANCH  16  17
ATOM     17  C   UNL     1       3.152 129.244 111.424  1.00  0.00     0.000 C 
BRANCH  17  18
ATOM     18  C   UNL     1       3.031 129.222 112.958  1.00  0.00     0.000 C 
BRANCH  18  19
ATOM     19  C   UNL     1       3.994 130.206 113.639  1.00  0.00     0.000 C 
BRANCH  19  20
ATOM     20  C   UNL     1       5.457 129.733 113.589  1.00  0.00     0.006 C 
BRANCH  20  21
ATOM     21  C   UNL     1       6.148 129.835 114.955  1.00  0.00     0.053 C 
BRANCH  21  22
ATOM     22  C   UNL     1       7.332 130.750 114.911  1.00  0.00     0.041 C 
ATOM     23  O   UNL     1       7.544 131.558 115.854  1.00  0.00    -0.550 OA
ATOM     24  O   UNL     1       8.182 130.737 113.812  1.00  0.00    -0.550 OA
ENDBRANCH  21  22
ENDBRANCH  20  21
ENDBRANCH  19  20
ENDBRANCH  18  19
ENDBRANCH  17  18
ENDBRANCH  16  17
ENDBRANCH  15  16
ENDBRANCH  14  15
ENDBRANCH  13  14
ENDBRANCH   1  13
TORSDOF 20
ENDMDL
MODEL 8
REMARK VINA RESULT:    -3.647      3.639      6.273
REMARK INTER + INTRA:         -11.497
REMARK INTER:                  -7.810
REMARK INTRA:                  -3.687
REMARK UNBOUND:                -3.586
REMARK SMILES CCCCCCCCCCCCCCCCCCCCCC(=O)[O-]
REMARK SMILES IDX 12 1 11 2 10 3 9 4 8 5 7 6 6 7 5 8 4 9 3 10 2 11 1 12 13 13
REMARK SMILES IDX 14 14 15 15 16 16 17 17 18 18 19 19 20 20 21 21 22 22 23 23
REMARK SMILES IDX 24 24
REMARK H PARENT
REMARK Flexibility Score: inf
ROOT
ATOM      1  C   UNL     1       2.489 129.042 112.764  1.00  0.00     0.000 C 
ENDROOT
BRANCH   1   2
ATOM      2  C   UNL     1       2.747 128.296 114.083  1.00  0.00     0.000 C 
BRANCH   2   3
ATOM      3  C   UNL     1       3.917 127.302 113.983  1.00  0.00     0.000 C 
BRANCH   3   4
ATOM      4  C   UNL     1       3.516 125.874 114.391  1.00  0.00    -0.000 C 
BRANCH   4   5
ATOM      5  C   UNL     1       2.526 125.854 115.570  1.00  0.00    -0.000 C 
BRANCH   5   6
ATOM      6  C   UNL     1       1.346 124.896 115.335  1.00  0.00    -0.000 C 
BRANCH   6   7
ATOM      7  C   UNL     1       0.897 124.859 113.865  1.00  0.00    -0.000 C 
BRANCH   7   8
ATOM      8  C   UNL     1       1.083 123.473 113.227  1.00  0.00    -0.000 C 
BRANCH   8   9
ATOM      9  C   UNL     1       1.030 122.332 114.260  1.00  0.00    -0.000 C 
BRANCH   9  10
ATOM     10  C   UNL     1       2.346 121.542 114.333  1.00  0.00    -0.000 C 
BRANCH  10  11
ATOM     11  C   UNL     1       3.479 122.206 113.536  1.00  0.00    -0.003 C 
ATOM     12  C   UNL     1       4.693 122.468 114.421  1.00  0.00     0.004 C 
ENDBRANCH  10  11
ENDBRANCH   9  10
ENDBRANCH   8   9
ENDBRANCH   7   8
ENDBRANCH   6   7
ENDBRANCH   5   6
ENDBRANCH   4   5
ENDBRANCH   3   4
ENDBRANCH   2   3
ENDBRANCH   1   2
BRANCH   1  13
ATOM     13  C   UNL     1       1.090 128.763 112.189  1.00  0.00     0.000 C 
BRANCH  13  14
ATOM     14  C   UNL     1       1.025 127.450 111.390  1.00  0.00     0.000 C 
BRANCH  14  15
ATOM     15  C   UNL     1       2.316 127.140 110.601  1.00  0.00     0.000 C 
BRANCH  15  16
ATOM     16  C   UNL     1       2.745 125.669 110.748  1.00  0.00     0.000 C 
BRANCH  16  17
ATOM     17  C   UNL     1       4.138 125.400 110.159  1.00  0.00     0.000 C 
BRANCH  17  18
ATOM     18  C   UNL     1       5.002 124.508 111.068  1.00  0.00     0.000 C 
BRANCH  18  19
ATOM     19  C   UNL     1       6.164 125.277 111.716  1.00  0.00     0.000 C 
BRANCH  19  20
ATOM     20  C   UNL     1       7.286 125.607 110.715  1.00  0.00     0.006 C 
BRANCH  20  21
ATOM     21  C   UNL     1       7.618 124.419 109.803  1.00  0.00     0.053 C 
BRANCH  21  22
ATOM     22  C   UNL     1       7.682 124.826 108.364  1.00  0.00     0.041 C 
ATOM     23  O   UNL     1       6.657 125.277 107.787  1.00  0.00    -0.550 OA
ATOM     24  O   UNL     1       8.864 124.672 107.648  1.00  0.00    -0.550 OA
ENDBRANCH  21  22
ENDBRANCH  20  21
ENDBRANCH  19  20
ENDBRANCH  18  19
ENDBRANCH  17  18
ENDBRANCH  16  17
ENDBRANCH  15  16
ENDBRANCH  14  15
ENDBRANCH  13  14
ENDBRANCH   1  13
TORSDOF 20
ENDMDL
MODEL 9
REMARK VINA RESULT:    -3.634      3.207      5.859
REMARK INTER + INTRA:         -11.468
REMARK INTER:                  -7.752
REMARK INTRA:                  -3.716
REMARK UNBOUND:                -3.586
REMARK SMILES CCCCCCCCCCCCCCCCCCCCCC(=O)[O-]
REMARK SMILES IDX 12 1 11 2 10 3 9 4 8 5 7 6 6 7 5 8 4 9 3 10 2 11 1 12 13 13
REMARK SMILES IDX 14 14 15 15 16 16 17 17 18 18 19 19 20 20 21 21 22 22 23 23
REMARK SMILES IDX 24 24
REMARK H PARENT
REMARK Flexibility Score: inf
ROOT
ATOM      1  C   UNL     1       1.655 124.167 113.064  1.00  0.00     0.000 C 
ENDROOT
BRANCH   1   2
ATOM      2  C   UNL     1       1.864 125.367 112.127  1.00  0.00     0.000 C 
BRANCH   2   3
ATOM      3  C   UNL     1       2.906 125.087 111.030  1.00  0.00     0.000 C 
BRANCH   3   4
ATOM      4  C   UNL     1       3.272 126.347 110.227  1.00  0.00    -0.000 C 
BRANCH   4   5
ATOM      5  C   UNL     1       2.133 127.382 110.202  1.00  0.00    -0.000 C 
BRANCH   5   6
ATOM      6  C   UNL     1       2.613 128.798 110.565  1.00  0.00    -0.000 C 
BRANCH   6   7
ATOM      7  C   UNL     1       2.553 129.073 112.078  1.00  0.00    -0.000 C 
BRANCH   7   8
ATOM      8  C   UNL     1       3.829 129.751 112.603  1.00  0.00    -0.000 C 
BRANCH   8   9
ATOM      9  C   UNL     1       3.528 130.924 113.555  1.00  0.00    -0.000 C 
BRANCH   9  10
ATOM     10  C   UNL     1       4.459 130.945 114.777  1.00  0.00    -0.000 C 
BRANCH  10  11
ATOM     11  C   UNL     1       5.929 130.703 114.404  1.00  0.00    -0.003 C 
ATOM     12  C   UNL     1       6.587 129.723 115.370  1.00  0.00     0.004 C 
ENDBRANCH  10  11
ENDBRANCH   9  10
ENDBRANCH   8   9
ENDBRANCH   7   8
ENDBRANCH   6   7
ENDBRANCH   5   6
ENDBRANCH   4   5
ENDBRANCH   3   4
ENDBRANCH   2   3
ENDBRANCH   1   2
BRANCH   1  13
ATOM     13  C   UNL     1       0.795 124.516 114.291  1.00  0.00     0.000 C 
BRANCH  13  14
ATOM     14  C   UNL     1       0.574 126.030 114.453  1.00  0.00     0.000 C 
BRANCH  14  15
ATOM     15  C   UNL     1       1.279 126.629 115.689  1.00  0.00     0.000 C 
BRANCH  15  16
ATOM     16  C   UNL     1       2.278 127.736 115.306  1.00  0.00     0.000 C 
BRANCH  16  17
ATOM     17  C   UNL     1       3.690 127.468 115.849  1.00  0.00     0.000 C 
BRANCH  17  18
ATOM     18  C   UNL     1       4.301 126.169 115.294  1.00  0.00     0.000 C 
BRANCH  18  19
ATOM     19  C   UNL     1       4.955 126.365 113.918  1.00  0.00     0.000 C 
BRANCH  19  20
ATOM     20  C   UNL     1       5.795 125.151 113.483  1.00  0.00     0.006 C 
BRANCH  20  21
ATOM     21  C   UNL     1       6.611 125.434 112.216  1.00  0.00     0.053 C 
BRANCH  21  22
ATOM     22  C   UNL     1       7.552 124.314 111.900  1.00  0.00     0.041 C 
ATOM     23  O   UNL     1       8.750 124.559 111.599  1.00  0.00    -0.550 OA
ATOM     24  O   UNL     1       7.097 123.000 111.902  1.00  0.00    -0.550 OA
ENDBRANCH  21  22
ENDBRANCH  20  21
ENDBRANCH  19  20
ENDBRANCH  18  19
ENDBRANCH  17  18
ENDBRANCH  16  17
ENDBRANCH  15  16
ENDBRANCH  14  15
ENDBRANCH  13  14
ENDBRANCH   1  13
TORSDOF 20
ENDMDL
