MODEL 1
REMARK VINA RESULT:    -3.101      0.000      0.000
REMARK INTER + INTRA:          -3.101
REMARK INTER:                  -3.101
REMARK INTRA:                   0.000
REMARK UNBOUND:                 0.000
REMARK SMILES CC1(C)O[C@]2(C)CC[C@H]1CC2
REMARK SMILES IDX 1 1 2 2 9 3 8 4 7 5 5 6 4 7 11 8 10 9 6 10 3 11
REMARK H PARENT
REMARK Flexibility Score: inf
ROOT
ATOM      1  C   UNL     1     -10.110  22.395  14.819  1.00  0.00     0.042 C 
ATOM      2  C   UNL     1      -8.948  22.519  13.810  1.00  0.00     0.066 C 
ATOM      3  C   UNL     1      -8.255  21.119  13.586  1.00  0.00     0.021 C 
ATOM      4  C   UNL     1      -7.137  21.291  12.530  1.00  0.00     0.009 C 
ATOM      5  C   UNL     1      -7.720  21.991  11.280  1.00  0.00     0.035 C 
ATOM      6  C   UNL     1      -9.251  22.205  11.461  1.00  0.00     0.066 C 
ATOM      7  O   UNL     1      -9.474  23.055  12.588  1.00  0.00    -0.369 OA
ATOM      8  C   UNL     1      -9.927  20.828  11.719  1.00  0.00     0.035 C 
ATOM      9  C   UNL     1      -9.291  20.154  12.959  1.00  0.00     0.009 C 
ATOM     10  C   UNL     1      -9.848  22.868  10.215  1.00  0.00     0.042 C 
ATOM     11  C   UNL     1      -7.944  23.538  14.389  1.00  0.00     0.042 C 
ENDROOT
TORSDOF 0
ENDMDL
MODEL 2
REMARK VINA RESULT:    -3.070      3.331      5.013
REMARK INTER + INTRA:          -3.070
REMARK INTER:                  -3.070
REMARK INTRA:                   0.000
REMARK UNBOUND:                 0.000
REMARK SMILES CC1(C)O[C@]2(C)CC[C@H]1CC2
REMARK SMILES IDX 1 1 2 2 9 3 8 4 7 5 5 6 4 7 11 8 10 9 6 10 3 11
REMARK H PARENT
REMARK Flexibility Score: inf
ROOT
ATOM      1  C   UNL     1      -3.516  23.702   9.742  1.00  0.00     0.042 C 
ATOM      2  C   UNL     1      -4.687  24.131  10.652  1.00  0.00     0.066 C 
ATOM      3  C   UNL     1      -5.914  24.619   9.787  1.00  0.00     0.021 C 
ATOM      4  C   UNL     1      -7.072  24.985  10.745  1.00  0.00     0.009 C 
ATOM      5  C   UNL     1      -7.325  23.804  11.713  1.00  0.00     0.035 C 
ATOM      6  C   UNL     1      -6.396  22.612  11.343  1.00  0.00     0.066 C 
ATOM      7  O   UNL     1      -5.034  23.017  11.487  1.00  0.00    -0.369 OA
ATOM      8  C   UNL     1      -6.656  22.209   9.864  1.00  0.00     0.035 C 
ATOM      9  C   UNL     1      -6.420  23.427   8.939  1.00  0.00     0.009 C 
ATOM     10  C   UNL     1      -6.659  21.423  12.274  1.00  0.00     0.042 C 
ATOM     11  C   UNL     1      -4.172  25.269  11.558  1.00  0.00     0.042 C 
ENDROOT
TORSDOF 0
ENDMDL
MODEL 3
REMARK VINA RESULT:    -2.973      1.261      2.080
REMARK INTER + INTRA:          -2.973
REMARK INTER:                  -2.973
REMARK INTRA:                   0.000
REMARK UNBOUND:                 0.000
REMARK SMILES CC1(C)O[C@]2(C)CC[C@H]1CC2
REMARK SMILES IDX 1 1 2 2 9 3 8 4 7 5 5 6 4 7 11 8 10 9 6 10 3 11
REMARK H PARENT
REMARK Flexibility Score: inf
ROOT
ATOM      1  C   UNL     1      -9.824  24.205  12.899  1.00  0.00     0.042 C 
ATOM      2  C   UNL     1      -8.737  23.147  13.191  1.00  0.00     0.066 C 
ATOM      3  C   UNL     1      -9.280  21.695  12.896  1.00  0.00     0.021 C 
ATOM      4  C   UNL     1      -8.137  20.685  13.154  1.00  0.00     0.009 C 
ATOM      5  C   UNL     1      -6.877  21.132  12.375  1.00  0.00     0.035 C 
ATOM      6  C   UNL     1      -7.203  22.392  11.522  1.00  0.00     0.066 C 
ATOM      7  O   UNL     1      -7.587  23.459  12.392  1.00  0.00    -0.369 OA
ATOM      8  C   UNL     1      -8.385  22.062  10.566  1.00  0.00     0.035 C 
ATOM      9  C   UNL     1      -9.610  21.593  11.387  1.00  0.00     0.009 C 
ATOM     10  C   UNL     1      -5.972  22.826  10.720  1.00  0.00     0.042 C 
ATOM     11  C   UNL     1      -8.343  23.291  14.676  1.00  0.00     0.042 C 
ENDROOT
TORSDOF 0
ENDMDL
MODEL 4
REMARK VINA RESULT:    -2.973      5.777      7.480
REMARK INTER + INTRA:          -2.973
REMARK INTER:                  -2.973
REMARK INTRA:                   0.000
REMARK UNBOUND:                 0.000
REMARK SMILES CC1(C)O[C@]2(C)CC[C@H]1CC2
REMARK SMILES IDX 1 1 2 2 9 3 8 4 7 5 5 6 4 7 11 8 10 9 6 10 3 11
REMARK H PARENT
REMARK Flexibility Score: inf
ROOT
ATOM      1  C   UNL     1      -3.370  23.655   7.725  1.00  0.00     0.042 C 
ATOM      2  C   UNL     1      -3.418  24.878   8.666  1.00  0.00     0.066 C 
ATOM      3  C   UNL     1      -4.818  24.971   9.387  1.00  0.00     0.021 C 
ATOM      4  C   UNL     1      -4.791  26.180  10.353  1.00  0.00     0.009 C 
ATOM      5  C   UNL     1      -3.542  26.078  11.260  1.00  0.00     0.035 C 
ATOM      6  C   UNL     1      -2.782  24.753  10.965  1.00  0.00     0.066 C 
ATOM      7  O   UNL     1      -2.341  24.760   9.606  1.00  0.00    -0.369 OA
ATOM      8  C   UNL     1      -3.750  23.556  11.182  1.00  0.00     0.035 C 
ATOM      9  C   UNL     1      -4.995  23.716  10.276  1.00  0.00     0.009 C 
ATOM     10  C   UNL     1      -1.560  24.625  11.881  1.00  0.00     0.042 C 
ATOM     11  C   UNL     1      -3.165  26.132   7.802  1.00  0.00     0.042 C 
ENDROOT
TORSDOF 0
ENDMDL
MODEL 5
REMARK VINA RESULT:    -2.938      1.145      3.173
REMARK INTER + INTRA:          -2.938
REMARK INTER:                  -2.938
REMARK INTRA:                   0.000
REMARK UNBOUND:                 0.000
REMARK SMILES CC1(C)O[C@]2(C)CC[C@H]1CC2
REMARK SMILES IDX 1 1 2 2 9 3 8 4 7 5 5 6 4 7 11 8 10 9 6 10 3 11
REMARK H PARENT
REMARK Flexibility Score: inf
ROOT
ATOM      1  C   UNL     1      -6.718  21.602  12.160  1.00  0.00     0.042 C 
ATOM      2  C   UNL     1      -8.163  22.147  12.141  1.00  0.00     0.066 C 
ATOM      3  C   UNL     1      -9.204  20.964  12.220  1.00  0.00     0.021 C 
ATOM      4  C   UNL     1     -10.629  21.568  12.250  1.00  0.00     0.009 C 
ATOM      5  C   UNL     1     -10.703  22.641  13.362  1.00  0.00     0.035 C 
ATOM      6  C   UNL     1      -9.355  22.690  14.138  1.00  0.00     0.066 C 
ATOM      7  O   UNL     1      -8.310  23.060  13.237  1.00  0.00    -0.369 OA
ATOM      8  C   UNL     1      -9.054  21.279  14.718  1.00  0.00     0.035 C 
ATOM      9  C   UNL     1      -9.018  20.238  13.574  1.00  0.00     0.009 C 
ATOM     10  C   UNL     1      -9.427  23.727  15.265  1.00  0.00     0.042 C 
ATOM     11  C   UNL     1      -8.337  22.940  10.828  1.00  0.00     0.042 C 
ENDROOT
TORSDOF 0
ENDMDL
MODEL 6
REMARK VINA RESULT:    -2.897      1.394      3.367
REMARK INTER + INTRA:          -2.897
REMARK INTER:                  -2.897
REMARK INTRA:                   0.000
REMARK UNBOUND:                 0.000
REMARK SMILES CC1(C)O[C@]2(C)CC[C@H]1CC2
REMARK SMILES IDX 1 1 2 2 9 3 8 4 7 5 5 6 4 7 11 8 10 9 6 10 3 11
REMARK H PARENT
REMARK Flexibility Score: inf
ROOT
ATOM      1  C   UNL     1      -9.624  24.128  10.871  1.00  0.00     0.042 C 
ATOM      2  C   UNL     1      -8.495  23.074  10.916  1.00  0.00     0.066 C 
ATOM      3  C   UNL     1      -7.188  23.687  11.552  1.00  0.00     0.021 C 
ATOM      4  C   UNL     1      -6.112  22.576  11.620  1.00  0.00     0.009 C 
ATOM      5  C   UNL     1      -6.710  21.329  12.315  1.00  0.00     0.035 C 
ATOM      6  C   UNL     1      -8.158  21.637  12.794  1.00  0.00     0.066 C 
ATOM      7  O   UNL     1      -8.971  21.943  11.660  1.00  0.00    -0.369 OA
ATOM      8  C   UNL     1      -8.125  22.866  13.746  1.00  0.00     0.035 C 
ATOM      9  C   UNL     1      -7.493  24.077  13.018  1.00  0.00     0.009 C 
ATOM     10  C   UNL     1      -8.751  20.420  13.513  1.00  0.00     0.042 C 
ATOM     11  C   UNL     1      -8.234  22.618   9.464  1.00  0.00     0.042 C 
ENDROOT
TORSDOF 0
ENDMDL
MODEL 7
REMARK VINA RESULT:    -2.895      0.924      3.296
REMARK INTER + INTRA:          -2.895
REMARK INTER:                  -2.895
REMARK INTRA:                   0.000
REMARK UNBOUND:                 0.000
REMARK SMILES CC1(C)O[C@]2(C)CC[C@H]1CC2
REMARK SMILES IDX 1 1 2 2 9 3 8 4 7 5 5 6 4 7 11 8 10 9 6 10 3 11
REMARK H PARENT
REMARK Flexibility Score: inf
ROOT
ATOM      1  C   UNL     1      -8.907  22.539  10.408  1.00  0.00     0.042 C 
ATOM      2  C   UNL     1      -9.371  21.764  11.661  1.00  0.00     0.066 C 
ATOM      3  C   UNL     1      -8.149  21.045  12.354  1.00  0.00     0.021 C 
ATOM      4  C   UNL     1      -8.661  20.330  13.627  1.00  0.00     0.009 C 
ATOM      5  C   UNL     1      -9.462  21.336  14.489  1.00  0.00     0.035 C 
ATOM      6  C   UNL     1      -9.408  22.748  13.837  1.00  0.00     0.066 C 
ATOM      7  O   UNL     1     -10.016  22.690  12.545  1.00  0.00    -0.369 OA
ATOM      8  C   UNL     1      -7.922  23.178  13.683  1.00  0.00     0.035 C 
ATOM      9  C   UNL     1      -7.156  22.129  12.841  1.00  0.00     0.009 C 
ATOM     10  C   UNL     1     -10.171  23.761  14.698  1.00  0.00     0.042 C 
ATOM     11  C   UNL     1     -10.420  20.730  11.199  1.00  0.00     0.042 C 
ENDROOT
TORSDOF 0
ENDMDL
MODEL 8
REMARK VINA RESULT:    -2.870      1.072      2.244
REMARK INTER + INTRA:          -2.870
REMARK INTER:                  -2.870
REMARK INTRA:                   0.000
REMARK UNBOUND:                 0.000
REMARK SMILES CC1(C)O[C@]2(C)CC[C@H]1CC2
REMARK SMILES IDX 1 1 2 2 9 3 8 4 7 5 5 6 4 7 11 8 10 9 6 10 3 11
REMARK H PARENT
REMARK Flexibility Score: inf
ROOT
ATOM      1  C   UNL     1      -7.863  23.443  14.040  1.00  0.00     0.042 C 
ATOM      2  C   UNL     1      -8.302  22.202  13.230  1.00  0.00     0.066 C 
ATOM      3  C   UNL     1      -8.829  21.068  14.192  1.00  0.00     0.021 C 
ATOM      4  C   UNL     1      -9.302  19.875  13.328  1.00  0.00     0.009 C 
ATOM      5  C   UNL     1     -10.283  20.387  12.246  1.00  0.00     0.035 C 
ATOM      6  C   UNL     1     -10.538  21.909  12.444  1.00  0.00     0.066 C 
ATOM      7  O   UNL     1      -9.305  22.615  12.292  1.00  0.00    -0.369 OA
ATOM      8  C   UNL     1     -11.088  22.147  13.880  1.00  0.00     0.035 C 
ATOM      9  C   UNL     1     -10.089  21.593  14.923  1.00  0.00     0.009 C 
ATOM     10  C   UNL     1     -11.535  22.423  11.399  1.00  0.00     0.042 C 
ATOM     11  C   UNL     1      -7.072  21.715  12.435  1.00  0.00     0.042 C 
ENDROOT
TORSDOF 0
ENDMDL
MODEL 9
REMARK VINA RESULT:    -2.827      5.867      7.337
REMARK INTER + INTRA:          -2.827
REMARK INTER:                  -2.827
REMARK INTRA:                   0.000
REMARK UNBOUND:                 0.000
REMARK SMILES CC1(C)O[C@]2(C)CC[C@H]1CC2
REMARK SMILES IDX 1 1 2 2 9 3 8 4 7 5 5 6 4 7 11 8 10 9 6 10 3 11
REMARK H PARENT
REMARK Flexibility Score: inf
ROOT
ATOM      1  C   UNL     1      -2.182  26.104  10.560  1.00  0.00     0.042 C 
ATOM      2  C   UNL     1      -3.156  24.963  10.192  1.00  0.00     0.066 C 
ATOM      3  C   UNL     1      -4.618  25.522   9.993  1.00  0.00     0.021 C 
ATOM      4  C   UNL     1      -5.537  24.349   9.576  1.00  0.00     0.009 C 
ATOM      5  C   UNL     1      -4.903  23.607   8.375  1.00  0.00     0.035 C 
ATOM      6  C   UNL     1      -3.604  24.340   7.929  1.00  0.00     0.066 C 
ATOM      7  O   UNL     1      -2.665  24.323   9.005  1.00  0.00    -0.369 OA
ATOM      8  C   UNL     1      -3.951  25.815   7.578  1.00  0.00     0.035 C 
ATOM      9  C   UNL     1      -4.609  26.505   8.797  1.00  0.00     0.009 C 
ATOM     10  C   UNL     1      -2.983  23.635   6.719  1.00  0.00     0.042 C 
ATOM     11  C   UNL     1      -3.116  23.935  11.343  1.00  0.00     0.042 C 
ENDROOT
TORSDOF 0
ENDMDL
