MODEL 1
REMARK VINA RESULT:    -5.994      0.000      0.000
REMARK INTER + INTRA:          -8.119
REMARK INTER:                  -7.571
REMARK INTRA:                  -0.547
REMARK UNBOUND:                -0.547
REMARK SMILES Oc1cc(O)cc(CCc2ccccc2O)c1
REMARK SMILES IDX 9 1 10 2 12 3 13 4 11 5 14 6 15 7 16 8 8 10 7 11 6 12 17 13
REMARK SMILES IDX 4 14 2 15 3 16 5 17 1 19
REMARK H PARENT 16 9 5 18 1 20
REMARK Flexibility Score: inf
ROOT
ATOM      1  C   UNL     1      19.546  27.538  32.080  1.00  0.00     0.044 C 
ENDROOT
BRANCH   1   2
ATOM      2  C   UNL     1      18.698  28.447  32.934  1.00  0.00    -0.006 A 
ATOM      3  C   UNL     1      17.053  30.231  33.097  1.00  0.00     0.001 A 
ATOM      4  C   UNL     1      17.051  30.108  34.488  1.00  0.00     0.004 A 
ATOM      5  C   UNL     1      17.868  29.401  32.322  1.00  0.00     0.007 A 
ATOM      6  C   UNL     1      17.860  29.152  35.107  1.00  0.00     0.046 A 
ATOM      7  C   UNL     1      18.681  28.314  34.337  1.00  0.00     0.118 A 
BRANCH   7   8
ATOM      8  O   UNL     1      19.475  27.353  34.962  1.00  0.00    -0.508 OA
ATOM      9  H   UNL     1      20.064  26.722  34.430  1.00  0.00     0.293 HD
ENDBRANCH   7   8
ENDBRANCH   1   2
BRANCH   1  10
ATOM     10  C   UNL     1      19.868  28.203  30.740  1.00  0.00     0.040 C 
BRANCH  10  11
ATOM     11  C   UNL     1      19.329  27.383  29.598  1.00  0.00    -0.040 A 
ATOM     12  C   UNL     1      19.943  26.169  29.249  1.00  0.00     0.050 A 
ATOM     13  C   UNL     1      18.248  27.854  28.837  1.00  0.00     0.050 A 
ATOM     14  C   UNL     1      19.462  25.421  28.165  1.00  0.00     0.119 A 
ATOM     15  C   UNL     1      17.767  27.106  27.753  1.00  0.00     0.119 A 
ATOM     16  C   UNL     1      18.374  25.890  27.423  1.00  0.00     0.092 A 
BRANCH  14  17
ATOM     17  O   UNL     1      20.060  24.211  27.818  1.00  0.00    -0.508 OA
ATOM     18  H   UNL     1      19.986  23.833  26.881  1.00  0.00     0.293 HD
ENDBRANCH  14  17
BRANCH  15  19
ATOM     19  O   UNL     1      16.690  27.564  26.997  1.00  0.00    -0.508 OA
ATOM     20  H   UNL     1      16.395  28.533  27.026  1.00  0.00     0.293 HD
ENDBRANCH  15  19
ENDBRANCH  10  11
ENDBRANCH   1  10
TORSDOF 6
ENDMDL
MODEL 2
REMARK VINA RESULT:    -5.975      0.146      2.034
REMARK INTER + INTRA:          -8.094
REMARK INTER:                  -7.551
REMARK INTRA:                  -0.544
REMARK UNBOUND:                -0.547
REMARK SMILES Oc1cc(O)cc(CCc2ccccc2O)c1
REMARK SMILES IDX 9 1 10 2 12 3 13 4 11 5 14 6 15 7 16 8 8 10 7 11 6 12 17 13
REMARK SMILES IDX 4 14 2 15 3 16 5 17 1 19
REMARK H PARENT 16 9 5 18 1 20
REMARK Flexibility Score: inf
ROOT
ATOM      1  C   UNL     1      19.449  27.667  32.006  1.00  0.00     0.044 C 
ENDROOT
BRANCH   1   2
ATOM      2  C   UNL     1      18.624  28.571  32.889  1.00  0.00    -0.006 A 
ATOM      3  C   UNL     1      17.028  30.392  33.109  1.00  0.00     0.001 A 
ATOM      4  C   UNL     1      17.021  30.225  34.495  1.00  0.00     0.004 A 
ATOM      5  C   UNL     1      17.821  29.566  32.307  1.00  0.00     0.007 A 
ATOM      6  C   UNL     1      17.805  29.229  35.083  1.00  0.00     0.046 A 
ATOM      7  C   UNL     1      18.604  28.394  34.287  1.00  0.00     0.118 A 
BRANCH   7   8
ATOM      8  O   UNL     1      19.372  27.393  34.880  1.00  0.00    -0.508 OA
ATOM      9  H   UNL     1      19.899  27.560  35.729  1.00  0.00     0.293 HD
ENDBRANCH   7   8
ENDBRANCH   1   2
BRANCH   1  10
ATOM     10  C   UNL     1      19.781  28.363  30.683  1.00  0.00     0.040 C 
BRANCH  10  11
ATOM     11  C   UNL     1      19.334  27.523  29.517  1.00  0.00    -0.040 A 
ATOM     12  C   UNL     1      18.210  27.900  28.764  1.00  0.00     0.050 A 
ATOM     13  C   UNL     1      20.001  26.327  29.209  1.00  0.00     0.050 A 
ATOM     14  C   UNL     1      17.773  27.101  27.698  1.00  0.00     0.119 A 
ATOM     15  C   UNL     1      19.564  25.527  28.143  1.00  0.00     0.119 A 
ATOM     16  C   UNL     1      18.453  25.919  27.389  1.00  0.00     0.092 A 
BRANCH  14  17
ATOM     17  O   UNL     1      16.663  27.473  26.942  1.00  0.00    -0.508 OA
ATOM     18  H   UNL     1      16.417  26.987  26.088  1.00  0.00     0.293 HD
ENDBRANCH  14  17
BRANCH  15  19
ATOM     19  O   UNL     1      20.225  24.343  27.827  1.00  0.00    -0.508 OA
ATOM     20  H   UNL     1      19.888  23.444  28.153  1.00  0.00     0.293 HD
ENDBRANCH  15  19
ENDBRANCH  10  11
ENDBRANCH   1  10
TORSDOF 6
ENDMDL
MODEL 3
REMARK VINA RESULT:    -5.948      1.522      6.449
REMARK INTER + INTRA:          -8.059
REMARK INTER:                  -7.529
REMARK INTRA:                  -0.530
REMARK UNBOUND:                -0.547
REMARK SMILES Oc1cc(O)cc(CCc2ccccc2O)c1
REMARK SMILES IDX 9 1 10 2 12 3 13 4 11 5 14 6 15 7 16 8 8 10 7 11 6 12 17 13
REMARK SMILES IDX 4 14 2 15 3 16 5 17 1 19
REMARK H PARENT 16 9 5 18 1 20
REMARK Flexibility Score: inf
ROOT
ATOM      1  C   UNL     1      19.238  28.929  30.122  1.00  0.00     0.044 C 
ENDROOT
BRANCH   1   2
ATOM      2  C   UNL     1      18.808  27.958  29.050  1.00  0.00    -0.006 A 
ATOM      3  C   UNL     1      17.711  27.544  26.919  1.00  0.00     0.001 A 
ATOM      4  C   UNL     1      18.052  26.193  27.001  1.00  0.00     0.004 A 
ATOM      5  C   UNL     1      18.091  28.425  27.936  1.00  0.00     0.007 A 
ATOM      6  C   UNL     1      18.777  25.720  28.097  1.00  0.00     0.046 A 
ATOM      7  C   UNL     1      19.164  26.596  29.122  1.00  0.00     0.118 A 
BRANCH   7   8
ATOM      8  O   UNL     1      19.900  26.118  30.206  1.00  0.00    -0.508 OA
ATOM      9  H   UNL     1      19.611  25.298  30.725  1.00  0.00     0.293 HD
ENDBRANCH   7   8
ENDBRANCH   1   2
BRANCH   1  10
ATOM     10  C   UNL     1      18.020  29.602  30.759  1.00  0.00     0.040 C 
BRANCH  10  11
ATOM     11  C   UNL     1      18.003  29.367  32.246  1.00  0.00    -0.040 A 
ATOM     12  C   UNL     1      17.230  30.189  33.083  1.00  0.00     0.050 A 
ATOM     13  C   UNL     1      18.805  28.364  32.813  1.00  0.00     0.050 A 
ATOM     14  C   UNL     1      17.240  29.991  34.471  1.00  0.00     0.119 A 
ATOM     15  C   UNL     1      18.815  28.166  34.201  1.00  0.00     0.119 A 
ATOM     16  C   UNL     1      18.030  28.980  35.025  1.00  0.00     0.092 A 
BRANCH  14  17
ATOM     17  O   UNL     1      16.470  30.798  35.307  1.00  0.00    -0.508 OA
ATOM     18  H   UNL     1      15.458  30.755  35.299  1.00  0.00     0.293 HD
ENDBRANCH  14  17
BRANCH  15  19
ATOM     19  O   UNL     1      19.602  27.168  34.770  1.00  0.00    -0.508 OA
ATOM     20  H   UNL     1      19.294  26.648  35.583  1.00  0.00     0.293 HD
ENDBRANCH  15  19
ENDBRANCH  10  11
ENDBRANCH   1  10
TORSDOF 6
ENDMDL
MODEL 4
REMARK VINA RESULT:    -5.941      1.519      6.144
REMARK INTER + INTRA:          -8.051
REMARK INTER:                  -7.530
REMARK INTRA:                  -0.521
REMARK UNBOUND:                -0.547
REMARK SMILES Oc1cc(O)cc(CCc2ccccc2O)c1
REMARK SMILES IDX 9 1 10 2 12 3 13 4 11 5 14 6 15 7 16 8 8 10 7 11 6 12 17 13
REMARK SMILES IDX 4 14 2 15 3 16 5 17 1 19
REMARK H PARENT 16 9 5 18 1 20
REMARK Flexibility Score: inf
ROOT
ATOM      1  C   UNL     1      19.227  28.918  30.110  1.00  0.00     0.044 C 
ENDROOT
BRANCH   1   2
ATOM      2  C   UNL     1      18.800  27.947  29.038  1.00  0.00    -0.006 A 
ATOM      3  C   UNL     1      17.713  27.534  26.902  1.00  0.00     0.001 A 
ATOM      4  C   UNL     1      18.051  26.181  26.986  1.00  0.00     0.004 A 
ATOM      5  C   UNL     1      18.090  28.415  27.919  1.00  0.00     0.007 A 
ATOM      6  C   UNL     1      18.770  25.708  28.087  1.00  0.00     0.046 A 
ATOM      7  C   UNL     1      19.154  26.585  29.113  1.00  0.00     0.118 A 
BRANCH   7   8
ATOM      8  O   UNL     1      19.884  26.106  30.200  1.00  0.00    -0.508 OA
ATOM      9  H   UNL     1      20.009  25.114  30.362  1.00  0.00     0.293 HD
ENDBRANCH   7   8
ENDBRANCH   1   2
BRANCH   1  10
ATOM     10  C   UNL     1      18.007  29.580  30.755  1.00  0.00     0.040 C 
BRANCH  10  11
ATOM     11  C   UNL     1      18.032  29.394  32.248  1.00  0.00    -0.040 A 
ATOM     12  C   UNL     1      18.799  28.366  32.820  1.00  0.00     0.050 A 
ATOM     13  C   UNL     1      17.242  30.208  33.076  1.00  0.00     0.050 A 
ATOM     14  C   UNL     1      18.796  28.172  34.209  1.00  0.00     0.119 A 
ATOM     15  C   UNL     1      17.239  30.014  34.465  1.00  0.00     0.119 A 
ATOM     16  C   UNL     1      18.019  28.998  35.026  1.00  0.00     0.092 A 
BRANCH  14  17
ATOM     17  O   UNL     1      19.561  27.159  34.785  1.00  0.00    -0.508 OA
ATOM     18  H   UNL     1      20.571  27.151  34.711  1.00  0.00     0.293 HD
ENDBRANCH  14  17
BRANCH  15  19
ATOM     19  O   UNL     1      16.464  30.823  35.293  1.00  0.00    -0.508 OA
ATOM     20  H   UNL     1      15.532  31.116  35.025  1.00  0.00     0.293 HD
ENDBRANCH  15  19
ENDBRANCH  10  11
ENDBRANCH   1  10
TORSDOF 6
ENDMDL
MODEL 5
REMARK VINA RESULT:    -5.933      1.960      2.449
REMARK INTER + INTRA:          -8.041
REMARK INTER:                  -7.485
REMARK INTRA:                  -0.556
REMARK UNBOUND:                -0.547
REMARK SMILES Oc1cc(O)cc(CCc2ccccc2O)c1
REMARK SMILES IDX 9 1 10 2 12 3 13 4 11 5 14 6 15 7 16 8 8 10 7 11 6 12 17 13
REMARK SMILES IDX 4 14 2 15 3 16 5 17 1 19
REMARK H PARENT 16 9 5 18 1 20
REMARK Flexibility Score: inf
ROOT
ATOM      1  C   UNL     1      18.023  29.515  30.979  1.00  0.00     0.044 C 
ENDROOT
BRANCH   1   2
ATOM      2  C   UNL     1      18.392  28.896  32.304  1.00  0.00    -0.006 A 
ATOM      3  C   UNL     1      19.670  27.253  33.563  1.00  0.00     0.001 A 
ATOM      4  C   UNL     1      19.158  27.763  34.757  1.00  0.00     0.004 A 
ATOM      5  C   UNL     1      19.295  27.819  32.341  1.00  0.00     0.007 A 
ATOM      6  C   UNL     1      18.272  28.843  34.733  1.00  0.00     0.046 A 
ATOM      7  C   UNL     1      17.889  29.419  33.512  1.00  0.00     0.118 A 
BRANCH   7   8
ATOM      8  O   UNL     1      17.015  30.505  33.498  1.00  0.00    -0.508 OA
ATOM      9  H   UNL     1      16.117  30.460  33.030  1.00  0.00     0.293 HD
ENDBRANCH   7   8
ENDBRANCH   1   2
BRANCH   1  10
ATOM     10  C   UNL     1      19.267  29.701  30.106  1.00  0.00     0.040 C 
BRANCH  10  11
ATOM     11  C   UNL     1      19.164  28.872  28.854  1.00  0.00    -0.040 A 
ATOM     12  C   UNL     1      20.308  28.613  28.081  1.00  0.00     0.050 A 
ATOM     13  C   UNL     1      17.916  28.400  28.418  1.00  0.00     0.050 A 
ATOM     14  C   UNL     1      20.207  27.869  26.897  1.00  0.00     0.119 A 
ATOM     15  C   UNL     1      17.815  27.656  27.234  1.00  0.00     0.119 A 
ATOM     16  C   UNL     1      18.962  27.390  26.479  1.00  0.00     0.092 A 
BRANCH  14  17
ATOM     17  O   UNL     1      21.340  27.602  26.129  1.00  0.00    -0.508 OA
ATOM     18  H   UNL     1      21.821  26.712  26.187  1.00  0.00     0.293 HD
ENDBRANCH  14  17
BRANCH  15  19
ATOM     19  O   UNL     1      16.580  27.179  26.798  1.00  0.00    -0.508 OA
ATOM     20  H   UNL     1      15.918  27.780  26.323  1.00  0.00     0.293 HD
ENDBRANCH  15  19
ENDBRANCH  10  11
ENDBRANCH   1  10
TORSDOF 6
ENDMDL
MODEL 6
REMARK VINA RESULT:    -5.876      1.347      2.738
REMARK INTER + INTRA:          -7.969
REMARK INTER:                  -7.532
REMARK INTRA:                  -0.438
REMARK UNBOUND:                -0.547
REMARK SMILES Oc1cc(O)cc(CCc2ccccc2O)c1
REMARK SMILES IDX 9 1 10 2 12 3 13 4 11 5 14 6 15 7 16 8 8 10 7 11 6 12 17 13
REMARK SMILES IDX 4 14 2 15 3 16 5 17 1 19
REMARK H PARENT 16 9 5 18 1 20
REMARK Flexibility Score: inf
ROOT
ATOM      1  C   UNL     1      18.376  28.516  31.589  1.00  0.00     0.044 C 
ENDROOT
BRANCH   1   2
ATOM      2  C   UNL     1      18.532  28.790  33.063  1.00  0.00    -0.006 A 
ATOM      3  C   UNL     1      19.472  28.171  35.219  1.00  0.00     0.001 A 
ATOM      4  C   UNL     1      18.903  29.307  35.799  1.00  0.00     0.004 A 
ATOM      5  C   UNL     1      19.293  27.916  33.857  1.00  0.00     0.007 A 
ATOM      6  C   UNL     1      18.157  30.192  35.017  1.00  0.00     0.046 A 
ATOM      7  C   UNL     1      17.972  29.944  33.648  1.00  0.00     0.118 A 
BRANCH   7   8
ATOM      8  O   UNL     1      17.238  30.840  32.872  1.00  0.00    -0.508 OA
ATOM      9  H   UNL     1      17.583  31.180  31.981  1.00  0.00     0.293 HD
ENDBRANCH   7   8
ENDBRANCH   1   2
BRANCH   1  10
ATOM     10  C   UNL     1      19.489  27.590  31.092  1.00  0.00     0.040 C 
BRANCH  10  11
ATOM     11  C   UNL     1      19.117  26.977  29.768  1.00  0.00    -0.040 A 
ATOM     12  C   UNL     1      18.113  27.560  28.977  1.00  0.00     0.050 A 
ATOM     13  C   UNL     1      19.728  25.787  29.342  1.00  0.00     0.050 A 
ATOM     14  C   UNL     1      17.743  26.971  27.759  1.00  0.00     0.119 A 
ATOM     15  C   UNL     1      19.358  25.198  28.125  1.00  0.00     0.119 A 
ATOM     16  C   UNL     1      18.368  25.794  27.336  1.00  0.00     0.092 A 
BRANCH  14  17
ATOM     17  O   UNL     1      16.754  27.548  26.965  1.00  0.00    -0.508 OA
ATOM     18  H   UNL     1      15.820  27.158  26.916  1.00  0.00     0.293 HD
ENDBRANCH  14  17
BRANCH  15  19
ATOM     19  O   UNL     1      19.964  24.021  27.693  1.00  0.00    -0.508 OA
ATOM     20  H   UNL     1      19.476  23.359  27.102  1.00  0.00     0.293 HD
ENDBRANCH  15  19
ENDBRANCH  10  11
ENDBRANCH   1  10
TORSDOF 6
ENDMDL
MODEL 7
REMARK VINA RESULT:    -5.800      1.790      2.547
REMARK INTER + INTRA:          -7.873
REMARK INTER:                  -7.278
REMARK INTRA:                  -0.595
REMARK UNBOUND:                -0.547
REMARK SMILES Oc1cc(O)cc(CCc2ccccc2O)c1
REMARK SMILES IDX 9 1 10 2 12 3 13 4 11 5 14 6 15 7 16 8 8 10 7 11 6 12 17 13
REMARK SMILES IDX 4 14 2 15 3 16 5 17 1 19
REMARK H PARENT 16 9 5 18 1 20
REMARK Flexibility Score: inf
ROOT
ATOM      1  C   UNL     1      18.712  29.368  31.404  1.00  0.00     0.044 C 
ENDROOT
BRANCH   1   2
ATOM      2  C   UNL     1      19.068  28.519  32.599  1.00  0.00    -0.006 A 
ATOM      3  C   UNL     1      20.139  26.536  33.513  1.00  0.00     0.001 A 
ATOM      4  C   UNL     1      19.810  26.948  34.806  1.00  0.00     0.004 A 
ATOM      5  C   UNL     1      19.776  27.319  32.414  1.00  0.00     0.007 A 
ATOM      6  C   UNL     1      19.121  28.147  35.003  1.00  0.00     0.046 A 
ATOM      7  C   UNL     1      18.751  28.941  33.907  1.00  0.00     0.118 A 
BRANCH   7   8
ATOM      8  O   UNL     1      18.075  30.143  34.113  1.00  0.00    -0.508 OA
ATOM      9  H   UNL     1      18.078  30.607  35.014  1.00  0.00     0.293 HD
ENDBRANCH   7   8
ENDBRANCH   1   2
BRANCH   1  10
ATOM     10  C   UNL     1      17.623  28.692  30.568  1.00  0.00     0.040 C 
BRANCH  10  11
ATOM     11  C   UNL     1      18.170  28.261  29.234  1.00  0.00    -0.040 A 
ATOM     12  C   UNL     1      18.174  26.903  28.877  1.00  0.00     0.050 A 
ATOM     13  C   UNL     1      18.735  29.205  28.362  1.00  0.00     0.050 A 
ATOM     14  C   UNL     1      18.715  26.497  27.648  1.00  0.00     0.119 A 
ATOM     15  C   UNL     1      19.276  28.800  27.133  1.00  0.00     0.119 A 
ATOM     16  C   UNL     1      19.261  27.447  26.780  1.00  0.00     0.092 A 
BRANCH  14  17
ATOM     17  O   UNL     1      18.715  25.152  27.284  1.00  0.00    -0.508 OA
ATOM     18  H   UNL     1      19.101  24.843  26.399  1.00  0.00     0.293 HD
ENDBRANCH  14  17
BRANCH  15  19
ATOM     19  O   UNL     1      19.831  29.732  26.260  1.00  0.00    -0.508 OA
ATOM     20  H   UNL     1      19.920  30.709  26.514  1.00  0.00     0.293 HD
ENDBRANCH  15  19
ENDBRANCH  10  11
ENDBRANCH   1  10
TORSDOF 6
ENDMDL
MODEL 8
REMARK VINA RESULT:    -5.781      2.479      3.566
REMARK INTER + INTRA:          -7.849
REMARK INTER:                  -7.330
REMARK INTRA:                  -0.520
REMARK UNBOUND:                -0.547
REMARK SMILES Oc1cc(O)cc(CCc2ccccc2O)c1
REMARK SMILES IDX 9 1 10 2 12 3 13 4 11 5 14 6 15 7 16 8 8 10 7 11 6 12 17 13
REMARK SMILES IDX 4 14 2 15 3 16 5 17 1 19
REMARK H PARENT 16 9 5 18 1 20
REMARK Flexibility Score: inf
ROOT
ATOM      1  C   UNL     1      17.886  29.463  31.338  1.00  0.00     0.044 C 
ENDROOT
BRANCH   1   2
ATOM      2  C   UNL     1      18.393  28.823  32.605  1.00  0.00    -0.006 A 
ATOM      3  C   UNL     1      19.794  27.158  33.693  1.00  0.00     0.001 A 
ATOM      4  C   UNL     1      19.414  27.650  34.944  1.00  0.00     0.004 A 
ATOM      5  C   UNL     1      19.291  27.744  32.528  1.00  0.00     0.007 A 
ATOM      6  C   UNL     1      18.535  28.732  35.032  1.00  0.00     0.046 A 
ATOM      7  C   UNL     1      18.025  29.327  33.869  1.00  0.00     0.118 A 
BRANCH   7   8
ATOM      8  O   UNL     1      17.158  30.415  33.966  1.00  0.00    -0.508 OA
ATOM      9  H   UNL     1      17.160  31.160  33.279  1.00  0.00     0.293 HD
ENDBRANCH   7   8
ENDBRANCH   1   2
BRANCH   1  10
ATOM     10  C   UNL     1      17.801  28.433  30.209  1.00  0.00     0.040 C 
BRANCH  10  11
ATOM     11  C   UNL     1      18.493  28.943  28.974  1.00  0.00    -0.040 A 
ATOM     12  C   UNL     1      18.728  30.318  28.811  1.00  0.00     0.050 A 
ATOM     13  C   UNL     1      18.856  28.055  27.948  1.00  0.00     0.050 A 
ATOM     14  C   UNL     1      19.343  30.797  27.646  1.00  0.00     0.119 A 
ATOM     15  C   UNL     1      19.471  28.534  26.782  1.00  0.00     0.119 A 
ATOM     16  C   UNL     1      19.715  29.904  26.637  1.00  0.00     0.092 A 
BRANCH  14  17
ATOM     17  O   UNL     1      19.586  32.160  27.481  1.00  0.00    -0.508 OA
ATOM     18  H   UNL     1      20.437  32.591  27.822  1.00  0.00     0.293 HD
ENDBRANCH  14  17
BRANCH  15  19
ATOM     19  O   UNL     1      19.840  27.658  25.764  1.00  0.00    -0.508 OA
ATOM     20  H   UNL     1      20.792  27.325  25.670  1.00  0.00     0.293 HD
ENDBRANCH  15  19
ENDBRANCH  10  11
ENDBRANCH   1  10
TORSDOF 6
ENDMDL
MODEL 9
REMARK VINA RESULT:    -5.719      4.477      8.193
REMARK INTER + INTRA:          -7.770
REMARK INTER:                  -7.346
REMARK INTRA:                  -0.425
REMARK UNBOUND:                -0.547
REMARK SMILES Oc1cc(O)cc(CCc2ccccc2O)c1
REMARK SMILES IDX 9 1 10 2 12 3 13 4 11 5 14 6 15 7 16 8 8 10 7 11 6 12 17 13
REMARK SMILES IDX 4 14 2 15 3 16 5 17 1 19
REMARK H PARENT 16 9 5 18 1 20
REMARK Flexibility Score: inf
ROOT
ATOM      1  C   UNL     1      16.827  30.970  33.485  1.00  0.00     0.044 C 
ENDROOT
BRANCH   1   2
ATOM      2  C   UNL     1      17.756  29.782  33.522  1.00  0.00    -0.006 A 
ATOM      3  C   UNL     1      18.940  28.092  34.809  1.00  0.00     0.001 A 
ATOM      4  C   UNL     1      19.425  27.526  33.628  1.00  0.00     0.004 A 
ATOM      5  C   UNL     1      18.104  29.211  34.758  1.00  0.00     0.007 A 
ATOM      6  C   UNL     1      19.072  28.076  32.393  1.00  0.00     0.046 A 
ATOM      7  C   UNL     1      18.234  29.199  32.331  1.00  0.00     0.118 A 
BRANCH   7   8
ATOM      8  O   UNL     1      17.875  29.733  31.094  1.00  0.00    -0.508 OA
ATOM      9  H   UNL     1      18.304  30.578  30.734  1.00  0.00     0.293 HD
ENDBRANCH   7   8
ENDBRANCH   1   2
BRANCH   1  10
ATOM     10  C   UNL     1      16.754  31.642  34.858  1.00  0.00     0.040 C 
BRANCH  10  11
ATOM     11  C   UNL     1      16.123  33.004  34.749  1.00  0.00    -0.040 A 
ATOM     12  C   UNL     1      15.738  33.506  33.496  1.00  0.00     0.050 A 
ATOM     13  C   UNL     1      15.968  33.805  35.892  1.00  0.00     0.050 A 
ATOM     14  C   UNL     1      15.180  34.788  33.389  1.00  0.00     0.119 A 
ATOM     15  C   UNL     1      15.410  35.087  35.786  1.00  0.00     0.119 A 
ATOM     16  C   UNL     1      15.015  35.573  34.534  1.00  0.00     0.092 A 
BRANCH  14  17
ATOM     17  O   UNL     1      14.789  35.291  32.150  1.00  0.00    -0.508 OA
ATOM     18  H   UNL     1      14.813  36.284  31.949  1.00  0.00     0.293 HD
ENDBRANCH  14  17
BRANCH  15  19
ATOM     19  O   UNL     1      15.246  35.886  36.915  1.00  0.00    -0.508 OA
ATOM     20  H   UNL     1      15.965  36.533  37.215  1.00  0.00     0.293 HD
ENDBRANCH  15  19
ENDBRANCH  10  11
ENDBRANCH   1  10
TORSDOF 6
ENDMDL
