MODEL 1
REMARK VINA RESULT:    -3.369      0.000      0.000
REMARK INTER + INTRA:          -4.832
REMARK INTER:                  -4.551
REMARK INTRA:                  -0.281
REMARK UNBOUND:                -0.281
REMARK SMILES CCCCCCCC(=O)[O-]
REMARK SMILES IDX 5 1 6 2 7 3 8 4 9 5 10 6 4 7 3 8 2 9 1 10
REMARK H PARENT
REMARK Flexibility Score: inf
ROOT
ATOM      1  C   UNL     1      32.562 144.498 107.225  1.00  0.00     0.000 C 
ENDROOT
BRANCH   1   2
ATOM      2  C   UNL     1      32.354 145.246 108.555  1.00  0.00     0.006 C 
BRANCH   2   3
ATOM      3  C   UNL     1      33.138 144.661 109.740  1.00  0.00     0.053 C 
BRANCH   3   4
ATOM      4  C   UNL     1      34.611 144.903 109.612  1.00  0.00     0.041 C 
ATOM      5  O   UNL     1      35.120 145.963 110.062  1.00  0.00    -0.550 OA
ATOM      6  O   UNL     1      35.426 143.943 109.027  1.00  0.00    -0.550 OA
ENDBRANCH   3   4
ENDBRANCH   2   3
ENDBRANCH   1   2
BRANCH   1   7
ATOM      7  C   UNL     1      32.041 143.054 107.266  1.00  0.00     0.000 C 
BRANCH   7   8
ATOM      8  C   UNL     1      32.733 142.192 106.203  1.00  0.00    -0.000 C 
BRANCH   8   9
ATOM      9  C   UNL     1      31.780 141.876 105.044  1.00  0.00    -0.003 C 
ATOM     10  C   UNL     1      30.326 141.878 105.509  1.00  0.00     0.004 C 
ENDBRANCH   8   9
ENDBRANCH   7   8
ENDBRANCH   1   7
TORSDOF 6
ENDMDL
MODEL 2
REMARK VINA RESULT:    -3.260     17.929     19.388
REMARK INTER + INTRA:          -4.684
REMARK INTER:                  -4.372
REMARK INTRA:                  -0.312
REMARK UNBOUND:                -0.281
REMARK SMILES CCCCCCCC(=O)[O-]
REMARK SMILES IDX 5 1 6 2 7 3 8 4 9 5 10 6 4 7 3 8 2 9 1 10
REMARK H PARENT
REMARK Flexibility Score: inf
ROOT
ATOM      1  C   UNL     1      26.030 158.668 117.714  1.00  0.00     0.000 C 
ENDROOT
BRANCH   1   2
ATOM      2  C   UNL     1      27.072 159.573 118.397  1.00  0.00     0.006 C 
BRANCH   2   3
ATOM      3  C   UNL     1      28.175 160.088 117.459  1.00  0.00     0.053 C 
BRANCH   3   4
ATOM      4  C   UNL     1      27.616 160.632 116.180  1.00  0.00     0.041 C 
ATOM      5  O   UNL     1      27.864 160.061 115.086  1.00  0.00    -0.550 OA
ATOM      6  O   UNL     1      26.793 161.751 116.201  1.00  0.00    -0.550 OA
ENDBRANCH   3   4
ENDBRANCH   2   3
ENDBRANCH   1   2
BRANCH   1   7
ATOM      7  C   UNL     1      25.609 157.479 118.591  1.00  0.00     0.000 C 
BRANCH   7   8
ATOM      8  C   UNL     1      26.434 157.431 119.882  1.00  0.00    -0.000 C 
BRANCH   8   9
ATOM      9  C   UNL     1      26.304 156.067 120.569  1.00  0.00    -0.003 C 
ATOM     10  C   UNL     1      26.166 154.944 119.545  1.00  0.00     0.004 C 
ENDBRANCH   8   9
ENDBRANCH   7   8
ENDBRANCH   1   7
TORSDOF 6
ENDMDL
MODEL 3
REMARK VINA RESULT:    -3.235     18.349     19.198
REMARK INTER + INTRA:          -4.651
REMARK INTER:                  -4.358
REMARK INTRA:                  -0.293
REMARK UNBOUND:                -0.281
REMARK SMILES CCCCCCCC(=O)[O-]
REMARK SMILES IDX 5 1 6 2 7 3 8 4 9 5 10 6 4 7 3 8 2 9 1 10
REMARK H PARENT
REMARK Flexibility Score: inf
ROOT
ATOM      1  C   UNL     1      25.536 157.365 117.594  1.00  0.00     0.000 C 
ENDROOT
BRANCH   1   2
ATOM      2  C   UNL     1      25.899 158.823 117.257  1.00  0.00     0.006 C 
BRANCH   2   3
ATOM      3  C   UNL     1      27.062 159.393 118.084  1.00  0.00     0.053 C 
BRANCH   3   4
ATOM      4  C   UNL     1      28.068 160.099 117.226  1.00  0.00     0.041 C 
ATOM      5  O   UNL     1      29.281 160.122 117.561  1.00  0.00    -0.550 OA
ATOM      6  O   UNL     1      27.669 160.701 116.040  1.00  0.00    -0.550 OA
ENDBRANCH   3   4
ENDBRANCH   2   3
ENDBRANCH   1   2
BRANCH   1   7
ATOM      7  C   UNL     1      25.548 157.082 119.103  1.00  0.00     0.000 C 
BRANCH   7   8
ATOM      8  C   UNL     1      25.970 155.636 119.387  1.00  0.00    -0.000 C 
BRANCH   8   9
ATOM      9  C   UNL     1      26.406 155.466 120.847  1.00  0.00    -0.003 C 
ATOM     10  C   UNL     1      27.088 156.727 121.369  1.00  0.00     0.004 C 
ENDBRANCH   8   9
ENDBRANCH   7   8
ENDBRANCH   1   7
TORSDOF 6
ENDMDL
MODEL 4
REMARK VINA RESULT:    -3.147     18.505     19.421
REMARK INTER + INTRA:          -4.532
REMARK INTER:                  -4.212
REMARK INTRA:                  -0.320
REMARK UNBOUND:                -0.281
REMARK SMILES CCCCCCCC(=O)[O-]
REMARK SMILES IDX 5 1 6 2 7 3 8 4 9 5 10 6 4 7 3 8 2 9 1 10
REMARK H PARENT
REMARK Flexibility Score: inf
ROOT
ATOM      1  C   UNL     1      25.956 158.607 117.236  1.00  0.00     0.000 C 
ENDROOT
BRANCH   1   2
ATOM      2  C   UNL     1      25.580 157.356 118.052  1.00  0.00     0.006 C 
BRANCH   2   3
ATOM      3  C   UNL     1      25.972 157.426 119.536  1.00  0.00     0.053 C 
BRANCH   3   4
ATOM      4  C   UNL     1      26.221 156.067 120.116  1.00  0.00     0.041 C 
ATOM      5  O   UNL     1      26.098 155.040 119.398  1.00  0.00    -0.550 OA
ATOM      6  O   UNL     1      26.621 155.938 121.439  1.00  0.00    -0.550 OA
ENDBRANCH   3   4
ENDBRANCH   2   3
ENDBRANCH   1   2
BRANCH   1   7
ATOM      7  C   UNL     1      26.846 159.582 118.020  1.00  0.00     0.000 C 
BRANCH   7   8
ATOM      8  C   UNL     1      27.835 160.292 117.088  1.00  0.00    -0.000 C 
BRANCH   8   9
ATOM      9  C   UNL     1      29.267 160.197 117.629  1.00  0.00    -0.003 C 
ATOM     10  C   UNL     1      29.275 160.062 119.149  1.00  0.00     0.004 C 
ENDBRANCH   8   9
ENDBRANCH   7   8
ENDBRANCH   1   7
TORSDOF 6
ENDMDL
MODEL 5
REMARK VINA RESULT:    -3.094     20.784     21.722
REMARK INTER + INTRA:          -4.460
REMARK INTER:                  -4.193
REMARK INTRA:                  -0.267
REMARK UNBOUND:                -0.281
REMARK SMILES CCCCCCCC(=O)[O-]
REMARK SMILES IDX 5 1 6 2 7 3 8 4 9 5 10 6 4 7 3 8 2 9 1 10
REMARK H PARENT
REMARK Flexibility Score: inf
ROOT
ATOM      1  C   UNL     1      44.873 158.358 116.660  1.00  0.00     0.000 C 
ENDROOT
BRANCH   1   2
ATOM      2  C   UNL     1      44.809 158.946 118.081  1.00  0.00     0.006 C 
BRANCH   2   3
ATOM      3  C   UNL     1      45.125 157.939 119.198  1.00  0.00     0.053 C 
BRANCH   3   4
ATOM      4  C   UNL     1      44.776 158.475 120.553  1.00  0.00     0.041 C 
ATOM      5  O   UNL     1      44.469 159.688 120.695  1.00  0.00    -0.550 OA
ATOM      6  O   UNL     1      44.759 157.627 121.653  1.00  0.00    -0.550 OA
ENDBRANCH   3   4
ENDBRANCH   2   3
ENDBRANCH   1   2
BRANCH   1   7
ATOM      7  C   UNL     1      44.166 159.239 115.619  1.00  0.00     0.000 C 
BRANCH   7   8
ATOM      8  C   UNL     1      42.708 159.497 116.019  1.00  0.00    -0.000 C 
BRANCH   8   9
ATOM      9  C   UNL     1      42.408 161.000 116.067  1.00  0.00    -0.003 C 
ATOM     10  C   UNL     1      41.443 161.334 117.200  1.00  0.00     0.004 C 
ENDBRANCH   8   9
ENDBRANCH   7   8
ENDBRANCH   1   7
TORSDOF 6
ENDMDL
MODEL 6
REMARK VINA RESULT:    -3.094     17.841     19.211
REMARK INTER + INTRA:          -4.460
REMARK INTER:                  -4.239
REMARK INTRA:                  -0.220
REMARK UNBOUND:                -0.281
REMARK SMILES CCCCCCCC(=O)[O-]
REMARK SMILES IDX 5 1 6 2 7 3 8 4 9 5 10 6 4 7 3 8 2 9 1 10
REMARK H PARENT
REMARK Flexibility Score: inf
ROOT
ATOM      1  C   UNL     1      28.442 157.493 122.035  1.00  0.00     0.000 C 
ENDROOT
BRANCH   1   2
ATOM      2  C   UNL     1      29.834 156.860 121.856  1.00  0.00     0.006 C 
BRANCH   2   3
ATOM      3  C   UNL     1      31.004 157.838 122.042  1.00  0.00     0.053 C 
BRANCH   3   4
ATOM      4  C   UNL     1      31.640 158.209 120.737  1.00  0.00     0.041 C 
ATOM      5  O   UNL     1      31.127 159.101 120.012  1.00  0.00    -0.550 OA
ATOM      6  O   UNL     1      32.819 157.591 120.338  1.00  0.00    -0.550 OA
ENDBRANCH   3   4
ENDBRANCH   2   3
ENDBRANCH   1   2
BRANCH   1   7
ATOM      7  C   UNL     1      27.328 156.683 121.355  1.00  0.00     0.000 C 
BRANCH   7   8
ATOM      8  C   UNL     1      26.702 157.474 120.201  1.00  0.00    -0.000 C 
BRANCH   8   9
ATOM      9  C   UNL     1      25.764 156.588 119.372  1.00  0.00    -0.003 C 
ATOM     10  C   UNL     1      26.120 155.112 119.526  1.00  0.00     0.004 C 
ENDBRANCH   8   9
ENDBRANCH   7   8
ENDBRANCH   1   7
TORSDOF 6
ENDMDL
MODEL 7
REMARK VINA RESULT:    -2.941     18.626     19.268
REMARK INTER + INTRA:          -4.254
REMARK INTER:                  -4.104
REMARK INTRA:                  -0.150
REMARK UNBOUND:                -0.281
REMARK SMILES CCCCCCCC(=O)[O-]
REMARK SMILES IDX 5 1 6 2 7 3 8 4 9 5 10 6 4 7 3 8 2 9 1 10
REMARK H PARENT
REMARK Flexibility Score: inf
ROOT
ATOM      1  C   UNL     1      28.292 160.023 118.390  1.00  0.00     0.000 C 
ENDROOT
BRANCH   1   2
ATOM      2  C   UNL     1      29.650 160.233 117.696  1.00  0.00     0.006 C 
BRANCH   2   3
ATOM      3  C   UNL     1      30.764 160.741 118.624  1.00  0.00     0.053 C 
BRANCH   3   4
ATOM      4  C   UNL     1      32.047 159.993 118.424  1.00  0.00     0.041 C 
ATOM      5  O   UNL     1      32.479 159.224 119.322  1.00  0.00    -0.550 OA
ATOM      6  O   UNL     1      32.748 160.121 117.232  1.00  0.00    -0.550 OA
ENDBRANCH   3   4
ENDBRANCH   2   3
ENDBRANCH   1   2
BRANCH   1   7
ATOM      7  C   UNL     1      27.161 159.709 117.400  1.00  0.00     0.000 C 
BRANCH   7   8
ATOM      8  C   UNL     1      25.926 159.170 118.131  1.00  0.00    -0.000 C 
BRANCH   8   9
ATOM      9  C   UNL     1      25.585 157.750 117.665  1.00  0.00    -0.003 C 
ATOM     10  C   UNL     1      25.535 156.780 118.842  1.00  0.00     0.004 C 
ENDBRANCH   8   9
ENDBRANCH   7   8
ENDBRANCH   1   7
TORSDOF 6
ENDMDL
MODEL 8
REMARK VINA RESULT:    -2.930     18.265     19.672
REMARK INTER + INTRA:          -4.239
REMARK INTER:                  -3.919
REMARK INTRA:                  -0.320
REMARK UNBOUND:                -0.281
REMARK SMILES CCCCCCCC(=O)[O-]
REMARK SMILES IDX 5 1 6 2 7 3 8 4 9 5 10 6 4 7 3 8 2 9 1 10
REMARK H PARENT
REMARK Flexibility Score: inf
ROOT
ATOM      1  C   UNL     1      25.632 158.281 117.724  1.00  0.00     0.000 C 
ENDROOT
BRANCH   1   2
ATOM      2  C   UNL     1      26.394 159.217 116.769  1.00  0.00     0.006 C 
BRANCH   2   3
ATOM      3  C   UNL     1      27.610 159.913 117.401  1.00  0.00     0.053 C 
BRANCH   3   4
ATOM      4  C   UNL     1      27.512 161.406 117.312  1.00  0.00     0.041 C 
ATOM      5  O   UNL     1      27.912 162.125 118.264  1.00  0.00    -0.550 OA
ATOM      6  O   UNL     1      27.010 162.002 116.162  1.00  0.00    -0.550 OA
ENDBRANCH   3   4
ENDBRANCH   2   3
ENDBRANCH   1   2
BRANCH   1   7
ATOM      7  C   UNL     1      25.971 158.533 119.201  1.00  0.00     0.000 C 
BRANCH   7   8
ATOM      8  C   UNL     1      26.106 157.211 119.966  1.00  0.00    -0.000 C 
BRANCH   8   9
ATOM      9  C   UNL     1      25.645 156.028 119.106  1.00  0.00    -0.003 C 
ATOM     10  C   UNL     1      26.331 154.734 119.536  1.00  0.00     0.004 C 
ENDBRANCH   8   9
ENDBRANCH   7   8
ENDBRANCH   1   7
TORSDOF 6
ENDMDL
MODEL 9
REMARK VINA RESULT:    -2.899     19.184     19.851
REMARK INTER + INTRA:          -4.197
REMARK INTER:                  -3.924
REMARK INTRA:                  -0.273
REMARK UNBOUND:                -0.281
REMARK SMILES CCCCCCCC(=O)[O-]
REMARK SMILES IDX 5 1 6 2 7 3 8 4 9 5 10 6 4 7 3 8 2 9 1 10
REMARK H PARENT
REMARK Flexibility Score: inf
ROOT
ATOM      1  C   UNL     1      30.164 160.732 118.513  1.00  0.00     0.000 C 
ENDROOT
BRANCH   1   2
ATOM      2  C   UNL     1      29.164 160.182 117.480  1.00  0.00     0.006 C 
BRANCH   2   3
ATOM      3  C   UNL     1      27.759 159.911 118.040  1.00  0.00     0.053 C 
BRANCH   3   4
ATOM      4  C   UNL     1      26.796 159.500 116.968  1.00  0.00     0.041 C 
ATOM      5  O   UNL     1      26.999 159.835 115.772  1.00  0.00    -0.550 OA
ATOM      6  O   UNL     1      25.693 158.719 117.287  1.00  0.00    -0.550 OA
ENDBRANCH   3   4
ENDBRANCH   2   3
ENDBRANCH   1   2
BRANCH   1   7
ATOM      7  C   UNL     1      31.620 160.654 118.031  1.00  0.00     0.000 C 
BRANCH   7   8
ATOM      8  C   UNL     1      32.377 159.533 118.751  1.00  0.00    -0.000 C 
BRANCH   8   9
ATOM      9  C   UNL     1      31.774 159.260 120.134  1.00  0.00    -0.003 C 
ATOM     10  C   UNL     1      32.099 157.847 120.609  1.00  0.00     0.004 C 
ENDBRANCH   8   9
ENDBRANCH   7   8
ENDBRANCH   1   7
TORSDOF 6
ENDMDL
