MODEL 1
REMARK VINA RESULT:    -3.009      0.000      0.000
REMARK INTER + INTRA:          -3.574
REMARK INTER:                  -3.537
REMARK INTRA:                  -0.037
REMARK UNBOUND:                -0.037
REMARK SMILES CCCCC(=O)[O-]
REMARK SMILES IDX 4 1 5 2 6 3 7 4 3 5 2 6 1 7
REMARK H PARENT
REMARK Flexibility Score: inf
ROOT
ATOM      1  C   UNL     1      20.694  -7.407  43.541  1.00  0.00     0.053 C 
ENDROOT
BRANCH   1   2
ATOM      2  C   UNL     1      19.681  -6.378  43.149  1.00  0.00     0.041 C 
ATOM      3  O   UNL     1      20.034  -5.354  42.507  1.00  0.00    -0.550 OA
ATOM      4  O   UNL     1      18.355  -6.524  43.535  1.00  0.00    -0.550 OA
ENDBRANCH   1   2
BRANCH   1   5
ATOM      5  C   UNL     1      19.999  -8.705  43.969  1.00  0.00     0.006 C 
BRANCH   5   6
ATOM      6  C   UNL     1      20.472  -9.922  43.157  1.00  0.00    -0.003 C 
ATOM      7  C   UNL     1      21.985 -10.124  43.223  1.00  0.00     0.004 C 
ENDBRANCH   5   6
ENDBRANCH   1   5
TORSDOF 3
ENDMDL
MODEL 2
REMARK VINA RESULT:    -2.971      2.663      3.225
REMARK INTER + INTRA:          -3.529
REMARK INTER:                  -3.420
REMARK INTRA:                  -0.108
REMARK UNBOUND:                -0.037
REMARK SMILES CCCCC(=O)[O-]
REMARK SMILES IDX 4 1 5 2 6 3 7 4 3 5 2 6 1 7
REMARK H PARENT
REMARK Flexibility Score: inf
ROOT
ATOM      1  C   UNL     1      19.947  -5.241  42.745  1.00  0.00     0.053 C 
ENDROOT
BRANCH   1   2
ATOM      2  C   UNL     1      19.249  -4.179  43.535  1.00  0.00     0.041 C 
ATOM      3  O   UNL     1      18.158  -3.702  43.128  1.00  0.00    -0.550 OA
ATOM      4  O   UNL     1      19.828  -3.681  44.695  1.00  0.00    -0.550 OA
ENDBRANCH   1   2
BRANCH   1   5
ATOM      5  C   UNL     1      19.955  -6.565  43.518  1.00  0.00     0.006 C 
BRANCH   5   6
ATOM      6  C   UNL     1      18.538  -7.073  43.830  1.00  0.00    -0.003 C 
ATOM      7  C   UNL     1      18.288  -7.241  45.329  1.00  0.00     0.004 C 
ENDBRANCH   5   6
ENDBRANCH   1   5
TORSDOF 3
ENDMDL
MODEL 3
REMARK VINA RESULT:    -2.927     10.448     12.024
REMARK INTER + INTRA:          -3.477
REMARK INTER:                  -3.391
REMARK INTRA:                  -0.085
REMARK UNBOUND:                -0.037
REMARK SMILES CCCCC(=O)[O-]
REMARK SMILES IDX 4 1 5 2 6 3 7 4 3 5 2 6 1 7
REMARK H PARENT
REMARK Flexibility Score: inf
ROOT
ATOM      1  C   UNL     1       9.546  -4.224  46.380  1.00  0.00     0.053 C 
ENDROOT
BRANCH   1   2
ATOM      2  C   UNL     1      10.723  -4.099  45.463  1.00  0.00     0.041 C 
ATOM      3  O   UNL     1      10.550  -3.847  44.242  1.00  0.00    -0.550 OA
ATOM      4  O   UNL     1      12.007  -4.312  45.947  1.00  0.00    -0.550 OA
ENDBRANCH   1   2
BRANCH   1   5
ATOM      5  C   UNL     1       8.872  -2.860  46.572  1.00  0.00     0.006 C 
BRANCH   5   6
ATOM      6  C   UNL     1       9.828  -1.808  47.159  1.00  0.00    -0.003 C 
ATOM      7  C   UNL     1       9.230  -0.401  47.155  1.00  0.00     0.004 C 
ENDBRANCH   5   6
ENDBRANCH   1   5
TORSDOF 3
ENDMDL
MODEL 4
REMARK VINA RESULT:    -2.853     10.740     11.988
REMARK INTER + INTRA:          -3.391
REMARK INTER:                  -3.341
REMARK INTRA:                  -0.050
REMARK UNBOUND:                -0.037
REMARK SMILES CCCCC(=O)[O-]
REMARK SMILES IDX 4 1 5 2 6 3 7 4 3 5 2 6 1 7
REMARK H PARENT
REMARK Flexibility Score: inf
ROOT
ATOM      1  C   UNL     1       9.745  -2.588  46.986  1.00  0.00     0.053 C 
ENDROOT
BRANCH   1   2
ATOM      2  C   UNL     1       9.781  -1.135  47.347  1.00  0.00     0.041 C 
ATOM      3  O   UNL     1      10.218  -0.773  48.470  1.00  0.00    -0.550 OA
ATOM      4  O   UNL     1       9.287  -0.186  46.462  1.00  0.00    -0.550 OA
ENDBRANCH   1   2
BRANCH   1   5
ATOM      5  C   UNL     1       9.751  -2.760  45.463  1.00  0.00     0.006 C 
BRANCH   5   6
ATOM      6  C   UNL     1      10.626  -3.940  45.007  1.00  0.00    -0.003 C 
ATOM      7  C   UNL     1      11.871  -4.121  45.875  1.00  0.00     0.004 C 
ENDBRANCH   5   6
ENDBRANCH   1   5
TORSDOF 3
ENDMDL
MODEL 5
REMARK VINA RESULT:    -2.844      2.140      2.757
REMARK INTER + INTRA:          -3.380
REMARK INTER:                  -3.311
REMARK INTRA:                  -0.069
REMARK UNBOUND:                -0.037
REMARK SMILES CCCCC(=O)[O-]
REMARK SMILES IDX 4 1 5 2 6 3 7 4 3 5 2 6 1 7
REMARK H PARENT
REMARK Flexibility Score: inf
ROOT
ATOM      1  C   UNL     1      19.923  -5.208  42.592  1.00  0.00     0.053 C 
ENDROOT
BRANCH   1   2
ATOM      2  C   UNL     1      19.266  -4.182  43.463  1.00  0.00     0.041 C 
ATOM      3  O   UNL     1      19.833  -3.789  44.515  1.00  0.00    -0.550 OA
ATOM      4  O   UNL     1      18.006  -3.698  43.137  1.00  0.00    -0.550 OA
ENDBRANCH   1   2
BRANCH   1   5
ATOM      5  C   UNL     1      20.951  -6.012  43.396  1.00  0.00     0.006 C 
BRANCH   5   6
ATOM      6  C   UNL     1      20.674  -7.524  43.362  1.00  0.00    -0.003 C 
ATOM      7  C   UNL     1      19.312  -7.888  43.950  1.00  0.00     0.004 C 
ENDBRANCH   5   6
ENDBRANCH   1   5
TORSDOF 3
ENDMDL
MODEL 6
REMARK VINA RESULT:    -2.801      2.145      4.109
REMARK INTER + INTRA:          -3.329
REMARK INTER:                  -3.235
REMARK INTRA:                  -0.094
REMARK UNBOUND:                -0.037
REMARK SMILES CCCCC(=O)[O-]
REMARK SMILES IDX 4 1 5 2 6 3 7 4 3 5 2 6 1 7
REMARK H PARENT
REMARK Flexibility Score: inf
ROOT
ATOM      1  C   UNL     1      20.565  -6.125  43.302  1.00  0.00     0.053 C 
ENDROOT
BRANCH   1   2
ATOM      2  C   UNL     1      19.920  -7.439  43.614  1.00  0.00     0.041 C 
ATOM      3  O   UNL     1      18.845  -7.478  44.266  1.00  0.00    -0.550 OA
ATOM      4  O   UNL     1      20.534  -8.623  43.226  1.00  0.00    -0.550 OA
ENDBRANCH   1   2
BRANCH   1   5
ATOM      5  C   UNL     1      19.582  -5.209  42.563  1.00  0.00     0.006 C 
BRANCH   5   6
ATOM      6  C   UNL     1      19.033  -4.087  43.460  1.00  0.00    -0.003 C 
ATOM      7  C   UNL     1      19.923  -3.811  44.671  1.00  0.00     0.004 C 
ENDBRANCH   5   6
ENDBRANCH   1   5
TORSDOF 3
ENDMDL
MODEL 7
REMARK VINA RESULT:    -2.782      7.709      8.272
REMARK INTER + INTRA:          -3.306
REMARK INTER:                  -3.193
REMARK INTRA:                  -0.114
REMARK UNBOUND:                -0.037
REMARK SMILES CCCCC(=O)[O-]
REMARK SMILES IDX 4 1 5 2 6 3 7 4 3 5 2 6 1 7
REMARK H PARENT
REMARK Flexibility Score: inf
ROOT
ATOM      1  C   UNL     1      22.912  -7.450  51.561  1.00  0.00     0.053 C 
ENDROOT
BRANCH   1   2
ATOM      2  C   UNL     1      23.570  -8.425  50.634  1.00  0.00     0.041 C 
ATOM      3  O   UNL     1      23.685  -9.633  50.964  1.00  0.00    -0.550 OA
ATOM      4  O   UNL     1      24.101  -7.987  49.428  1.00  0.00    -0.550 OA
ENDBRANCH   1   2
BRANCH   1   5
ATOM      5  C   UNL     1      21.916  -6.572  50.794  1.00  0.00     0.006 C 
BRANCH   5   6
ATOM      6  C   UNL     1      20.591  -7.296  50.508  1.00  0.00    -0.003 C 
ATOM      7  C   UNL     1      20.175  -7.208  49.039  1.00  0.00     0.004 C 
ENDBRANCH   5   6
ENDBRANCH   1   5
TORSDOF 3
ENDMDL
MODEL 8
REMARK VINA RESULT:    -2.779      2.404      3.242
REMARK INTER + INTRA:          -3.303
REMARK INTER:                  -3.219
REMARK INTRA:                  -0.084
REMARK UNBOUND:                -0.037
REMARK SMILES CCCCC(=O)[O-]
REMARK SMILES IDX 4 1 5 2 6 3 7 4 3 5 2 6 1 7
REMARK H PARENT
REMARK Flexibility Score: inf
ROOT
ATOM      1  C   UNL     1      19.196  -7.602  44.182  1.00  0.00     0.053 C 
ENDROOT
BRANCH   1   2
ATOM      2  C   UNL     1      19.600  -6.460  43.303  1.00  0.00     0.041 C 
ATOM      3  O   UNL     1      20.774  -6.393  42.853  1.00  0.00    -0.550 OA
ATOM      4  O   UNL     1      18.696  -5.444  43.021  1.00  0.00    -0.550 OA
ENDBRANCH   1   2
BRANCH   1   5
ATOM      5  C   UNL     1      18.717  -7.084  45.543  1.00  0.00     0.006 C 
BRANCH   5   6
ATOM      6  C   UNL     1      19.822  -6.345  46.315  1.00  0.00    -0.003 C 
ATOM      7  C   UNL     1      19.821  -6.673  47.807  1.00  0.00     0.004 C 
ENDBRANCH   5   6
ENDBRANCH   1   5
TORSDOF 3
ENDMDL
MODEL 9
REMARK VINA RESULT:    -2.777      2.231      3.835
REMARK INTER + INTRA:          -3.300
REMARK INTER:                  -3.176
REMARK INTRA:                  -0.124
REMARK UNBOUND:                -0.037
REMARK SMILES CCCCC(=O)[O-]
REMARK SMILES IDX 4 1 5 2 6 3 7 4 3 5 2 6 1 7
REMARK H PARENT
REMARK Flexibility Score: inf
ROOT
ATOM      1  C   UNL     1      20.335  -7.138  43.873  1.00  0.00     0.053 C 
ENDROOT
BRANCH   1   2
ATOM      2  C   UNL     1      18.952  -7.161  44.446  1.00  0.00     0.041 C 
ATOM      3  O   UNL     1      17.962  -7.386  43.702  1.00  0.00    -0.550 OA
ATOM      4  O   UNL     1      18.753  -6.885  45.792  1.00  0.00    -0.550 OA
ENDBRANCH   1   2
BRANCH   1   5
ATOM      5  C   UNL     1      20.464  -6.018  42.834  1.00  0.00     0.006 C 
BRANCH   5   6
ATOM      6  C   UNL     1      20.093  -4.640  43.404  1.00  0.00    -0.003 C 
ATOM      7  C   UNL     1      19.095  -3.887  42.524  1.00  0.00     0.004 C 
ENDBRANCH   5   6
ENDBRANCH   1   5
TORSDOF 3
ENDMDL
