MODEL 1
REMARK VINA RESULT:    -7.773      0.000      0.000
REMARK INTER + INTRA:         -13.972
REMARK INTER:                 -12.318
REMARK INTRA:                  -1.654
REMARK UNBOUND:                -1.654
REMARK SMILES C[C@H]1O[C@@H](O[C@H]2[C@H](Oc3cc(O)c4c(c3)O[C@@H](c3ccc(O)cc3)CC4=O)O[C@@H](CO)[C@@H](O)[C@H]2O)[C@@H](O)[C@H](O)[C@@H]1O
REMARK SMILES IDX 6 1 34 2 32 3 29 4 28 5 7 6 5 7 4 8 1 9 2 10 40 11 3 12
REMARK SMILES IDX 38 13 36 14 41 15 39 17 37 19 35 21 8 23 9 24 10 25 15 26
REMARK SMILES IDX 11 27 14 28 13 29 16 30 26 31 17 32 27 33 25 34 12 35 18 37
REMARK SMILES IDX 19 38 24 39 20 40 23 41 21 42 22 43 33 45 30 47 31 48
REMARK H PARENT 41 16 39 18 37 20 35 22 12 36 22 44 33 46 31 49
REMARK Flexibility Score: inf
ROOT
ATOM      1  C   UNL     1       5.538   7.630  22.054  1.00  0.00     0.221 C 
ATOM      2  C   UNL     1       5.248   6.501  23.091  1.00  0.00     0.181 C 
ATOM      3  C   UNL     1       4.462   7.033  24.283  1.00  0.00     0.177 C 
ATOM      4  C   UNL     1       5.262   8.197  24.867  1.00  0.00     0.179 C 
ATOM      5  O   UNL     1       5.273   9.269  23.936  1.00  0.00    -0.332 OA
ATOM      6  C   UNL     1       5.999   8.947  22.747  1.00  0.00     0.339 C 
ENDROOT
BRANCH   1   7
ATOM      7  O   UNL     1       4.398   7.882  21.238  1.00  0.00    -0.337 OA
BRANCH   7   8
ATOM      8  C   UNL     1       4.729   7.766  19.850  1.00  0.00     0.282 C 
ATOM      9  C   UNL     1       3.025  10.324  20.351  1.00  0.00     0.041 C 
ATOM     10  C   UNL     1       3.439   9.620  19.064  1.00  0.00     0.150 C 
ATOM     11  C   UNL     1       2.363   8.675  18.463  1.00  0.00     0.174 C 
ATOM     12  O   UNL     1       4.724   9.032  19.198  1.00  0.00    -0.344 OA
ATOM     13  C   UNL     1       2.367   7.301  19.165  1.00  0.00     0.179 C 
ATOM     14  C   UNL     1       3.800   6.762  19.152  1.00  0.00     0.202 C 
BRANCH  11  15
ATOM     15  O   UNL     1       2.622   8.539  17.084  1.00  0.00    -0.388 OA
ATOM     16  H   UNL     1       3.285   7.800  16.977  1.00  0.00     0.211 HD
ENDBRANCH  11  15
BRANCH  13  17
ATOM     17  O   UNL     1       1.507   6.409  18.507  1.00  0.00    -0.387 OA
ATOM     18  H   UNL     1       0.823   6.123  19.170  1.00  0.00     0.211 HD
ENDBRANCH  13  17
BRANCH  14  19
ATOM     19  O   UNL     1       3.881   5.477  19.727  1.00  0.00    -0.385 OA
ATOM     20  H   UNL     1       4.485   4.927  19.169  1.00  0.00     0.211 HD
ENDBRANCH  14  19
ENDBRANCH   7   8
ENDBRANCH   1   7
BRANCH   2  21
ATOM     21  O   UNL     1       4.509   5.456  22.520  1.00  0.00    -0.387 OA
ATOM     22  H   UNL     1       4.499   5.593  21.532  1.00  0.00     0.211 HD
ENDBRANCH   2  21
BRANCH   6  23
ATOM     23  O   UNL     1       7.433   8.885  22.953  1.00  0.00    -0.462 OA
BRANCH  23  24
ATOM     24  C   UNL     1       8.425   8.690  21.975  1.00  0.00     0.130 A 
ATOM     25  C   UNL     1       8.118   8.419  20.632  1.00  0.00     0.093 A 
ATOM     26  C   UNL     1       9.764   8.968  22.314  1.00  0.00     0.094 A 
ATOM     27  C   UNL     1       9.041   8.716  19.626  1.00  0.00     0.133 A 
ATOM     28  C   UNL     1      10.723   9.196  21.319  1.00  0.00     0.138 A 
ATOM     29  C   UNL     1      10.322   9.188  19.970  1.00  0.00     0.102 A 
ATOM     30  O   UNL     1      12.061   9.444  21.645  1.00  0.00    -0.484 OA
ATOM     31  C   UNL     1      11.249   9.739  18.977  1.00  0.00     0.174 C 
ATOM     32  C   UNL     1      12.920  10.219  20.816  1.00  0.00     0.211 C 
ATOM     33  O   UNL     1      10.844  10.048  17.817  1.00  0.00    -0.294 OA
ATOM     34  C   UNL     1      12.692   9.934  19.311  1.00  0.00     0.131 C 
BRANCH  27  35
ATOM     35  O   UNL     1       8.682   8.535  18.286  1.00  0.00    -0.507 OA
ATOM     36  H   UNL     1       8.863   7.664  17.794  1.00  0.00     0.293 HD
ENDBRANCH  27  35
BRANCH  32  37
ATOM     37  C   UNL     1      14.366   9.969  21.192  1.00  0.00    -0.007 A 
ATOM     38  C   UNL     1      15.001   8.752  20.897  1.00  0.00     0.011 A 
ATOM     39  C   UNL     1      15.080  10.956  21.900  1.00  0.00     0.011 A 
ATOM     40  C   UNL     1      16.339   8.549  21.252  1.00  0.00     0.046 A 
ATOM     41  C   UNL     1      16.423  10.757  22.240  1.00  0.00     0.046 A 
ATOM     42  C   UNL     1      17.061   9.558  21.900  1.00  0.00     0.115 A 
BRANCH  42  43
ATOM     43  O   UNL     1      18.402   9.385  22.214  1.00  0.00    -0.508 OA
ATOM     44  H   UNL     1      18.704   8.691  22.886  1.00  0.00     0.293 HD
ENDBRANCH  42  43
ENDBRANCH  32  37
ENDBRANCH  23  24
ENDBRANCH   6  23
BRANCH   3  45
ATOM     45  O   UNL     1       3.167   7.404  23.856  1.00  0.00    -0.387 OA
ATOM     46  H   UNL     1       2.950   8.324  24.151  1.00  0.00     0.211 HD
ENDBRANCH   3  45
BRANCH   4  47
ATOM     47  C   UNL     1       4.706   8.668  26.235  1.00  0.00     0.191 C 
BRANCH  47  48
ATOM     48  O   UNL     1       3.453   9.290  26.095  1.00  0.00    -0.394 OA
ATOM     49  H   UNL     1       3.541  10.214  26.457  1.00  0.00     0.210 HD
ENDBRANCH  47  48
ENDBRANCH   4  47
TORSDOF 14
ENDMDL
MODEL 2
REMARK VINA RESULT:    -6.804     14.189     16.633
REMARK INTER + INTRA:         -12.436
REMARK INTER:                 -10.755
REMARK INTRA:                  -1.681
REMARK UNBOUND:                -1.654
REMARK SMILES C[C@H]1O[C@@H](O[C@H]2[C@H](Oc3cc(O)c4c(c3)O[C@@H](c3ccc(O)cc3)CC4=O)O[C@@H](CO)[C@@H](O)[C@H]2O)[C@@H](O)[C@H](O)[C@@H]1O
REMARK SMILES IDX 6 1 34 2 32 3 29 4 28 5 7 6 5 7 4 8 1 9 2 10 40 11 3 12
REMARK SMILES IDX 38 13 36 14 41 15 39 17 37 19 35 21 8 23 9 24 10 25 15 26
REMARK SMILES IDX 11 27 14 28 13 29 16 30 26 31 17 32 27 33 25 34 12 35 18 37
REMARK SMILES IDX 19 38 24 39 20 40 23 41 21 42 22 43 33 45 30 47 31 48
REMARK H PARENT 41 16 39 18 37 20 35 22 12 36 22 44 33 46 31 49
REMARK Flexibility Score: inf
ROOT
ATOM      1  C   UNL     1      15.786  -1.224  31.405  1.00  0.00     0.221 C 
ATOM      2  C   UNL     1      16.571  -0.354  32.435  1.00  0.00     0.181 C 
ATOM      3  C   UNL     1      15.843   0.954  32.720  1.00  0.00     0.177 C 
ATOM      4  C   UNL     1      15.631   1.654  31.378  1.00  0.00     0.179 C 
ATOM      5  O   UNL     1      14.717   0.898  30.598  1.00  0.00    -0.332 OA
ATOM      6  C   UNL     1      15.252  -0.372  30.215  1.00  0.00     0.339 C 
ENDROOT
BRANCH   1   7
ATOM      7  O   UNL     1      14.710  -1.915  32.031  1.00  0.00    -0.337 OA
BRANCH   7   8
ATOM      8  C   UNL     1      13.835  -2.490  31.054  1.00  0.00     0.282 C 
ATOM      9  C   UNL     1      12.228  -1.620  33.575  1.00  0.00     0.041 C 
ATOM     10  C   UNL     1      11.839  -2.468  32.369  1.00  0.00     0.150 C 
ATOM     11  C   UNL     1      11.917  -4.002  32.599  1.00  0.00     0.174 C 
ATOM     12  O   UNL     1      12.500  -2.017  31.197  1.00  0.00    -0.344 OA
ATOM     13  C   UNL     1      13.363  -4.519  32.441  1.00  0.00     0.179 C 
ATOM     14  C   UNL     1      13.904  -4.024  31.097  1.00  0.00     0.202 C 
BRANCH  11  15
ATOM     15  O   UNL     1      11.054  -4.627  31.676  1.00  0.00    -0.388 OA
ATOM     16  H   UNL     1      11.304  -5.592  31.640  1.00  0.00     0.211 HD
ENDBRANCH  11  15
BRANCH  13  17
ATOM     17  O   UNL     1      13.393  -5.921  32.489  1.00  0.00    -0.387 OA
ATOM     18  H   UNL     1      13.894  -6.172  33.310  1.00  0.00     0.211 HD
ENDBRANCH  13  17
BRANCH  14  19
ATOM     19  O   UNL     1      15.207  -4.502  30.850  1.00  0.00    -0.385 OA
ATOM     20  H   UNL     1      15.369  -5.277  31.443  1.00  0.00     0.211 HD
ENDBRANCH  14  19
ENDBRANCH   7   8
ENDBRANCH   1   7
BRANCH   2  21
ATOM     21  O   UNL     1      16.740  -1.027  33.653  1.00  0.00    -0.387 OA
ATOM     22  H   UNL     1      17.686  -1.340  33.699  1.00  0.00     0.211 HD
ENDBRANCH   2  21
BRANCH   6  23
ATOM     23  O   UNL     1      16.292  -0.273  29.211  1.00  0.00    -0.462 OA
BRANCH  23  24
ATOM     24  C   UNL     1      16.824  -1.316  28.431  1.00  0.00     0.130 A 
ATOM     25  C   UNL     1      17.586  -2.358  28.984  1.00  0.00     0.093 A 
ATOM     26  C   UNL     1      16.417  -1.423  27.087  1.00  0.00     0.094 A 
ATOM     27  C   UNL     1      17.674  -3.589  28.329  1.00  0.00     0.133 A 
ATOM     28  C   UNL     1      16.565  -2.628  26.387  1.00  0.00     0.138 A 
ATOM     29  C   UNL     1      17.086  -3.749  27.059  1.00  0.00     0.102 A 
ATOM     30  O   UNL     1      16.190  -2.736  25.043  1.00  0.00    -0.484 OA
ATOM     31  C   UNL     1      16.933  -5.060  26.424  1.00  0.00     0.174 C 
ATOM     32  C   UNL     1      15.769  -3.966  24.462  1.00  0.00     0.211 C 
ATOM     33  O   UNL     1      17.089  -6.125  27.093  1.00  0.00    -0.294 OA
ATOM     34  C   UNL     1      16.603  -5.167  24.971  1.00  0.00     0.131 C 
BRANCH  27  35
ATOM     35  O   UNL     1      18.351  -4.649  28.941  1.00  0.00    -0.507 OA
ATOM     36  H   UNL     1      19.359  -4.752  28.875  1.00  0.00     0.293 HD
ENDBRANCH  27  35
BRANCH  32  37
ATOM     37  C   UNL     1      15.835  -3.872  22.951  1.00  0.00    -0.007 A 
ATOM     38  C   UNL     1      16.963  -4.308  22.238  1.00  0.00     0.011 A 
ATOM     39  C   UNL     1      14.765  -3.291  22.244  1.00  0.00     0.011 A 
ATOM     40  C   UNL     1      16.997  -4.215  20.842  1.00  0.00     0.046 A 
ATOM     41  C   UNL     1      14.793  -3.213  20.847  1.00  0.00     0.046 A 
ATOM     42  C   UNL     1      15.904  -3.693  20.142  1.00  0.00     0.115 A 
BRANCH  42  43
ATOM     43  O   UNL     1      15.906  -3.641  18.754  1.00  0.00    -0.508 OA
ATOM     44  H   UNL     1      16.717  -3.323  18.237  1.00  0.00     0.293 HD
ENDBRANCH  42  43
ENDBRANCH  32  37
ENDBRANCH  23  24
ENDBRANCH   6  23
BRANCH   3  45
ATOM     45  O   UNL     1      14.638   0.676  33.402  1.00  0.00    -0.387 OA
ATOM     46  H   UNL     1      13.925   1.305  33.127  1.00  0.00     0.211 HD
ENDBRANCH   3  45
BRANCH   4  47
ATOM     47  C   UNL     1      15.130   3.112  31.545  1.00  0.00     0.191 C 
BRANCH  47  48
ATOM     48  O   UNL     1      14.693   3.359  32.858  1.00  0.00    -0.394 OA
ATOM     49  H   UNL     1      13.740   3.071  32.909  1.00  0.00     0.210 HD
ENDBRANCH  47  48
ENDBRANCH   4  47
TORSDOF 14
ENDMDL
MODEL 3
REMARK VINA RESULT:    -6.723      2.271      3.704
REMARK INTER + INTRA:         -12.307
REMARK INTER:                 -11.475
REMARK INTRA:                  -0.832
REMARK UNBOUND:                -1.654
REMARK SMILES C[C@H]1O[C@@H](O[C@H]2[C@H](Oc3cc(O)c4c(c3)O[C@@H](c3ccc(O)cc3)CC4=O)O[C@@H](CO)[C@@H](O)[C@H]2O)[C@@H](O)[C@H](O)[C@@H]1O
REMARK SMILES IDX 6 1 34 2 32 3 29 4 28 5 7 6 5 7 4 8 1 9 2 10 40 11 3 12
REMARK SMILES IDX 38 13 36 14 41 15 39 17 37 19 35 21 8 23 9 24 10 25 15 26
REMARK SMILES IDX 11 27 14 28 13 29 16 30 26 31 17 32 27 33 25 34 12 35 18 37
REMARK SMILES IDX 19 38 24 39 20 40 23 41 21 42 22 43 33 45 30 47 31 48
REMARK H PARENT 41 16 39 18 37 20 35 22 12 36 22 44 33 46 31 49
REMARK Flexibility Score: inf
ROOT
ATOM      1  C   UNL     1       3.986   7.161  18.909  1.00  0.00     0.221 C 
ATOM      2  C   UNL     1       3.992   5.919  19.853  1.00  0.00     0.181 C 
ATOM      3  C   UNL     1       3.768   6.328  21.304  1.00  0.00     0.177 C 
ATOM      4  C   UNL     1       4.843   7.356  21.654  1.00  0.00     0.179 C 
ATOM      5  O   UNL     1       4.615   8.542  20.907  1.00  0.00    -0.332 OA
ATOM      6  C   UNL     1       4.805   8.345  19.504  1.00  0.00     0.339 C 
ENDROOT
BRANCH   1   7
ATOM      7  O   UNL     1       2.656   7.583  18.624  1.00  0.00    -0.337 OA
BRANCH   7   8
ATOM      8  C   UNL     1       2.583   8.206  17.337  1.00  0.00     0.282 C 
ATOM      9  C   UNL     1       0.939   9.830  19.425  1.00  0.00     0.041 C 
ATOM     10  C   UNL     1       1.010   9.915  17.904  1.00  0.00     0.150 C 
ATOM     11  C   UNL     1      -0.133   9.177  17.155  1.00  0.00     0.174 C 
ATOM     12  O   UNL     1       2.314   9.600  17.439  1.00  0.00    -0.344 OA
ATOM     13  C   UNL     1       0.157   7.665  17.040  1.00  0.00     0.179 C 
ATOM     14  C   UNL     1       1.557   7.491  16.445  1.00  0.00     0.202 C 
BRANCH  11  15
ATOM     15  O   UNL     1      -0.271   9.763  15.880  1.00  0.00    -0.388 OA
ATOM     16  H   UNL     1       0.041  10.709  15.952  1.00  0.00     0.211 HD
ENDBRANCH  11  15
BRANCH  13  17
ATOM     17  O   UNL     1      -0.799   7.041  16.225  1.00  0.00    -0.387 OA
ATOM     18  H   UNL     1      -0.365   6.873  15.346  1.00  0.00     0.211 HD
ENDBRANCH  13  17
BRANCH  14  19
ATOM     19  O   UNL     1       1.878   6.131  16.254  1.00  0.00    -0.385 OA
ATOM     20  H   UNL     1       2.800   5.983  16.581  1.00  0.00     0.211 HD
ENDBRANCH  14  19
ENDBRANCH   7   8
ENDBRANCH   1   7
BRANCH   2  21
ATOM     21  O   UNL     1       2.990   5.003  19.504  1.00  0.00    -0.387 OA
ATOM     22  H   UNL     1       2.405   5.437  18.822  1.00  0.00     0.211 HD
ENDBRANCH   2  21
BRANCH   6  23
ATOM     23  O   UNL     1       6.197   8.178  19.136  1.00  0.00    -0.462 OA
BRANCH  23  24
ATOM     24  C   UNL     1       7.312   8.814  19.712  1.00  0.00     0.130 A 
ATOM     25  C   UNL     1       7.520   8.862  21.099  1.00  0.00     0.093 A 
ATOM     26  C   UNL     1       8.350   9.245  18.863  1.00  0.00     0.094 A 
ATOM     27  C   UNL     1       8.808   9.035  21.612  1.00  0.00     0.133 A 
ATOM     28  C   UNL     1       9.632   9.497  19.368  1.00  0.00     0.138 A 
ATOM     29  C   UNL     1       9.884   9.270  20.734  1.00  0.00     0.102 A 
ATOM     30  O   UNL     1      10.662   9.953  18.538  1.00  0.00    -0.484 OA
ATOM     31  C   UNL     1      11.281   9.225  21.174  1.00  0.00     0.174 C 
ATOM     32  C   UNL     1      12.035   9.684  18.803  1.00  0.00     0.211 C 
ATOM     33  O   UNL     1      11.589   8.725  22.297  1.00  0.00    -0.294 OA
ATOM     34  C   UNL     1      12.368   9.779  20.312  1.00  0.00     0.131 C 
BRANCH  27  35
ATOM     35  O   UNL     1       9.014   8.980  22.994  1.00  0.00    -0.507 OA
ATOM     36  H   UNL     1       8.309   8.612  23.628  1.00  0.00     0.293 HD
ENDBRANCH  27  35
BRANCH  32  37
ATOM     37  C   UNL     1      12.910  10.627  18.003  1.00  0.00    -0.007 A 
ATOM     38  C   UNL     1      12.704  10.832  16.630  1.00  0.00     0.011 A 
ATOM     39  C   UNL     1      13.988  11.279  18.636  1.00  0.00     0.011 A 
ATOM     40  C   UNL     1      13.524  11.712  15.915  1.00  0.00     0.046 A 
ATOM     41  C   UNL     1      14.796  12.172  17.924  1.00  0.00     0.046 A 
ATOM     42  C   UNL     1      14.554  12.404  16.564  1.00  0.00     0.115 A 
BRANCH  42  43
ATOM     43  O   UNL     1      15.343  13.316  15.876  1.00  0.00    -0.508 OA
ATOM     44  H   UNL     1      16.327  13.428  16.083  1.00  0.00     0.293 HD
ENDBRANCH  42  43
ENDBRANCH  32  37
ENDBRANCH  23  24
ENDBRANCH   6  23
BRANCH   3  45
ATOM     45  O   UNL     1       2.453   6.823  21.449  1.00  0.00    -0.387 OA
ATOM     46  H   UNL     1       2.266   7.527  20.779  1.00  0.00     0.211 HD
ENDBRANCH   3  45
BRANCH   4  47
ATOM     47  C   UNL     1       4.891   7.667  23.172  1.00  0.00     0.191 C 
BRANCH  47  48
ATOM     48  O   UNL     1       3.729   8.334  23.597  1.00  0.00    -0.394 OA
ATOM     49  H   UNL     1       3.190   8.534  22.783  1.00  0.00     0.210 HD
ENDBRANCH  47  48
ENDBRANCH   4  47
TORSDOF 14
ENDMDL
MODEL 4
REMARK VINA RESULT:    -6.569     12.117     15.638
REMARK INTER + INTRA:         -12.063
REMARK INTER:                 -10.060
REMARK INTRA:                  -2.003
REMARK UNBOUND:                -1.654
REMARK SMILES C[C@H]1O[C@@H](O[C@H]2[C@H](Oc3cc(O)c4c(c3)O[C@@H](c3ccc(O)cc3)CC4=O)O[C@@H](CO)[C@@H](O)[C@H]2O)[C@@H](O)[C@H](O)[C@@H]1O
REMARK SMILES IDX 6 1 34 2 32 3 29 4 28 5 7 6 5 7 4 8 1 9 2 10 40 11 3 12
REMARK SMILES IDX 38 13 36 14 41 15 39 17 37 19 35 21 8 23 9 24 10 25 15 26
REMARK SMILES IDX 11 27 14 28 13 29 16 30 26 31 17 32 27 33 25 34 12 35 18 37
REMARK SMILES IDX 19 38 24 39 20 40 23 41 21 42 22 43 33 45 30 47 31 48
REMARK H PARENT 41 16 39 18 37 20 35 22 12 36 22 44 33 46 31 49
REMARK Flexibility Score: inf
ROOT
ATOM      1  C   UNL     1      15.912   2.005  30.864  1.00  0.00     0.221 C 
ATOM      2  C   UNL     1      15.508   2.200  29.370  1.00  0.00     0.181 C 
ATOM      3  C   UNL     1      16.455   1.453  28.440  1.00  0.00     0.177 C 
ATOM      4  C   UNL     1      17.870   1.941  28.749  1.00  0.00     0.179 C 
ATOM      5  O   UNL     1      18.235   1.514  30.053  1.00  0.00    -0.332 OA
ATOM      6  C   UNL     1      17.451   2.142  31.070  1.00  0.00     0.339 C 
ENDROOT
BRANCH   1   7
ATOM      7  O   UNL     1      15.464   0.747  31.358  1.00  0.00    -0.337 OA
BRANCH   7   8
ATOM      8  C   UNL     1      14.472   0.920  32.375  1.00  0.00     0.282 C 
ATOM      9  C   UNL     1      16.963  -0.553  33.526  1.00  0.00     0.041 C 
ATOM     10  C   UNL     1      15.568  -0.324  34.098  1.00  0.00     0.150 C 
ATOM     11  C   UNL     1      14.588  -1.516  33.924  1.00  0.00     0.174 C 
ATOM     12  O   UNL     1      15.046   0.928  33.677  1.00  0.00    -0.344 OA
ATOM     13  C   UNL     1      13.961  -1.526  32.513  1.00  0.00     0.179 C 
ATOM     14  C   UNL     1      13.368  -0.140  32.244  1.00  0.00     0.202 C 
BRANCH  11  15
ATOM     15  O   UNL     1      13.593  -1.414  34.918  1.00  0.00    -0.388 OA
ATOM     16  H   UNL     1      12.759  -1.815  34.547  1.00  0.00     0.211 HD
ENDBRANCH  11  15
BRANCH  13  17
ATOM     17  O   UNL     1      12.961  -2.507  32.425  1.00  0.00    -0.387 OA
ATOM     18  H   UNL     1      13.408  -3.387  32.544  1.00  0.00     0.211 HD
ENDBRANCH  13  17
BRANCH  14  19
ATOM     19  O   UNL     1      12.723  -0.082  30.992  1.00  0.00    -0.385 OA
ATOM     20  H   UNL     1      13.203   0.576  30.429  1.00  0.00     0.211 HD
ENDBRANCH  14  19
ENDBRANCH   7   8
ENDBRANCH   1   7
BRANCH   2  21
ATOM     21  O   UNL     1      14.208   1.735  29.125  1.00  0.00    -0.387 OA
ATOM     22  H   UNL     1      14.271   0.773  28.869  1.00  0.00     0.211 HD
ENDBRANCH   2  21
BRANCH   6  23
ATOM     23  O   UNL     1      17.771   3.543  31.254  1.00  0.00    -0.462 OA
BRANCH  23  24
ATOM     24  C   UNL     1      16.987   4.518  31.896  1.00  0.00     0.130 A 
ATOM     25  C   UNL     1      16.485   4.348  33.196  1.00  0.00     0.093 A 
ATOM     26  C   UNL     1      16.863   5.785  31.290  1.00  0.00     0.094 A 
ATOM     27  C   UNL     1      16.159   5.460  33.976  1.00  0.00     0.133 A 
ATOM     28  C   UNL     1      16.465   6.901  32.037  1.00  0.00     0.138 A 
ATOM     29  C   UNL     1      16.231   6.751  33.417  1.00  0.00     0.102 A 
ATOM     30  O   UNL     1      16.313   8.156  31.438  1.00  0.00    -0.484 OA
ATOM     31  C   UNL     1      16.135   7.966  34.230  1.00  0.00     0.174 C 
ATOM     32  C   UNL     1      16.485   9.373  32.157  1.00  0.00     0.211 C 
ATOM     33  O   UNL     1      16.239   7.909  35.492  1.00  0.00    -0.294 OA
ATOM     34  C   UNL     1      15.900   9.294  33.588  1.00  0.00     0.131 C 
BRANCH  27  35
ATOM     35  O   UNL     1      15.757   5.279  35.303  1.00  0.00    -0.507 OA
ATOM     36  H   UNL     1      16.422   5.066  36.041  1.00  0.00     0.293 HD
ENDBRANCH  27  35
BRANCH  32  37
ATOM     37  C   UNL     1      15.861  10.520  31.388  1.00  0.00    -0.007 A 
ATOM     38  C   UNL     1      15.952  11.844  31.846  1.00  0.00     0.011 A 
ATOM     39  C   UNL     1      15.130  10.253  30.214  1.00  0.00     0.011 A 
ATOM     40  C   UNL     1      15.370  12.886  31.114  1.00  0.00     0.046 A 
ATOM     41  C   UNL     1      14.563  11.297  29.475  1.00  0.00     0.046 A 
ATOM     42  C   UNL     1      14.699  12.620  29.916  1.00  0.00     0.115 A 
BRANCH  42  43
ATOM     43  O   UNL     1      14.159  13.651  29.157  1.00  0.00    -0.508 OA
ATOM     44  H   UNL     1      14.606  13.974  28.308  1.00  0.00     0.293 HD
ENDBRANCH  42  43
ENDBRANCH  32  37
ENDBRANCH  23  24
ENDBRANCH   6  23
BRANCH   3  45
ATOM     45  O   UNL     1      16.291   0.062  28.628  1.00  0.00    -0.387 OA
ATOM     46  H   UNL     1      15.529  -0.123  29.233  1.00  0.00     0.211 HD
ENDBRANCH   3  45
BRANCH   4  47
ATOM     47  C   UNL     1      18.906   1.453  27.704  1.00  0.00     0.191 C 
BRANCH  47  48
ATOM     48  O   UNL     1      18.288   0.737  26.664  1.00  0.00    -0.394 OA
ATOM     49  H   UNL     1      17.583   1.326  26.279  1.00  0.00     0.210 HD
ENDBRANCH  47  48
ENDBRANCH   4  47
TORSDOF 14
ENDMDL
MODEL 5
REMARK VINA RESULT:    -6.494     13.306     16.063
REMARK INTER + INTRA:         -11.945
REMARK INTER:                 -10.030
REMARK INTRA:                  -1.915
REMARK UNBOUND:                -1.654
REMARK SMILES C[C@H]1O[C@@H](O[C@H]2[C@H](Oc3cc(O)c4c(c3)O[C@@H](c3ccc(O)cc3)CC4=O)O[C@@H](CO)[C@@H](O)[C@H]2O)[C@@H](O)[C@H](O)[C@@H]1O
REMARK SMILES IDX 6 1 34 2 32 3 29 4 28 5 7 6 5 7 4 8 1 9 2 10 40 11 3 12
REMARK SMILES IDX 38 13 36 14 41 15 39 17 37 19 35 21 8 23 9 24 10 25 15 26
REMARK SMILES IDX 11 27 14 28 13 29 16 30 26 31 17 32 27 33 25 34 12 35 18 37
REMARK SMILES IDX 19 38 24 39 20 40 23 41 21 42 22 43 33 45 30 47 31 48
REMARK H PARENT 41 16 39 18 37 20 35 22 12 36 22 44 33 46 31 49
REMARK Flexibility Score: inf
ROOT
ATOM      1  C   UNL     1      15.000  -0.630  32.280  1.00  0.00     0.221 C 
ATOM      2  C   UNL     1      16.240  -1.494  31.897  1.00  0.00     0.181 C 
ATOM      3  C   UNL     1      17.045  -1.882  33.131  1.00  0.00     0.177 C 
ATOM      4  C   UNL     1      17.414  -0.588  33.855  1.00  0.00     0.179 C 
ATOM      5  O   UNL     1      16.233   0.011  34.369  1.00  0.00    -0.332 OA
ATOM      6  C   UNL     1      15.357   0.462  33.333  1.00  0.00     0.339 C 
ENDROOT
BRANCH   1   7
ATOM      7  O   UNL     1      13.936  -1.444  32.765  1.00  0.00    -0.337 OA
BRANCH   7   8
ATOM      8  C   UNL     1      12.733  -1.205  32.026  1.00  0.00     0.282 C 
ATOM      9  C   UNL     1      12.109  -1.464  35.066  1.00  0.00     0.041 C 
ATOM     10  C   UNL     1      11.197  -1.437  33.844  1.00  0.00     0.150 C 
ATOM     11  C   UNL     1      10.741  -2.834  33.341  1.00  0.00     0.174 C 
ATOM     12  O   UNL     1      11.730  -0.596  32.832  1.00  0.00    -0.344 OA
ATOM     13  C   UNL     1      11.825  -3.496  32.464  1.00  0.00     0.179 C 
ATOM     14  C   UNL     1      12.230  -2.501  31.373  1.00  0.00     0.202 C 
BRANCH  11  15
ATOM     15  O   UNL     1       9.540  -2.668  32.620  1.00  0.00    -0.388 OA
ATOM     16  H   UNL     1       9.786  -2.428  31.683  1.00  0.00     0.211 HD
ENDBRANCH  11  15
BRANCH  13  17
ATOM     17  O   UNL     1      11.337  -4.678  31.886  1.00  0.00    -0.387 OA
ATOM     18  H   UNL     1      10.685  -5.067  32.528  1.00  0.00     0.211 HD
ENDBRANCH  13  17
BRANCH  14  19
ATOM     19  O   UNL     1      13.182  -3.053  30.490  1.00  0.00    -0.385 OA
ATOM     20  H   UNL     1      12.791  -3.058  29.581  1.00  0.00     0.211 HD
ENDBRANCH  14  19
ENDBRANCH   7   8
ENDBRANCH   1   7
BRANCH   2  21
ATOM     21  O   UNL     1      15.862  -2.674  31.242  1.00  0.00    -0.387 OA
ATOM     22  H   UNL     1      16.507  -2.830  30.497  1.00  0.00     0.211 HD
ENDBRANCH   2  21
BRANCH   6  23
ATOM     23  O   UNL     1      15.852   1.633  32.637  1.00  0.00    -0.462 OA
BRANCH  23  24
ATOM     24  C   UNL     1      15.604   2.980  32.956  1.00  0.00     0.130 A 
ATOM     25  C   UNL     1      15.245   3.397  34.248  1.00  0.00     0.093 A 
ATOM     26  C   UNL     1      15.914   3.964  31.996  1.00  0.00     0.094 A 
ATOM     27  C   UNL     1      15.485   4.711  34.656  1.00  0.00     0.133 A 
ATOM     28  C   UNL     1      16.086   5.303  32.372  1.00  0.00     0.138 A 
ATOM     29  C   UNL     1      15.989   5.648  33.733  1.00  0.00     0.102 A 
ATOM     30  O   UNL     1      16.366   6.291  31.422  1.00  0.00    -0.484 OA
ATOM     31  C   UNL     1      16.484   6.966  34.141  1.00  0.00     0.174 C 
ATOM     32  C   UNL     1      17.094   7.473  31.739  1.00  0.00     0.211 C 
ATOM     33  O   UNL     1      16.715   7.219  35.361  1.00  0.00    -0.294 OA
ATOM     34  C   UNL     1      16.712   8.039  33.129  1.00  0.00     0.131 C 
BRANCH  27  35
ATOM     35  O   UNL     1      15.217   5.084  35.977  1.00  0.00    -0.507 OA
ATOM     36  H   UNL     1      14.268   5.212  36.316  1.00  0.00     0.293 HD
ENDBRANCH  27  35
BRANCH  32  37
ATOM     37  C   UNL     1      16.881   8.516  30.661  1.00  0.00    -0.007 A 
ATOM     38  C   UNL     1      17.677   8.550  29.505  1.00  0.00     0.011 A 
ATOM     39  C   UNL     1      15.896   9.508  30.839  1.00  0.00     0.011 A 
ATOM     40  C   UNL     1      17.456   9.522  28.523  1.00  0.00     0.046 A 
ATOM     41  C   UNL     1      15.665  10.469  29.848  1.00  0.00     0.046 A 
ATOM     42  C   UNL     1      16.435  10.465  28.678  1.00  0.00     0.115 A 
BRANCH  42  43
ATOM     43  O   UNL     1      16.175  11.404  27.688  1.00  0.00    -0.508 OA
ATOM     44  H   UNL     1      15.709  12.278  27.895  1.00  0.00     0.293 HD
ENDBRANCH  42  43
ENDBRANCH  32  37
ENDBRANCH  23  24
ENDBRANCH   6  23
BRANCH   3  45
ATOM     45  O   UNL     1      16.282  -2.768  33.925  1.00  0.00    -0.387 OA
ATOM     46  H   UNL     1      15.367  -2.867  33.559  1.00  0.00     0.211 HD
ENDBRANCH   3  45
BRANCH   4  47
ATOM     47  C   UNL     1      18.448  -0.817  34.987  1.00  0.00     0.191 C 
BRANCH  47  48
ATOM     48  O   UNL     1      17.874  -1.490  36.079  1.00  0.00    -0.394 OA
ATOM     49  H   UNL     1      18.586  -2.060  36.480  1.00  0.00     0.210 HD
ENDBRANCH  47  48
ENDBRANCH   4  47
TORSDOF 14
ENDMDL
MODEL 6
REMARK VINA RESULT:    -5.853     13.071     16.017
REMARK INTER + INTRA:         -10.929
REMARK INTER:                  -9.891
REMARK INTRA:                  -1.038
REMARK UNBOUND:                -1.654
REMARK SMILES C[C@H]1O[C@@H](O[C@H]2[C@H](Oc3cc(O)c4c(c3)O[C@@H](c3ccc(O)cc3)CC4=O)O[C@@H](CO)[C@@H](O)[C@H]2O)[C@@H](O)[C@H](O)[C@@H]1O
REMARK SMILES IDX 6 1 34 2 32 3 29 4 28 5 7 6 5 7 4 8 1 9 2 10 40 11 3 12
REMARK SMILES IDX 38 13 36 14 41 15 39 17 37 19 35 21 8 23 9 24 10 25 15 26
REMARK SMILES IDX 11 27 14 28 13 29 16 30 26 31 17 32 27 33 25 34 12 35 18 37
REMARK SMILES IDX 19 38 24 39 20 40 23 41 21 42 22 43 33 45 30 47 31 48
REMARK H PARENT 41 16 39 18 37 20 35 22 12 36 22 44 33 46 31 49
REMARK Flexibility Score: inf
ROOT
ATOM      1  C   UNL     1      15.110  -0.006  32.499  1.00  0.00     0.221 C 
ATOM      2  C   UNL     1      13.883   0.851  32.062  1.00  0.00     0.181 C 
ATOM      3  C   UNL     1      13.916   1.140  30.566  1.00  0.00     0.177 C 
ATOM      4  C   UNL     1      15.256   1.809  30.264  1.00  0.00     0.179 C 
ATOM      5  O   UNL     1      16.302   0.871  30.473  1.00  0.00    -0.332 OA
ATOM      6  C   UNL     1      16.432   0.499  31.847  1.00  0.00     0.339 C 
ENDROOT
BRANCH   1   7
ATOM      7  O   UNL     1      14.911  -1.382  32.191  1.00  0.00    -0.337 OA
BRANCH   7   8
ATOM      8  C   UNL     1      14.927  -2.180  33.380  1.00  0.00     0.282 C 
ATOM      9  C   UNL     1      16.675  -3.496  31.164  1.00  0.00     0.041 C 
ATOM     10  C   UNL     1      16.175  -4.022  32.505  1.00  0.00     0.150 C 
ATOM     11  C   UNL     1      14.901  -4.907  32.424  1.00  0.00     0.174 C 
ATOM     12  O   UNL     1      16.103  -2.978  33.464  1.00  0.00    -0.344 OA
ATOM     13  C   UNL     1      13.624  -4.044  32.335  1.00  0.00     0.179 C 
ATOM     14  C   UNL     1      13.652  -3.030  33.482  1.00  0.00     0.202 C 
BRANCH  11  15
ATOM     15  O   UNL     1      14.872  -5.737  33.564  1.00  0.00    -0.388 OA
ATOM     16  H   UNL     1      14.820  -5.142  34.364  1.00  0.00     0.211 HD
ENDBRANCH  11  15
BRANCH  13  17
ATOM     17  O   UNL     1      12.479  -4.849  32.427  1.00  0.00    -0.387 OA
ATOM     18  H   UNL     1      12.403  -5.139  33.375  1.00  0.00     0.211 HD
ENDBRANCH  13  17
BRANCH  14  19
ATOM     19  O   UNL     1      12.487  -2.236  33.506  1.00  0.00    -0.385 OA
ATOM     20  H   UNL     1      12.747  -1.315  33.759  1.00  0.00     0.211 HD
ENDBRANCH  14  19
ENDBRANCH   7   8
ENDBRANCH   1   7
BRANCH   2  21
ATOM     21  O   UNL     1      12.674   0.203  32.349  1.00  0.00    -0.387 OA
ATOM     22  H   UNL     1      11.971   0.593  31.759  1.00  0.00     0.211 HD
ENDBRANCH   2  21
BRANCH   6  23
ATOM     23  O   UNL     1      16.983   1.555  32.674  1.00  0.00    -0.462 OA
BRANCH  23  24
ATOM     24  C   UNL     1      16.399   2.801  32.964  1.00  0.00     0.130 A 
ATOM     25  C   UNL     1      15.789   3.080  34.197  1.00  0.00     0.093 A 
ATOM     26  C   UNL     1      16.604   3.863  32.061  1.00  0.00     0.094 A 
ATOM     27  C   UNL     1      15.672   4.399  34.642  1.00  0.00     0.133 A 
ATOM     28  C   UNL     1      16.420   5.192  32.466  1.00  0.00     0.138 A 
ATOM     29  C   UNL     1      16.070   5.457  33.802  1.00  0.00     0.102 A 
ATOM     30  O   UNL     1      16.594   6.252  31.569  1.00  0.00    -0.484 OA
ATOM     31  C   UNL     1      16.198   6.836  34.283  1.00  0.00     0.174 C 
ATOM     32  C   UNL     1      16.990   7.554  31.989  1.00  0.00     0.211 C 
ATOM     33  O   UNL     1      16.205   7.089  35.524  1.00  0.00    -0.294 OA
ATOM     34  C   UNL     1      16.311   7.970  33.318  1.00  0.00     0.131 C 
BRANCH  27  35
ATOM     35  O   UNL     1      15.155   4.654  35.916  1.00  0.00    -0.507 OA
ATOM     36  H   UNL     1      14.309   4.203  36.253  1.00  0.00     0.293 HD
ENDBRANCH  27  35
BRANCH  32  37
ATOM     37  C   UNL     1      16.692   8.562  30.899  1.00  0.00    -0.007 A 
ATOM     38  C   UNL     1      15.652   9.496  31.028  1.00  0.00     0.011 A 
ATOM     39  C   UNL     1      17.439   8.535  29.705  1.00  0.00     0.011 A 
ATOM     40  C   UNL     1      15.400  10.420  30.008  1.00  0.00     0.046 A 
ATOM     41  C   UNL     1      17.197   9.470  28.692  1.00  0.00     0.046 A 
ATOM     42  C   UNL     1      16.187  10.428  28.851  1.00  0.00     0.115 A 
BRANCH  42  43
ATOM     43  O   UNL     1      15.978  11.371  27.853  1.00  0.00    -0.508 OA
ATOM     44  H   UNL     1      16.599  11.447  27.057  1.00  0.00     0.293 HD
ENDBRANCH  42  43
ENDBRANCH  32  37
ENDBRANCH  23  24
ENDBRANCH   6  23
BRANCH   3  45
ATOM     45  O   UNL     1      13.721  -0.066  29.856  1.00  0.00    -0.387 OA
ATOM     46  H   UNL     1      13.446   0.117  28.923  1.00  0.00     0.211 HD
ENDBRANCH   3  45
BRANCH   4  47
ATOM     47  C   UNL     1      15.319   2.387  28.827  1.00  0.00     0.191 C 
BRANCH  47  48
ATOM     48  O   UNL     1      14.046   2.417  28.229  1.00  0.00    -0.394 OA
ATOM     49  H   UNL     1      13.440   2.903  28.853  1.00  0.00     0.210 HD
ENDBRANCH  47  48
ENDBRANCH   4  47
TORSDOF 14
ENDMDL
MODEL 7
REMARK VINA RESULT:    -5.826     12.565     15.174
REMARK INTER + INTRA:         -10.886
REMARK INTER:                  -9.501
REMARK INTRA:                  -1.384
REMARK UNBOUND:                -1.654
REMARK SMILES C[C@H]1O[C@@H](O[C@H]2[C@H](Oc3cc(O)c4c(c3)O[C@@H](c3ccc(O)cc3)CC4=O)O[C@@H](CO)[C@@H](O)[C@H]2O)[C@@H](O)[C@H](O)[C@@H]1O
REMARK SMILES IDX 6 1 34 2 32 3 29 4 28 5 7 6 5 7 4 8 1 9 2 10 40 11 3 12
REMARK SMILES IDX 38 13 36 14 41 15 39 17 37 19 35 21 8 23 9 24 10 25 15 26
REMARK SMILES IDX 11 27 14 28 13 29 16 30 26 31 17 32 27 33 25 34 12 35 18 37
REMARK SMILES IDX 19 38 24 39 20 40 23 41 21 42 22 43 33 45 30 47 31 48
REMARK H PARENT 41 16 39 18 37 20 35 22 12 36 22 44 33 46 31 49
REMARK Flexibility Score: inf
ROOT
ATOM      1  C   UNL     1      15.059   0.421  30.973  1.00  0.00     0.221 C 
ATOM      2  C   UNL     1      15.112   1.164  29.602  1.00  0.00     0.181 C 
ATOM      3  C   UNL     1      16.171   0.561  28.688  1.00  0.00     0.177 C 
ATOM      4  C   UNL     1      17.498   0.599  29.446  1.00  0.00     0.179 C 
ATOM      5  O   UNL     1      17.428  -0.289  30.552  1.00  0.00    -0.332 OA
ATOM      6  C   UNL     1      16.485   0.141  31.536  1.00  0.00     0.339 C 
ENDROOT
BRANCH   1   7
ATOM      7  O   UNL     1      14.329  -0.797  30.869  1.00  0.00    -0.337 OA
BRANCH   7   8
ATOM      8  C   UNL     1      14.048  -1.337  32.165  1.00  0.00     0.282 C 
ATOM      9  C   UNL     1      14.671  -3.625  30.145  1.00  0.00     0.041 C 
ATOM     10  C   UNL     1      14.100  -3.649  31.559  1.00  0.00     0.150 C 
ATOM     11  C   UNL     1      12.552  -3.752  31.636  1.00  0.00     0.174 C 
ATOM     12  O   UNL     1      14.657  -2.610  32.349  1.00  0.00    -0.344 OA
ATOM     13  C   UNL     1      11.888  -2.372  31.438  1.00  0.00     0.179 C 
ATOM     14  C   UNL     1      12.534  -1.387  32.417  1.00  0.00     0.202 C 
BRANCH  11  15
ATOM     15  O   UNL     1      12.212  -4.302  32.889  1.00  0.00    -0.388 OA
ATOM     16  H   UNL     1      12.433  -3.620  33.583  1.00  0.00     0.211 HD
ENDBRANCH  11  15
BRANCH  13  17
ATOM     17  O   UNL     1      10.507  -2.453  31.671  1.00  0.00    -0.387 OA
ATOM     18  H   UNL     1      10.330  -1.988  32.532  1.00  0.00     0.211 HD
ENDBRANCH  13  17
BRANCH  14  19
ATOM     19  O   UNL     1      11.942  -0.110  32.339  1.00  0.00    -0.385 OA
ATOM     20  H   UNL     1      12.648   0.567  32.486  1.00  0.00     0.211 HD
ENDBRANCH  14  19
ENDBRANCH   7   8
ENDBRANCH   1   7
BRANCH   2  21
ATOM     21  O   UNL     1      13.881   1.101  28.935  1.00  0.00    -0.387 OA
ATOM     22  H   UNL     1      13.227   1.651  29.450  1.00  0.00     0.211 HD
ENDBRANCH   2  21
BRANCH   6  23
ATOM     23  O   UNL     1      16.926   1.304  32.280  1.00  0.00    -0.462 OA
BRANCH  23  24
ATOM     24  C   UNL     1      16.435   2.618  32.174  1.00  0.00     0.130 A 
ATOM     25  C   UNL     1      15.484   3.142  33.064  1.00  0.00     0.093 A 
ATOM     26  C   UNL     1      17.061   3.497  31.268  1.00  0.00     0.094 A 
ATOM     27  C   UNL     1      15.386   4.522  33.257  1.00  0.00     0.133 A 
ATOM     28  C   UNL     1      16.916   4.884  31.398  1.00  0.00     0.138 A 
ATOM     29  C   UNL     1      16.170   5.394  32.477  1.00  0.00     0.102 A 
ATOM     30  O   UNL     1      17.510   5.763  30.486  1.00  0.00    -0.484 OA
ATOM     31  C   UNL     1      16.296   6.822  32.781  1.00  0.00     0.174 C 
ATOM     32  C   UNL     1      17.897   7.087  30.840  1.00  0.00     0.211 C 
ATOM     33  O   UNL     1      15.914   7.281  33.899  1.00  0.00    -0.294 OA
ATOM     34  C   UNL     1      16.866   7.766  31.774  1.00  0.00     0.131 C 
BRANCH  27  35
ATOM     35  O   UNL     1      14.505   5.023  34.221  1.00  0.00    -0.507 OA
ATOM     36  H   UNL     1      14.834   5.523  35.042  1.00  0.00     0.293 HD
ENDBRANCH  27  35
BRANCH  32  37
ATOM     37  C   UNL     1      18.110   7.915  29.589  1.00  0.00    -0.007 A 
ATOM     38  C   UNL     1      18.100   7.331  28.312  1.00  0.00     0.011 A 
ATOM     39  C   UNL     1      18.374   9.294  29.706  1.00  0.00     0.011 A 
ATOM     40  C   UNL     1      18.295   8.119  27.172  1.00  0.00     0.046 A 
ATOM     41  C   UNL     1      18.552  10.084  28.564  1.00  0.00     0.046 A 
ATOM     42  C   UNL     1      18.494   9.499  27.293  1.00  0.00     0.115 A 
BRANCH  42  43
ATOM     43  O   UNL     1      18.641  10.298  26.166  1.00  0.00    -0.508 OA
ATOM     44  H   UNL     1      18.875   9.904  25.264  1.00  0.00     0.293 HD
ENDBRANCH  42  43
ENDBRANCH  32  37
ENDBRANCH  23  24
ENDBRANCH   6  23
BRANCH   3  45
ATOM     45  O   UNL     1      15.777  -0.745  28.319  1.00  0.00    -0.387 OA
ATOM     46  H   UNL     1      16.073  -0.955  27.398  1.00  0.00     0.211 HD
ENDBRANCH   3  45
BRANCH   4  47
ATOM     47  C   UNL     1      18.707   0.252  28.541  1.00  0.00     0.191 C 
BRANCH  47  48
ATOM     48  O   UNL     1      18.378   0.364  27.178  1.00  0.00    -0.394 OA
ATOM     49  H   UNL     1      18.071   1.300  27.026  1.00  0.00     0.210 HD
ENDBRANCH  47  48
ENDBRANCH   4  47
TORSDOF 14
ENDMDL
MODEL 8
REMARK VINA RESULT:    -5.762     14.259     16.671
REMARK INTER + INTRA:         -10.784
REMARK INTER:                  -8.689
REMARK INTRA:                  -2.095
REMARK UNBOUND:                -1.654
REMARK SMILES C[C@H]1O[C@@H](O[C@H]2[C@H](Oc3cc(O)c4c(c3)O[C@@H](c3ccc(O)cc3)CC4=O)O[C@@H](CO)[C@@H](O)[C@H]2O)[C@@H](O)[C@H](O)[C@@H]1O
REMARK SMILES IDX 6 1 34 2 32 3 29 4 28 5 7 6 5 7 4 8 1 9 2 10 40 11 3 12
REMARK SMILES IDX 38 13 36 14 41 15 39 17 37 19 35 21 8 23 9 24 10 25 15 26
REMARK SMILES IDX 11 27 14 28 13 29 16 30 26 31 17 32 27 33 25 34 12 35 18 37
REMARK SMILES IDX 19 38 24 39 20 40 23 41 21 42 22 43 33 45 30 47 31 48
REMARK H PARENT 41 16 39 18 37 20 35 22 12 36 22 44 33 46 31 49
REMARK Flexibility Score: inf
ROOT
ATOM      1  C   UNL     1      15.167  -3.818  31.802  1.00  0.00     0.221 C 
ATOM      2  C   UNL     1      15.366  -5.350  31.587  1.00  0.00     0.181 C 
ATOM      3  C   UNL     1      15.721  -6.050  32.893  1.00  0.00     0.177 C 
ATOM      4  C   UNL     1      16.959  -5.354  33.457  1.00  0.00     0.179 C 
ATOM      5  O   UNL     1      16.616  -4.030  33.840  1.00  0.00    -0.332 OA
ATOM      6  C   UNL     1      16.273  -3.213  32.718  1.00  0.00     0.339 C 
ENDROOT
BRANCH   1   7
ATOM      7  O   UNL     1      13.879  -3.539  32.344  1.00  0.00    -0.337 OA
BRANCH   7   8
ATOM      8  C   UNL     1      13.036  -2.921  31.366  1.00  0.00     0.282 C 
ATOM      9  C   UNL     1      13.908  -0.844  33.515  1.00  0.00     0.041 C 
ATOM     10  C   UNL     1      12.858  -0.779  32.412  1.00  0.00     0.150 C 
ATOM     11  C   UNL     1      11.406  -1.075  32.876  1.00  0.00     0.174 C 
ATOM     12  O   UNL     1      13.271  -1.521  31.274  1.00  0.00    -0.344 OA
ATOM     13  C   UNL     1      11.146  -2.593  32.974  1.00  0.00     0.179 C 
ATOM     14  C   UNL     1      11.559  -3.235  31.646  1.00  0.00     0.202 C 
BRANCH  11  15
ATOM     15  O   UNL     1      10.522  -0.469  31.959  1.00  0.00    -0.388 OA
ATOM     16  H   UNL     1      10.744  -0.823  31.053  1.00  0.00     0.211 HD
ENDBRANCH  11  15
BRANCH  13  17
ATOM     17  O   UNL     1       9.791  -2.845  33.235  1.00  0.00    -0.387 OA
ATOM     18  H   UNL     1       9.294  -2.013  33.016  1.00  0.00     0.211 HD
ENDBRANCH  13  17
BRANCH  14  19
ATOM     19  O   UNL     1      11.299  -4.621  31.633  1.00  0.00    -0.385 OA
ATOM     20  H   UNL     1      10.846  -4.857  32.479  1.00  0.00     0.211 HD
ENDBRANCH  14  19
ENDBRANCH   7   8
ENDBRANCH   1   7
BRANCH   2  21
ATOM     21  O   UNL     1      14.209  -5.952  31.076  1.00  0.00    -0.387 OA
ATOM     22  H   UNL     1      13.611  -5.228  30.738  1.00  0.00     0.211 HD
ENDBRANCH   2  21
BRANCH   6  23
ATOM     23  O   UNL     1      17.414  -2.862  31.897  1.00  0.00    -0.462 OA
BRANCH  23  24
ATOM     24  C   UNL     1      17.518  -1.783  31.000  1.00  0.00     0.130 A 
ATOM     25  C   UNL     1      17.554  -1.961  29.608  1.00  0.00     0.093 A 
ATOM     26  C   UNL     1      17.385  -0.475  31.506  1.00  0.00     0.094 A 
ATOM     27  C   UNL     1      17.163  -0.924  28.756  1.00  0.00     0.133 A 
ATOM     28  C   UNL     1      17.066   0.593  30.658  1.00  0.00     0.138 A 
ATOM     29  C   UNL     1      16.836   0.336  29.293  1.00  0.00     0.102 A 
ATOM     30  O   UNL     1      16.960   1.900  31.147  1.00  0.00    -0.484 OA
ATOM     31  C   UNL     1      16.198   1.388  28.497  1.00  0.00     0.174 C 
ATOM     32  C   UNL     1      16.122   2.878  30.540  1.00  0.00     0.211 C 
ATOM     33  O   UNL     1      15.684   1.122  27.370  1.00  0.00    -0.294 OA
ATOM     34  C   UNL     1      16.152   2.795  28.994  1.00  0.00     0.131 C 
BRANCH  27  35
ATOM     35  O   UNL     1      17.107  -1.149  27.377  1.00  0.00    -0.507 OA
ATOM     36  H   UNL     1      17.616  -1.909  26.935  1.00  0.00     0.293 HD
ENDBRANCH  27  35
BRANCH  32  37
ATOM     37  C   UNL     1      16.522   4.262  31.008  1.00  0.00    -0.007 A 
ATOM     38  C   UNL     1      16.124   4.758  32.260  1.00  0.00     0.011 A 
ATOM     39  C   UNL     1      17.269   5.096  30.152  1.00  0.00     0.011 A 
ATOM     40  C   UNL     1      16.511   6.039  32.670  1.00  0.00     0.046 A 
ATOM     41  C   UNL     1      17.669   6.370  30.570  1.00  0.00     0.046 A 
ATOM     42  C   UNL     1      17.305   6.837  31.839  1.00  0.00     0.115 A 
BRANCH  42  43
ATOM     43  O   UNL     1      17.735   8.090  32.255  1.00  0.00    -0.508 OA
ATOM     44  H   UNL     1      18.612   8.214  32.745  1.00  0.00     0.293 HD
ENDBRANCH  42  43
ENDBRANCH  32  37
ENDBRANCH  23  24
ENDBRANCH   6  23
BRANCH   3  45
ATOM     45  O   UNL     1      14.608  -6.000  33.763  1.00  0.00    -0.387 OA
ATOM     46  H   UNL     1      14.771  -5.367  34.507  1.00  0.00     0.211 HD
ENDBRANCH   3  45
BRANCH   4  47
ATOM     47  C   UNL     1      17.578  -6.125  34.651  1.00  0.00     0.191 C 
BRANCH  47  48
ATOM     48  O   UNL     1      16.796  -5.989  35.812  1.00  0.00    -0.394 OA
ATOM     49  H   UNL     1      16.515  -5.035  35.866  1.00  0.00     0.210 HD
ENDBRANCH  47  48
ENDBRANCH   4  47
TORSDOF 14
ENDMDL
