MODEL 1
REMARK VINA RESULT:    -3.962      0.000      0.000
REMARK INTER + INTRA:          -5.804
REMARK INTER:                  -5.352
REMARK INTRA:                  -0.452
REMARK UNBOUND:                -0.452
REMARK SMILES CCCCCCCC(=O)[O-]
REMARK SMILES IDX 5 1 6 2 7 3 8 4 9 5 10 6 4 7 3 8 2 9 1 10
REMARK H PARENT
REMARK Flexibility Score: inf
ROOT
ATOM      1  C   UNL     1      11.295  14.418  22.379  1.00  0.00     0.000 C 
ENDROOT
BRANCH   1   2
ATOM      2  C   UNL     1      10.079  13.747  21.723  1.00  0.00     0.006 C 
BRANCH   2   3
ATOM      3  C   UNL     1      10.259  13.538  20.213  1.00  0.00     0.053 C 
BRANCH   3   4
ATOM      4  C   UNL     1      10.129  14.840  19.488  1.00  0.00     0.041 C 
ATOM      5  O   UNL     1      11.039  15.225  18.707  1.00  0.00    -0.550 OA
ATOM      6  O   UNL     1       9.024  15.652  19.711  1.00  0.00    -0.550 OA
ENDBRANCH   3   4
ENDBRANCH   2   3
ENDBRANCH   1   2
BRANCH   1   7
ATOM      7  C   UNL     1      10.893  15.504  23.392  1.00  0.00     0.000 C 
BRANCH   7   8
ATOM      8  C   UNL     1       9.623  16.269  22.977  1.00  0.00    -0.000 C 
BRANCH   8   9
ATOM      9  C   UNL     1       9.860  17.718  22.513  1.00  0.00    -0.003 C 
ATOM     10  C   UNL     1      11.339  18.099  22.472  1.00  0.00     0.004 C 
ENDBRANCH   8   9
ENDBRANCH   7   8
ENDBRANCH   1   7
TORSDOF 6
ENDMDL
MODEL 2
REMARK VINA RESULT:    -3.855      2.783      4.460
REMARK INTER + INTRA:          -5.659
REMARK INTER:                  -5.476
REMARK INTRA:                  -0.183
REMARK UNBOUND:                -0.452
REMARK SMILES CCCCCCCC(=O)[O-]
REMARK SMILES IDX 5 1 6 2 7 3 8 4 9 5 10 6 4 7 3 8 2 9 1 10
REMARK H PARENT
REMARK Flexibility Score: inf
ROOT
ATOM      1  C   UNL     1      10.180  12.515  22.857  1.00  0.00     0.000 C 
ENDROOT
BRANCH   1   2
ATOM      2  C   UNL     1      10.227  13.795  22.008  1.00  0.00     0.006 C 
BRANCH   2   3
ATOM      3  C   UNL     1      10.243  13.507  20.501  1.00  0.00     0.053 C 
BRANCH   3   4
ATOM      4  C   UNL     1      10.078  14.775  19.725  1.00  0.00     0.041 C 
ATOM      5  O   UNL     1       9.114  15.546  19.968  1.00  0.00    -0.550 OA
ATOM      6  O   UNL     1      10.964  15.081  18.699  1.00  0.00    -0.550 OA
ENDBRANCH   3   4
ENDBRANCH   2   3
ENDBRANCH   1   2
BRANCH   1   7
ATOM      7  C   UNL     1       9.832  12.797  24.329  1.00  0.00     0.000 C 
BRANCH   7   8
ATOM      8  C   UNL     1       9.702  11.513  25.170  1.00  0.00    -0.000 C 
BRANCH   8   9
ATOM      9  C   UNL     1       8.803  10.423  24.558  1.00  0.00    -0.003 C 
ATOM     10  C   UNL     1       9.532   9.098  24.344  1.00  0.00     0.004 C 
ENDBRANCH   8   9
ENDBRANCH   7   8
ENDBRANCH   1   7
TORSDOF 6
ENDMDL
MODEL 3
REMARK VINA RESULT:    -3.754      1.391      2.216
REMARK INTER + INTRA:          -5.523
REMARK INTER:                  -5.229
REMARK INTRA:                  -0.294
REMARK UNBOUND:                -0.452
REMARK SMILES CCCCCCCC(=O)[O-]
REMARK SMILES IDX 5 1 6 2 7 3 8 4 9 5 10 6 4 7 3 8 2 9 1 10
REMARK H PARENT
REMARK Flexibility Score: inf
ROOT
ATOM      1  C   UNL     1      11.197  16.301  22.813  1.00  0.00     0.000 C 
ENDROOT
BRANCH   1   2
ATOM      2  C   UNL     1      10.799  15.047  22.018  1.00  0.00     0.006 C 
BRANCH   2   3
ATOM      3  C   UNL     1       9.992  15.377  20.756  1.00  0.00     0.053 C 
BRANCH   3   4
ATOM      4  C   UNL     1      10.582  14.690  19.565  1.00  0.00     0.041 C 
ATOM      5  O   UNL     1      10.497  13.440  19.447  1.00  0.00    -0.550 OA
ATOM      6  O   UNL     1      11.269  15.427  18.608  1.00  0.00    -0.550 OA
ENDBRANCH   3   4
ENDBRANCH   2   3
ENDBRANCH   1   2
BRANCH   1   7
ATOM      7  C   UNL     1      10.891  17.602  22.051  1.00  0.00     0.000 C 
BRANCH   7   8
ATOM      8  C   UNL     1      11.148  18.864  22.895  1.00  0.00    -0.000 C 
BRANCH   8   9
ATOM      9  C   UNL     1      10.058  19.947  22.794  1.00  0.00    -0.003 C 
ATOM     10  C   UNL     1       8.922  19.565  21.847  1.00  0.00     0.004 C 
ENDBRANCH   8   9
ENDBRANCH   7   8
ENDBRANCH   1   7
TORSDOF 6
ENDMDL
MODEL 4
REMARK VINA RESULT:    -3.734      2.079      3.608
REMARK INTER + INTRA:          -5.496
REMARK INTER:                  -5.217
REMARK INTRA:                  -0.280
REMARK UNBOUND:                -0.452
REMARK SMILES CCCCCCCC(=O)[O-]
REMARK SMILES IDX 5 1 6 2 7 3 8 4 9 5 10 6 4 7 3 8 2 9 1 10
REMARK H PARENT
REMARK Flexibility Score: inf
ROOT
ATOM      1  C   UNL     1      10.402  15.254  23.326  1.00  0.00     0.000 C 
ENDROOT
BRANCH   1   2
ATOM      2  C   UNL     1      11.171  15.016  22.017  1.00  0.00     0.006 C 
BRANCH   2   3
ATOM      3  C   UNL     1      10.488  15.660  20.803  1.00  0.00     0.053 C 
BRANCH   3   4
ATOM      4  C   UNL     1      10.736  14.847  19.572  1.00  0.00     0.041 C 
ATOM      5  O   UNL     1      11.214  15.387  18.541  1.00  0.00    -0.550 OA
ATOM      6  O   UNL     1      10.392  13.501  19.549  1.00  0.00    -0.550 OA
ENDBRANCH   3   4
ENDBRANCH   2   3
ENDBRANCH   1   2
BRANCH   1   7
ATOM      7  C   UNL     1      10.113  13.947  24.085  1.00  0.00     0.000 C 
BRANCH   7   8
ATOM      8  C   UNL     1      10.031  12.721  23.157  1.00  0.00    -0.000 C 
BRANCH   8   9
ATOM      9  C   UNL     1       9.525  11.431  23.827  1.00  0.00    -0.003 C 
ATOM     10  C   UNL     1       9.717  11.430  25.343  1.00  0.00     0.004 C 
ENDBRANCH   8   9
ENDBRANCH   7   8
ENDBRANCH   1   7
TORSDOF 6
ENDMDL
MODEL 5
REMARK VINA RESULT:    -3.721      3.833      4.784
REMARK INTER + INTRA:          -5.479
REMARK INTER:                  -5.101
REMARK INTRA:                  -0.378
REMARK UNBOUND:                -0.452
REMARK SMILES CCCCCCCC(=O)[O-]
REMARK SMILES IDX 5 1 6 2 7 3 8 4 9 5 10 6 4 7 3 8 2 9 1 10
REMARK H PARENT
REMARK Flexibility Score: inf
ROOT
ATOM      1  C   UNL     1      10.844  13.913  23.326  1.00  0.00     0.000 C 
ENDROOT
BRANCH   1   2
ATOM      2  C   UNL     1      10.276  12.567  22.848  1.00  0.00     0.006 C 
BRANCH   2   3
ATOM      3  C   UNL     1       9.196  12.013  23.787  1.00  0.00     0.053 C 
BRANCH   3   4
ATOM      4  C   UNL     1       9.690  10.786  24.485  1.00  0.00     0.041 C 
ATOM      5  O   UNL     1       9.932  10.814  25.720  1.00  0.00    -0.550 OA
ATOM      6  O   UNL     1       9.932   9.625  23.762  1.00  0.00    -0.550 OA
ENDBRANCH   3   4
ENDBRANCH   2   3
ENDBRANCH   1   2
BRANCH   1   7
ATOM      7  C   UNL     1      10.952  14.943  22.189  1.00  0.00     0.000 C 
BRANCH   7   8
ATOM      8  C   UNL     1       9.596  15.249  21.527  1.00  0.00    -0.000 C 
BRANCH   8   9
ATOM      9  C   UNL     1       9.584  15.143  19.991  1.00  0.00    -0.003 C 
ATOM     10  C   UNL     1      10.579  14.115  19.454  1.00  0.00     0.004 C 
ENDBRANCH   8   9
ENDBRANCH   7   8
ENDBRANCH   1   7
TORSDOF 6
ENDMDL
MODEL 6
REMARK VINA RESULT:    -3.672      1.686      2.105
REMARK INTER + INTRA:          -5.412
REMARK INTER:                  -5.060
REMARK INTRA:                  -0.352
REMARK UNBOUND:                -0.452
REMARK SMILES CCCCCCCC(=O)[O-]
REMARK SMILES IDX 5 1 6 2 7 3 8 4 9 5 10 6 4 7 3 8 2 9 1 10
REMARK H PARENT
REMARK Flexibility Score: inf
ROOT
ATOM      1  C   UNL     1      11.044  14.735  22.491  1.00  0.00     0.000 C 
ENDROOT
BRANCH   1   2
ATOM      2  C   UNL     1      10.370  15.738  21.541  1.00  0.00     0.006 C 
BRANCH   2   3
ATOM      3  C   UNL     1       9.649  15.054  20.372  1.00  0.00     0.053 C 
BRANCH   3   4
ATOM      4  C   UNL     1      10.624  14.687  19.299  1.00  0.00     0.041 C 
ATOM      5  O   UNL     1      10.876  13.478  19.058  1.00  0.00    -0.550 OA
ATOM      6  O   UNL     1      11.293  15.683  18.598  1.00  0.00    -0.550 OA
ENDBRANCH   3   4
ENDBRANCH   2   3
ENDBRANCH   1   2
BRANCH   1   7
ATOM      7  C   UNL     1      10.403  14.727  23.890  1.00  0.00     0.000 C 
BRANCH   7   8
ATOM      8  C   UNL     1      10.871  15.903  24.768  1.00  0.00    -0.000 C 
BRANCH   8   9
ATOM      9  C   UNL     1       9.743  16.667  25.486  1.00  0.00    -0.003 C 
ATOM     10  C   UNL     1       8.748  17.308  24.521  1.00  0.00     0.004 C 
ENDBRANCH   8   9
ENDBRANCH   7   8
ENDBRANCH   1   7
TORSDOF 6
ENDMDL
MODEL 7
REMARK VINA RESULT:    -3.580     15.093     16.198
REMARK INTER + INTRA:          -5.288
REMARK INTER:                  -4.968
REMARK INTRA:                  -0.320
REMARK UNBOUND:                -0.452
REMARK SMILES CCCCCCCC(=O)[O-]
REMARK SMILES IDX 5 1 6 2 7 3 8 4 9 5 10 6 4 7 3 8 2 9 1 10
REMARK H PARENT
REMARK Flexibility Score: inf
ROOT
ATOM      1  C   UNL     1      23.657   7.960  29.425  1.00  0.00     0.000 C 
ENDROOT
BRANCH   1   2
ATOM      2  C   UNL     1      24.123   6.848  28.471  1.00  0.00     0.006 C 
BRANCH   2   3
ATOM      3  C   UNL     1      24.442   7.370  27.064  1.00  0.00     0.053 C 
BRANCH   3   4
ATOM      4  C   UNL     1      23.650   6.623  26.039  1.00  0.00     0.041 C 
ATOM      5  O   UNL     1      24.202   6.221  24.981  1.00  0.00    -0.550 OA
ATOM      6  O   UNL     1      22.290   6.413  26.229  1.00  0.00    -0.550 OA
ENDBRANCH   3   4
ENDBRANCH   2   3
ENDBRANCH   1   2
BRANCH   1   7
ATOM      7  C   UNL     1      24.058   9.362  28.935  1.00  0.00     0.000 C 
BRANCH   7   8
ATOM      8  C   UNL     1      22.942  10.405  29.129  1.00  0.00    -0.000 C 
BRANCH   8   9
ATOM      9  C   UNL     1      22.864  11.485  28.034  1.00  0.00    -0.003 C 
ATOM     10  C   UNL     1      22.016  11.061  26.835  1.00  0.00     0.004 C 
ENDBRANCH   8   9
ENDBRANCH   7   8
ENDBRANCH   1   7
TORSDOF 6
ENDMDL
MODEL 8
REMARK VINA RESULT:    -3.390     17.497     18.979
REMARK INTER + INTRA:          -5.032
REMARK INTER:                  -4.706
REMARK INTRA:                  -0.326
REMARK UNBOUND:                -0.452
REMARK SMILES CCCCCCCC(=O)[O-]
REMARK SMILES IDX 5 1 6 2 7 3 8 4 9 5 10 6 4 7 3 8 2 9 1 10
REMARK H PARENT
REMARK Flexibility Score: inf
ROOT
ATOM      1  C   UNL     1      23.621   3.505  28.570  1.00  0.00     0.000 C 
ENDROOT
BRANCH   1   2
ATOM      2  C   UNL     1      24.074   4.560  27.549  1.00  0.00     0.006 C 
BRANCH   2   3
ATOM      3  C   UNL     1      23.048   5.687  27.366  1.00  0.00     0.053 C 
BRANCH   3   4
ATOM      4  C   UNL     1      23.505   6.641  26.309  1.00  0.00     0.041 C 
ATOM      5  O   UNL     1      23.959   6.209  25.217  1.00  0.00    -0.550 OA
ATOM      6  O   UNL     1      23.474   8.010  26.548  1.00  0.00    -0.550 OA
ENDBRANCH   3   4
ENDBRANCH   2   3
ENDBRANCH   1   2
BRANCH   1   7
ATOM      7  C   UNL     1      24.004   2.075  28.149  1.00  0.00     0.000 C 
BRANCH   7   8
ATOM      8  C   UNL     1      25.275   2.028  27.280  1.00  0.00    -0.000 C 
BRANCH   8   9
ATOM      9  C   UNL     1      25.152   1.191  25.994  1.00  0.00    -0.003 C 
ATOM     10  C   UNL     1      24.804   2.030  24.766  1.00  0.00     0.004 C 
ENDBRANCH   8   9
ENDBRANCH   7   8
ENDBRANCH   1   7
TORSDOF 6
ENDMDL
MODEL 9
REMARK VINA RESULT:    -3.352      2.954      4.640
REMARK INTER + INTRA:          -4.980
REMARK INTER:                  -4.586
REMARK INTRA:                  -0.394
REMARK UNBOUND:                -0.452
REMARK SMILES CCCCCCCC(=O)[O-]
REMARK SMILES IDX 5 1 6 2 7 3 8 4 9 5 10 6 4 7 3 8 2 9 1 10
REMARK H PARENT
REMARK Flexibility Score: inf
ROOT
ATOM      1  C   UNL     1      10.950  15.751  23.313  1.00  0.00     0.000 C 
ENDROOT
BRANCH   1   2
ATOM      2  C   UNL     1      11.296  17.104  22.672  1.00  0.00     0.006 C 
BRANCH   2   3
ATOM      3  C   UNL     1      10.133  18.103  22.731  1.00  0.00     0.053 C 
BRANCH   3   4
ATOM      4  C   UNL     1      10.531  19.322  23.501  1.00  0.00     0.041 C 
ATOM      5  O   UNL     1      10.756  19.247  24.737  1.00  0.00    -0.550 OA
ATOM      6  O   UNL     1      10.605  20.553  22.861  1.00  0.00    -0.550 OA
ENDBRANCH   3   4
ENDBRANCH   2   3
ENDBRANCH   1   2
BRANCH   1   7
ATOM      7  C   UNL     1      11.226  14.566  22.371  1.00  0.00     0.000 C 
BRANCH   7   8
ATOM      8  C   UNL     1      10.004  14.183  21.516  1.00  0.00    -0.000 C 
BRANCH   8   9
ATOM      9  C   UNL     1      10.284  14.040  20.009  1.00  0.00    -0.003 C 
ATOM     10  C   UNL     1      11.042  15.232  19.426  1.00  0.00     0.004 C 
ENDBRANCH   8   9
ENDBRANCH   7   8
ENDBRANCH   1   7
TORSDOF 6
ENDMDL
