MODEL 1
REMARK VINA RESULT:    32.031      0.000      0.000
REMARK INTER + INTRA:          47.369
REMARK INTER:                  47.011
REMARK INTRA:                   0.358
REMARK UNBOUND:                 0.358
REMARK SMILES Cc1cc2c(C(C)C)c(O)c(O)c(C=O)c2c(O)c1-c1c(C)cc2c(C(C)C)c(O)c(O)c(C=O)c2c1O
REMARK SMILES IDX 1 1 2 2 3 3 4 4 16 5 13 6 11 7 9 8 5 9 17 10 19 11 20 12
REMARK SMILES IDX 37 13 21 14 36 15 23 16 22 17 24 18 33 19 25 20 31 21 29 22
REMARK SMILES IDX 38 23 34 25 35 26 26 27 27 28 28 29 32 30 30 32 18 34 6 36
REMARK SMILES IDX 7 37 8 38 14 39 15 40 10 41 12 43
REMARK H PARENT 38 24 32 31 30 33 18 35 10 42 12 44
REMARK Flexibility Score: inf
ROOT
ATOM      1  C   UNL     1      17.373   2.731  11.811  1.00  0.00     0.045 C 
ATOM      2  C   UNL     1      18.533   2.694  12.778  1.00  0.00    -0.039 A 
ATOM      3  C   UNL     1      19.675   1.965  12.448  1.00  0.00     0.013 A 
ATOM      4  C   UNL     1      20.789   1.890  13.311  1.00  0.00    -0.006 A 
ATOM      5  C   UNL     1      20.693   2.476  14.610  1.00  0.00     0.039 A 
ATOM      6  C   UNL     1      21.763   2.277  15.536  1.00  0.00     0.072 A 
ATOM      7  C   UNL     1      22.856   1.459  15.182  1.00  0.00     0.169 A 
ATOM      8  C   UNL     1      22.943   0.905  13.902  1.00  0.00     0.162 A 
ATOM      9  C   UNL     1      21.979   1.206  12.916  1.00  0.00     0.008 A 
ATOM     10  C   UNL     1      19.512   3.205  14.954  1.00  0.00     0.132 A 
ATOM     11  C   UNL     1      18.455   3.332  14.027  1.00  0.00     0.031 A 
ENDROOT
BRANCH  11  12
ATOM     12  C   UNL     1      17.240   4.110  14.384  1.00  0.00     0.031 A 
ATOM     13  C   UNL     1      16.326   3.609  15.334  1.00  0.00     0.132 A 
ATOM     14  C   UNL     1      16.987   5.333  13.744  1.00  0.00    -0.039 A 
ATOM     15  C   UNL     1      15.175   4.370  15.702  1.00  0.00     0.039 A 
ATOM     16  C   UNL     1      15.815   6.032  14.034  1.00  0.00     0.013 A 
ATOM     17  C   UNL     1      17.927   5.872  12.692  1.00  0.00     0.045 C 
ATOM     18  C   UNL     1      14.912   5.603  15.026  1.00  0.00    -0.006 A 
ATOM     19  C   UNL     1      14.252   3.914  16.687  1.00  0.00     0.072 A 
ATOM     20  C   UNL     1      13.736   6.357  15.337  1.00  0.00     0.008 A 
ATOM     21  C   UNL     1      13.015   4.564  16.835  1.00  0.00     0.169 A 
ATOM     22  C   UNL     1      12.737   5.739  16.129  1.00  0.00     0.162 A 
BRANCH  13  23
ATOM     23  O   UNL     1      16.535   2.337  15.878  1.00  0.00    -0.507 OA
ATOM     24  H   UNL     1      16.978   2.171  16.772  1.00  0.00     0.293 HD
ENDBRANCH  13  23
BRANCH  19  25
ATOM     25  C   UNL     1      14.574   2.813  17.627  1.00  0.00     0.264 C 
ATOM     26  O   UNL     1      14.088   1.661  17.474  1.00  0.00    -0.298 OA
ENDBRANCH  19  25
BRANCH  20  27
ATOM     27  C   UNL     1      13.532   7.829  14.932  1.00  0.00     0.017 C 
ATOM     28  C   UNL     1      12.509   8.595  15.796  1.00  0.00     0.012 C 
ATOM     29  C   UNL     1      14.857   8.585  14.766  1.00  0.00     0.012 C 
ENDBRANCH  20  27
BRANCH  21  30
ATOM     30  O   UNL     1      12.063   4.045  17.718  1.00  0.00    -0.504 OA
ATOM     31  H   UNL     1      11.607   4.604  18.428  1.00  0.00     0.293 HD
ENDBRANCH  21  30
BRANCH  22  32
ATOM     32  O   UNL     1      11.449   6.273  16.246  1.00  0.00    -0.504 OA
ATOM     33  H   UNL     1      10.900   6.244  17.095  1.00  0.00     0.293 HD
ENDBRANCH  22  32
ENDBRANCH  11  12
BRANCH  10  34
ATOM     34  O   UNL     1      19.381   3.791  16.218  1.00  0.00    -0.507 OA
ATOM     35  H   UNL     1      19.843   3.451  17.052  1.00  0.00     0.293 HD
ENDBRANCH  10  34
BRANCH   9  36
ATOM     36  C   UNL     1      22.225   0.783  11.458  1.00  0.00     0.017 C 
ATOM     37  C   UNL     1      22.105  -0.736  11.300  1.00  0.00     0.012 C 
ATOM     38  C   UNL     1      23.554   1.303  10.875  1.00  0.00     0.012 C 
ENDBRANCH   9  36
BRANCH   6  39
ATOM     39  C   UNL     1      21.764   2.897  16.876  1.00  0.00     0.264 C 
ATOM     40  O   UNL     1      22.707   3.653  17.230  1.00  0.00    -0.298 OA
ENDBRANCH   6  39
BRANCH   8  41
ATOM     41  O   UNL     1      24.002   0.046  13.601  1.00  0.00    -0.504 OA
ATOM     42  H   UNL     1      24.358  -0.085  12.662  1.00  0.00     0.293 HD
ENDBRANCH   8  41
BRANCH   7  43
ATOM     43  O   UNL     1      23.900   1.202  16.078  1.00  0.00    -0.504 OA
ATOM     44  H   UNL     1      24.021   1.678  16.962  1.00  0.00     0.293 HD
ENDBRANCH   7  43
TORSDOF 11
ENDMDL
MODEL 2
REMARK VINA RESULT:    33.889      5.174      9.398
REMARK INTER + INTRA:          50.096
REMARK INTER:                  48.963
REMARK INTRA:                   1.132
REMARK UNBOUND:                 0.358
REMARK SMILES Cc1cc2c(C(C)C)c(O)c(O)c(C=O)c2c(O)c1-c1c(C)cc2c(C(C)C)c(O)c(O)c(C=O)c2c1O
REMARK SMILES IDX 1 1 2 2 3 3 4 4 16 5 13 6 11 7 9 8 5 9 17 10 19 11 20 12
REMARK SMILES IDX 37 13 21 14 36 15 23 16 22 17 24 18 33 19 25 20 31 21 29 22
REMARK SMILES IDX 38 23 34 25 35 26 26 27 27 28 28 29 32 30 30 32 18 34 6 36
REMARK SMILES IDX 7 37 8 38 14 39 15 40 10 41 12 43
REMARK H PARENT 38 24 32 31 30 33 18 35 10 42 12 44
REMARK Flexibility Score: inf
ROOT
ATOM      1  C   UNL     1      11.757   9.571  17.578  1.00  0.00     0.045 C 
ATOM      2  C   UNL     1      12.528   8.533  16.797  1.00  0.00    -0.039 A 
ATOM      3  C   UNL     1      12.529   7.209  17.236  1.00  0.00     0.013 A 
ATOM      4  C   UNL     1      13.233   6.195  16.552  1.00  0.00    -0.006 A 
ATOM      5  C   UNL     1      14.067   6.560  15.451  1.00  0.00     0.039 A 
ATOM      6  C   UNL     1      14.890   5.559  14.849  1.00  0.00     0.072 A 
ATOM      7  C   UNL     1      14.918   4.255  15.387  1.00  0.00     0.169 A 
ATOM      8  C   UNL     1      14.086   3.910  16.456  1.00  0.00     0.162 A 
ATOM      9  C   UNL     1      13.152   4.833  16.973  1.00  0.00     0.008 A 
ATOM     10  C   UNL     1      14.081   7.922  15.016  1.00  0.00     0.132 A 
ATOM     11  C   UNL     1      13.292   8.890  15.673  1.00  0.00     0.031 A 
ENDROOT
BRANCH  11  12
ATOM     12  C   UNL     1      13.294  10.300  15.201  1.00  0.00     0.031 A 
ATOM     13  C   UNL     1      12.506  10.682  14.096  1.00  0.00     0.132 A 
ATOM     14  C   UNL     1      14.114  11.244  15.839  1.00  0.00    -0.039 A 
ATOM     15  C   UNL     1      12.482  12.042  13.660  1.00  0.00     0.039 A 
ATOM     16  C   UNL     1      14.162  12.551  15.355  1.00  0.00     0.013 A 
ATOM     17  C   UNL     1      14.999  10.852  16.996  1.00  0.00     0.045 C 
ATOM     18  C   UNL     1      13.339  12.991  14.299  1.00  0.00    -0.006 A 
ATOM     19  C   UNL     1      11.667  12.473  12.573  1.00  0.00     0.072 A 
ATOM     20  C   UNL     1      13.375  14.348  13.845  1.00  0.00     0.008 A 
ATOM     21  C   UNL     1      11.861  13.749  12.021  1.00  0.00     0.169 A 
ATOM     22  C   UNL     1      12.744  14.657  12.615  1.00  0.00     0.162 A 
BRANCH  13  23
ATOM     23  O   UNL     1      11.783   9.705  13.402  1.00  0.00    -0.507 OA
ATOM     24  H   UNL     1      10.816   9.476  13.592  1.00  0.00     0.293 HD
ENDBRANCH  13  23
BRANCH  19  25
ATOM     25  C   UNL     1      10.556  11.647  12.039  1.00  0.00     0.264 C 
ATOM     26  O   UNL     1      10.602  11.166  10.875  1.00  0.00    -0.298 OA
ENDBRANCH  19  25
BRANCH  20  27
ATOM     27  C   UNL     1      13.986  15.506  14.657  1.00  0.00     0.017 C 
ATOM     28  C   UNL     1      14.040  16.854  13.909  1.00  0.00     0.012 C 
ATOM     29  C   UNL     1      13.378  15.628  16.061  1.00  0.00     0.012 C 
ENDBRANCH  20  27
BRANCH  21  30
ATOM     30  O   UNL     1      11.144  14.126  10.881  1.00  0.00    -0.504 OA
ATOM     31  H   UNL     1      10.132  14.126  10.841  1.00  0.00     0.293 HD
ENDBRANCH  21  30
BRANCH  22  32
ATOM     32  O   UNL     1      12.966  15.870  11.953  1.00  0.00    -0.504 OA
ATOM     33  H   UNL     1      13.014  16.766  12.418  1.00  0.00     0.293 HD
ENDBRANCH  22  32
ENDBRANCH  11  12
BRANCH  10  34
ATOM     34  O   UNL     1      14.887   8.317  13.942  1.00  0.00    -0.507 OA
ATOM     35  H   UNL     1      15.804   8.731  14.045  1.00  0.00     0.293 HD
ENDBRANCH  10  34
BRANCH   9  36
ATOM     36  C   UNL     1      12.089   4.357  17.978  1.00  0.00     0.017 C 
ATOM     37  C   UNL     1      12.140   5.187  19.264  1.00  0.00     0.012 C 
ATOM     38  C   UNL     1      12.153   2.848  18.284  1.00  0.00     0.012 C 
ENDBRANCH   9  36
BRANCH   6  39
ATOM     39  C   UNL     1      15.734   5.844  13.673  1.00  0.00     0.264 C 
ATOM     40  O   UNL     1      15.646   5.135  12.635  1.00  0.00    -0.298 OA
ENDBRANCH   6  39
BRANCH   8  41
ATOM     41  O   UNL     1      14.182   2.632  17.010  1.00  0.00    -0.504 OA
ATOM     42  H   UNL     1      14.626   1.856  16.537  1.00  0.00     0.293 HD
ENDBRANCH   8  41
BRANCH   7  43
ATOM     43  O   UNL     1      15.747   3.261  14.856  1.00  0.00    -0.504 OA
ATOM     44  H   UNL     1      15.911   3.125  13.867  1.00  0.00     0.293 HD
ENDBRANCH   7  43
TORSDOF 11
ENDMDL
MODEL 3
REMARK VINA RESULT:    34.132      4.882      8.946
REMARK INTER + INTRA:          50.453
REMARK INTER:                  48.560
REMARK INTRA:                   1.893
REMARK UNBOUND:                 0.358
REMARK SMILES Cc1cc2c(C(C)C)c(O)c(O)c(C=O)c2c(O)c1-c1c(C)cc2c(C(C)C)c(O)c(O)c(C=O)c2c1O
REMARK SMILES IDX 1 1 2 2 3 3 4 4 16 5 13 6 11 7 9 8 5 9 17 10 19 11 20 12
REMARK SMILES IDX 37 13 21 14 36 15 23 16 22 17 24 18 33 19 25 20 31 21 29 22
REMARK SMILES IDX 38 23 34 25 35 26 26 27 27 28 28 29 32 30 30 32 18 34 6 36
REMARK SMILES IDX 7 37 8 38 14 39 15 40 10 41 12 43
REMARK H PARENT 38 24 32 31 30 33 18 35 10 42 12 44
REMARK Flexibility Score: inf
ROOT
ATOM      1  C   UNL     1      11.438   8.875  17.272  1.00  0.00     0.045 C 
ATOM      2  C   UNL     1      12.360   7.917  16.555  1.00  0.00    -0.039 A 
ATOM      3  C   UNL     1      12.523   6.624  17.053  1.00  0.00     0.013 A 
ATOM      4  C   UNL     1      13.373   5.685  16.429  1.00  0.00    -0.006 A 
ATOM      5  C   UNL     1      14.180   6.111  15.331  1.00  0.00     0.039 A 
ATOM      6  C   UNL     1      15.144   5.204  14.792  1.00  0.00     0.072 A 
ATOM      7  C   UNL     1      15.329   3.939  15.388  1.00  0.00     0.169 A 
ATOM      8  C   UNL     1      14.521   3.531  16.454  1.00  0.00     0.162 A 
ATOM      9  C   UNL     1      13.461   4.342  16.910  1.00  0.00     0.008 A 
ATOM     10  C   UNL     1      14.026   7.443  14.836  1.00  0.00     0.132 A 
ATOM     11  C   UNL     1      13.099   8.325  15.433  1.00  0.00     0.031 A 
ENDROOT
BRANCH  11  12
ATOM     12  C   UNL     1      12.929   9.701  14.898  1.00  0.00     0.031 A 
ATOM     13  C   UNL     1      13.415  10.812  15.619  1.00  0.00     0.132 A 
ATOM     14  C   UNL     1      12.248   9.895  13.685  1.00  0.00    -0.039 A 
ATOM     15  C   UNL     1      13.280  12.132  15.092  1.00  0.00     0.039 A 
ATOM     16  C   UNL     1      12.035  11.192  13.216  1.00  0.00     0.013 A 
ATOM     17  C   UNL     1      11.681   8.728  12.915  1.00  0.00     0.045 C 
ATOM     18  C   UNL     1      12.564  12.322  13.869  1.00  0.00    -0.006 A 
ATOM     19  C   UNL     1      13.796  13.273  15.773  1.00  0.00     0.072 A 
ATOM     20  C   UNL     1      12.368  13.641  13.348  1.00  0.00     0.008 A 
ATOM     21  C   UNL     1      13.425  14.560  15.351  1.00  0.00     0.169 A 
ATOM     22  C   UNL     1      12.674  14.742  14.186  1.00  0.00     0.162 A 
BRANCH  13  23
ATOM     23  O   UNL     1      13.989  10.609  16.879  1.00  0.00    -0.507 OA
ATOM     24  H   UNL     1      14.177  11.352  17.540  1.00  0.00     0.293 HD
ENDBRANCH  13  23
BRANCH  19  25
ATOM     25  C   UNL     1      14.778  13.161  16.879  1.00  0.00     0.264 C 
ATOM     26  O   UNL     1      15.910  12.639  16.696  1.00  0.00    -0.298 OA
ENDBRANCH  19  25
BRANCH  20  27
ATOM     27  C   UNL     1      11.923  13.932  11.902  1.00  0.00     0.017 C 
ATOM     28  C   UNL     1      12.522  15.217  11.295  1.00  0.00     0.012 C 
ATOM     29  C   UNL     1      12.072  12.712  10.982  1.00  0.00     0.012 C 
ENDBRANCH  20  27
BRANCH  21  30
ATOM     30  O   UNL     1      13.835  15.675  16.091  1.00  0.00    -0.504 OA
ATOM     31  H   UNL     1      13.628  15.788  17.076  1.00  0.00     0.293 HD
ENDBRANCH  21  30
BRANCH  22  32
ATOM     32  O   UNL     1      12.254  16.042  13.883  1.00  0.00    -0.504 OA
ATOM     33  H   UNL     1      12.182  16.785  14.565  1.00  0.00     0.293 HD
ENDBRANCH  22  32
ENDBRANCH  11  12
BRANCH  10  34
ATOM     34  O   UNL     1      14.801   7.897  13.763  1.00  0.00    -0.507 OA
ATOM     35  H   UNL     1      15.036   8.869  13.603  1.00  0.00     0.293 HD
ENDBRANCH  10  34
BRANCH   9  36
ATOM     36  C   UNL     1      12.443   3.772  17.912  1.00  0.00     0.017 C 
ATOM     37  C   UNL     1      12.527   4.504  19.255  1.00  0.00     0.012 C 
ATOM     38  C   UNL     1      12.544   2.246  18.100  1.00  0.00     0.012 C 
ENDBRANCH   9  36
BRANCH   6  39
ATOM     39  C   UNL     1      15.974   5.549  13.622  1.00  0.00     0.264 C 
ATOM     40  O   UNL     1      15.986   4.807  12.605  1.00  0.00    -0.298 OA
ENDBRANCH   6  39
BRANCH   8  41
ATOM     41  O   UNL     1      14.770   2.301  17.067  1.00  0.00    -0.504 OA
ATOM     42  H   UNL     1      14.265   1.456  16.836  1.00  0.00     0.293 HD
ENDBRANCH   8  41
BRANCH   7  43
ATOM     43  O   UNL     1      16.295   3.042  14.919  1.00  0.00    -0.504 OA
ATOM     44  H   UNL     1      17.092   3.307  14.356  1.00  0.00     0.293 HD
ENDBRANCH   7  43
TORSDOF 11
ENDMDL
MODEL 4
REMARK VINA RESULT:    34.571      1.601      2.784
REMARK INTER + INTRA:          51.098
REMARK INTER:                  47.545
REMARK INTRA:                   3.552
REMARK UNBOUND:                 0.358
REMARK SMILES Cc1cc2c(C(C)C)c(O)c(O)c(C=O)c2c(O)c1-c1c(C)cc2c(C(C)C)c(O)c(O)c(C=O)c2c1O
REMARK SMILES IDX 1 1 2 2 3 3 4 4 16 5 13 6 11 7 9 8 5 9 17 10 19 11 20 12
REMARK SMILES IDX 37 13 21 14 36 15 23 16 22 17 24 18 33 19 25 20 31 21 29 22
REMARK SMILES IDX 38 23 34 25 35 26 26 27 27 28 28 29 32 30 30 32 18 34 6 36
REMARK SMILES IDX 7 37 8 38 14 39 15 40 10 41 12 43
REMARK H PARENT 38 24 32 31 30 33 18 35 10 42 12 44
REMARK Flexibility Score: inf
ROOT
ATOM      1  C   UNL     1      17.074   2.539  12.498  1.00  0.00     0.045 C 
ATOM      2  C   UNL     1      18.327   2.618  13.338  1.00  0.00    -0.039 A 
ATOM      3  C   UNL     1      19.491   1.994  12.890  1.00  0.00     0.013 A 
ATOM      4  C   UNL     1      20.691   2.030  13.631  1.00  0.00    -0.006 A 
ATOM      5  C   UNL     1      20.679   2.617  14.933  1.00  0.00     0.039 A 
ATOM      6  C   UNL     1      21.853   2.526  15.742  1.00  0.00     0.072 A 
ATOM      7  C   UNL     1      22.974   1.809  15.275  1.00  0.00     0.169 A 
ATOM      8  C   UNL     1      22.977   1.252  13.992  1.00  0.00     0.162 A 
ATOM      9  C   UNL     1      21.892   1.454  13.113  1.00  0.00     0.008 A 
ATOM     10  C   UNL     1      19.478   3.238  15.399  1.00  0.00     0.132 A 
ATOM     11  C   UNL     1      18.322   3.258  14.589  1.00  0.00     0.031 A 
ENDROOT
BRANCH  11  12
ATOM     12  C   UNL     1      17.085   3.925  15.071  1.00  0.00     0.031 A 
ATOM     13  C   UNL     1      16.350   4.770  14.214  1.00  0.00     0.132 A 
ATOM     14  C   UNL     1      16.668   3.739  16.398  1.00  0.00    -0.039 A 
ATOM     15  C   UNL     1      15.144   5.387  14.665  1.00  0.00     0.039 A 
ATOM     16  C   UNL     1      15.542   4.416  16.867  1.00  0.00     0.013 A 
ATOM     17  C   UNL     1      17.460   2.875  17.349  1.00  0.00     0.045 C 
ATOM     18  C   UNL     1      14.741   5.212  16.026  1.00  0.00    -0.006 A 
ATOM     19  C   UNL     1      14.353   6.213  13.813  1.00  0.00     0.072 A 
ATOM     20  C   UNL     1      13.565   5.864  16.517  1.00  0.00     0.008 A 
ATOM     21  C   UNL     1      13.324   6.995  14.363  1.00  0.00     0.169 A 
ATOM     22  C   UNL     1      12.970   6.864  15.710  1.00  0.00     0.162 A 
BRANCH  13  23
ATOM     23  O   UNL     1      16.841   5.035  12.930  1.00  0.00    -0.507 OA
ATOM     24  H   UNL     1      17.631   4.555  12.518  1.00  0.00     0.293 HD
ENDBRANCH  13  23
BRANCH  19  25
ATOM     25  C   UNL     1      14.526   6.230  12.340  1.00  0.00     0.264 C 
ATOM     26  O   UNL     1      14.448   5.171  11.662  1.00  0.00    -0.298 OA
ENDBRANCH  19  25
BRANCH  20  27
ATOM     27  C   UNL     1      12.864   5.483  17.835  1.00  0.00     0.017 C 
ATOM     28  C   UNL     1      12.722   3.965  18.069  1.00  0.00     0.012 C 
ATOM     29  C   UNL     1      13.446   6.221  19.048  1.00  0.00     0.012 C 
ENDBRANCH  20  27
BRANCH  21  30
ATOM     30  O   UNL     1      12.628   7.894  13.548  1.00  0.00    -0.504 OA
ATOM     31  H   UNL     1      12.192   7.622  12.676  1.00  0.00     0.293 HD
ENDBRANCH  21  30
BRANCH  22  32
ATOM     32  O   UNL     1      12.007   7.747  16.213  1.00  0.00    -0.504 OA
ATOM     33  H   UNL     1      11.173   7.453  16.704  1.00  0.00     0.293 HD
ENDBRANCH  22  32
ENDBRANCH  11  12
BRANCH  10  34
ATOM     34  O   UNL     1      19.426   3.821  16.671  1.00  0.00    -0.507 OA
ATOM     35  H   UNL     1      19.959   3.495  17.466  1.00  0.00     0.293 HD
ENDBRANCH  10  34
BRANCH   9  36
ATOM     36  C   UNL     1      22.021   1.041  11.637  1.00  0.00     0.017 C 
ATOM     37  C   UNL     1      22.021  -0.483  11.492  1.00  0.00     0.012 C 
ATOM     38  C   UNL     1      23.231   1.671  10.919  1.00  0.00     0.012 C 
ENDBRANCH   9  36
BRANCH   6  39
ATOM     39  C   UNL     1      21.937   3.157  17.073  1.00  0.00     0.264 C 
ATOM     40  O   UNL     1      22.568   4.235  17.232  1.00  0.00    -0.298 OA
ENDBRANCH   6  39
BRANCH   8  41
ATOM     41  O   UNL     1      24.073   0.491  13.581  1.00  0.00    -0.504 OA
ATOM     42  H   UNL     1      23.993  -0.301  12.956  1.00  0.00     0.293 HD
ENDBRANCH   8  41
BRANCH   7  43
ATOM     43  O   UNL     1      24.125   1.657  16.056  1.00  0.00    -0.504 OA
ATOM     44  H   UNL     1      24.176   1.086  16.889  1.00  0.00     0.293 HD
ENDBRANCH   7  43
TORSDOF 11
ENDMDL
