MODEL 1
REMARK VINA RESULT:    -5.082      0.000      0.000
REMARK INTER + INTRA:          -6.262
REMARK INTER:                  -5.973
REMARK INTRA:                  -0.289
REMARK UNBOUND:                -0.289
REMARK SMILES O=c1cc(-c2ccc(O)c(O)c2)oc2cc(O)cc(O)c12
REMARK SMILES IDX 4 1 3 2 2 3 1 4 21 5 19 6 18 7 16 8 15 9 14 10 13 11 5 12
REMARK SMILES IDX 6 13 7 14 8 15 12 16 10 17 9 18 11 20 20 22 17 24
REMARK H PARENT 9 19 11 21 20 23 17 25
REMARK Flexibility Score: inf
ROOT
ATOM      1  C   UNL     1     118.777 106.151 122.713  1.00  0.00     0.138 A 
ATOM      2  C   UNL     1     119.027 104.812 123.044  1.00  0.00     0.100 A 
ATOM      3  C   UNL     1     117.973 103.992 123.451  1.00  0.00     0.197 A 
ATOM      4  O   UNL     1     118.239 102.812 123.793  1.00  0.00    -0.289 OA
ATOM      5  C   UNL     1     116.656 104.509 123.494  1.00  0.00     0.107 A 
ATOM      6  C   UNL     1     115.498 103.758 123.862  1.00  0.00     0.134 A 
ATOM      7  C   UNL     1     114.260 104.405 123.963  1.00  0.00     0.093 A 
ATOM      8  C   UNL     1     114.126 105.758 123.655  1.00  0.00     0.123 A 
ATOM      9  C   UNL     1     115.241 106.491 123.246  1.00  0.00     0.094 A 
ATOM     10  C   UNL     1     116.497 105.883 123.169  1.00  0.00     0.146 A 
ATOM     11  O   UNL     1     117.536 106.621 122.792  1.00  0.00    -0.456 OA
ENDROOT
BRANCH   1  12
ATOM     12  C   UNL     1     119.859 107.067 122.270  1.00  0.00     0.021 A 
ATOM     13  C   UNL     1     119.591 108.203 121.487  1.00  0.00     0.016 A 
ATOM     14  C   UNL     1     120.631 109.039 121.076  1.00  0.00     0.051 A 
ATOM     15  C   UNL     1     121.956 108.761 121.429  1.00  0.00     0.157 A 
ATOM     16  C   UNL     1     121.191 106.779 122.613  1.00  0.00     0.062 A 
ATOM     17  C   UNL     1     122.240 107.613 122.205  1.00  0.00     0.158 A 
BRANCH  15  18
ATOM     18  O   UNL     1     122.948 109.639 120.988  1.00  0.00    -0.504 OA
ATOM     19  H   UNL     1     123.475 109.514 120.136  1.00  0.00     0.293 HD
ENDBRANCH  15  18
BRANCH  17  20
ATOM     20  O   UNL     1     123.536 107.267 122.592  1.00  0.00    -0.504 OA
ATOM     21  H   UNL     1     124.235 107.935 122.883  1.00  0.00     0.293 HD
ENDBRANCH  17  20
ENDBRANCH   1  12
BRANCH   6  22
ATOM     22  O   UNL     1     115.504 102.384 124.114  1.00  0.00    -0.507 OA
ATOM     23  H   UNL     1     116.041 101.702 123.602  1.00  0.00     0.293 HD
ENDBRANCH   6  22
BRANCH   8  24
ATOM     24  O   UNL     1     112.875 106.364 123.752  1.00  0.00    -0.508 OA
ATOM     25  H   UNL     1     112.770 107.372 123.723  1.00  0.00     0.293 HD
ENDBRANCH   8  24
TORSDOF 5
ENDMDL
MODEL 2
REMARK VINA RESULT:    -4.943      1.900      7.082
REMARK INTER + INTRA:          -6.099
REMARK INTER:                  -5.819
REMARK INTRA:                  -0.280
REMARK UNBOUND:                -0.289
REMARK SMILES O=c1cc(-c2ccc(O)c(O)c2)oc2cc(O)cc(O)c12
REMARK SMILES IDX 4 1 3 2 2 3 1 4 21 5 19 6 18 7 16 8 15 9 14 10 13 11 5 12
REMARK SMILES IDX 6 13 7 14 8 15 12 16 10 17 9 18 11 20 20 22 17 24
REMARK H PARENT 9 19 11 21 20 23 17 25
REMARK Flexibility Score: inf
ROOT
ATOM      1  C   UNL     1     119.268 105.625 122.453  1.00  0.00     0.138 A 
ATOM      2  C   UNL     1     119.860 104.741 121.540  1.00  0.00     0.100 A 
ATOM      3  C   UNL     1     121.189 104.930 121.157  1.00  0.00     0.197 A 
ATOM      4  O   UNL     1     121.674 104.153 120.296  1.00  0.00    -0.289 OA
ATOM      5  C   UNL     1     121.940 105.990 121.721  1.00  0.00     0.107 A 
ATOM      6  C   UNL     1     123.312 106.259 121.432  1.00  0.00     0.134 A 
ATOM      7  C   UNL     1     123.920 107.398 121.976  1.00  0.00     0.093 A 
ATOM      8  C   UNL     1     123.227 108.242 122.841  1.00  0.00     0.123 A 
ATOM      9  C   UNL     1     121.900 107.961 123.171  1.00  0.00     0.094 A 
ATOM     10  C   UNL     1     121.254 106.852 122.618  1.00  0.00     0.146 A 
ATOM     11  O   UNL     1     119.985 106.631 122.943  1.00  0.00    -0.456 OA
ENDROOT
BRANCH   1  12
ATOM     12  C   UNL     1     117.860 105.469 122.898  1.00  0.00     0.021 A 
ATOM     13  C   UNL     1     117.405 104.289 123.512  1.00  0.00     0.016 A 
ATOM     14  C   UNL     1     116.072 104.167 123.910  1.00  0.00     0.051 A 
ATOM     15  C   UNL     1     115.165 105.210 123.700  1.00  0.00     0.157 A 
ATOM     16  C   UNL     1     116.945 106.511 122.675  1.00  0.00     0.062 A 
ATOM     17  C   UNL     1     115.607 106.398 123.071  1.00  0.00     0.158 A 
BRANCH  15  18
ATOM     18  O   UNL     1     113.847 105.025 124.124  1.00  0.00    -0.504 OA
ATOM     19  H   UNL     1     113.592 104.613 125.010  1.00  0.00     0.293 HD
ENDBRANCH  15  18
BRANCH  17  20
ATOM     20  O   UNL     1     114.759 107.479 122.823  1.00  0.00    -0.504 OA
ATOM     21  H   UNL     1     113.798 107.387 122.527  1.00  0.00     0.293 HD
ENDBRANCH  17  20
ENDBRANCH   1  12
BRANCH   6  22
ATOM     22  O   UNL     1     124.122 105.438 120.643  1.00  0.00    -0.507 OA
ATOM     23  H   UNL     1     123.793 104.674 120.074  1.00  0.00     0.293 HD
ENDBRANCH   6  22
BRANCH   8  24
ATOM     24  O   UNL     1     123.870 109.356 123.376  1.00  0.00    -0.508 OA
ATOM     25  H   UNL     1     124.749 109.274 123.874  1.00  0.00     0.293 HD
ENDBRANCH   8  24
TORSDOF 5
ENDMDL
MODEL 3
REMARK VINA RESULT:    -4.768     15.039     16.510
REMARK INTER + INTRA:          -5.894
REMARK INTER:                  -5.577
REMARK INTRA:                  -0.316
REMARK UNBOUND:                -0.289
REMARK SMILES O=c1cc(-c2ccc(O)c(O)c2)oc2cc(O)cc(O)c12
REMARK SMILES IDX 4 1 3 2 2 3 1 4 21 5 19 6 18 7 16 8 15 9 14 10 13 11 5 12
REMARK SMILES IDX 6 13 7 14 8 15 12 16 10 17 9 18 11 20 20 22 17 24
REMARK H PARENT 9 19 11 21 20 23 17 25
REMARK Flexibility Score: inf
ROOT
ATOM      1  C   UNL     1     123.741 110.741 108.479  1.00  0.00     0.138 A 
ATOM      2  C   UNL     1     122.413 110.351 108.702  1.00  0.00     0.100 A 
ATOM      3  C   UNL     1     122.095 108.994 108.777  1.00  0.00     0.197 A 
ATOM      4  O   UNL     1     120.888 108.675 108.924  1.00  0.00    -0.289 OA
ATOM      5  C   UNL     1     123.120 108.024 108.663  1.00  0.00     0.107 A 
ATOM      6  C   UNL     1     122.920 106.613 108.758  1.00  0.00     0.134 A 
ATOM      7  C   UNL     1     123.996 105.747 108.529  1.00  0.00     0.093 A 
ATOM      8  C   UNL     1     125.275 106.238 108.268  1.00  0.00     0.123 A 
ATOM      9  C   UNL     1     125.493 107.617 108.224  1.00  0.00     0.094 A 
ATOM     10  C   UNL     1     124.432 108.506 108.413  1.00  0.00     0.146 A 
ATOM     11  O   UNL     1     124.680 109.810 108.344  1.00  0.00    -0.456 OA
ENDROOT
BRANCH   1  12
ATOM     12  C   UNL     1     124.136 112.171 108.394  1.00  0.00     0.021 A 
ATOM     13  C   UNL     1     123.181 113.194 108.263  1.00  0.00     0.016 A 
ATOM     14  C   UNL     1     123.584 114.529 108.175  1.00  0.00     0.051 A 
ATOM     15  C   UNL     1     124.939 114.871 108.208  1.00  0.00     0.157 A 
ATOM     16  C   UNL     1     125.498 112.514 108.414  1.00  0.00     0.062 A 
ATOM     17  C   UNL     1     125.910 113.849 108.327  1.00  0.00     0.158 A 
BRANCH  15  18
ATOM     18  O   UNL     1     125.274 116.224 108.119  1.00  0.00    -0.504 OA
ATOM     19  H   UNL     1     124.892 116.856 107.430  1.00  0.00     0.293 HD
ENDBRANCH  15  18
BRANCH  17  20
ATOM     20  O   UNL     1     127.281 114.112 108.362  1.00  0.00    -0.504 OA
ATOM     21  H   UNL     1     127.994 113.397 108.348  1.00  0.00     0.293 HD
ENDBRANCH  17  20
ENDBRANCH   1  12
BRANCH   6  22
ATOM     22  O   UNL     1     121.701 106.016 109.092  1.00  0.00    -0.507 OA
ATOM     23  H   UNL     1     121.594 105.210 109.687  1.00  0.00     0.293 HD
ENDBRANCH   6  22
BRANCH   8  24
ATOM     24  O   UNL     1     126.325 105.347 108.063  1.00  0.00    -0.508 OA
ATOM     25  H   UNL     1     126.416 104.823 107.200  1.00  0.00     0.293 HD
ENDBRANCH   8  24
TORSDOF 5
ENDMDL
MODEL 4
REMARK VINA RESULT:    -4.571     15.120     16.485
REMARK INTER + INTRA:          -5.662
REMARK INTER:                  -5.354
REMARK INTRA:                  -0.308
REMARK UNBOUND:                -0.289
REMARK SMILES O=c1cc(-c2ccc(O)c(O)c2)oc2cc(O)cc(O)c12
REMARK SMILES IDX 4 1 3 2 2 3 1 4 21 5 19 6 18 7 16 8 15 9 14 10 13 11 5 12
REMARK SMILES IDX 6 13 7 14 8 15 12 16 10 17 9 18 11 20 20 22 17 24
REMARK H PARENT 9 19 11 21 20 23 17 25
REMARK Flexibility Score: inf
ROOT
ATOM      1  C   UNL     1     124.842 110.216 108.801  1.00  0.00     0.138 A 
ATOM      2  C   UNL     1     125.601 109.661 109.841  1.00  0.00     0.100 A 
ATOM      3  C   UNL     1     125.590 108.280 110.044  1.00  0.00     0.197 A 
ATOM      4  O   UNL     1     126.236 107.819 111.018  1.00  0.00    -0.289 OA
ATOM      5  C   UNL     1     124.842 107.448 109.176  1.00  0.00     0.107 A 
ATOM      6  C   UNL     1     124.782 106.024 109.265  1.00  0.00     0.134 A 
ATOM      7  C   UNL     1     123.928 105.315 108.411  1.00  0.00     0.093 A 
ATOM      8  C   UNL     1     123.177 105.969 107.436  1.00  0.00     0.123 A 
ATOM      9  C   UNL     1     123.266 107.356 107.306  1.00  0.00     0.094 A 
ATOM     10  C   UNL     1     124.082 108.096 108.166  1.00  0.00     0.146 A 
ATOM     11  O   UNL     1     124.123 109.416 108.020  1.00  0.00    -0.456 OA
ENDROOT
BRANCH   1  12
ATOM     12  C   UNL     1     124.820 111.678 108.537  1.00  0.00     0.021 A 
ATOM     13  C   UNL     1     125.905 112.506 108.876  1.00  0.00     0.016 A 
ATOM     14  C   UNL     1     125.851 113.879 108.626  1.00  0.00     0.051 A 
ATOM     15  C   UNL     1     124.719 114.456 108.042  1.00  0.00     0.157 A 
ATOM     16  C   UNL     1     123.678 112.260 107.963  1.00  0.00     0.062 A 
ATOM     17  C   UNL     1     123.616 113.635 107.709  1.00  0.00     0.158 A 
BRANCH  15  18
ATOM     18  O   UNL     1     124.731 115.834 107.816  1.00  0.00    -0.504 OA
ATOM     19  H   UNL     1     124.848 116.524 108.543  1.00  0.00     0.293 HD
ENDBRANCH  15  18
BRANCH  17  20
ATOM     20  O   UNL     1     122.450 114.139 107.128  1.00  0.00    -0.504 OA
ATOM     21  H   UNL     1     121.917 113.654 106.420  1.00  0.00     0.293 HD
ENDBRANCH  17  20
ENDBRANCH   1  12
BRANCH   6  22
ATOM     22  O   UNL     1     125.550 105.262 110.150  1.00  0.00    -0.507 OA
ATOM     23  H   UNL     1     125.628 105.427 111.141  1.00  0.00     0.293 HD
ENDBRANCH   6  22
BRANCH   8  24
ATOM     24  O   UNL     1     122.351 105.229 106.593  1.00  0.00    -0.508 OA
ATOM     25  H   UNL     1     121.520 104.763 106.939  1.00  0.00     0.293 HD
ENDBRANCH   8  24
TORSDOF 5
ENDMDL
MODEL 5
REMARK VINA RESULT:    -4.511     14.929     16.154
REMARK INTER + INTRA:          -5.591
REMARK INTER:                  -5.296
REMARK INTRA:                  -0.295
REMARK UNBOUND:                -0.289
REMARK SMILES O=c1cc(-c2ccc(O)c(O)c2)oc2cc(O)cc(O)c12
REMARK SMILES IDX 4 1 3 2 2 3 1 4 21 5 19 6 18 7 16 8 15 9 14 10 13 11 5 12
REMARK SMILES IDX 6 13 7 14 8 15 12 16 10 17 9 18 11 20 20 22 17 24
REMARK H PARENT 9 19 11 21 20 23 17 25
REMARK Flexibility Score: inf
ROOT
ATOM      1  C   UNL     1     123.934 110.639 108.369  1.00  0.00     0.138 A 
ATOM      2  C   UNL     1     124.929 109.651 108.393  1.00  0.00     0.100 A 
ATOM      3  C   UNL     1     124.565 108.304 108.424  1.00  0.00     0.197 A 
ATOM      4  O   UNL     1     125.480 107.445 108.501  1.00  0.00    -0.289 OA
ATOM      5  C   UNL     1     123.196 107.944 108.397  1.00  0.00     0.107 A 
ATOM      6  C   UNL     1     122.706 106.603 108.391  1.00  0.00     0.134 A 
ATOM      7  C   UNL     1     121.327 106.372 108.463  1.00  0.00     0.093 A 
ATOM      8  C   UNL     1     120.418 107.429 108.482  1.00  0.00     0.123 A 
ATOM      9  C   UNL     1     120.884 108.745 108.436  1.00  0.00     0.094 A 
ATOM     10  C   UNL     1     122.255 109.009 108.399  1.00  0.00     0.146 A 
ATOM     11  O   UNL     1     122.656 110.276 108.376  1.00  0.00    -0.456 OA
ENDROOT
BRANCH   1  12
ATOM     12  C   UNL     1     124.265 112.086 108.331  1.00  0.00     0.021 A 
ATOM     13  C   UNL     1     123.266 113.069 108.213  1.00  0.00     0.016 A 
ATOM     14  C   UNL     1     123.609 114.422 108.169  1.00  0.00     0.051 A 
ATOM     15  C   UNL     1     124.947 114.825 108.234  1.00  0.00     0.157 A 
ATOM     16  C   UNL     1     125.609 112.490 108.382  1.00  0.00     0.062 A 
ATOM     17  C   UNL     1     125.961 113.844 108.339  1.00  0.00     0.158 A 
BRANCH  15  18
ATOM     18  O   UNL     1     125.220 116.193 108.188  1.00  0.00    -0.504 OA
ATOM     19  H   UNL     1     125.741 116.689 108.896  1.00  0.00     0.293 HD
ENDBRANCH  15  18
BRANCH  17  20
ATOM     20  O   UNL     1     127.318 114.168 108.404  1.00  0.00    -0.504 OA
ATOM     21  H   UNL     1     127.907 113.974 109.201  1.00  0.00     0.293 HD
ENDBRANCH  17  20
ENDBRANCH   1  12
BRANCH   6  22
ATOM     22  O   UNL     1     123.522 105.472 108.295  1.00  0.00    -0.507 OA
ATOM     23  H   UNL     1     124.339 105.394 107.711  1.00  0.00     0.293 HD
ENDBRANCH   6  22
BRANCH   8  24
ATOM     24  O   UNL     1     119.053 107.161 108.537  1.00  0.00    -0.508 OA
ATOM     25  H   UNL     1     118.390 107.659 107.954  1.00  0.00     0.293 HD
ENDBRANCH   8  24
TORSDOF 5
ENDMDL
MODEL 6
REMARK VINA RESULT:    -4.468      1.724      7.574
REMARK INTER + INTRA:          -5.541
REMARK INTER:                  -5.262
REMARK INTRA:                  -0.279
REMARK UNBOUND:                -0.289
REMARK SMILES O=c1cc(-c2ccc(O)c(O)c2)oc2cc(O)cc(O)c12
REMARK SMILES IDX 4 1 3 2 2 3 1 4 21 5 19 6 18 7 16 8 15 9 14 10 13 11 5 12
REMARK SMILES IDX 6 13 7 14 8 15 12 16 10 17 9 18 11 20 20 22 17 24
REMARK H PARENT 9 19 11 21 20 23 17 25
REMARK Flexibility Score: inf
ROOT
ATOM      1  C   UNL     1     119.379 107.115 122.292  1.00  0.00     0.138 A 
ATOM      2  C   UNL     1     118.836 108.103 121.458  1.00  0.00     0.100 A 
ATOM      3  C   UNL     1     119.610 109.209 121.104  1.00  0.00     0.197 A 
ATOM      4  O   UNL     1     119.076 110.105 120.400  1.00  0.00    -0.289 OA
ATOM      5  C   UNL     1     120.947 109.308 121.558  1.00  0.00     0.107 A 
ATOM      6  C   UNL     1     121.841 110.373 121.233  1.00  0.00     0.134 A 
ATOM      7  C   UNL     1     123.110 110.412 121.824  1.00  0.00     0.093 A 
ATOM      8  C   UNL     1     123.540 109.398 122.680  1.00  0.00     0.123 A 
ATOM      9  C   UNL     1     122.693 108.326 122.965  1.00  0.00     0.094 A 
ATOM     10  C   UNL     1     121.407 108.276 122.419  1.00  0.00     0.146 A 
ATOM     11  O   UNL     1     120.627 107.247 122.731  1.00  0.00    -0.456 OA
ENDROOT
BRANCH   1  12
ATOM     12  C   UNL     1     118.603 105.916 122.697  1.00  0.00     0.021 A 
ATOM     13  C   UNL     1     119.188 104.638 122.746  1.00  0.00     0.016 A 
ATOM     14  C   UNL     1     118.429 103.527 123.121  1.00  0.00     0.051 A 
ATOM     15  C   UNL     1     117.076 103.662 123.448  1.00  0.00     0.157 A 
ATOM     16  C   UNL     1     117.240 106.048 123.012  1.00  0.00     0.062 A 
ATOM     17  C   UNL     1     116.472 104.940 123.390  1.00  0.00     0.158 A 
BRANCH  15  18
ATOM     18  O   UNL     1     116.376 102.511 123.817  1.00  0.00    -0.504 OA
ATOM     19  H   UNL     1     115.414 102.510 124.124  1.00  0.00     0.293 HD
ENDBRANCH  15  18
BRANCH  17  20
ATOM     20  O   UNL     1     115.127 105.152 123.697  1.00  0.00    -0.504 OA
ATOM     21  H   UNL     1     114.381 105.125 123.015  1.00  0.00     0.293 HD
ENDBRANCH  17  20
ENDBRANCH   1  12
BRANCH   6  22
ATOM     22  O   UNL     1     121.545 111.396 120.329  1.00  0.00    -0.507 OA
ATOM     23  H   UNL     1     121.634 112.381 120.517  1.00  0.00     0.293 HD
ENDBRANCH   6  22
BRANCH   8  24
ATOM     24  O   UNL     1     124.815 109.462 123.236  1.00  0.00    -0.508 OA
ATOM     25  H   UNL     1     124.955 109.588 124.232  1.00  0.00     0.293 HD
ENDBRANCH   8  24
TORSDOF 5
ENDMDL
MODEL 7
REMARK VINA RESULT:    -4.410     16.456     19.982
REMARK INTER + INTRA:          -5.473
REMARK INTER:                  -5.190
REMARK INTRA:                  -0.283
REMARK UNBOUND:                -0.289
REMARK SMILES O=c1cc(-c2ccc(O)c(O)c2)oc2cc(O)cc(O)c12
REMARK SMILES IDX 4 1 3 2 2 3 1 4 21 5 19 6 18 7 16 8 15 9 14 10 13 11 5 12
REMARK SMILES IDX 6 13 7 14 8 15 12 16 10 17 9 18 11 20 20 22 17 24
REMARK H PARENT 9 19 11 21 20 23 17 25
REMARK Flexibility Score: inf
ROOT
ATOM      1  C   UNL     1     126.764 115.145 109.332  1.00  0.00     0.138 A 
ATOM      2  C   UNL     1     126.504 116.518 109.440  1.00  0.00     0.100 A 
ATOM      3  C   UNL     1     127.557 117.404 109.673  1.00  0.00     0.197 A 
ATOM      4  O   UNL     1     127.284 118.623 109.819  1.00  0.00    -0.289 OA
ATOM      5  C   UNL     1     128.882 116.915 109.763  1.00  0.00     0.107 A 
ATOM      6  C   UNL     1     130.039 117.728 109.964  1.00  0.00     0.134 A 
ATOM      7  C   UNL     1     131.288 117.119 110.136  1.00  0.00     0.093 A 
ATOM      8  C   UNL     1     131.434 115.735 110.057  1.00  0.00     0.123 A 
ATOM      9  C   UNL     1     130.318 114.933 109.810  1.00  0.00     0.094 A 
ATOM     10  C   UNL     1     129.052 115.507 109.668  1.00  0.00     0.146 A 
ATOM     11  O   UNL     1     128.013 114.707 109.452  1.00  0.00    -0.456 OA
ENDROOT
BRANCH   1  12
ATOM     12  C   UNL     1     125.683 114.157 109.081  1.00  0.00     0.021 A 
ATOM     13  C   UNL     1     125.723 112.863 109.628  1.00  0.00     0.016 A 
ATOM     14  C   UNL     1     124.697 111.953 109.365  1.00  0.00     0.051 A 
ATOM     15  C   UNL     1     123.616 112.308 108.551  1.00  0.00     0.157 A 
ATOM     16  C   UNL     1     124.605 114.509 108.253  1.00  0.00     0.062 A 
ATOM     17  C   UNL     1     123.571 113.603 107.985  1.00  0.00     0.158 A 
BRANCH  15  18
ATOM     18  O   UNL     1     122.623 111.352 108.332  1.00  0.00    -0.504 OA
ATOM     19  H   UNL     1     122.341 111.030 107.417  1.00  0.00     0.293 HD
ENDBRANCH  15  18
BRANCH  17  20
ATOM     20  O   UNL     1     122.529 114.029 107.159  1.00  0.00    -0.504 OA
ATOM     21  H   UNL     1     121.845 113.409 106.749  1.00  0.00     0.293 HD
ENDBRANCH  17  20
ENDBRANCH   1  12
BRANCH   6  22
ATOM     22  O   UNL     1     130.020 119.125 109.982  1.00  0.00    -0.507 OA
ATOM     23  H   UNL     1     130.704 119.709 110.437  1.00  0.00     0.293 HD
ENDBRANCH   6  22
BRANCH   8  24
ATOM     24  O   UNL     1     132.694 115.165 110.216  1.00  0.00    -0.508 OA
ATOM     25  H   UNL     1     132.886 114.495 110.953  1.00  0.00     0.293 HD
ENDBRANCH   8  24
TORSDOF 5
ENDMDL
MODEL 8
REMARK VINA RESULT:    -4.409     15.818     17.782
REMARK INTER + INTRA:          -5.471
REMARK INTER:                  -5.181
REMARK INTRA:                  -0.290
REMARK UNBOUND:                -0.289
REMARK SMILES O=c1cc(-c2ccc(O)c(O)c2)oc2cc(O)cc(O)c12
REMARK SMILES IDX 4 1 3 2 2 3 1 4 21 5 19 6 18 7 16 8 15 9 14 10 13 11 5 12
REMARK SMILES IDX 6 13 7 14 8 15 12 16 10 17 9 18 11 20 20 22 17 24
REMARK H PARENT 9 19 11 21 20 23 17 25
REMARK Flexibility Score: inf
ROOT
ATOM      1  C   UNL     1     125.137 114.380 108.856  1.00  0.00     0.138 A 
ATOM      2  C   UNL     1     123.753 114.548 108.708  1.00  0.00     0.100 A 
ATOM      3  C   UNL     1     122.925 113.427 108.628  1.00  0.00     0.197 A 
ATOM      4  O   UNL     1     121.695 113.611 108.441  1.00  0.00    -0.289 OA
ATOM      5  C   UNL     1     123.484 112.130 108.732  1.00  0.00     0.107 A 
ATOM      6  C   UNL     1     122.734 110.915 108.698  1.00  0.00     0.134 A 
ATOM      7  C   UNL     1     123.409 109.689 108.710  1.00  0.00     0.093 A 
ATOM      8  C   UNL     1     124.798 109.630 108.814  1.00  0.00     0.123 A 
ATOM      9  C   UNL     1     125.538 110.811 108.899  1.00  0.00     0.094 A 
ATOM     10  C   UNL     1     124.897 112.052 108.854  1.00  0.00     0.146 A 
ATOM     11  O   UNL     1     125.640 113.151 108.919  1.00  0.00    -0.456 OA
ENDROOT
BRANCH   1  12
ATOM     12  C   UNL     1     126.063 115.537 108.951  1.00  0.00     0.021 A 
ATOM     13  C   UNL     1     127.339 115.416 109.528  1.00  0.00     0.016 A 
ATOM     14  C   UNL     1     128.185 116.524 109.612  1.00  0.00     0.051 A 
ATOM     15  C   UNL     1     127.778 117.773 109.132  1.00  0.00     0.157 A 
ATOM     16  C   UNL     1     125.649 116.794 108.481  1.00  0.00     0.062 A 
ATOM     17  C   UNL     1     126.490 117.910 108.561  1.00  0.00     0.158 A 
BRANCH  15  18
ATOM     18  O   UNL     1     128.672 118.839 109.244  1.00  0.00    -0.504 OA
ATOM     19  H   UNL     1     129.187 119.229 108.468  1.00  0.00     0.293 HD
ENDBRANCH  15  18
BRANCH  17  20
ATOM     20  O   UNL     1     126.012 119.125 108.065  1.00  0.00    -0.504 OA
ATOM     21  H   UNL     1     125.823 119.934 108.639  1.00  0.00     0.293 HD
ENDBRANCH  17  20
ENDBRANCH   1  12
BRANCH   6  22
ATOM     22  O   UNL     1     121.338 110.857 108.674  1.00  0.00    -0.507 OA
ATOM     23  H   UNL     1     120.796 110.072 108.351  1.00  0.00     0.293 HD
ENDBRANCH   6  22
BRANCH   8  24
ATOM     24  O   UNL     1     125.434 108.391 108.840  1.00  0.00    -0.508 OA
ATOM     25  H   UNL     1     126.444 108.311 108.789  1.00  0.00     0.293 HD
ENDBRANCH   8  24
TORSDOF 5
ENDMDL
MODEL 9
REMARK VINA RESULT:    -2.598      1.438      7.462
REMARK INTER + INTRA:          -3.342
REMARK INTER:                  -3.066
REMARK INTRA:                  -0.277
REMARK UNBOUND:                -0.289
REMARK SMILES O=c1cc(-c2ccc(O)c(O)c2)oc2cc(O)cc(O)c12
REMARK SMILES IDX 4 1 3 2 2 3 1 4 21 5 19 6 18 7 16 8 15 9 14 10 13 11 5 12
REMARK SMILES IDX 6 13 7 14 8 15 12 16 10 17 9 18 11 20 20 22 17 24
REMARK H PARENT 9 19 11 21 20 23 17 25
REMARK Flexibility Score: inf
ROOT
ATOM      1  C   UNL     1     117.650 106.904 122.137  1.00  0.00     0.138 A 
ATOM      2  C   UNL     1     117.395 107.878 121.161  1.00  0.00     0.100 A 
ATOM      3  C   UNL     1     118.439 108.680 120.697  1.00  0.00     0.197 A 
ATOM      4  O   UNL     1     118.169 109.581 119.863  1.00  0.00    -0.289 OA
ATOM      5  C   UNL     1     119.752 108.481 121.189  1.00  0.00     0.107 A 
ATOM      6  C   UNL     1     120.901 109.216 120.765  1.00  0.00     0.134 A 
ATOM      7  C   UNL     1     122.131 108.996 121.396  1.00  0.00     0.093 A 
ATOM      8  C   UNL     1     122.269 108.032 122.393  1.00  0.00     0.123 A 
ATOM      9  C   UNL     1     121.164 107.271 122.780  1.00  0.00     0.094 A 
ATOM     10  C   UNL     1     119.915 107.491 122.194  1.00  0.00     0.146 A 
ATOM     11  O   UNL     1     118.885 106.758 122.605  1.00  0.00    -0.456 OA
ENDROOT
BRANCH   1  12
ATOM     12  C   UNL     1     116.578 106.020 122.663  1.00  0.00     0.021 A 
ATOM     13  C   UNL     1     116.776 104.639 122.833  1.00  0.00     0.016 A 
ATOM     14  C   UNL     1     115.746 103.832 123.320  1.00  0.00     0.051 A 
ATOM     15  C   UNL     1     114.499 104.378 123.640  1.00  0.00     0.157 A 
ATOM     16  C   UNL     1     115.321 106.567 122.971  1.00  0.00     0.062 A 
ATOM     17  C   UNL     1     114.283 105.765 123.460  1.00  0.00     0.158 A 
BRANCH  15  18
ATOM     18  O   UNL     1     113.513 103.516 124.125  1.00  0.00    -0.504 OA
ATOM     19  H   UNL     1     112.584 103.447 123.738  1.00  0.00     0.293 HD
ENDBRANCH  15  18
BRANCH  17  20
ATOM     20  O   UNL     1     113.065 106.381 123.753  1.00  0.00    -0.504 OA
ATOM     21  H   UNL     1     112.499 106.159 124.560  1.00  0.00     0.293 HD
ENDBRANCH  17  20
ENDBRANCH   1  12
BRANCH   6  22
ATOM     22  O   UNL     1     120.893 110.148 119.724  1.00  0.00    -0.507 OA
ATOM     23  H   UNL     1     120.123 110.756 119.495  1.00  0.00     0.293 HD
ENDBRANCH   6  22
BRANCH   8  24
ATOM     24  O   UNL     1     123.512 107.829 122.987  1.00  0.00    -0.508 OA
ATOM     25  H   UNL     1     123.641 107.157 123.735  1.00  0.00     0.293 HD
ENDBRANCH   8  24
TORSDOF 5
ENDMDL
