MODEL 1
REMARK VINA RESULT:    -5.762      0.000      0.000
REMARK INTER + INTRA:         -18.594
REMARK INTER:                 -14.521
REMARK INTRA:                  -4.074
REMARK UNBOUND:                -4.074
REMARK SMILES CCCCCCCCCCCCCCCCCCCCCCCCCCCC(=O)[O-]
REMARK SMILES IDX 15 1 16 2 17 3 18 4 19 5 20 6 21 7 22 8 23 9 24 10 25 11
REMARK SMILES IDX 26 12 27 13 28 14 29 15 30 16 14 17 13 18 12 19 11 20 10 21
REMARK SMILES IDX 9 22 8 23 7 24 6 25 5 26 4 27 3 28 2 29 1 30
REMARK H PARENT
REMARK Flexibility Score: inf
ROOT
ATOM      1  C   UNL     1     -27.547 -33.497  23.502  1.00  0.00     0.000 C 
ENDROOT
BRANCH   1   2
ATOM      2  C   UNL     1     -27.878 -32.935  24.895  1.00  0.00     0.000 C 
BRANCH   2   3
ATOM      3  C   UNL     1     -26.686 -33.005  25.864  1.00  0.00     0.000 C 
BRANCH   3   4
ATOM      4  C   UNL     1     -26.197 -31.616  26.312  1.00  0.00     0.000 C 
BRANCH   4   5
ATOM      5  C   UNL     1     -27.147 -30.451  25.978  1.00  0.00     0.000 C 
BRANCH   5   6
ATOM      6  C   UNL     1     -26.446 -29.294  25.250  1.00  0.00     0.000 C 
BRANCH   6   7
ATOM      7  C   UNL     1     -27.413 -28.565  24.304  1.00  0.00     0.000 C 
BRANCH   7   8
ATOM      8  C   UNL     1     -26.727 -27.442  23.508  1.00  0.00     0.000 C 
BRANCH   8   9
ATOM      9  C   UNL     1     -25.217 -27.667  23.341  1.00  0.00     0.000 C 
BRANCH   9  10
ATOM     10  C   UNL     1     -24.868 -27.985  21.880  1.00  0.00     0.000 C 
BRANCH  10  11
ATOM     11  C   UNL     1     -26.111 -28.227  21.007  1.00  0.00     0.000 C 
BRANCH  11  12
ATOM     12  C   UNL     1     -26.125 -27.396  19.708  1.00  0.00     0.006 C 
BRANCH  12  13
ATOM     13  C   UNL     1     -25.225 -26.156  19.801  1.00  0.00     0.053 C 
BRANCH  13  14
ATOM     14  C   UNL     1     -26.048 -24.931  20.045  1.00  0.00     0.041 C 
ATOM     15  O   UNL     1     -26.247 -24.106  19.114  1.00  0.00    -0.550 OA
ATOM     16  O   UNL     1     -26.545 -24.670  21.316  1.00  0.00    -0.550 OA
ENDBRANCH  13  14
ENDBRANCH  12  13
ENDBRANCH  11  12
ENDBRANCH  10  11
ENDBRANCH   9  10
ENDBRANCH   8   9
ENDBRANCH   7   8
ENDBRANCH   6   7
ENDBRANCH   5   6
ENDBRANCH   4   5
ENDBRANCH   3   4
ENDBRANCH   2   3
ENDBRANCH   1   2
BRANCH   1  17
ATOM     17  C   UNL     1     -27.857 -32.556  22.323  1.00  0.00     0.000 C 
BRANCH  17  18
ATOM     18  C   UNL     1     -26.758 -31.505  22.054  1.00  0.00     0.000 C 
BRANCH  18  19
ATOM     19  C   UNL     1     -25.425 -31.855  22.741  1.00  0.00     0.000 C 
BRANCH  19  20
ATOM     20  C   UNL     1     -24.204 -31.323  21.972  1.00  0.00     0.000 C 
BRANCH  20  21
ATOM     21  C   UNL     1     -22.874 -31.701  22.639  1.00  0.00     0.000 C 
BRANCH  21  22
ATOM     22  C   UNL     1     -22.953 -31.523  24.161  1.00  0.00    -0.000 C 
BRANCH  22  23
ATOM     23  C   UNL     1     -22.969 -30.034  24.539  1.00  0.00    -0.000 C 
BRANCH  23  24
ATOM     24  C   UNL     1     -21.597 -29.366  24.358  1.00  0.00    -0.000 C 
BRANCH  24  25
ATOM     25  C   UNL     1     -20.714 -29.486  25.612  1.00  0.00    -0.000 C 
BRANCH  25  26
ATOM     26  C   UNL     1     -19.214 -29.471  25.278  1.00  0.00    -0.000 C 
BRANCH  26  27
ATOM     27  C   UNL     1     -18.935 -29.726  23.785  1.00  0.00    -0.000 C 
BRANCH  27  28
ATOM     28  C   UNL     1     -18.253 -31.080  23.535  1.00  0.00    -0.000 C 
BRANCH  28  29
ATOM     29  C   UNL     1     -16.723 -30.999  23.650  1.00  0.00    -0.003 C 
ATOM     30  C   UNL     1     -16.088 -30.644  22.308  1.00  0.00     0.004 C 
ENDBRANCH  28  29
ENDBRANCH  27  28
ENDBRANCH  26  27
ENDBRANCH  25  26
ENDBRANCH  24  25
ENDBRANCH  23  24
ENDBRANCH  22  23
ENDBRANCH  21  22
ENDBRANCH  20  21
ENDBRANCH  19  20
ENDBRANCH  18  19
ENDBRANCH  17  18
ENDBRANCH   1  17
TORSDOF 26
ENDMDL
MODEL 2
REMARK VINA RESULT:    -5.728      1.667      2.690
REMARK INTER + INTRA:         -18.508
REMARK INTER:                 -14.623
REMARK INTRA:                  -3.885
REMARK UNBOUND:                -4.074
REMARK SMILES CCCCCCCCCCCCCCCCCCCCCCCCCCCC(=O)[O-]
REMARK SMILES IDX 15 1 16 2 17 3 18 4 19 5 20 6 21 7 22 8 23 9 24 10 25 11
REMARK SMILES IDX 26 12 27 13 28 14 29 15 30 16 14 17 13 18 12 19 11 20 10 21
REMARK SMILES IDX 9 22 8 23 7 24 6 25 5 26 4 27 3 28 2 29 1 30
REMARK H PARENT
REMARK Flexibility Score: inf
ROOT
ATOM      1  C   UNL     1     -28.248 -32.716  22.498  1.00  0.00     0.000 C 
ENDROOT
BRANCH   1   2
ATOM      2  C   UNL     1     -28.688 -31.269  22.774  1.00  0.00     0.000 C 
BRANCH   2   3
ATOM      3  C   UNL     1     -30.195 -31.053  22.557  1.00  0.00     0.000 C 
BRANCH   3   4
ATOM      4  C   UNL     1     -30.860 -30.274  23.706  1.00  0.00     0.000 C 
BRANCH   4   5
ATOM      5  C   UNL     1     -30.015 -30.158  24.989  1.00  0.00     0.000 C 
BRANCH   5   6
ATOM      6  C   UNL     1     -30.060 -28.755  25.613  1.00  0.00     0.000 C 
BRANCH   6   7
ATOM      7  C   UNL     1     -28.742 -28.001  25.383  1.00  0.00     0.000 C 
BRANCH   7   8
ATOM      8  C   UNL     1     -27.558 -28.945  25.118  1.00  0.00     0.000 C 
BRANCH   8   9
ATOM      9  C   UNL     1     -26.201 -28.226  25.159  1.00  0.00     0.000 C 
BRANCH   9  10
ATOM     10  C   UNL     1     -25.674 -27.969  23.740  1.00  0.00     0.000 C 
BRANCH  10  11
ATOM     11  C   UNL     1     -26.366 -28.839  22.677  1.00  0.00     0.000 C 
BRANCH  11  12
ATOM     12  C   UNL     1     -25.506 -29.078  21.419  1.00  0.00     0.006 C 
BRANCH  12  13
ATOM     13  C   UNL     1     -24.824 -27.793  20.930  1.00  0.00     0.053 C 
BRANCH  13  14
ATOM     14  C   UNL     1     -25.825 -26.879  20.297  1.00  0.00     0.041 C 
ATOM     15  O   UNL     1     -26.178 -27.056  19.100  1.00  0.00    -0.550 OA
ATOM     16  O   UNL     1     -26.324 -25.796  21.009  1.00  0.00    -0.550 OA
ENDBRANCH  13  14
ENDBRANCH  12  13
ENDBRANCH  11  12
ENDBRANCH  10  11
ENDBRANCH   9  10
ENDBRANCH   8   9
ENDBRANCH   7   8
ENDBRANCH   6   7
ENDBRANCH   5   6
ENDBRANCH   4   5
ENDBRANCH   3   4
ENDBRANCH   2   3
ENDBRANCH   1   2
BRANCH   1  17
ATOM     17  C   UNL     1     -27.497 -33.406  23.653  1.00  0.00     0.000 C 
BRANCH  17  18
ATOM     18  C   UNL     1     -27.927 -32.926  25.057  1.00  0.00     0.000 C 
BRANCH  18  19
ATOM     19  C   UNL     1     -26.784 -32.229  25.817  1.00  0.00     0.000 C 
BRANCH  19  20
ATOM     20  C   UNL     1     -25.679 -33.207  26.253  1.00  0.00     0.000 C 
BRANCH  20  21
ATOM     21  C   UNL     1     -24.288 -32.788  25.754  1.00  0.00     0.000 C 
BRANCH  21  22
ATOM     22  C   UNL     1     -24.399 -31.804  24.583  1.00  0.00    -0.000 C 
BRANCH  22  23
ATOM     23  C   UNL     1     -23.370 -30.671  24.717  1.00  0.00    -0.000 C 
BRANCH  23  24
ATOM     24  C   UNL     1     -22.512 -30.503  23.454  1.00  0.00    -0.000 C 
BRANCH  24  25
ATOM     25  C   UNL     1     -21.665 -29.218  23.485  1.00  0.00    -0.000 C 
BRANCH  25  26
ATOM     26  C   UNL     1     -20.188 -29.495  23.806  1.00  0.00    -0.000 C 
BRANCH  26  27
ATOM     27  C   UNL     1     -19.891 -30.995  23.985  1.00  0.00    -0.000 C 
BRANCH  27  28
ATOM     28  C   UNL     1     -18.563 -31.415  23.334  1.00  0.00    -0.000 C 
BRANCH  28  29
ATOM     29  C   UNL     1     -17.444 -30.387  23.562  1.00  0.00    -0.003 C 
ATOM     30  C   UNL     1     -16.219 -30.708  22.710  1.00  0.00     0.004 C 
ENDBRANCH  28  29
ENDBRANCH  27  28
ENDBRANCH  26  27
ENDBRANCH  25  26
ENDBRANCH  24  25
ENDBRANCH  23  24
ENDBRANCH  22  23
ENDBRANCH  21  22
ENDBRANCH  20  21
ENDBRANCH  19  20
ENDBRANCH  18  19
ENDBRANCH  17  18
ENDBRANCH   1  17
TORSDOF 26
ENDMDL
MODEL 3
REMARK VINA RESULT:    -5.724      2.722      7.020
REMARK INTER + INTRA:         -18.497
REMARK INTER:                 -13.339
REMARK INTRA:                  -5.159
REMARK UNBOUND:                -4.074
REMARK SMILES CCCCCCCCCCCCCCCCCCCCCCCCCCCC(=O)[O-]
REMARK SMILES IDX 15 1 16 2 17 3 18 4 19 5 20 6 21 7 22 8 23 9 24 10 25 11
REMARK SMILES IDX 26 12 27 13 28 14 29 15 30 16 14 17 13 18 12 19 11 20 10 21
REMARK SMILES IDX 9 22 8 23 7 24 6 25 5 26 4 27 3 28 2 29 1 30
REMARK H PARENT
REMARK Flexibility Score: inf
ROOT
ATOM      1  C   UNL     1     -26.310 -31.598  21.975  1.00  0.00     0.000 C 
ENDROOT
BRANCH   1   2
ATOM      2  C   UNL     1     -27.775 -31.284  22.321  1.00  0.00     0.000 C 
BRANCH   2   3
ATOM      3  C   UNL     1     -28.460 -32.420  23.099  1.00  0.00     0.000 C 
BRANCH   3   4
ATOM      4  C   UNL     1     -27.479 -33.224  23.971  1.00  0.00     0.000 C 
BRANCH   4   5
ATOM      5  C   UNL     1     -27.749 -33.158  25.487  1.00  0.00     0.000 C 
BRANCH   5   6
ATOM      6  C   UNL     1     -26.492 -32.829  26.306  1.00  0.00     0.000 C 
BRANCH   6   7
ATOM      7  C   UNL     1     -25.578 -31.848  25.554  1.00  0.00     0.000 C 
BRANCH   7   8
ATOM      8  C   UNL     1     -24.133 -32.359  25.436  1.00  0.00     0.000 C 
BRANCH   8   9
ATOM      9  C   UNL     1     -23.430 -31.869  24.161  1.00  0.00     0.000 C 
BRANCH   9  10
ATOM     10  C   UNL     1     -22.233 -30.971  24.506  1.00  0.00     0.000 C 
BRANCH  10  11
ATOM     11  C   UNL     1     -20.959 -31.346  23.728  1.00  0.00     0.000 C 
BRANCH  11  12
ATOM     12  C   UNL     1     -19.716 -30.538  24.152  1.00  0.00     0.006 C 
BRANCH  12  13
ATOM     13  C   UNL     1     -20.050 -29.464  25.197  1.00  0.00     0.053 C 
BRANCH  13  14
ATOM     14  C   UNL     1     -19.586 -28.121  24.730  1.00  0.00     0.041 C 
ATOM     15  O   UNL     1     -20.085 -27.073  25.218  1.00  0.00    -0.550 OA
ATOM     16  O   UNL     1     -18.644 -28.026  23.713  1.00  0.00    -0.550 OA
ENDBRANCH  13  14
ENDBRANCH  12  13
ENDBRANCH  11  12
ENDBRANCH  10  11
ENDBRANCH   9  10
ENDBRANCH   8   9
ENDBRANCH   7   8
ENDBRANCH   6   7
ENDBRANCH   5   6
ENDBRANCH   4   5
ENDBRANCH   3   4
ENDBRANCH   2   3
ENDBRANCH   1   2
BRANCH   1  17
ATOM     17  C   UNL     1     -25.379 -30.374  21.884  1.00  0.00     0.000 C 
BRANCH  17  18
ATOM     18  C   UNL     1     -26.059 -29.108  21.321  1.00  0.00     0.000 C 
BRANCH  18  19
ATOM     19  C   UNL     1     -25.131 -27.880  21.341  1.00  0.00     0.000 C 
BRANCH  19  20
ATOM     20  C   UNL     1     -23.649 -28.260  21.502  1.00  0.00     0.000 C 
BRANCH  20  21
ATOM     21  C   UNL     1     -23.070 -27.825  22.855  1.00  0.00     0.000 C 
BRANCH  21  22
ATOM     22  C   UNL     1     -24.150 -27.175  23.730  1.00  0.00    -0.000 C 
BRANCH  22  23
ATOM     23  C   UNL     1     -24.247 -27.876  25.094  1.00  0.00    -0.000 C 
BRANCH  23  24
ATOM     24  C   UNL     1     -25.561 -28.654  25.264  1.00  0.00    -0.000 C 
BRANCH  24  25
ATOM     25  C   UNL     1     -26.797 -27.799  24.934  1.00  0.00    -0.000 C 
BRANCH  25  26
ATOM     26  C   UNL     1     -28.025 -28.653  24.580  1.00  0.00    -0.000 C 
BRANCH  26  27
ATOM     27  C   UNL     1     -28.461 -29.573  25.734  1.00  0.00    -0.000 C 
BRANCH  27  28
ATOM     28  C   UNL     1     -29.859 -30.173  25.513  1.00  0.00    -0.000 C 
BRANCH  28  29
ATOM     29  C   UNL     1     -30.791 -29.227  24.741  1.00  0.00    -0.003 C 
ATOM     30  C   UNL     1     -31.680 -30.000  23.771  1.00  0.00     0.004 C 
ENDBRANCH  28  29
ENDBRANCH  27  28
ENDBRANCH  26  27
ENDBRANCH  25  26
ENDBRANCH  24  25
ENDBRANCH  23  24
ENDBRANCH  22  23
ENDBRANCH  21  22
ENDBRANCH  20  21
ENDBRANCH  19  20
ENDBRANCH  18  19
ENDBRANCH  17  18
ENDBRANCH   1  17
TORSDOF 26
ENDMDL
MODEL 4
REMARK VINA RESULT:    -5.663      2.593      6.406
REMARK INTER + INTRA:         -18.344
REMARK INTER:                 -13.540
REMARK INTRA:                  -4.804
REMARK UNBOUND:                -4.074
REMARK SMILES CCCCCCCCCCCCCCCCCCCCCCCCCCCC(=O)[O-]
REMARK SMILES IDX 15 1 16 2 17 3 18 4 19 5 20 6 21 7 22 8 23 9 24 10 25 11
REMARK SMILES IDX 26 12 27 13 28 14 29 15 30 16 14 17 13 18 12 19 11 20 10 21
REMARK SMILES IDX 9 22 8 23 7 24 6 25 5 26 4 27 3 28 2 29 1 30
REMARK H PARENT
REMARK Flexibility Score: inf
ROOT
ATOM      1  C   UNL     1     -20.966 -31.828  23.585  1.00  0.00     0.000 C 
ENDROOT
BRANCH   1   2
ATOM      2  C   UNL     1     -22.141 -31.104  22.907  1.00  0.00     0.000 C 
BRANCH   2   3
ATOM      3  C   UNL     1     -23.510 -31.574  23.428  1.00  0.00     0.000 C 
BRANCH   3   4
ATOM      4  C   UNL     1     -23.580 -31.622  24.965  1.00  0.00     0.000 C 
BRANCH   4   5
ATOM      5  C   UNL     1     -24.595 -32.629  25.540  1.00  0.00     0.000 C 
BRANCH   5   6
ATOM      6  C   UNL     1     -25.961 -31.997  25.844  1.00  0.00     0.000 C 
BRANCH   6   7
ATOM      7  C   UNL     1     -27.102 -32.803  25.203  1.00  0.00     0.000 C 
BRANCH   7   8
ATOM      8  C   UNL     1     -26.922 -32.980  23.686  1.00  0.00     0.000 C 
BRANCH   8   9
ATOM      9  C   UNL     1     -28.252 -33.202  22.950  1.00  0.00     0.000 C 
BRANCH   9  10
ATOM     10  C   UNL     1     -28.528 -32.061  21.960  1.00  0.00     0.000 C 
BRANCH  10  11
ATOM     11  C   UNL     1     -29.728 -31.190  22.369  1.00  0.00     0.000 C 
BRANCH  11  12
ATOM     12  C   UNL     1     -29.883 -31.030  23.896  1.00  0.00     0.006 C 
BRANCH  12  13
ATOM     13  C   UNL     1     -30.417 -29.645  24.283  1.00  0.00     0.053 C 
BRANCH  13  14
ATOM     14  C   UNL     1     -29.713 -29.137  25.502  1.00  0.00     0.041 C 
ATOM     15  O   UNL     1     -28.638 -29.671  25.882  1.00  0.00    -0.550 OA
ATOM     16  O   UNL     1     -30.277 -28.112  26.252  1.00  0.00    -0.550 OA
ENDBRANCH  13  14
ENDBRANCH  12  13
ENDBRANCH  11  12
ENDBRANCH  10  11
ENDBRANCH   9  10
ENDBRANCH   8   9
ENDBRANCH   7   8
ENDBRANCH   6   7
ENDBRANCH   5   6
ENDBRANCH   4   5
ENDBRANCH   3   4
ENDBRANCH   2   3
ENDBRANCH   1   2
BRANCH   1  17
ATOM     17  C   UNL     1     -19.634 -31.053  23.595  1.00  0.00     0.000 C 
BRANCH  17  18
ATOM     18  C   UNL     1     -19.793 -29.533  23.814  1.00  0.00     0.000 C 
BRANCH  18  19
ATOM     19  C   UNL     1     -19.749 -29.144  25.303  1.00  0.00     0.000 C 
BRANCH  19  20
ATOM     20  C   UNL     1     -21.112 -28.666  25.831  1.00  0.00     0.000 C 
BRANCH  20  21
ATOM     21  C   UNL     1     -21.995 -28.064  24.729  1.00  0.00     0.000 C 
BRANCH  21  22
ATOM     22  C   UNL     1     -23.470 -28.057  25.150  1.00  0.00    -0.000 C 
BRANCH  22  23
ATOM     23  C   UNL     1     -24.392 -27.978  23.923  1.00  0.00    -0.000 C 
BRANCH  23  24
ATOM     24  C   UNL     1     -25.828 -28.427  24.235  1.00  0.00    -0.000 C 
BRANCH  24  25
ATOM     25  C   UNL     1     -26.443 -29.262  23.098  1.00  0.00    -0.000 C 
BRANCH  25  26
ATOM     26  C   UNL     1     -25.581 -29.248  21.826  1.00  0.00    -0.000 C 
BRANCH  26  27
ATOM     27  C   UNL     1     -26.196 -28.396  20.701  1.00  0.00    -0.000 C 
BRANCH  27  28
ATOM     28  C   UNL     1     -25.523 -27.020  20.569  1.00  0.00    -0.000 C 
BRANCH  28  29
ATOM     29  C   UNL     1     -24.002 -27.124  20.376  1.00  0.00    -0.003 C 
ATOM     30  C   UNL     1     -23.433 -25.836  19.788  1.00  0.00     0.004 C 
ENDBRANCH  28  29
ENDBRANCH  27  28
ENDBRANCH  26  27
ENDBRANCH  25  26
ENDBRANCH  24  25
ENDBRANCH  23  24
ENDBRANCH  22  23
ENDBRANCH  21  22
ENDBRANCH  20  21
ENDBRANCH  19  20
ENDBRANCH  18  19
ENDBRANCH  17  18
ENDBRANCH   1  17
TORSDOF 26
ENDMDL
MODEL 5
REMARK VINA RESULT:    -5.653      1.725      7.283
REMARK INTER + INTRA:         -18.320
REMARK INTER:                 -14.170
REMARK INTRA:                  -4.150
REMARK UNBOUND:                -4.074
REMARK SMILES CCCCCCCCCCCCCCCCCCCCCCCCCCCC(=O)[O-]
REMARK SMILES IDX 15 1 16 2 17 3 18 4 19 5 20 6 21 7 22 8 23 9 24 10 25 11
REMARK SMILES IDX 26 12 27 13 28 14 29 15 30 16 14 17 13 18 12 19 11 20 10 21
REMARK SMILES IDX 9 22 8 23 7 24 6 25 5 26 4 27 3 28 2 29 1 30
REMARK H PARENT
REMARK Flexibility Score: inf
ROOT
ATOM      1  C   UNL     1     -18.040 -30.705  24.032  1.00  0.00     0.000 C 
ENDROOT
BRANCH   1   2
ATOM      2  C   UNL     1     -16.613 -30.872  23.484  1.00  0.00     0.000 C 
BRANCH   2   3
ATOM      3  C   UNL     1     -16.484 -30.436  22.015  1.00  0.00     0.000 C 
BRANCH   3   4
ATOM      4  C   UNL     1     -16.306 -28.916  21.856  1.00  0.00     0.000 C 
BRANCH   4   5
ATOM      5  C   UNL     1     -17.601 -28.135  21.559  1.00  0.00     0.000 C 
BRANCH   5   6
ATOM      6  C   UNL     1     -17.833 -26.967  22.529  1.00  0.00     0.000 C 
BRANCH   6   7
ATOM      7  C   UNL     1     -18.914 -27.311  23.566  1.00  0.00     0.000 C 
BRANCH   7   8
ATOM      8  C   UNL     1     -20.311 -27.452  22.940  1.00  0.00     0.000 C 
BRANCH   8   9
ATOM      9  C   UNL     1     -21.443 -27.287  23.965  1.00  0.00     0.000 C 
BRANCH   9  10
ATOM     10  C   UNL     1     -22.773 -27.806  23.402  1.00  0.00     0.000 C 
BRANCH  10  11
ATOM     11  C   UNL     1     -22.611 -28.534  22.056  1.00  0.00     0.000 C 
BRANCH  11  12
ATOM     12  C   UNL     1     -23.849 -28.427  21.142  1.00  0.00     0.006 C 
BRANCH  12  13
ATOM     13  C   UNL     1     -23.705 -27.310  20.099  1.00  0.00     0.053 C 
BRANCH  13  14
ATOM     14  C   UNL     1     -24.827 -26.329  20.229  1.00  0.00     0.041 C 
ATOM     15  O   UNL     1     -25.931 -26.688  20.716  1.00  0.00    -0.550 OA
ATOM     16  O   UNL     1     -24.672 -25.031  19.756  1.00  0.00    -0.550 OA
ENDBRANCH  13  14
ENDBRANCH  12  13
ENDBRANCH  11  12
ENDBRANCH  10  11
ENDBRANCH   9  10
ENDBRANCH   8   9
ENDBRANCH   7   8
ENDBRANCH   6   7
ENDBRANCH   5   6
ENDBRANCH   4   5
ENDBRANCH   3   4
ENDBRANCH   2   3
ENDBRANCH   1   2
BRANCH   1  17
ATOM     17  C   UNL     1     -19.117 -31.560  23.336  1.00  0.00     0.000 C 
BRANCH  17  18
ATOM     18  C   UNL     1     -20.564 -31.161  23.695  1.00  0.00     0.000 C 
BRANCH  18  19
ATOM     19  C   UNL     1     -21.608 -31.865  22.808  1.00  0.00     0.000 C 
BRANCH  19  20
ATOM     20  C   UNL     1     -22.919 -32.160  23.555  1.00  0.00     0.000 C 
BRANCH  20  21
ATOM     21  C   UNL     1     -23.130 -31.239  24.765  1.00  0.00     0.000 C 
BRANCH  21  22
ATOM     22  C   UNL     1     -24.531 -31.427  25.361  1.00  0.00    -0.000 C 
BRANCH  22  23
ATOM     23  C   UNL     1     -24.730 -32.870  25.849  1.00  0.00    -0.000 C 
BRANCH  23  24
ATOM     24  C   UNL     1     -26.104 -33.086  26.503  1.00  0.00    -0.000 C 
BRANCH  24  25
ATOM     25  C   UNL     1     -27.240 -32.398  25.725  1.00  0.00    -0.000 C 
BRANCH  25  26
ATOM     26  C   UNL     1     -27.646 -33.178  24.465  1.00  0.00    -0.000 C 
BRANCH  26  27
ATOM     27  C   UNL     1     -28.239 -32.272  23.371  1.00  0.00    -0.000 C 
BRANCH  27  28
ATOM     28  C   UNL     1     -27.359 -32.215  22.112  1.00  0.00    -0.000 C 
BRANCH  28  29
ATOM     29  C   UNL     1     -26.270 -31.136  22.202  1.00  0.00    -0.003 C 
ATOM     30  C   UNL     1     -26.810 -29.859  22.840  1.00  0.00     0.004 C 
ENDBRANCH  28  29
ENDBRANCH  27  28
ENDBRANCH  26  27
ENDBRANCH  25  26
ENDBRANCH  24  25
ENDBRANCH  23  24
ENDBRANCH  22  23
ENDBRANCH  21  22
ENDBRANCH  20  21
ENDBRANCH  19  20
ENDBRANCH  18  19
ENDBRANCH  17  18
ENDBRANCH   1  17
TORSDOF 26
ENDMDL
MODEL 6
REMARK VINA RESULT:    -5.645      1.653      2.884
REMARK INTER + INTRA:         -18.300
REMARK INTER:                 -13.640
REMARK INTRA:                  -4.660
REMARK UNBOUND:                -4.074
REMARK SMILES CCCCCCCCCCCCCCCCCCCCCCCCCCCC(=O)[O-]
REMARK SMILES IDX 15 1 16 2 17 3 18 4 19 5 20 6 21 7 22 8 23 9 24 10 25 11
REMARK SMILES IDX 26 12 27 13 28 14 29 15 30 16 14 17 13 18 12 19 11 20 10 21
REMARK SMILES IDX 9 22 8 23 7 24 6 25 5 26 4 27 3 28 2 29 1 30
REMARK H PARENT
REMARK Flexibility Score: inf
ROOT
ATOM      1  C   UNL     1     -27.369 -33.638  24.090  1.00  0.00     0.000 C 
ENDROOT
BRANCH   1   2
ATOM      2  C   UNL     1     -27.990 -33.082  22.797  1.00  0.00     0.000 C 
BRANCH   2   3
ATOM      3  C   UNL     1     -27.350 -31.757  22.350  1.00  0.00     0.000 C 
BRANCH   3   4
ATOM      4  C   UNL     1     -28.311 -30.560  22.464  1.00  0.00     0.000 C 
BRANCH   4   5
ATOM      5  C   UNL     1     -29.691 -30.886  23.067  1.00  0.00     0.000 C 
BRANCH   5   6
ATOM      6  C   UNL     1     -30.012 -30.053  24.316  1.00  0.00     0.000 C 
BRANCH   6   7
ATOM      7  C   UNL     1     -28.734 -29.471  24.941  1.00  0.00     0.000 C 
BRANCH   7   8
ATOM      8  C   UNL     1     -28.942 -28.055  25.502  1.00  0.00     0.000 C 
BRANCH   8   9
ATOM      9  C   UNL     1     -27.674 -27.192  25.425  1.00  0.00     0.000 C 
BRANCH   9  10
ATOM     10  C   UNL     1     -27.726 -26.245  24.218  1.00  0.00     0.000 C 
BRANCH  10  11
ATOM     11  C   UNL     1     -26.363 -26.084  23.524  1.00  0.00     0.000 C 
BRANCH  11  12
ATOM     12  C   UNL     1     -26.168 -27.025  22.317  1.00  0.00     0.006 C 
BRANCH  12  13
ATOM     13  C   UNL     1     -25.380 -26.358  21.181  1.00  0.00     0.053 C 
BRANCH  13  14
ATOM     14  C   UNL     1     -26.023 -26.648  19.862  1.00  0.00     0.041 C 
ATOM     15  O   UNL     1     -26.361 -25.704  19.100  1.00  0.00    -0.550 OA
ATOM     16  O   UNL     1     -26.303 -27.960  19.499  1.00  0.00    -0.550 OA
ENDBRANCH  13  14
ENDBRANCH  12  13
ENDBRANCH  11  12
ENDBRANCH  10  11
ENDBRANCH   9  10
ENDBRANCH   8   9
ENDBRANCH   7   8
ENDBRANCH   6   7
ENDBRANCH   5   6
ENDBRANCH   4   5
ENDBRANCH   3   4
ENDBRANCH   2   3
ENDBRANCH   1   2
BRANCH   1  17
ATOM     17  C   UNL     1     -27.761 -32.894  25.381  1.00  0.00     0.000 C 
BRANCH  17  18
ATOM     18  C   UNL     1     -26.557 -32.458  26.244  1.00  0.00     0.000 C 
BRANCH  18  19
ATOM     19  C   UNL     1     -25.225 -33.038  25.734  1.00  0.00     0.000 C 
BRANCH  19  20
ATOM     20  C   UNL     1     -24.164 -31.953  25.482  1.00  0.00     0.000 C 
BRANCH  20  21
ATOM     21  C   UNL     1     -24.007 -31.614  23.993  1.00  0.00     0.000 C 
BRANCH  21  22
ATOM     22  C   UNL     1     -24.386 -30.153  23.721  1.00  0.00    -0.000 C 
BRANCH  22  23
ATOM     23  C   UNL     1     -24.556 -29.375  25.035  1.00  0.00    -0.000 C 
BRANCH  23  24
ATOM     24  C   UNL     1     -23.756 -28.064  25.051  1.00  0.00    -0.000 C 
BRANCH  24  25
ATOM     25  C   UNL     1     -22.298 -28.259  24.600  1.00  0.00    -0.000 C 
BRANCH  25  26
ATOM     26  C   UNL     1     -21.363 -28.605  25.770  1.00  0.00    -0.000 C 
BRANCH  26  27
ATOM     27  C   UNL     1     -20.172 -29.481  25.339  1.00  0.00    -0.000 C 
BRANCH  27  28
ATOM     28  C   UNL     1     -20.331 -30.032  23.913  1.00  0.00    -0.000 C 
BRANCH  28  29
ATOM     29  C   UNL     1     -19.414 -31.234  23.641  1.00  0.00    -0.003 C 
ATOM     30  C   UNL     1     -17.944 -30.851  23.788  1.00  0.00     0.004 C 
ENDBRANCH  28  29
ENDBRANCH  27  28
ENDBRANCH  26  27
ENDBRANCH  25  26
ENDBRANCH  24  25
ENDBRANCH  23  24
ENDBRANCH  22  23
ENDBRANCH  21  22
ENDBRANCH  20  21
ENDBRANCH  19  20
ENDBRANCH  18  19
ENDBRANCH  17  18
ENDBRANCH   1  17
TORSDOF 26
ENDMDL
MODEL 7
REMARK VINA RESULT:    -5.625      1.755      7.476
REMARK INTER + INTRA:         -18.248
REMARK INTER:                 -14.464
REMARK INTRA:                  -3.784
REMARK UNBOUND:                -4.074
REMARK SMILES CCCCCCCCCCCCCCCCCCCCCCCCCCCC(=O)[O-]
REMARK SMILES IDX 15 1 16 2 17 3 18 4 19 5 20 6 21 7 22 8 23 9 24 10 25 11
REMARK SMILES IDX 26 12 27 13 28 14 29 15 30 16 14 17 13 18 12 19 11 20 10 21
REMARK SMILES IDX 9 22 8 23 7 24 6 25 5 26 4 27 3 28 2 29 1 30
REMARK H PARENT
REMARK Flexibility Score: inf
ROOT
ATOM      1  C   UNL     1     -18.110 -30.980  23.621  1.00  0.00     0.000 C 
ENDROOT
BRANCH   1   2
ATOM      2  C   UNL     1     -16.588 -31.053  23.409  1.00  0.00     0.000 C 
BRANCH   2   3
ATOM      3  C   UNL     1     -16.162 -30.629  21.994  1.00  0.00     0.000 C 
BRANCH   3   4
ATOM      4  C   UNL     1     -15.933 -29.112  21.867  1.00  0.00     0.000 C 
BRANCH   4   5
ATOM      5  C   UNL     1     -17.129 -28.316  21.311  1.00  0.00     0.000 C 
BRANCH   5   6
ATOM      6  C   UNL     1     -17.567 -27.168  22.232  1.00  0.00     0.000 C 
BRANCH   6   7
ATOM      7  C   UNL     1     -19.066 -26.870  22.076  1.00  0.00     0.000 C 
BRANCH   7   8
ATOM      8  C   UNL     1     -19.729 -26.461  23.402  1.00  0.00     0.000 C 
BRANCH   8   9
ATOM      9  C   UNL     1     -21.241 -26.734  23.420  1.00  0.00     0.000 C 
BRANCH   9  10
ATOM     10  C   UNL     1     -21.770 -26.989  22.002  1.00  0.00     0.000 C 
BRANCH  10  11
ATOM     11  C   UNL     1     -22.981 -27.937  21.975  1.00  0.00     0.000 C 
BRANCH  11  12
ATOM     12  C   UNL     1     -23.658 -28.036  20.592  1.00  0.00     0.006 C 
BRANCH  12  13
ATOM     13  C   UNL     1     -25.131 -27.607  20.634  1.00  0.00     0.053 C 
BRANCH  13  14
ATOM     14  C   UNL     1     -25.291 -26.240  20.048  1.00  0.00     0.041 C 
ATOM     15  O   UNL     1     -24.490 -25.319  20.357  1.00  0.00    -0.550 OA
ATOM     16  O   UNL     1     -26.363 -25.967  19.206  1.00  0.00    -0.550 OA
ENDBRANCH  13  14
ENDBRANCH  12  13
ENDBRANCH  11  12
ENDBRANCH  10  11
ENDBRANCH   9  10
ENDBRANCH   8   9
ENDBRANCH   7   8
ENDBRANCH   6   7
ENDBRANCH   5   6
ENDBRANCH   4   5
ENDBRANCH   3   4
ENDBRANCH   2   3
ENDBRANCH   1   2
BRANCH   1  17
ATOM     17  C   UNL     1     -18.598 -29.795  24.476  1.00  0.00     0.000 C 
BRANCH  17  18
ATOM     18  C   UNL     1     -20.050 -29.941  24.980  1.00  0.00     0.000 C 
BRANCH  18  19
ATOM     19  C   UNL     1     -20.974 -30.599  23.938  1.00  0.00     0.000 C 
BRANCH  19  20
ATOM     20  C   UNL     1     -22.455 -30.558  24.349  1.00  0.00     0.000 C 
BRANCH  20  21
ATOM     21  C   UNL     1     -23.308 -31.582  23.588  1.00  0.00     0.000 C 
BRANCH  21  22
ATOM     22  C   UNL     1     -24.704 -31.020  23.290  1.00  0.00    -0.000 C 
BRANCH  22  23
ATOM     23  C   UNL     1     -25.370 -31.785  22.136  1.00  0.00    -0.000 C 
BRANCH  23  24
ATOM     24  C   UNL     1     -26.902 -31.668  22.159  1.00  0.00    -0.000 C 
BRANCH  24  25
ATOM     25  C   UNL     1     -27.591 -33.018  22.425  1.00  0.00    -0.000 C 
BRANCH  25  26
ATOM     26  C   UNL     1     -27.749 -33.311  23.926  1.00  0.00    -0.000 C 
BRANCH  26  27
ATOM     27  C   UNL     1     -27.934 -32.032  24.764  1.00  0.00    -0.000 C 
BRANCH  27  28
ATOM     28  C   UNL     1     -26.930 -31.938  25.924  1.00  0.00    -0.000 C 
BRANCH  28  29
ATOM     29  C   UNL     1     -26.343 -33.305  26.308  1.00  0.00    -0.003 C 
ATOM     30  C   UNL     1     -24.818 -33.285  26.251  1.00  0.00     0.004 C 
ENDBRANCH  28  29
ENDBRANCH  27  28
ENDBRANCH  26  27
ENDBRANCH  25  26
ENDBRANCH  24  25
ENDBRANCH  23  24
ENDBRANCH  22  23
ENDBRANCH  21  22
ENDBRANCH  20  21
ENDBRANCH  19  20
ENDBRANCH  18  19
ENDBRANCH  17  18
ENDBRANCH   1  17
TORSDOF 26
ENDMDL
MODEL 8
REMARK VINA RESULT:    -5.614      1.770      7.179
REMARK INTER + INTRA:         -18.220
REMARK INTER:                 -14.331
REMARK INTRA:                  -3.889
REMARK UNBOUND:                -4.074
REMARK SMILES CCCCCCCCCCCCCCCCCCCCCCCCCCCC(=O)[O-]
REMARK SMILES IDX 15 1 16 2 17 3 18 4 19 5 20 6 21 7 22 8 23 9 24 10 25 11
REMARK SMILES IDX 26 12 27 13 28 14 29 15 30 16 14 17 13 18 12 19 11 20 10 21
REMARK SMILES IDX 9 22 8 23 7 24 6 25 5 26 4 27 3 28 2 29 1 30
REMARK H PARENT
REMARK Flexibility Score: inf
ROOT
ATOM      1  C   UNL     1     -15.991 -30.651  22.128  1.00  0.00     0.000 C 
ENDROOT
BRANCH   1   2
ATOM      2  C   UNL     1     -16.749 -29.623  21.272  1.00  0.00     0.000 C 
BRANCH   2   3
ATOM      3  C   UNL     1     -16.610 -28.187  21.803  1.00  0.00     0.000 C 
BRANCH   3   4
ATOM      4  C   UNL     1     -17.959 -27.450  21.893  1.00  0.00     0.000 C 
BRANCH   4   5
ATOM      5  C   UNL     1     -18.227 -26.744  23.236  1.00  0.00     0.000 C 
BRANCH   5   6
ATOM      6  C   UNL     1     -19.721 -26.663  23.584  1.00  0.00     0.000 C 
BRANCH   6   7
ATOM      7  C   UNL     1     -20.594 -27.056  22.381  1.00  0.00     0.000 C 
BRANCH   7   8
ATOM      8  C   UNL     1     -21.965 -27.610  22.802  1.00  0.00     0.000 C 
BRANCH   8   9
ATOM      9  C   UNL     1     -23.120 -26.649  22.481  1.00  0.00     0.000 C 
BRANCH   9  10
ATOM     10  C   UNL     1     -22.903 -25.965  21.123  1.00  0.00     0.000 C 
BRANCH  10  11
ATOM     11  C   UNL     1     -23.536 -26.740  19.954  1.00  0.00     0.000 C 
BRANCH  11  12
ATOM     12  C   UNL     1     -24.767 -27.576  20.361  1.00  0.00     0.006 C 
BRANCH  12  13
ATOM     13  C   UNL     1     -26.026 -27.174  19.582  1.00  0.00     0.053 C 
BRANCH  13  14
ATOM     14  C   UNL     1     -26.365 -25.740  19.843  1.00  0.00     0.041 C 
ATOM     15  O   UNL     1     -26.973 -25.413  20.896  1.00  0.00    -0.550 OA
ATOM     16  O   UNL     1     -26.062 -24.771  18.894  1.00  0.00    -0.550 OA
ENDBRANCH  13  14
ENDBRANCH  12  13
ENDBRANCH  11  12
ENDBRANCH  10  11
ENDBRANCH   9  10
ENDBRANCH   8   9
ENDBRANCH   7   8
ENDBRANCH   6   7
ENDBRANCH   5   6
ENDBRANCH   4   5
ENDBRANCH   3   4
ENDBRANCH   2   3
ENDBRANCH   1   2
BRANCH   1  17
ATOM     17  C   UNL     1     -16.618 -30.951  23.504  1.00  0.00     0.000 C 
BRANCH  17  18
ATOM     18  C   UNL     1     -18.148 -31.153  23.466  1.00  0.00     0.000 C 
BRANCH  18  19
ATOM     19  C   UNL     1     -18.889 -30.241  24.460  1.00  0.00     0.000 C 
BRANCH  19  20
ATOM     20  C   UNL     1     -20.417 -30.396  24.381  1.00  0.00     0.000 C 
BRANCH  20  21
ATOM     21  C   UNL     1     -20.855 -31.386  23.293  1.00  0.00     0.000 C 
BRANCH  21  22
ATOM     22  C   UNL     1     -22.215 -32.010  23.634  1.00  0.00    -0.000 C 
BRANCH  22  23
ATOM     23  C   UNL     1     -23.231 -30.928  24.031  1.00  0.00    -0.000 C 
BRANCH  23  24
ATOM     24  C   UNL     1     -24.187 -30.569  22.883  1.00  0.00    -0.000 C 
BRANCH  24  25
ATOM     25  C   UNL     1     -24.930 -31.798  22.330  1.00  0.00    -0.000 C 
BRANCH  25  26
ATOM     26  C   UNL     1     -26.455 -31.606  22.318  1.00  0.00    -0.000 C 
BRANCH  26  27
ATOM     27  C   UNL     1     -27.057 -31.546  23.734  1.00  0.00    -0.000 C 
BRANCH  27  28
ATOM     28  C   UNL     1     -26.811 -32.834  24.535  1.00  0.00    -0.000 C 
BRANCH  28  29
ATOM     29  C   UNL     1     -26.212 -32.561  25.923  1.00  0.00    -0.003 C 
ATOM     30  C   UNL     1     -24.907 -33.328  26.120  1.00  0.00     0.004 C 
ENDBRANCH  28  29
ENDBRANCH  27  28
ENDBRANCH  26  27
ENDBRANCH  25  26
ENDBRANCH  24  25
ENDBRANCH  23  24
ENDBRANCH  22  23
ENDBRANCH  21  22
ENDBRANCH  20  21
ENDBRANCH  19  20
ENDBRANCH  18  19
ENDBRANCH  17  18
ENDBRANCH   1  17
TORSDOF 26
ENDMDL
MODEL 9
REMARK VINA RESULT:    -5.597      3.208      6.931
REMARK INTER + INTRA:         -18.177
REMARK INTER:                 -14.719
REMARK INTRA:                  -3.458
REMARK UNBOUND:                -4.074
REMARK SMILES CCCCCCCCCCCCCCCCCCCCCCCCCCCC(=O)[O-]
REMARK SMILES IDX 15 1 16 2 17 3 18 4 19 5 20 6 21 7 22 8 23 9 24 10 25 11
REMARK SMILES IDX 26 12 27 13 28 14 29 15 30 16 14 17 13 18 12 19 11 20 10 21
REMARK SMILES IDX 9 22 8 23 7 24 6 25 5 26 4 27 3 28 2 29 1 30
REMARK H PARENT
REMARK Flexibility Score: inf
ROOT
ATOM      1  C   UNL     1     -28.649 -31.368  22.496  1.00  0.00     0.000 C 
ENDROOT
BRANCH   1   2
ATOM      2  C   UNL     1     -28.244 -32.797  22.097  1.00  0.00     0.000 C 
BRANCH   2   3
ATOM      3  C   UNL     1     -27.944 -33.692  23.310  1.00  0.00     0.000 C 
BRANCH   3   4
ATOM      4  C   UNL     1     -27.246 -32.935  24.454  1.00  0.00     0.000 C 
BRANCH   4   5
ATOM      5  C   UNL     1     -25.823 -32.438  24.135  1.00  0.00     0.000 C 
BRANCH   5   6
ATOM      6  C   UNL     1     -25.097 -31.866  25.362  1.00  0.00     0.000 C 
BRANCH   6   7
ATOM      7  C   UNL     1     -23.590 -31.723  25.100  1.00  0.00     0.000 C 
BRANCH   7   8
ATOM      8  C   UNL     1     -23.240 -31.790  23.605  1.00  0.00     0.000 C 
BRANCH   8   9
ATOM      9  C   UNL     1     -21.816 -31.296  23.303  1.00  0.00     0.000 C 
BRANCH   9  10
ATOM     10  C   UNL     1     -21.273 -30.449  24.463  1.00  0.00     0.000 C 
BRANCH  10  11
ATOM     11  C   UNL     1     -19.767 -30.157  24.337  1.00  0.00     0.000 C 
BRANCH  11  12
ATOM     12  C   UNL     1     -18.981 -31.268  23.611  1.00  0.00     0.006 C 
BRANCH  12  13
ATOM     13  C   UNL     1     -17.470 -30.999  23.602  1.00  0.00     0.053 C 
BRANCH  13  14
ATOM     14  C   UNL     1     -17.092 -30.186  22.405  1.00  0.00     0.041 C 
ATOM     15  O   UNL     1     -16.607 -30.744  21.386  1.00  0.00    -0.550 OA
ATOM     16  O   UNL     1     -17.220 -28.802  22.438  1.00  0.00    -0.550 OA
ENDBRANCH  13  14
ENDBRANCH  12  13
ENDBRANCH  11  12
ENDBRANCH  10  11
ENDBRANCH   9  10
ENDBRANCH   8   9
ENDBRANCH   7   8
ENDBRANCH   6   7
ENDBRANCH   5   6
ENDBRANCH   4   5
ENDBRANCH   3   4
ENDBRANCH   2   3
ENDBRANCH   1   2
BRANCH   1  17
ATOM     17  C   UNL     1     -30.156 -31.061  22.402  1.00  0.00     0.000 C 
BRANCH  17  18
ATOM     18  C   UNL     1     -30.721 -30.308  23.625  1.00  0.00     0.000 C 
BRANCH  18  19
ATOM     19  C   UNL     1     -29.739 -30.287  24.811  1.00  0.00     0.000 C 
BRANCH  19  20
ATOM     20  C   UNL     1     -29.678 -28.916  25.506  1.00  0.00     0.000 C 
BRANCH  20  21
ATOM     21  C   UNL     1     -28.397 -28.140  25.171  1.00  0.00     0.000 C 
BRANCH  21  22
ATOM     22  C   UNL     1     -27.207 -29.093  24.998  1.00  0.00    -0.000 C 
BRANCH  22  23
ATOM     23  C   UNL     1     -26.483 -28.831  23.668  1.00  0.00    -0.000 C 
BRANCH  23  24
ATOM     24  C   UNL     1     -25.017 -28.420  23.867  1.00  0.00    -0.000 C 
BRANCH  24  25
ATOM     25  C   UNL     1     -24.829 -26.892  23.866  1.00  0.00    -0.000 C 
BRANCH  25  26
ATOM     26  C   UNL     1     -25.884 -26.171  23.013  1.00  0.00    -0.000 C 
BRANCH  26  27
ATOM     27  C   UNL     1     -25.297 -25.573  21.722  1.00  0.00    -0.000 C 
BRANCH  27  28
ATOM     28  C   UNL     1     -24.966 -26.647  20.673  1.00  0.00    -0.000 C 
BRANCH  28  29
ATOM     29  C   UNL     1     -25.965 -26.659  19.506  1.00  0.00    -0.003 C 
ATOM     30  C   UNL     1     -26.444 -25.248  19.177  1.00  0.00     0.004 C 
ENDBRANCH  28  29
ENDBRANCH  27  28
ENDBRANCH  26  27
ENDBRANCH  25  26
ENDBRANCH  24  25
ENDBRANCH  23  24
ENDBRANCH  22  23
ENDBRANCH  21  22
ENDBRANCH  20  21
ENDBRANCH  19  20
ENDBRANCH  18  19
ENDBRANCH  17  18
ENDBRANCH   1  17
TORSDOF 26
ENDMDL
