MODEL 1
REMARK VINA RESULT:    -5.001      0.000      0.000
REMARK INTER + INTRA:          -5.580
REMARK INTER:                  -5.294
REMARK INTRA:                  -0.286
REMARK UNBOUND:                -0.286
REMARK SMILES CC1=CC[C@@]23[C@@H]([C@H](C(C)C)CC[C@H]2C)[C@H]13
REMARK SMILES IDX 14 1 13 2 12 3 11 4 7 5 6 6 5 7 15 8 2 9 3 10 4 11 1 12 8 13
REMARK SMILES IDX 9 14 10 15
REMARK H PARENT
REMARK Flexibility Score: inf
ROOT
ATOM      1  C   UNL     1      10.486  14.385  38.949  1.00  0.00     0.008 C 
ATOM      2  C   UNL     1      11.882  15.028  38.924  1.00  0.00    -0.007 C 
ATOM      3  C   UNL     1      11.805  16.525  39.286  1.00  0.00     0.004 C 
ATOM      4  C   UNL     1      11.229  17.371  38.151  1.00  0.00     0.004 C 
ATOM      5  C   UNL     1      11.975  17.237  36.795  1.00  0.00    -0.004 C 
ATOM      6  C   UNL     1      12.647  15.867  36.504  1.00  0.00     0.007 C 
ATOM      7  C   UNL     1      12.568  14.761  37.561  1.00  0.00    -0.013 C 
ATOM      8  C   UNL     1      13.891  15.490  37.315  1.00  0.00     0.025 C 
ATOM      9  C   UNL     1      14.771  14.458  36.696  1.00  0.00    -0.073 C 
ATOM     10  C   UNL     1      14.178  13.278  36.584  1.00  0.00    -0.027 C 
ATOM     11  C   UNL     1      12.781  13.310  37.095  1.00  0.00     0.035 C 
ATOM     12  C   UNL     1      16.171  14.728  36.243  1.00  0.00     0.039 C 
ENDROOT
BRANCH   5  13
ATOM     13  C   UNL     1      12.847  18.480  36.431  1.00  0.00    -0.014 C 
ATOM     14  C   UNL     1      13.715  19.018  37.578  1.00  0.00     0.007 C 
ATOM     15  C   UNL     1      13.717  18.222  35.190  1.00  0.00     0.007 C 
ENDBRANCH   5  13
TORSDOF 1
ENDMDL
MODEL 2
REMARK VINA RESULT:    -4.949      1.131      3.683
REMARK INTER + INTRA:          -5.524
REMARK INTER:                  -5.229
REMARK INTRA:                  -0.295
REMARK UNBOUND:                -0.286
REMARK SMILES CC1=CC[C@@]23[C@@H]([C@H](C(C)C)CC[C@H]2C)[C@H]13
REMARK SMILES IDX 14 1 13 2 12 3 11 4 7 5 6 6 5 7 15 8 2 9 3 10 4 11 1 12 8 13
REMARK SMILES IDX 9 14 10 15
REMARK H PARENT
REMARK Flexibility Score: inf
ROOT
ATOM      1  C   UNL     1      14.178  19.151  36.397  1.00  0.00     0.008 C 
ATOM      2  C   UNL     1      13.662  17.776  35.942  1.00  0.00    -0.007 C 
ATOM      3  C   UNL     1      12.120  17.753  35.898  1.00  0.00     0.004 C 
ATOM      4  C   UNL     1      11.497  17.695  37.293  1.00  0.00     0.004 C 
ATOM      5  C   UNL     1      11.976  16.506  38.171  1.00  0.00    -0.004 C 
ATOM      6  C   UNL     1      13.423  15.998  37.924  1.00  0.00     0.007 C 
ATOM      7  C   UNL     1      14.266  16.659  36.830  1.00  0.00    -0.013 C 
ATOM      8  C   UNL     1      13.708  15.249  36.618  1.00  0.00     0.025 C 
ATOM      9  C   UNL     1      14.912  14.371  36.633  1.00  0.00    -0.073 C 
ATOM     10  C   UNL     1      16.042  15.049  36.785  1.00  0.00    -0.027 C 
ATOM     11  C   UNL     1      15.796  16.510  36.917  1.00  0.00     0.035 C 
ATOM     12  C   UNL     1      14.853  12.882  36.498  1.00  0.00     0.039 C 
ENDROOT
BRANCH   5  13
ATOM     13  C   UNL     1      10.909  15.378  38.337  1.00  0.00    -0.014 C 
ATOM     14  C   UNL     1      11.256  14.311  39.387  1.00  0.00     0.007 C 
ATOM     15  C   UNL     1       9.511  15.953  38.615  1.00  0.00     0.007 C 
ENDBRANCH   5  13
TORSDOF 1
ENDMDL
MODEL 3
REMARK VINA RESULT:    -4.937     12.142     14.288
REMARK INTER + INTRA:          -5.512
REMARK INTER:                  -5.324
REMARK INTRA:                  -0.188
REMARK UNBOUND:                -0.286
REMARK SMILES CC1=CC[C@@]23[C@@H]([C@H](C(C)C)CC[C@H]2C)[C@H]13
REMARK SMILES IDX 14 1 13 2 12 3 11 4 7 5 6 6 5 7 15 8 2 9 3 10 4 11 1 12 8 13
REMARK SMILES IDX 9 14 10 15
REMARK H PARENT
REMARK Flexibility Score: inf
ROOT
ATOM      1  C   UNL     1       7.526  21.560  27.365  1.00  0.00     0.008 C 
ATOM      2  C   UNL     1       8.265  21.553  26.018  1.00  0.00    -0.007 C 
ATOM      3  C   UNL     1       7.321  21.963  24.869  1.00  0.00     0.004 C 
ATOM      4  C   UNL     1       6.331  20.857  24.504  1.00  0.00     0.004 C 
ATOM      5  C   UNL     1       6.983  19.495  24.136  1.00  0.00    -0.004 C 
ATOM      6  C   UNL     1       8.330  19.158  24.830  1.00  0.00     0.007 C 
ATOM      7  C   UNL     1       8.946  20.179  25.791  1.00  0.00    -0.013 C 
ATOM      8  C   UNL     1       9.572  19.953  24.412  1.00  0.00     0.025 C 
ATOM      9  C   UNL     1      10.879  19.300  24.704  1.00  0.00    -0.073 C 
ATOM     10  C   UNL     1      11.102  19.151  26.002  1.00  0.00    -0.027 C 
ATOM     11  C   UNL     1       9.970  19.667  26.820  1.00  0.00     0.035 C 
ATOM     12  C   UNL     1      11.835  18.851  23.644  1.00  0.00     0.039 C 
ENDROOT
BRANCH   5  13
ATOM     13  C   UNL     1       6.937  19.169  22.609  1.00  0.00    -0.014 C 
ATOM     14  C   UNL     1       7.919  18.079  22.152  1.00  0.00     0.007 C 
ATOM     15  C   UNL     1       5.514  18.823  22.143  1.00  0.00     0.007 C 
ENDBRANCH   5  13
TORSDOF 1
ENDMDL
MODEL 4
REMARK VINA RESULT:    -4.915     12.190     14.412
REMARK INTER + INTRA:          -5.488
REMARK INTER:                  -5.257
REMARK INTRA:                  -0.231
REMARK UNBOUND:                -0.286
REMARK SMILES CC1=CC[C@@]23[C@@H]([C@H](C(C)C)CC[C@H]2C)[C@H]13
REMARK SMILES IDX 14 1 13 2 12 3 11 4 7 5 6 6 5 7 15 8 2 9 3 10 4 11 1 12 8 13
REMARK SMILES IDX 9 14 10 15
REMARK H PARENT
REMARK Flexibility Score: inf
ROOT
ATOM      1  C   UNL     1      10.086  18.871  27.324  1.00  0.00     0.008 C 
ATOM      2  C   UNL     1       9.819  20.012  26.329  1.00  0.00    -0.007 C 
ATOM      3  C   UNL     1       8.371  20.529  26.460  1.00  0.00     0.004 C 
ATOM      4  C   UNL     1       7.349  19.563  25.861  1.00  0.00     0.004 C 
ATOM      5  C   UNL     1       7.600  19.190  24.374  1.00  0.00    -0.004 C 
ATOM      6  C   UNL     1       9.078  19.178  23.899  1.00  0.00     0.007 C 
ATOM      7  C   UNL     1      10.180  19.560  24.891  1.00  0.00    -0.013 C 
ATOM      8  C   UNL     1       9.800  20.523  23.764  1.00  0.00     0.025 C 
ATOM      9  C   UNL     1      10.988  20.525  22.865  1.00  0.00    -0.073 C 
ATOM     10  C   UNL     1      11.972  19.756  23.311  1.00  0.00    -0.027 C 
ATOM     11  C   UNL     1      11.612  19.084  24.589  1.00  0.00     0.035 C 
ATOM     12  C   UNL     1      11.061  21.305  21.590  1.00  0.00     0.039 C 
ENDROOT
BRANCH   5  13
ATOM     13  C   UNL     1       6.602  19.865  23.380  1.00  0.00    -0.014 C 
ATOM     14  C   UNL     1       5.699  18.890  22.610  1.00  0.00     0.007 C 
ATOM     15  C   UNL     1       5.746  20.938  24.073  1.00  0.00     0.007 C 
ENDBRANCH   5  13
TORSDOF 1
ENDMDL
MODEL 5
REMARK VINA RESULT:    -4.857     10.961     13.344
REMARK INTER + INTRA:          -5.427
REMARK INTER:                  -5.233
REMARK INTRA:                  -0.194
REMARK UNBOUND:                -0.286
REMARK SMILES CC1=CC[C@@]23[C@@H]([C@H](C(C)C)CC[C@H]2C)[C@H]13
REMARK SMILES IDX 14 1 13 2 12 3 11 4 7 5 6 6 5 7 15 8 2 9 3 10 4 11 1 12 8 13
REMARK SMILES IDX 9 14 10 15
REMARK H PARENT
REMARK Flexibility Score: inf
ROOT
ATOM      1  C   UNL     1       7.740  19.257  25.349  1.00  0.00     0.008 C 
ATOM      2  C   UNL     1       8.948  20.205  25.420  1.00  0.00    -0.007 C 
ATOM      3  C   UNL     1       9.114  20.984  24.099  1.00  0.00     0.004 C 
ATOM      4  C   UNL     1       9.671  20.113  22.973  1.00  0.00     0.004 C 
ATOM      5  C   UNL     1      11.020  19.413  23.298  1.00  0.00    -0.004 C 
ATOM      6  C   UNL     1      11.273  19.047  24.786  1.00  0.00     0.007 C 
ATOM      7  C   UNL     1      10.218  19.420  25.832  1.00  0.00    -0.013 C 
ATOM      8  C   UNL     1      11.540  20.190  25.771  1.00  0.00     0.025 C 
ATOM      9  C   UNL     1      12.249  19.803  27.023  1.00  0.00    -0.073 C 
ATOM     10  C   UNL     1      11.541  18.978  27.782  1.00  0.00    -0.027 C 
ATOM     11  C   UNL     1      10.228  18.649  27.164  1.00  0.00     0.035 C 
ATOM     12  C   UNL     1      13.619  20.287  27.382  1.00  0.00     0.039 C 
ENDROOT
BRANCH   5  13
ATOM     13  C   UNL     1      12.247  20.041  22.564  1.00  0.00    -0.014 C 
ATOM     14  C   UNL     1      12.143  21.552  22.309  1.00  0.00     0.007 C 
ATOM     15  C   UNL     1      13.567  19.719  23.283  1.00  0.00     0.007 C 
ENDBRANCH   5  13
TORSDOF 1
ENDMDL
MODEL 6
REMARK VINA RESULT:    -4.744     11.211     13.945
REMARK INTER + INTRA:          -5.307
REMARK INTER:                  -5.057
REMARK INTRA:                  -0.251
REMARK UNBOUND:                -0.286
REMARK SMILES CC1=CC[C@@]23[C@@H]([C@H](C(C)C)CC[C@H]2C)[C@H]13
REMARK SMILES IDX 14 1 13 2 12 3 11 4 7 5 6 6 5 7 15 8 2 9 3 10 4 11 1 12 8 13
REMARK SMILES IDX 9 14 10 15
REMARK H PARENT
REMARK Flexibility Score: inf
ROOT
ATOM      1  C   UNL     1      10.866  21.111  21.828  1.00  0.00     0.008 C 
ATOM      2  C   UNL     1      10.337  21.437  23.234  1.00  0.00    -0.007 C 
ATOM      3  C   UNL     1      11.422  22.130  24.084  1.00  0.00     0.004 C 
ATOM      4  C   UNL     1      12.506  21.159  24.551  1.00  0.00     0.004 C 
ATOM      5  C   UNL     1      11.981  19.929  25.342  1.00  0.00    -0.004 C 
ATOM      6  C   UNL     1      10.562  19.418  24.973  1.00  0.00     0.007 C 
ATOM      7  C   UNL     1       9.762  20.160  23.897  1.00  0.00    -0.013 C 
ATOM      8  C   UNL     1       9.361  20.284  25.369  1.00  0.00     0.025 C 
ATOM      9  C   UNL     1       8.057  19.568  25.457  1.00  0.00    -0.073 C 
ATOM     10  C   UNL     1       7.649  19.096  24.287  1.00  0.00    -0.027 C 
ATOM     11  C   UNL     1       8.621  19.398  23.201  1.00  0.00     0.035 C 
ATOM     12  C   UNL     1       7.292  19.394  26.731  1.00  0.00     0.039 C 
ENDROOT
BRANCH   5  13
ATOM     13  C   UNL     1      12.269  19.998  26.875  1.00  0.00    -0.014 C 
ATOM     14  C   UNL     1      11.581  18.908  27.711  1.00  0.00     0.007 C 
ATOM     15  C   UNL     1      13.778  20.012  27.171  1.00  0.00     0.007 C 
ENDBRANCH   5  13
TORSDOF 1
ENDMDL
MODEL 7
REMARK VINA RESULT:    -4.590     13.907     15.999
REMARK INTER + INTRA:          -5.144
REMARK INTER:                  -4.853
REMARK INTRA:                  -0.291
REMARK UNBOUND:                -0.286
REMARK SMILES CC1=CC[C@@]23[C@@H]([C@H](C(C)C)CC[C@H]2C)[C@H]13
REMARK SMILES IDX 14 1 13 2 12 3 11 4 7 5 6 6 5 7 15 8 2 9 3 10 4 11 1 12 8 13
REMARK SMILES IDX 9 14 10 15
REMARK H PARENT
REMARK Flexibility Score: inf
ROOT
ATOM      1  C   UNL     1       8.279  18.111  22.085  1.00  0.00     0.008 C 
ATOM      2  C   UNL     1       7.207  18.384  23.152  1.00  0.00    -0.007 C 
ATOM      3  C   UNL     1       5.801  18.429  22.520  1.00  0.00     0.004 C 
ATOM      4  C   UNL     1       5.557  19.714  21.728  1.00  0.00     0.004 C 
ATOM      5  C   UNL     1       5.771  21.025  22.534  1.00  0.00    -0.004 C 
ATOM      6  C   UNL     1       6.829  20.979  23.670  1.00  0.00     0.007 C 
ATOM      7  C   UNL     1       7.562  19.664  23.949  1.00  0.00    -0.013 C 
ATOM      8  C   UNL     1       6.498  20.169  24.928  1.00  0.00     0.025 C 
ATOM      9  C   UNL     1       7.267  20.540  26.149  1.00  0.00    -0.073 C 
ATOM     10  C   UNL     1       8.566  20.300  26.032  1.00  0.00    -0.027 C 
ATOM     11  C   UNL     1       8.906  19.738  24.696  1.00  0.00     0.035 C 
ATOM     12  C   UNL     1       6.641  21.127  27.375  1.00  0.00     0.039 C 
ENDROOT
BRANCH   5  13
ATOM     13  C   UNL     1       4.443  21.755  22.910  1.00  0.00    -0.014 C 
ATOM     14  C   UNL     1       4.616  23.203  23.395  1.00  0.00     0.007 C 
ATOM     15  C   UNL     1       3.420  21.704  21.764  1.00  0.00     0.007 C 
ENDBRANCH   5  13
TORSDOF 1
ENDMDL
MODEL 8
REMARK VINA RESULT:    -4.558     11.785     14.207
REMARK INTER + INTRA:          -5.111
REMARK INTER:                  -4.832
REMARK INTRA:                  -0.279
REMARK UNBOUND:                -0.286
REMARK SMILES CC1=CC[C@@]23[C@@H]([C@H](C(C)C)CC[C@H]2C)[C@H]13
REMARK SMILES IDX 14 1 13 2 12 3 11 4 7 5 6 6 5 7 15 8 2 9 3 10 4 11 1 12 8 13
REMARK SMILES IDX 9 14 10 15
REMARK H PARENT
REMARK Flexibility Score: inf
ROOT
ATOM      1  C   UNL     1      10.377  20.006  27.706  1.00  0.00     0.008 C 
ATOM      2  C   UNL     1      10.557  19.297  26.353  1.00  0.00    -0.007 C 
ATOM      3  C   UNL     1      12.017  19.402  25.867  1.00  0.00     0.004 C 
ATOM      4  C   UNL     1      12.363  20.799  25.353  1.00  0.00     0.004 C 
ATOM      5  C   UNL     1      11.435  21.325  24.223  1.00  0.00    -0.004 C 
ATOM      6  C   UNL     1       9.965  20.826  24.241  1.00  0.00     0.007 C 
ATOM      7  C   UNL     1       9.529  19.838  25.328  1.00  0.00    -0.013 C 
ATOM      8  C   UNL     1       9.699  19.359  23.883  1.00  0.00     0.025 C 
ATOM      9  C   UNL     1       8.313  19.052  23.432  1.00  0.00    -0.073 C 
ATOM     10  C   UNL     1       7.408  19.245  24.381  1.00  0.00    -0.027 C 
ATOM     11  C   UNL     1       8.026  19.737  25.642  1.00  0.00     0.035 C 
ATOM     12  C   UNL     1       7.977  18.581  22.052  1.00  0.00     0.039 C 
ENDROOT
BRANCH   5  13
ATOM     13  C   UNL     1      12.104  21.329  22.812  1.00  0.00    -0.014 C 
ATOM     14  C   UNL     1      12.927  20.074  22.483  1.00  0.00     0.007 C 
ATOM     15  C   UNL     1      11.079  21.591  21.696  1.00  0.00     0.007 C 
ENDBRANCH   5  13
TORSDOF 1
ENDMDL
MODEL 9
REMARK VINA RESULT:    -4.554     11.052     13.720
REMARK INTER + INTRA:          -5.107
REMARK INTER:                  -4.816
REMARK INTRA:                  -0.290
REMARK UNBOUND:                -0.286
REMARK SMILES CC1=CC[C@@]23[C@@H]([C@H](C(C)C)CC[C@H]2C)[C@H]13
REMARK SMILES IDX 14 1 13 2 12 3 11 4 7 5 6 6 5 7 15 8 2 9 3 10 4 11 1 12 8 13
REMARK SMILES IDX 9 14 10 15
REMARK H PARENT
REMARK Flexibility Score: inf
ROOT
ATOM      1  C   UNL     1      12.855  20.165  22.209  1.00  0.00     0.008 C 
ATOM      2  C   UNL     1      12.358  19.259  23.347  1.00  0.00    -0.007 C 
ATOM      3  C   UNL     1      11.073  18.511  22.934  1.00  0.00     0.004 C 
ATOM      4  C   UNL     1       9.846  19.422  22.919  1.00  0.00     0.004 C 
ATOM      5  C   UNL     1       9.568  20.163  24.255  1.00  0.00    -0.004 C 
ATOM      6  C   UNL     1      10.805  20.510  25.129  1.00  0.00     0.007 C 
ATOM      7  C   UNL     1      12.195  20.081  24.651  1.00  0.00    -0.013 C 
ATOM      8  C   UNL     1      11.536  19.360  25.829  1.00  0.00     0.025 C 
ATOM      9  C   UNL     1      12.361  19.748  27.007  1.00  0.00    -0.073 C 
ATOM     10  C   UNL     1      13.380  20.533  26.686  1.00  0.00    -0.027 C 
ATOM     11  C   UNL     1      13.412  20.827  25.228  1.00  0.00     0.035 C 
ATOM     12  C   UNL     1      12.066  19.306  28.406  1.00  0.00     0.039 C 
ENDROOT
BRANCH   5  13
ATOM     13  C   UNL     1       8.350  19.593  25.049  1.00  0.00    -0.014 C 
ATOM     14  C   UNL     1       7.829  20.502  26.173  1.00  0.00     0.007 C 
ATOM     15  C   UNL     1       7.195  19.200  24.114  1.00  0.00     0.007 C 
ENDBRANCH   5  13
TORSDOF 1
ENDMDL
