MODEL 1
REMARK VINA RESULT:    -6.115      0.000      0.000
REMARK INTER + INTRA:          -6.738
REMARK INTER:                  -6.472
REMARK INTRA:                  -0.266
REMARK UNBOUND:                -0.266
REMARK SMILES O=c1cc(-c2ccccc2)oc2ccccc12
REMARK SMILES IDX 4 1 3 2 2 3 1 4 17 5 16 6 15 7 14 8 13 9 12 10 11 11 5 12
REMARK SMILES IDX 8 13 7 14 9 15 6 16 10 17
REMARK H PARENT
REMARK Flexibility Score: inf
ROOT
ATOM      1  C   UNL     1     -21.551  81.485 -23.385  1.00  0.00     0.138 A 
ATOM      2  C   UNL     1     -21.399  81.879 -24.732  1.00  0.00     0.100 A 
ATOM      3  C   UNL     1     -21.204  80.907 -25.715  1.00  0.00     0.193 A 
ATOM      4  O   UNL     1     -21.069  81.259 -26.919  1.00  0.00    -0.289 OA
ATOM      5  C   UNL     1     -21.163  79.554 -25.350  1.00  0.00     0.065 A 
ATOM      6  C   UNL     1     -20.970  78.526 -26.291  1.00  0.00     0.016 A 
ATOM      7  C   UNL     1     -20.936  77.192 -25.873  1.00  0.00     0.001 A 
ATOM      8  C   UNL     1     -21.094  76.875 -24.520  1.00  0.00     0.004 A 
ATOM      9  C   UNL     1     -21.287  77.890 -23.579  1.00  0.00     0.048 A 
ATOM     10  C   UNL     1     -21.322  79.228 -23.986  1.00  0.00     0.138 A 
ATOM     11  O   UNL     1     -21.504  80.186 -23.084  1.00  0.00    -0.456 OA
ENDROOT
BRANCH   1  12
ATOM     12  C   UNL     1     -21.763  82.461 -22.271  1.00  0.00     0.017 A 
ATOM     13  C   UNL     1     -22.170  84.372 -20.235  1.00  0.00     0.000 A 
ATOM     14  C   UNL     1     -21.980  83.030 -19.905  1.00  0.00     0.001 A 
ATOM     15  C   UNL     1     -22.159  84.768 -21.570  1.00  0.00     0.001 A 
ATOM     16  C   UNL     1     -21.779  82.078 -20.910  1.00  0.00     0.012 A 
ATOM     17  C   UNL     1     -21.957  83.823 -22.581  1.00  0.00     0.012 A 
ENDBRANCH   1  12
TORSDOF 1
ENDMDL
MODEL 2
REMARK VINA RESULT:    -6.049      2.864      4.719
REMARK INTER + INTRA:          -6.668
REMARK INTER:                  -6.447
REMARK INTRA:                  -0.221
REMARK UNBOUND:                -0.266
REMARK SMILES O=c1cc(-c2ccccc2)oc2ccccc12
REMARK SMILES IDX 4 1 3 2 2 3 1 4 17 5 16 6 15 7 14 8 13 9 12 10 11 11 5 12
REMARK SMILES IDX 8 13 7 14 9 15 6 16 10 17
REMARK H PARENT
REMARK Flexibility Score: inf
ROOT
ATOM      1  C   UNL     1     -22.455  84.616 -23.214  1.00  0.00     0.138 A 
ATOM      2  C   UNL     1     -22.488  84.350 -21.829  1.00  0.00     0.100 A 
ATOM      3  C   UNL     1     -22.111  83.090 -21.361  1.00  0.00     0.193 A 
ATOM      4  O   UNL     1     -22.140  82.852 -20.123  1.00  0.00    -0.289 OA
ATOM      5  C   UNL     1     -21.705  82.107 -22.275  1.00  0.00     0.065 A 
ATOM      6  C   UNL     1     -21.313  80.818 -21.869  1.00  0.00     0.016 A 
ATOM      7  C   UNL     1     -20.917  79.875 -22.822  1.00  0.00     0.001 A 
ATOM      8  C   UNL     1     -20.909  80.209 -24.180  1.00  0.00     0.004 A 
ATOM      9  C   UNL     1     -21.296  81.486 -24.592  1.00  0.00     0.048 A 
ATOM     10  C   UNL     1     -21.695  82.438 -23.646  1.00  0.00     0.138 A 
ATOM     11  O   UNL     1     -22.062  83.651 -24.047  1.00  0.00    -0.456 OA
ENDROOT
BRANCH   1  12
ATOM     12  C   UNL     1     -22.843  85.937 -23.799  1.00  0.00     0.017 A 
ATOM     13  C   UNL     1     -23.481  88.461 -24.890  1.00  0.00     0.000 A 
ATOM     14  C   UNL     1     -24.463  87.475 -24.789  1.00  0.00     0.001 A 
ATOM     15  C   UNL     1     -22.184  88.198 -24.452  1.00  0.00     0.001 A 
ATOM     16  C   UNL     1     -24.152  86.222 -24.249  1.00  0.00     0.012 A 
ATOM     17  C   UNL     1     -21.865  86.949 -23.911  1.00  0.00     0.012 A 
ENDBRANCH   1  12
TORSDOF 1
ENDMDL
MODEL 3
REMARK VINA RESULT:    -6.038      4.108      6.658
REMARK INTER + INTRA:          -6.656
REMARK INTER:                  -6.401
REMARK INTRA:                  -0.255
REMARK UNBOUND:                -0.266
REMARK SMILES O=c1cc(-c2ccccc2)oc2ccccc12
REMARK SMILES IDX 4 1 3 2 2 3 1 4 17 5 16 6 15 7 14 8 13 9 12 10 11 11 5 12
REMARK SMILES IDX 8 13 7 14 9 15 6 16 10 17
REMARK H PARENT
REMARK Flexibility Score: inf
ROOT
ATOM      1  C   UNL     1     -22.900  84.986 -23.248  1.00  0.00     0.138 A 
ATOM      2  C   UNL     1     -23.711  84.427 -24.258  1.00  0.00     0.100 A 
ATOM      3  C   UNL     1     -24.107  85.218 -25.338  1.00  0.00     0.193 A 
ATOM      4  O   UNL     1     -24.832  84.719 -26.242  1.00  0.00    -0.289 OA
ATOM      5  C   UNL     1     -23.694  86.556 -25.403  1.00  0.00     0.065 A 
ATOM      6  C   UNL     1     -24.058  87.407 -26.463  1.00  0.00     0.016 A 
ATOM      7  C   UNL     1     -23.619  88.734 -26.478  1.00  0.00     0.001 A 
ATOM      8  C   UNL     1     -22.816  89.220 -25.441  1.00  0.00     0.004 A 
ATOM      9  C   UNL     1     -22.450  88.383 -24.385  1.00  0.00     0.048 A 
ATOM     10  C   UNL     1     -22.884  87.053 -24.359  1.00  0.00     0.138 A 
ATOM     11  O   UNL     1     -22.531  86.264 -23.350  1.00  0.00    -0.456 OA
ENDROOT
BRANCH   1  12
ATOM     12  C   UNL     1     -22.431  84.209 -22.058  1.00  0.00     0.017 A 
ATOM     13  C   UNL     1     -21.549  82.828 -19.761  1.00  0.00     0.000 A 
ATOM     14  C   UNL     1     -21.727  82.143 -20.962  1.00  0.00     0.001 A 
ATOM     15  C   UNL     1     -21.807  84.196 -19.695  1.00  0.00     0.001 A 
ATOM     16  C   UNL     1     -22.165  82.822 -22.104  1.00  0.00     0.012 A 
ATOM     17  C   UNL     1     -22.244  84.883 -20.832  1.00  0.00     0.012 A 
ENDBRANCH   1  12
TORSDOF 1
ENDMDL
MODEL 4
REMARK VINA RESULT:    -5.995     11.123     13.759
REMARK INTER + INTRA:          -6.611
REMARK INTER:                  -6.354
REMARK INTRA:                  -0.258
REMARK UNBOUND:                -0.266
REMARK SMILES O=c1cc(-c2ccccc2)oc2ccccc12
REMARK SMILES IDX 4 1 3 2 2 3 1 4 17 5 16 6 15 7 14 8 13 9 12 10 11 11 5 12
REMARK SMILES IDX 8 13 7 14 9 15 6 16 10 17
REMARK H PARENT
REMARK Flexibility Score: inf
ROOT
ATOM      1  C   UNL     1     -23.890  91.504 -29.111  1.00  0.00     0.138 A 
ATOM      2  C   UNL     1     -23.537  91.660 -30.467  1.00  0.00     0.100 A 
ATOM      3  C   UNL     1     -23.593  92.927 -31.051  1.00  0.00     0.193 A 
ATOM      4  O   UNL     1     -23.277  93.068 -32.264  1.00  0.00    -0.289 OA
ATOM      5  C   UNL     1     -24.000  94.025 -30.281  1.00  0.00     0.065 A 
ATOM      6  C   UNL     1     -24.078  95.328 -30.808  1.00  0.00     0.016 A 
ATOM      7  C   UNL     1     -24.491  96.388 -29.995  1.00  0.00     0.001 A 
ATOM      8  C   UNL     1     -24.826  96.159 -28.657  1.00  0.00     0.004 A 
ATOM      9  C   UNL     1     -24.751  94.869 -28.125  1.00  0.00     0.048 A 
ATOM     10  C   UNL     1     -24.340  93.801 -28.930  1.00  0.00     0.138 A 
ATOM     11  O   UNL     1     -24.271  92.577 -28.415  1.00  0.00    -0.456 OA
ENDROOT
BRANCH   1  12
ATOM     12  C   UNL     1     -23.858  90.183 -28.408  1.00  0.00     0.017 A 
ATOM     13  C   UNL     1     -23.782  87.740 -26.997  1.00  0.00     0.000 A 
ATOM     14  C   UNL     1     -23.987  87.744 -28.377  1.00  0.00     0.001 A 
ATOM     15  C   UNL     1     -23.614  88.944 -26.316  1.00  0.00     0.001 A 
ATOM     16  C   UNL     1     -24.026  88.952 -29.081  1.00  0.00     0.012 A 
ATOM     17  C   UNL     1     -23.651  90.156 -27.012  1.00  0.00     0.012 A 
ENDBRANCH   1  12
TORSDOF 1
ENDMDL
MODEL 5
REMARK VINA RESULT:    -5.972      3.955      6.254
REMARK INTER + INTRA:          -6.586
REMARK INTER:                  -6.344
REMARK INTRA:                  -0.242
REMARK UNBOUND:                -0.266
REMARK SMILES O=c1cc(-c2ccccc2)oc2ccccc12
REMARK SMILES IDX 4 1 3 2 2 3 1 4 17 5 16 6 15 7 14 8 13 9 12 10 11 11 5 12
REMARK SMILES IDX 8 13 7 14 9 15 6 16 10 17
REMARK H PARENT
REMARK Flexibility Score: inf
ROOT
ATOM      1  C   UNL     1     -22.618  85.145 -23.107  1.00  0.00     0.138 A 
ATOM      2  C   UNL     1     -21.990  86.393 -23.295  1.00  0.00     0.100 A 
ATOM      3  C   UNL     1     -22.375  87.204 -24.365  1.00  0.00     0.193 A 
ATOM      4  O   UNL     1     -21.813  88.321 -24.532  1.00  0.00    -0.289 OA
ATOM      5  C   UNL     1     -23.382  86.765 -25.236  1.00  0.00     0.065 A 
ATOM      6  C   UNL     1     -23.816  87.533 -26.332  1.00  0.00     0.016 A 
ATOM      7  C   UNL     1     -24.825  87.048 -27.170  1.00  0.00     0.001 A 
ATOM      8  C   UNL     1     -25.403  85.799 -26.923  1.00  0.00     0.004 A 
ATOM      9  C   UNL     1     -24.978  85.030 -25.837  1.00  0.00     0.048 A 
ATOM     10  C   UNL     1     -23.970  85.506 -24.992  1.00  0.00     0.138 A 
ATOM     11  O   UNL     1     -23.571  84.767 -23.961  1.00  0.00    -0.456 OA
ENDROOT
BRANCH   1  12
ATOM     12  C   UNL     1     -22.266  84.215 -21.989  1.00  0.00     0.017 A 
ATOM     13  C   UNL     1     -21.607  82.538 -19.817  1.00  0.00     0.000 A 
ATOM     14  C   UNL     1     -21.693  82.011 -21.105  1.00  0.00     0.001 A 
ATOM     15  C   UNL     1     -21.847  83.894 -19.603  1.00  0.00     0.001 A 
ATOM     16  C   UNL     1     -22.020  82.837 -22.186  1.00  0.00     0.012 A 
ATOM     17  C   UNL     1     -22.173  84.727 -20.677  1.00  0.00     0.012 A 
ENDBRANCH   1  12
TORSDOF 1
ENDMDL
MODEL 6
REMARK VINA RESULT:    -5.955     12.593     15.148
REMARK INTER + INTRA:          -6.569
REMARK INTER:                  -6.313
REMARK INTRA:                  -0.256
REMARK UNBOUND:                -0.266
REMARK SMILES O=c1cc(-c2ccccc2)oc2ccccc12
REMARK SMILES IDX 4 1 3 2 2 3 1 4 17 5 16 6 15 7 14 8 13 9 12 10 11 11 5 12
REMARK SMILES IDX 8 13 7 14 9 15 6 16 10 17
REMARK H PARENT
REMARK Flexibility Score: inf
ROOT
ATOM      1  C   UNL     1     -24.333  93.059 -29.156  1.00  0.00     0.138 A 
ATOM      2  C   UNL     1     -24.732  94.121 -28.318  1.00  0.00     0.100 A 
ATOM      3  C   UNL     1     -24.750  95.424 -28.818  1.00  0.00     0.193 A 
ATOM      4  O   UNL     1     -25.108  96.374 -28.069  1.00  0.00    -0.289 OA
ATOM      5  C   UNL     1     -24.371  95.658 -30.147  1.00  0.00     0.065 A 
ATOM      6  C   UNL     1     -24.366  96.947 -30.713  1.00  0.00     0.016 A 
ATOM      7  C   UNL     1     -23.978  97.125 -32.045  1.00  0.00     0.001 A 
ATOM      8  C   UNL     1     -23.594  96.025 -32.818  1.00  0.00     0.004 A 
ATOM      9  C   UNL     1     -23.596  94.742 -32.264  1.00  0.00     0.048 A 
ATOM     10  C   UNL     1     -23.982  94.553 -30.933  1.00  0.00     0.138 A 
ATOM     11  O   UNL     1     -23.980  93.329 -30.414  1.00  0.00    -0.456 OA
ENDROOT
BRANCH   1  12
ATOM     12  C   UNL     1     -24.285  91.635 -28.700  1.00  0.00     0.017 A 
ATOM     13  C   UNL     1     -24.121  88.933 -27.904  1.00  0.00     0.000 A 
ATOM     14  C   UNL     1     -25.069  89.776 -27.323  1.00  0.00     0.001 A 
ATOM     15  C   UNL     1     -23.255  89.427 -28.877  1.00  0.00     0.001 A 
ATOM     16  C   UNL     1     -25.155  91.116 -27.714  1.00  0.00     0.012 A 
ATOM     17  C   UNL     1     -23.334  90.765 -29.273  1.00  0.00     0.012 A 
ENDBRANCH   1  12
TORSDOF 1
ENDMDL
MODEL 7
REMARK VINA RESULT:    -5.954     10.749     12.858
REMARK INTER + INTRA:          -6.568
REMARK INTER:                  -6.313
REMARK INTRA:                  -0.254
REMARK UNBOUND:                -0.266
REMARK SMILES O=c1cc(-c2ccccc2)oc2ccccc12
REMARK SMILES IDX 4 1 3 2 2 3 1 4 17 5 16 6 15 7 14 8 13 9 12 10 11 11 5 12
REMARK SMILES IDX 8 13 7 14 9 15 6 16 10 17
REMARK H PARENT
REMARK Flexibility Score: inf
ROOT
ATOM      1  C   UNL     1     -24.973  92.492 -28.290  1.00  0.00     0.138 A 
ATOM      2  C   UNL     1     -26.041  92.177 -27.424  1.00  0.00     0.100 A 
ATOM      3  C   UNL     1     -26.179  90.871 -26.949  1.00  0.00     0.193 A 
ATOM      4  O   UNL     1     -27.134  90.589 -26.174  1.00  0.00    -0.289 OA
ATOM      5  C   UNL     1     -25.255  89.893 -27.340  1.00  0.00     0.065 A 
ATOM      6  C   UNL     1     -25.337  88.559 -26.898  1.00  0.00     0.016 A 
ATOM      7  C   UNL     1     -24.388  87.623 -27.319  1.00  0.00     0.001 A 
ATOM      8  C   UNL     1     -23.355  88.007 -28.180  1.00  0.00     0.004 A 
ATOM      9  C   UNL     1     -23.266  89.329 -28.623  1.00  0.00     0.048 A 
ATOM     10  C   UNL     1     -24.210  90.274 -28.209  1.00  0.00     0.138 A 
ATOM     11  O   UNL     1     -24.117  91.529 -28.636  1.00  0.00    -0.456 OA
ENDROOT
BRANCH   1  12
ATOM     12  C   UNL     1     -24.752  93.864 -28.845  1.00  0.00     0.017 A 
ATOM     13  C   UNL     1     -24.298  96.411 -29.972  1.00  0.00     0.000 A 
ATOM     14  C   UNL     1     -24.853  96.301 -28.697  1.00  0.00     0.001 A 
ATOM     15  C   UNL     1     -23.969  95.263 -30.689  1.00  0.00     0.001 A 
ATOM     16  C   UNL     1     -25.080  95.041 -28.133  1.00  0.00     0.012 A 
ATOM     17  C   UNL     1     -24.192  94.000 -30.133  1.00  0.00     0.012 A 
ENDBRANCH   1  12
TORSDOF 1
ENDMDL
MODEL 8
REMARK VINA RESULT:    -5.880      9.688     12.197
REMARK INTER + INTRA:          -6.489
REMARK INTER:                  -6.242
REMARK INTRA:                  -0.247
REMARK UNBOUND:                -0.266
REMARK SMILES O=c1cc(-c2ccccc2)oc2ccccc12
REMARK SMILES IDX 4 1 3 2 2 3 1 4 17 5 16 6 15 7 14 8 13 9 12 10 11 11 5 12
REMARK SMILES IDX 8 13 7 14 9 15 6 16 10 17
REMARK H PARENT
REMARK Flexibility Score: inf
ROOT
ATOM      1  C   UNL     1     -23.469  90.336 -28.042  1.00  0.00     0.138 A 
ATOM      2  C   UNL     1     -23.065  90.055 -29.364  1.00  0.00     0.100 A 
ATOM      3  C   UNL     1     -23.159  91.050 -30.339  1.00  0.00     0.193 A 
ATOM      4  O   UNL     1     -22.797  90.798 -31.521  1.00  0.00    -0.289 OA
ATOM      5  C   UNL     1     -23.653  92.314 -29.990  1.00  0.00     0.065 A 
ATOM      6  C   UNL     1     -23.773  93.360 -30.924  1.00  0.00     0.016 A 
ATOM      7  C   UNL     1     -24.273  94.602 -30.523  1.00  0.00     0.001 A 
ATOM      8  C   UNL     1     -24.655  94.810 -29.193  1.00  0.00     0.004 A 
ATOM      9  C   UNL     1     -24.538  93.778 -28.260  1.00  0.00     0.048 A 
ATOM     10  C   UNL     1     -24.040  92.530 -28.650  1.00  0.00     0.138 A 
ATOM     11  O   UNL     1     -23.933  91.554 -27.755  1.00  0.00    -0.456 OA
ENDROOT
BRANCH   1  12
ATOM     12  C   UNL     1     -23.402  89.329 -26.938  1.00  0.00     0.017 A 
ATOM     13  C   UNL     1     -23.308  87.362 -24.917  1.00  0.00     0.000 A 
ATOM     14  C   UNL     1     -22.922  88.672 -24.634  1.00  0.00     0.001 A 
ATOM     15  C   UNL     1     -23.740  87.025 -26.198  1.00  0.00     0.001 A 
ATOM     16  C   UNL     1     -22.966  89.651 -25.632  1.00  0.00     0.012 A 
ATOM     17  C   UNL     1     -23.788  87.998 -27.201  1.00  0.00     0.012 A 
ENDBRANCH   1  12
TORSDOF 1
ENDMDL
MODEL 9
REMARK VINA RESULT:    -5.873     15.020     16.536
REMARK INTER + INTRA:          -6.482
REMARK INTER:                  -6.232
REMARK INTRA:                  -0.250
REMARK UNBOUND:                -0.266
REMARK SMILES O=c1cc(-c2ccccc2)oc2ccccc12
REMARK SMILES IDX 4 1 3 2 2 3 1 4 17 5 16 6 15 7 14 8 13 9 12 10 11 11 5 12
REMARK SMILES IDX 8 13 7 14 9 15 6 16 10 17
REMARK H PARENT
REMARK Flexibility Score: inf
ROOT
ATOM      1  C   UNL     1     -36.646  80.894 -19.986  1.00  0.00     0.138 A 
ATOM      2  C   UNL     1     -35.500  81.190 -20.755  1.00  0.00     0.100 A 
ATOM      3  C   UNL     1     -34.764  82.343 -20.477  1.00  0.00     0.193 A 
ATOM      4  O   UNL     1     -33.740  82.607 -21.164  1.00  0.00    -0.289 OA
ATOM      5  C   UNL     1     -35.174  83.190 -19.438  1.00  0.00     0.065 A 
ATOM      6  C   UNL     1     -34.477  84.367 -19.107  1.00  0.00     0.016 A 
ATOM      7  C   UNL     1     -34.929  85.178 -18.062  1.00  0.00     0.001 A 
ATOM      8  C   UNL     1     -36.074  84.822 -17.341  1.00  0.00     0.004 A 
ATOM      9  C   UNL     1     -36.772  83.655 -17.663  1.00  0.00     0.048 A 
ATOM     10  C   UNL     1     -36.328  82.837 -18.708  1.00  0.00     0.138 A 
ATOM     11  O   UNL     1     -36.999  81.729 -19.007  1.00  0.00    -0.456 OA
ENDROOT
BRANCH   1  12
ATOM     12  C   UNL     1     -37.491  79.681 -20.216  1.00  0.00     0.017 A 
ATOM     13  C   UNL     1     -39.164  77.447 -20.632  1.00  0.00     0.000 A 
ATOM     14  C   UNL     1     -37.781  77.317 -20.759  1.00  0.00     0.001 A 
ATOM     15  C   UNL     1     -39.718  78.681 -20.299  1.00  0.00     0.001 A 
ATOM     16  C   UNL     1     -36.947  78.421 -20.554  1.00  0.00     0.012 A 
ATOM     17  C   UNL     1     -38.892  79.789 -20.093  1.00  0.00     0.012 A 
ENDBRANCH   1  12
TORSDOF 1
ENDMDL
