MODEL 1
REMARK VINA RESULT:    -3.090      0.000      0.000
REMARK INTER + INTRA:          -8.642
REMARK INTER:                  -8.058
REMARK INTRA:                  -0.584
REMARK UNBOUND:                -0.584
REMARK SMILES CCCCCCCCCCCCCCCCCCCCCCCCCCCCCO
REMARK SMILES IDX 16 1 15 2 14 3 13 4 12 5 11 6 10 7 9 8 8 9 7 10 6 11 5 12
REMARK SMILES IDX 4 13 3 14 2 15 1 16 17 17 18 18 19 19 20 20 21 21 22 22
REMARK SMILES IDX 23 23 24 24 25 25 26 26 27 27 28 28 29 29 30 30
REMARK H PARENT 30 31
REMARK Flexibility Score: inf
ROOT
ATOM      1  C   UNL     1      27.128  27.506  23.641  1.00  0.00     0.000 C 
ENDROOT
BRANCH   1   2
ATOM      2  C   UNL     1      28.238  26.868  24.496  1.00  0.00     0.000 C 
BRANCH   2   3
ATOM      3  C   UNL     1      29.421  27.816  24.734  1.00  0.00     0.000 C 
BRANCH   3   4
ATOM      4  C   UNL     1      30.745  27.067  24.960  1.00  0.00     0.000 C 
BRANCH   4   5
ATOM      5  C   UNL     1      30.950  25.903  23.967  1.00  0.00     0.000 C 
BRANCH   5   6
ATOM      6  C   UNL     1      30.847  26.308  22.483  1.00  0.00     0.000 C 
BRANCH   6   7
ATOM      7  C   UNL     1      30.447  27.771  22.218  1.00  0.00     0.000 C 
BRANCH   7   8
ATOM      8  C   UNL     1      31.241  28.474  21.102  1.00  0.00    -0.000 C 
BRANCH   8   9
ATOM      9  C   UNL     1      32.124  29.622  21.620  1.00  0.00    -0.000 C 
BRANCH   9  10
ATOM     10  C   UNL     1      31.292  30.824  22.094  1.00  0.00    -0.000 C 
BRANCH  10  11
ATOM     11  C   UNL     1      31.921  31.531  23.309  1.00  0.00    -0.000 C 
BRANCH  11  12
ATOM     12  C   UNL     1      30.972  31.596  24.514  1.00  0.00    -0.000 C 
BRANCH  12  13
ATOM     13  C   UNL     1      30.367  32.996  24.713  1.00  0.00    -0.000 C 
BRANCH  13  14
ATOM     14  C   UNL     1      28.862  32.954  25.031  1.00  0.00    -0.000 C 
BRANCH  14  15
ATOM     15  C   UNL     1      28.246  31.543  25.044  1.00  0.00    -0.003 C 
ATOM     16  C   UNL     1      27.129  31.372  24.014  1.00  0.00     0.004 C 
ENDBRANCH  14  15
ENDBRANCH  13  14
ENDBRANCH  12  13
ENDBRANCH  11  12
ENDBRANCH  10  11
ENDBRANCH   9  10
ENDBRANCH   8   9
ENDBRANCH   7   8
ENDBRANCH   6   7
ENDBRANCH   5   6
ENDBRANCH   4   5
ENDBRANCH   3   4
ENDBRANCH   2   3
ENDBRANCH   1   2
BRANCH   1  17
ATOM     17  C   UNL     1      26.250  28.488  24.439  1.00  0.00     0.000 C 
BRANCH  17  18
ATOM     18  C   UNL     1      24.734  28.319  24.230  1.00  0.00     0.000 C 
BRANCH  18  19
ATOM     19  C   UNL     1      24.130  27.211  25.107  1.00  0.00     0.000 C 
BRANCH  19  20
ATOM     20  C   UNL     1      24.743  25.831  24.815  1.00  0.00     0.000 C 
BRANCH  20  21
ATOM     21  C   UNL     1      23.775  24.674  25.125  1.00  0.00     0.000 C 
BRANCH  21  22
ATOM     22  C   UNL     1      22.300  25.074  24.961  1.00  0.00     0.000 C 
BRANCH  22  23
ATOM     23  C   UNL     1      21.369  23.857  24.828  1.00  0.00     0.000 C 
BRANCH  23  24
ATOM     24  C   UNL     1      21.013  23.553  23.363  1.00  0.00     0.000 C 
BRANCH  24  25
ATOM     25  C   UNL     1      22.067  22.669  22.674  1.00  0.00     0.000 C 
BRANCH  25  26
ATOM     26  C   UNL     1      21.438  21.684  21.674  1.00  0.00     0.000 C 
BRANCH  26  27
ATOM     27  C   UNL     1      20.747  20.505  22.373  1.00  0.00     0.002 C 
BRANCH  27  28
ATOM     28  C   UNL     1      19.767  19.804  21.422  1.00  0.00     0.028 C 
BRANCH  28  29
ATOM     29  C   UNL     1      19.403  18.402  21.918  1.00  0.00     0.156 C 
BRANCH  29  30
ATOM     30  O   UNL     1      18.555  17.773  20.997  1.00  0.00    -0.396 OA
ATOM     31  H   UNL     1      17.629  18.000  21.279  1.00  0.00     0.210 HD
ENDBRANCH  29  30
ENDBRANCH  28  29
ENDBRANCH  27  28
ENDBRANCH  26  27
ENDBRANCH  25  26
ENDBRANCH  24  25
ENDBRANCH  23  24
ENDBRANCH  22  23
ENDBRANCH  21  22
ENDBRANCH  20  21
ENDBRANCH  19  20
ENDBRANCH  18  19
ENDBRANCH  17  18
ENDBRANCH   1  17
TORSDOF 28
ENDMDL
MODEL 2
REMARK VINA RESULT:    -2.903      1.326      3.798
REMARK INTER + INTRA:          -8.153
REMARK INTER:                  -6.813
REMARK INTRA:                  -1.340
REMARK UNBOUND:                -0.584
REMARK SMILES CCCCCCCCCCCCCCCCCCCCCCCCCCCCCO
REMARK SMILES IDX 16 1 15 2 14 3 13 4 12 5 11 6 10 7 9 8 8 9 7 10 6 11 5 12
REMARK SMILES IDX 4 13 3 14 2 15 1 16 17 17 18 18 19 19 20 20 21 21 22 22
REMARK SMILES IDX 23 23 24 24 25 25 26 26 27 27 28 28 29 29 30 30
REMARK H PARENT 30 31
REMARK Flexibility Score: inf
ROOT
ATOM      1  C   UNL     1      26.199  27.049  22.848  1.00  0.00     0.000 C 
ENDROOT
BRANCH   1   2
ATOM      2  C   UNL     1      27.105  27.500  24.007  1.00  0.00     0.000 C 
BRANCH   2   3
ATOM      3  C   UNL     1      26.619  28.797  24.668  1.00  0.00     0.000 C 
BRANCH   3   4
ATOM      4  C   UNL     1      27.566  29.983  24.414  1.00  0.00     0.000 C 
BRANCH   4   5
ATOM      5  C   UNL     1      26.942  31.340  24.805  1.00  0.00     0.000 C 
BRANCH   5   6
ATOM      6  C   UNL     1      27.828  32.561  24.488  1.00  0.00     0.000 C 
BRANCH   6   7
ATOM      7  C   UNL     1      29.280  32.245  24.085  1.00  0.00     0.000 C 
BRANCH   7   8
ATOM      8  C   UNL     1      29.694  32.741  22.688  1.00  0.00    -0.000 C 
BRANCH   8   9
ATOM      9  C   UNL     1      30.773  31.864  22.031  1.00  0.00    -0.000 C 
BRANCH   9  10
ATOM     10  C   UNL     1      31.938  31.565  22.988  1.00  0.00    -0.000 C 
BRANCH  10  11
ATOM     11  C   UNL     1      31.923  30.110  23.494  1.00  0.00    -0.000 C 
BRANCH  11  12
ATOM     12  C   UNL     1      31.936  29.086  22.351  1.00  0.00    -0.000 C 
BRANCH  12  13
ATOM     13  C   UNL     1      31.811  27.637  22.854  1.00  0.00    -0.000 C 
BRANCH  13  14
ATOM     14  C   UNL     1      30.363  27.118  22.819  1.00  0.00    -0.000 C 
BRANCH  14  15
ATOM     15  C   UNL     1      30.229  25.585  22.778  1.00  0.00    -0.003 C 
ATOM     16  C   UNL     1      29.379  25.092  21.607  1.00  0.00     0.004 C 
ENDBRANCH  14  15
ENDBRANCH  13  14
ENDBRANCH  12  13
ENDBRANCH  11  12
ENDBRANCH  10  11
ENDBRANCH   9  10
ENDBRANCH   8   9
ENDBRANCH   7   8
ENDBRANCH   6   7
ENDBRANCH   5   6
ENDBRANCH   4   5
ENDBRANCH   3   4
ENDBRANCH   2   3
ENDBRANCH   1   2
BRANCH   1  17
ATOM     17  C   UNL     1      24.920  26.339  23.332  1.00  0.00     0.000 C 
BRANCH  17  18
ATOM     18  C   UNL     1      25.150  25.220  24.364  1.00  0.00     0.000 C 
BRANCH  18  19
ATOM     19  C   UNL     1      23.846  24.535  24.803  1.00  0.00     0.000 C 
BRANCH  19  20
ATOM     20  C   UNL     1      22.727  25.545  25.109  1.00  0.00     0.000 C 
BRANCH  20  21
ATOM     21  C   UNL     1      21.330  24.896  25.124  1.00  0.00     0.000 C 
BRANCH  21  22
ATOM     22  C   UNL     1      21.201  23.742  24.117  1.00  0.00     0.000 C 
BRANCH  22  23
ATOM     23  C   UNL     1      22.014  23.983  22.833  1.00  0.00     0.000 C 
BRANCH  23  24
ATOM     24  C   UNL     1      21.692  22.954  21.737  1.00  0.00     0.000 C 
BRANCH  24  25
ATOM     25  C   UNL     1      21.998  21.512  22.179  1.00  0.00     0.000 C 
BRANCH  25  26
ATOM     26  C   UNL     1      21.198  20.473  21.374  1.00  0.00     0.000 C 
BRANCH  26  27
ATOM     27  C   UNL     1      20.046  19.868  22.188  1.00  0.00     0.002 C 
BRANCH  27  28
ATOM     28  C   UNL     1      19.460  18.640  21.478  1.00  0.00     0.028 C 
BRANCH  28  29
ATOM     29  C   UNL     1      18.998  17.575  22.475  1.00  0.00     0.156 C 
BRANCH  29  30
ATOM     30  O   UNL     1      19.385  17.936  23.773  1.00  0.00    -0.396 OA
ATOM     31  H   UNL     1      19.919  18.768  23.679  1.00  0.00     0.210 HD
ENDBRANCH  29  30
ENDBRANCH  28  29
ENDBRANCH  27  28
ENDBRANCH  26  27
ENDBRANCH  25  26
ENDBRANCH  24  25
ENDBRANCH  23  24
ENDBRANCH  22  23
ENDBRANCH  21  22
ENDBRANCH  20  21
ENDBRANCH  19  20
ENDBRANCH  18  19
ENDBRANCH  17  18
ENDBRANCH   1  17
TORSDOF 28
ENDMDL
MODEL 3
REMARK VINA RESULT:    -2.286      3.299     11.468
REMARK INTER + INTRA:          -6.546
REMARK INTER:                  -5.353
REMARK INTRA:                  -1.193
REMARK UNBOUND:                -0.584
REMARK SMILES CCCCCCCCCCCCCCCCCCCCCCCCCCCCCO
REMARK SMILES IDX 16 1 15 2 14 3 13 4 12 5 11 6 10 7 9 8 8 9 7 10 6 11 5 12
REMARK SMILES IDX 4 13 3 14 2 15 1 16 17 17 18 18 19 19 20 20 21 21 22 22
REMARK SMILES IDX 23 23 24 24 25 25 26 26 27 27 28 28 29 29 30 30
REMARK H PARENT 30 31
REMARK Flexibility Score: inf
ROOT
ATOM      1  C   UNL     1      27.736  25.593  21.807  1.00  0.00     0.000 C 
ENDROOT
BRANCH   1   2
ATOM      2  C   UNL     1      26.462  25.448  22.657  1.00  0.00     0.000 C 
BRANCH   2   3
ATOM      3  C   UNL     1      26.606  26.071  24.053  1.00  0.00     0.000 C 
BRANCH   3   4
ATOM      4  C   UNL     1      26.508  27.606  24.030  1.00  0.00     0.000 C 
BRANCH   4   5
ATOM      5  C   UNL     1      25.089  28.109  23.688  1.00  0.00     0.000 C 
BRANCH   5   6
ATOM      6  C   UNL     1      23.997  27.647  24.673  1.00  0.00     0.000 C 
BRANCH   6   7
ATOM      7  C   UNL     1      24.085  26.178  25.125  1.00  0.00     0.000 C 
BRANCH   7   8
ATOM      8  C   UNL     1      22.764  25.392  25.057  1.00  0.00    -0.000 C 
BRANCH   8   9
ATOM      9  C   UNL     1      22.884  24.075  24.271  1.00  0.00    -0.000 C 
BRANCH   9  10
ATOM     10  C   UNL     1      21.648  23.807  23.397  1.00  0.00    -0.000 C 
BRANCH  10  11
ATOM     11  C   UNL     1      22.023  23.395  21.962  1.00  0.00    -0.000 C 
BRANCH  11  12
ATOM     12  C   UNL     1      22.121  21.872  21.790  1.00  0.00    -0.000 C 
BRANCH  12  13
ATOM     13  C   UNL     1      21.090  21.114  22.643  1.00  0.00    -0.000 C 
BRANCH  13  14
ATOM     14  C   UNL     1      20.083  20.319  21.793  1.00  0.00    -0.000 C 
BRANCH  14  15
ATOM     15  C   UNL     1      19.965  18.829  22.160  1.00  0.00    -0.003 C 
ATOM     16  C   UNL     1      19.135  18.032  21.154  1.00  0.00     0.004 C 
ENDBRANCH  14  15
ENDBRANCH  13  14
ENDBRANCH  12  13
ENDBRANCH  11  12
ENDBRANCH  10  11
ENDBRANCH   9  10
ENDBRANCH   8   9
ENDBRANCH   7   8
ENDBRANCH   6   7
ENDBRANCH   5   6
ENDBRANCH   4   5
ENDBRANCH   3   4
ENDBRANCH   2   3
ENDBRANCH   1   2
BRANCH   1  17
ATOM     17  C   UNL     1      29.024  25.354  22.617  1.00  0.00     0.000 C 
BRANCH  17  18
ATOM     18  C   UNL     1      30.227  24.863  21.791  1.00  0.00     0.000 C 
BRANCH  18  19
ATOM     19  C   UNL     1      31.523  25.625  22.113  1.00  0.00     0.000 C 
BRANCH  19  20
ATOM     20  C   UNL     1      31.261  26.924  22.894  1.00  0.00     0.000 C 
BRANCH  20  21
ATOM     21  C   UNL     1      32.124  28.098  22.397  1.00  0.00     0.000 C 
BRANCH  21  22
ATOM     22  C   UNL     1      31.284  29.294  21.922  1.00  0.00     0.000 C 
BRANCH  22  23
ATOM     23  C   UNL     1      31.535  30.562  22.756  1.00  0.00     0.000 C 
BRANCH  23  24
ATOM     24  C   UNL     1      30.856  31.802  22.150  1.00  0.00     0.000 C 
BRANCH  24  25
ATOM     25  C   UNL     1      31.032  33.054  23.028  1.00  0.00     0.000 C 
BRANCH  25  26
ATOM     26  C   UNL     1      30.754  32.768  24.514  1.00  0.00     0.000 C 
BRANCH  26  27
ATOM     27  C   UNL     1      29.256  32.802  24.843  1.00  0.00     0.002 C 
BRANCH  27  28
ATOM     28  C   UNL     1      28.725  31.389  25.125  1.00  0.00     0.028 C 
BRANCH  28  29
ATOM     29  C   UNL     1      27.538  31.040  24.225  1.00  0.00     0.156 C 
BRANCH  29  30
ATOM     30  O   UNL     1      26.758  32.183  23.996  1.00  0.00    -0.396 OA
ATOM     31  H   UNL     1      26.607  32.594  24.888  1.00  0.00     0.210 HD
ENDBRANCH  29  30
ENDBRANCH  28  29
ENDBRANCH  27  28
ENDBRANCH  26  27
ENDBRANCH  25  26
ENDBRANCH  24  25
ENDBRANCH  23  24
ENDBRANCH  22  23
ENDBRANCH  21  22
ENDBRANCH  20  21
ENDBRANCH  19  20
ENDBRANCH  18  19
ENDBRANCH  17  18
ENDBRANCH   1  17
TORSDOF 28
ENDMDL
MODEL 4
REMARK VINA RESULT:    -2.039      1.572      4.349
REMARK INTER + INTRA:          -5.902
REMARK INTER:                  -4.885
REMARK INTRA:                  -1.017
REMARK UNBOUND:                -0.584
REMARK SMILES CCCCCCCCCCCCCCCCCCCCCCCCCCCCCO
REMARK SMILES IDX 16 1 15 2 14 3 13 4 12 5 11 6 10 7 9 8 8 9 7 10 6 11 5 12
REMARK SMILES IDX 4 13 3 14 2 15 1 16 17 17 18 18 19 19 20 20 21 21 22 22
REMARK SMILES IDX 23 23 24 24 25 25 26 26 27 27 28 28 29 29 30 30
REMARK H PARENT 30 31
REMARK Flexibility Score: inf
ROOT
ATOM      1  C   UNL     1      30.581  27.362  21.436  1.00  0.00     0.000 C 
ENDROOT
BRANCH   1   2
ATOM      2  C   UNL     1      31.645  28.288  22.052  1.00  0.00     0.000 C 
BRANCH   2   3
ATOM      3  C   UNL     1      31.550  29.729  21.531  1.00  0.00     0.000 C 
BRANCH   3   4
ATOM      4  C   UNL     1      32.080  30.761  22.541  1.00  0.00     0.000 C 
BRANCH   4   5
ATOM      5  C   UNL     1      31.911  32.216  22.053  1.00  0.00     0.000 C 
BRANCH   5   6
ATOM      6  C   UNL     1      30.501  32.800  22.270  1.00  0.00     0.000 C 
BRANCH   6   7
ATOM      7  C   UNL     1      30.001  32.809  23.726  1.00  0.00     0.000 C 
BRANCH   7   8
ATOM      8  C   UNL     1      30.674  31.783  24.654  1.00  0.00    -0.000 C 
BRANCH   8   9
ATOM      9  C   UNL     1      29.837  30.508  24.855  1.00  0.00    -0.000 C 
BRANCH   9  10
ATOM     10  C   UNL     1      28.383  30.691  24.390  1.00  0.00    -0.000 C 
BRANCH  10  11
ATOM     11  C   UNL     1      27.677  31.852  25.114  1.00  0.00    -0.000 C 
BRANCH  11  12
ATOM     12  C   UNL     1      26.391  32.298  24.404  1.00  0.00    -0.000 C 
BRANCH  12  13
ATOM     13  C   UNL     1      25.120  31.814  25.125  1.00  0.00    -0.000 C 
BRANCH  13  14
ATOM     14  C   UNL     1      24.156  31.062  24.190  1.00  0.00    -0.000 C 
BRANCH  14  15
ATOM     15  C   UNL     1      24.656  29.683  23.723  1.00  0.00    -0.003 C 
ATOM     16  C   UNL     1      24.896  28.713  24.880  1.00  0.00     0.004 C 
ENDBRANCH  14  15
ENDBRANCH  13  14
ENDBRANCH  12  13
ENDBRANCH  11  12
ENDBRANCH  10  11
ENDBRANCH   9  10
ENDBRANCH   8   9
ENDBRANCH   7   8
ENDBRANCH   6   7
ENDBRANCH   5   6
ENDBRANCH   4   5
ENDBRANCH   3   4
ENDBRANCH   2   3
ENDBRANCH   1   2
BRANCH   1  17
ATOM     17  C   UNL     1      30.054  26.312  22.431  1.00  0.00     0.000 C 
BRANCH  17  18
ATOM     18  C   UNL     1      28.872  25.469  21.920  1.00  0.00     0.000 C 
BRANCH  18  19
ATOM     19  C   UNL     1      27.523  25.918  22.504  1.00  0.00     0.000 C 
BRANCH  19  20
ATOM     20  C   UNL     1      27.661  26.504  23.919  1.00  0.00     0.000 C 
BRANCH  20  21
ATOM     21  C   UNL     1      26.612  25.945  24.898  1.00  0.00     0.000 C 
BRANCH  21  22
ATOM     22  C   UNL     1      25.747  24.840  24.273  1.00  0.00     0.000 C 
BRANCH  22  23
ATOM     23  C   UNL     1      24.461  25.387  23.628  1.00  0.00     0.000 C 
BRANCH  23  24
ATOM     24  C   UNL     1      23.257  25.323  24.583  1.00  0.00     0.000 C 
BRANCH  24  25
ATOM     25  C   UNL     1      22.579  23.942  24.579  1.00  0.00     0.000 C 
BRANCH  25  26
ATOM     26  C   UNL     1      21.120  24.010  24.097  1.00  0.00     0.000 C 
BRANCH  26  27
ATOM     27  C   UNL     1      20.905  23.248  22.782  1.00  0.00     0.002 C 
BRANCH  27  28
ATOM     28  C   UNL     1      22.151  22.431  22.413  1.00  0.00     0.028 C 
BRANCH  28  29
ATOM     29  C   UNL     1      21.787  21.007  21.986  1.00  0.00     0.156 C 
BRANCH  29  30
ATOM     30  O   UNL     1      20.405  20.810  22.103  1.00  0.00    -0.396 OA
ATOM     31  H   UNL     1      19.979  21.578  21.638  1.00  0.00     0.210 HD
ENDBRANCH  29  30
ENDBRANCH  28  29
ENDBRANCH  27  28
ENDBRANCH  26  27
ENDBRANCH  25  26
ENDBRANCH  24  25
ENDBRANCH  23  24
ENDBRANCH  22  23
ENDBRANCH  21  22
ENDBRANCH  20  21
ENDBRANCH  19  20
ENDBRANCH  18  19
ENDBRANCH  17  18
ENDBRANCH   1  17
TORSDOF 28
ENDMDL
MODEL 5
REMARK VINA RESULT:    -1.901      1.478      3.963
REMARK INTER + INTRA:          -5.541
REMARK INTER:                  -2.796
REMARK INTRA:                  -2.745
REMARK UNBOUND:                -0.584
REMARK SMILES CCCCCCCCCCCCCCCCCCCCCCCCCCCCCO
REMARK SMILES IDX 16 1 15 2 14 3 13 4 12 5 11 6 10 7 9 8 8 9 7 10 6 11 5 12
REMARK SMILES IDX 4 13 3 14 2 15 1 16 17 17 18 18 19 19 20 20 21 21 22 22
REMARK SMILES IDX 23 23 24 24 25 25 26 26 27 27 28 28 29 29 30 30
REMARK H PARENT 30 31
REMARK Flexibility Score: inf
ROOT
ATOM      1  C   UNL     1      25.113  27.166  24.866  1.00  0.00     0.000 C 
ENDROOT
BRANCH   1   2
ATOM      2  C   UNL     1      25.398  28.077  23.659  1.00  0.00     0.000 C 
BRANCH   2   3
ATOM      3  C   UNL     1      26.155  29.355  24.047  1.00  0.00     0.000 C 
BRANCH   3   4
ATOM      4  C   UNL     1      27.396  29.069  24.911  1.00  0.00     0.000 C 
BRANCH   4   5
ATOM      5  C   UNL     1      28.507  30.125  24.728  1.00  0.00     0.000 C 
BRANCH   5   6
ATOM      6  C   UNL     1      28.054  31.404  23.996  1.00  0.00     0.000 C 
BRANCH   6   7
ATOM      7  C   UNL     1      29.171  32.207  23.304  1.00  0.00     0.000 C 
BRANCH   7   8
ATOM      8  C   UNL     1      30.572  32.041  23.919  1.00  0.00    -0.000 C 
BRANCH   8   9
ATOM      9  C   UNL     1      31.666  31.788  22.869  1.00  0.00    -0.000 C 
BRANCH   9  10
ATOM     10  C   UNL     1      31.222  30.774  21.802  1.00  0.00    -0.000 C 
BRANCH  10  11
ATOM     11  C   UNL     1      31.955  29.426  21.932  1.00  0.00    -0.000 C 
BRANCH  11  12
ATOM     12  C   UNL     1      31.315  28.502  22.977  1.00  0.00    -0.000 C 
BRANCH  12  13
ATOM     13  C   UNL     1      30.616  27.287  22.342  1.00  0.00    -0.000 C 
BRANCH  13  14
ATOM     14  C   UNL     1      29.346  26.868  23.103  1.00  0.00    -0.000 C 
BRANCH  14  15
ATOM     15  C   UNL     1      28.332  26.064  22.269  1.00  0.00    -0.003 C 
ATOM     16  C   UNL     1      28.793  25.836  20.830  1.00  0.00     0.004 C 
ENDBRANCH  14  15
ENDBRANCH  13  14
ENDBRANCH  12  13
ENDBRANCH  11  12
ENDBRANCH  10  11
ENDBRANCH   9  10
ENDBRANCH   8   9
ENDBRANCH   7   8
ENDBRANCH   6   7
ENDBRANCH   5   6
ENDBRANCH   4   5
ENDBRANCH   3   4
ENDBRANCH   2   3
ENDBRANCH   1   2
BRANCH   1  17
ATOM     17  C   UNL     1      25.593  25.719  24.649  1.00  0.00     0.000 C 
BRANCH  17  18
ATOM     18  C   UNL     1      24.515  24.749  24.131  1.00  0.00     0.000 C 
BRANCH  18  19
ATOM     19  C   UNL     1      23.300  24.651  25.067  1.00  0.00     0.000 C 
BRANCH  19  20
ATOM     20  C   UNL     1      22.037  24.158  24.341  1.00  0.00     0.000 C 
BRANCH  20  21
ATOM     21  C   UNL     1      22.092  24.406  22.822  1.00  0.00     0.000 C 
BRANCH  21  22
ATOM     22  C   UNL     1      21.422  23.284  22.013  1.00  0.00     0.000 C 
BRANCH  22  23
ATOM     23  C   UNL     1      22.024  21.900  22.310  1.00  0.00     0.000 C 
BRANCH  23  24
ATOM     24  C   UNL     1      20.987  20.927  22.897  1.00  0.00     0.000 C 
BRANCH  24  25
ATOM     25  C   UNL     1      20.430  19.958  21.840  1.00  0.00     0.000 C 
BRANCH  25  26
ATOM     26  C   UNL     1      19.707  18.757  22.474  1.00  0.00     0.000 C 
BRANCH  26  27
ATOM     27  C   UNL     1      19.023  17.869  21.425  1.00  0.00     0.002 C 
BRANCH  27  28
ATOM     28  C   UNL     1      19.209  18.445  20.015  1.00  0.00     0.028 C 
BRANCH  28  29
ATOM     29  C   UNL     1      19.301  17.341  18.960  1.00  0.00     0.156 C 
BRANCH  29  30
ATOM     30  O   UNL     1      20.006  17.804  17.841  1.00  0.00    -0.396 OA
ATOM     31  H   UNL     1      19.524  18.617  17.531  1.00  0.00     0.210 HD
ENDBRANCH  29  30
ENDBRANCH  28  29
ENDBRANCH  27  28
ENDBRANCH  26  27
ENDBRANCH  25  26
ENDBRANCH  24  25
ENDBRANCH  23  24
ENDBRANCH  22  23
ENDBRANCH  21  22
ENDBRANCH  20  21
ENDBRANCH  19  20
ENDBRANCH  18  19
ENDBRANCH  17  18
ENDBRANCH   1  17
TORSDOF 28
ENDMDL
MODEL 6
REMARK VINA RESULT:    -1.885      3.099      9.982
REMARK INTER + INTRA:          -5.499
REMARK INTER:                  -3.466
REMARK INTRA:                  -2.033
REMARK UNBOUND:                -0.584
REMARK SMILES CCCCCCCCCCCCCCCCCCCCCCCCCCCCCO
REMARK SMILES IDX 16 1 15 2 14 3 13 4 12 5 11 6 10 7 9 8 8 9 7 10 6 11 5 12
REMARK SMILES IDX 4 13 3 14 2 15 1 16 17 17 18 18 19 19 20 20 21 21 22 22
REMARK SMILES IDX 23 23 24 24 25 25 26 26 27 27 28 28 29 29 30 30
REMARK H PARENT 30 31
REMARK Flexibility Score: inf
ROOT
ATOM      1  C   UNL     1      30.988  24.416  22.626  1.00  0.00     0.000 C 
ENDROOT
BRANCH   1   2
ATOM      2  C   UNL     1      31.566  25.176  23.832  1.00  0.00     0.000 C 
BRANCH   2   3
ATOM      3  C   UNL     1      32.113  26.559  23.454  1.00  0.00     0.000 C 
BRANCH   3   4
ATOM      4  C   UNL     1      32.118  27.540  24.640  1.00  0.00     0.000 C 
BRANCH   4   5
ATOM      5  C   UNL     1      30.697  27.898  25.124  1.00  0.00     0.000 C 
BRANCH   5   6
ATOM      6  C   UNL     1      29.635  27.935  24.007  1.00  0.00     0.000 C 
BRANCH   6   7
ATOM      7  C   UNL     1      28.171  27.881  24.478  1.00  0.00     0.000 C 
BRANCH   7   8
ATOM      8  C   UNL     1      27.445  26.552  24.205  1.00  0.00    -0.000 C 
BRANCH   8   9
ATOM      9  C   UNL     1      26.327  26.677  23.156  1.00  0.00    -0.000 C 
BRANCH   9  10
ATOM     10  C   UNL     1      24.934  26.764  23.801  1.00  0.00    -0.000 C 
BRANCH  10  11
ATOM     11  C   UNL     1      24.452  25.406  24.342  1.00  0.00    -0.000 C 
BRANCH  11  12
ATOM     12  C   UNL     1      23.893  24.495  23.241  1.00  0.00    -0.000 C 
BRANCH  12  13
ATOM     13  C   UNL     1      22.639  23.725  23.692  1.00  0.00    -0.000 C 
BRANCH  13  14
ATOM     14  C   UNL     1      21.750  23.293  22.512  1.00  0.00    -0.000 C 
BRANCH  14  15
ATOM     15  C   UNL     1      22.107  21.923  21.906  1.00  0.00    -0.003 C 
ATOM     16  C   UNL     1      20.976  20.903  22.033  1.00  0.00     0.004 C 
ENDBRANCH  14  15
ENDBRANCH  13  14
ENDBRANCH  12  13
ENDBRANCH  11  12
ENDBRANCH  10  11
ENDBRANCH   9  10
ENDBRANCH   8   9
ENDBRANCH   7   8
ENDBRANCH   6   7
ENDBRANCH   5   6
ENDBRANCH   4   5
ENDBRANCH   3   4
ENDBRANCH   2   3
ENDBRANCH   1   2
BRANCH   1  17
ATOM     17  C   UNL     1      29.591  24.920  22.216  1.00  0.00     0.000 C 
BRANCH  17  18
ATOM     18  C   UNL     1      29.556  25.753  20.922  1.00  0.00     0.000 C 
BRANCH  18  19
ATOM     19  C   UNL     1      29.420  27.261  21.187  1.00  0.00     0.000 C 
BRANCH  19  20
ATOM     20  C   UNL     1      30.129  28.110  20.118  1.00  0.00     0.000 C 
BRANCH  20  21
ATOM     21  C   UNL     1      31.606  28.382  20.460  1.00  0.00     0.000 C 
BRANCH  21  22
ATOM     22  C   UNL     1      31.779  29.148  21.781  1.00  0.00     0.000 C 
BRANCH  22  23
ATOM     23  C   UNL     1      31.974  30.659  21.566  1.00  0.00     0.000 C 
BRANCH  23  24
ATOM     24  C   UNL     1      32.060  31.430  22.894  1.00  0.00     0.000 C 
BRANCH  24  25
ATOM     25  C   UNL     1      30.979  32.519  23.011  1.00  0.00     0.000 C 
BRANCH  25  26
ATOM     26  C   UNL     1      30.090  32.327  24.252  1.00  0.00     0.000 C 
BRANCH  26  27
ATOM     27  C   UNL     1      28.767  31.625  23.918  1.00  0.00     0.002 C 
BRANCH  27  28
ATOM     28  C   UNL     1      27.572  32.548  24.196  1.00  0.00     0.028 C 
BRANCH  28  29
ATOM     29  C   UNL     1      26.255  31.771  24.241  1.00  0.00     0.156 C 
BRANCH  29  30
ATOM     30  O   UNL     1      26.488  30.458  24.670  1.00  0.00    -0.396 OA
ATOM     31  H   UNL     1      26.713  29.939  23.853  1.00  0.00     0.210 HD
ENDBRANCH  29  30
ENDBRANCH  28  29
ENDBRANCH  27  28
ENDBRANCH  26  27
ENDBRANCH  25  26
ENDBRANCH  24  25
ENDBRANCH  23  24
ENDBRANCH  22  23
ENDBRANCH  21  22
ENDBRANCH  20  21
ENDBRANCH  19  20
ENDBRANCH  18  19
ENDBRANCH  17  18
ENDBRANCH   1  17
TORSDOF 28
ENDMDL
