MODEL 1
REMARK VINA RESULT:    -5.513      0.000      0.000
REMARK INTER + INTRA:          -8.393
REMARK INTER:                  -7.446
REMARK INTRA:                  -0.947
REMARK UNBOUND:                -0.947
REMARK SMILES CC(=O)OCC=C(C)CCC=C(C)C
REMARK SMILES IDX 7 1 6 2 8 3 9 4 10 5 11 6 13 7 12 8 14 9 5 10 4 11 2 12 3 13
REMARK SMILES IDX 1 14
REMARK H PARENT
REMARK Flexibility Score: inf
ROOT
ATOM      1  C   UNL     1       3.166  29.786  69.416  1.00  0.00    -0.074 C 
ATOM      2  C   UNL     1       4.161  29.893  70.322  1.00  0.00     0.013 C 
ATOM      3  C   UNL     1       1.723  30.015  69.801  1.00  0.00     0.039 C 
ENDROOT
BRANCH   1   4
ATOM      4  C   UNL     1       3.502  29.431  67.982  1.00  0.00     0.034 C 
BRANCH   4   5
ATOM      5  C   UNL     1       4.222  30.578  67.261  1.00  0.00     0.032 C 
BRANCH   5   6
ATOM      6  C   UNL     1       3.251  31.626  66.767  1.00  0.00    -0.028 C 
ATOM      7  C   UNL     1       3.926  33.309  68.496  1.00  0.00     0.039 C 
ATOM      8  C   UNL     1       3.085  32.843  67.329  1.00  0.00    -0.080 C 
ATOM      9  C   UNL     1       2.039  33.762  66.753  1.00  0.00     0.039 C 
ENDBRANCH   5   6
ENDBRANCH   4   5
ENDBRANCH   1   4
BRANCH   2  10
ATOM     10  C   UNL     1       3.925  30.235  71.771  1.00  0.00     0.260 C 
BRANCH  10  11
ATOM     11  O   UNL     1       4.539  29.268  72.621  1.00  0.00    -0.462 OA
BRANCH  11  12
ATOM     12  C   UNL     1       4.006  27.993  72.841  1.00  0.00     0.302 C 
ATOM     13  O   UNL     1       2.759  27.813  72.885  1.00  0.00    -0.253 OA
ATOM     14  C   UNL     1       4.926  26.842  73.075  1.00  0.00     0.139 C 
ENDBRANCH  11  12
ENDBRANCH  10  11
ENDBRANCH   2  10
TORSDOF 6
ENDMDL
MODEL 2
REMARK VINA RESULT:    -5.501      1.430      2.030
REMARK INTER + INTRA:          -8.377
REMARK INTER:                  -7.394
REMARK INTRA:                  -0.984
REMARK UNBOUND:                -0.947
REMARK SMILES CC(=O)OCC=C(C)CCC=C(C)C
REMARK SMILES IDX 7 1 6 2 8 3 9 4 10 5 11 6 13 7 12 8 14 9 5 10 4 11 2 12 3 13
REMARK SMILES IDX 1 14
REMARK H PARENT
REMARK Flexibility Score: inf
ROOT
ATOM      1  C   UNL     1       2.349  30.009  69.580  1.00  0.00    -0.074 C 
ATOM      2  C   UNL     1       3.021  28.842  69.494  1.00  0.00     0.013 C 
ATOM      3  C   UNL     1       2.958  31.220  70.245  1.00  0.00     0.039 C 
ENDROOT
BRANCH   1   4
ATOM      4  C   UNL     1       0.955  30.108  68.994  1.00  0.00     0.034 C 
BRANCH   4   5
ATOM      5  C   UNL     1       0.973  30.077  67.460  1.00  0.00     0.032 C 
BRANCH   5   6
ATOM      6  C   UNL     1       0.865  31.464  66.870  1.00  0.00    -0.028 C 
ATOM      7  C   UNL     1       3.341  31.722  66.590  1.00  0.00     0.039 C 
ATOM      8  C   UNL     1       1.919  32.226  66.504  1.00  0.00    -0.080 C 
ATOM      9  C   UNL     1       1.653  33.612  65.977  1.00  0.00     0.039 C 
ENDBRANCH   5   6
ENDBRANCH   4   5
ENDBRANCH   1   4
BRANCH   2  10
ATOM     10  C   UNL     1       4.408  28.644  70.051  1.00  0.00     0.260 C 
BRANCH  10  11
ATOM     11  O   UNL     1       4.365  27.844  71.231  1.00  0.00    -0.462 OA
BRANCH  11  12
ATOM     12  C   UNL     1       3.886  28.313  72.459  1.00  0.00     0.302 C 
ATOM     13  O   UNL     1       2.799  27.886  72.934  1.00  0.00    -0.253 OA
ATOM     14  C   UNL     1       4.648  29.367  73.190  1.00  0.00     0.139 C 
ENDBRANCH  11  12
ENDBRANCH  10  11
ENDBRANCH   2  10
TORSDOF 6
ENDMDL
MODEL 3
REMARK VINA RESULT:    -5.467      2.743      6.187
REMARK INTER + INTRA:          -8.332
REMARK INTER:                  -7.375
REMARK INTRA:                  -0.957
REMARK UNBOUND:                -0.947
REMARK SMILES CC(=O)OCC=C(C)CCC=C(C)C
REMARK SMILES IDX 7 1 6 2 8 3 9 4 10 5 11 6 13 7 12 8 14 9 5 10 4 11 2 12 3 13
REMARK SMILES IDX 1 14
REMARK H PARENT
REMARK Flexibility Score: inf
ROOT
ATOM      1  C   UNL     1       4.017  30.049  69.956  1.00  0.00    -0.074 C 
ATOM      2  C   UNL     1       3.641  29.063  69.115  1.00  0.00     0.013 C 
ATOM      3  C   UNL     1       3.054  31.136  70.374  1.00  0.00     0.039 C 
ENDROOT
BRANCH   1   4
ATOM      4  C   UNL     1       5.433  30.066  70.496  1.00  0.00     0.034 C 
BRANCH   4   5
ATOM      5  C   UNL     1       5.464  29.990  72.028  1.00  0.00     0.032 C 
BRANCH   5   6
ATOM      6  C   UNL     1       5.934  28.638  72.512  1.00  0.00    -0.028 C 
ATOM      7  C   UNL     1       3.611  27.775  72.881  1.00  0.00     0.039 C 
ATOM      8  C   UNL     1       5.116  27.646  72.927  1.00  0.00    -0.080 C 
ATOM      9  C   UNL     1       5.736  26.369  73.431  1.00  0.00     0.039 C 
ENDBRANCH   5   6
ENDBRANCH   4   5
ENDBRANCH   1   4
BRANCH   2  10
ATOM     10  C   UNL     1       2.259  28.965  68.522  1.00  0.00     0.260 C 
BRANCH  10  11
ATOM     11  O   UNL     1       2.237  29.512  67.206  1.00  0.00    -0.462 OA
BRANCH  11  12
ATOM     12  C   UNL     1       1.861  30.831  66.930  1.00  0.00     0.302 C 
ATOM     13  O   UNL     1       0.644  31.158  66.878  1.00  0.00    -0.253 OA
ATOM     14  C   UNL     1       2.912  31.851  66.647  1.00  0.00     0.139 C 
ENDBRANCH  11  12
ENDBRANCH  10  11
ENDBRANCH   2  10
TORSDOF 6
ENDMDL
MODEL 4
REMARK VINA RESULT:    -5.467      1.617      2.464
REMARK INTER + INTRA:          -8.332
REMARK INTER:                  -7.305
REMARK INTRA:                  -1.027
REMARK UNBOUND:                -0.947
REMARK SMILES CC(=O)OCC=C(C)CCC=C(C)C
REMARK SMILES IDX 7 1 6 2 8 3 9 4 10 5 11 6 13 7 12 8 14 9 5 10 4 11 2 12 3 13
REMARK SMILES IDX 1 14
REMARK H PARENT
REMARK Flexibility Score: inf
ROOT
ATOM      1  C   UNL     1       3.759  31.050  68.539  1.00  0.00    -0.074 C 
ATOM      2  C   UNL     1       3.086  30.928  69.703  1.00  0.00     0.013 C 
ATOM      3  C   UNL     1       3.847  29.906  67.557  1.00  0.00     0.039 C 
ENDROOT
BRANCH   1   4
ATOM      4  C   UNL     1       4.441  32.364  68.210  1.00  0.00     0.034 C 
BRANCH   4   5
ATOM      5  C   UNL     1       3.429  33.499  68.006  1.00  0.00     0.032 C 
BRANCH   5   6
ATOM      6  C   UNL     1       2.626  33.313  66.739  1.00  0.00    -0.028 C 
ATOM      7  C   UNL     1       0.461  32.991  67.957  1.00  0.00     0.039 C 
ATOM      8  C   UNL     1       1.301  33.054  66.702  1.00  0.00    -0.080 C 
ATOM      9  C   UNL     1       0.648  32.843  65.360  1.00  0.00     0.039 C 
ENDBRANCH   5   6
ENDBRANCH   4   5
ENDBRANCH   1   4
BRANCH   2  10
ATOM     10  C   UNL     1       2.383  29.662  70.121  1.00  0.00     0.260 C 
BRANCH  10  11
ATOM     11  O   UNL     1       3.154  28.957  71.091  1.00  0.00    -0.462 OA
BRANCH  11  12
ATOM     12  C   UNL     1       3.756  27.719  70.840  1.00  0.00     0.302 C 
ATOM     13  O   UNL     1       3.131  26.644  71.047  1.00  0.00    -0.253 OA
ATOM     14  C   UNL     1       5.170  27.672  70.369  1.00  0.00     0.139 C 
ENDBRANCH  11  12
ENDBRANCH  10  11
ENDBRANCH   2  10
TORSDOF 6
ENDMDL
MODEL 5
REMARK VINA RESULT:    -5.383      1.453      2.204
REMARK INTER + INTRA:          -8.218
REMARK INTER:                  -7.241
REMARK INTRA:                  -0.976
REMARK UNBOUND:                -0.947
REMARK SMILES CC(=O)OCC=C(C)CCC=C(C)C
REMARK SMILES IDX 7 1 6 2 8 3 9 4 10 5 11 6 13 7 12 8 14 9 5 10 4 11 2 12 3 13
REMARK SMILES IDX 1 14
REMARK H PARENT
REMARK Flexibility Score: inf
ROOT
ATOM      1  C   UNL     1       2.251  30.083  69.004  1.00  0.00    -0.074 C 
ATOM      2  C   UNL     1       2.954  30.566  70.051  1.00  0.00     0.013 C 
ATOM      3  C   UNL     1       2.917  29.274  67.917  1.00  0.00     0.039 C 
ENDROOT
BRANCH   1   4
ATOM      4  C   UNL     1       0.763  30.357  68.919  1.00  0.00     0.034 C 
BRANCH   4   5
ATOM      5  C   UNL     1       0.463  31.853  68.762  1.00  0.00     0.032 C 
BRANCH   5   6
ATOM      6  C   UNL     1       0.633  32.312  67.332  1.00  0.00    -0.028 C 
ATOM      7  C   UNL     1       2.742  33.578  67.811  1.00  0.00     0.039 C 
ATOM      8  C   UNL     1       1.633  33.111  66.897  1.00  0.00    -0.080 C 
ATOM      9  C   UNL     1       1.640  33.525  65.449  1.00  0.00     0.039 C 
ENDBRANCH   5   6
ENDBRANCH   4   5
ENDBRANCH   1   4
BRANCH   2  10
ATOM     10  C   UNL     1       4.436  30.352  70.220  1.00  0.00     0.260 C 
BRANCH  10  11
ATOM     11  O   UNL     1       4.689  29.217  71.045  1.00  0.00    -0.462 OA
BRANCH  11  12
ATOM     12  C   UNL     1       4.159  29.071  72.332  1.00  0.00     0.302 C 
ATOM     13  O   UNL     1       4.497  29.853  73.262  1.00  0.00    -0.253 OA
ATOM     14  C   UNL     1       3.221  27.947  72.618  1.00  0.00     0.139 C 
ENDBRANCH  11  12
ENDBRANCH  10  11
ENDBRANCH   2  10
TORSDOF 6
ENDMDL
MODEL 6
REMARK VINA RESULT:    -5.373      2.468      6.328
REMARK INTER + INTRA:          -8.204
REMARK INTER:                  -7.307
REMARK INTRA:                  -0.896
REMARK UNBOUND:                -0.947
REMARK SMILES CC(=O)OCC=C(C)CCC=C(C)C
REMARK SMILES IDX 7 1 6 2 8 3 9 4 10 5 11 6 13 7 12 8 14 9 5 10 4 11 2 12 3 13
REMARK SMILES IDX 1 14
REMARK H PARENT
REMARK Flexibility Score: inf
ROOT
ATOM      1  C   UNL     1       4.324  29.960  70.477  1.00  0.00    -0.074 C 
ATOM      2  C   UNL     1       3.328  30.862  70.612  1.00  0.00     0.013 C 
ATOM      3  C   UNL     1       4.196  28.782  69.540  1.00  0.00     0.039 C 
ENDROOT
BRANCH   1   4
ATOM      4  C   UNL     1       5.597  30.133  71.280  1.00  0.00     0.034 C 
BRANCH   4   5
ATOM      5  C   UNL     1       5.393  29.786  72.761  1.00  0.00     0.032 C 
BRANCH   5   6
ATOM      6  C   UNL     1       6.034  28.465  73.120  1.00  0.00    -0.028 C 
ATOM      7  C   UNL     1       3.904  27.170  72.865  1.00  0.00     0.039 C 
ATOM      8  C   UNL     1       5.373  27.290  73.201  1.00  0.00    -0.080 C 
ATOM      9  C   UNL     1       6.141  26.063  73.622  1.00  0.00     0.039 C 
ENDBRANCH   5   6
ENDBRANCH   4   5
ENDBRANCH   1   4
BRANCH   2  10
ATOM     10  C   UNL     1       2.024  30.770  69.862  1.00  0.00     0.260 C 
BRANCH  10  11
ATOM     11  O   UNL     1       2.020  31.665  68.751  1.00  0.00    -0.462 OA
BRANCH  11  12
ATOM     12  C   UNL     1       2.331  31.269  67.446  1.00  0.00     0.302 C 
ATOM     13  O   UNL     1       2.017  30.122  67.027  1.00  0.00    -0.253 OA
ATOM     14  C   UNL     1       3.087  32.197  66.556  1.00  0.00     0.139 C 
ENDBRANCH  11  12
ENDBRANCH  10  11
ENDBRANCH   2  10
TORSDOF 6
ENDMDL
MODEL 7
REMARK VINA RESULT:    -5.338      1.713      2.356
REMARK INTER + INTRA:          -8.157
REMARK INTER:                  -7.107
REMARK INTRA:                  -1.050
REMARK UNBOUND:                -0.947
REMARK SMILES CC(=O)OCC=C(C)CCC=C(C)C
REMARK SMILES IDX 7 1 6 2 8 3 9 4 10 5 11 6 13 7 12 8 14 9 5 10 4 11 2 12 3 13
REMARK SMILES IDX 1 14
REMARK H PARENT
REMARK Flexibility Score: inf
ROOT
ATOM      1  C   UNL     1       3.957  30.513  69.343  1.00  0.00    -0.074 C 
ATOM      2  C   UNL     1       4.170  29.181  69.405  1.00  0.00     0.013 C 
ATOM      3  C   UNL     1       3.121  31.225  70.381  1.00  0.00     0.039 C 
ENDROOT
BRANCH   1   4
ATOM      4  C   UNL     1       4.572  31.312  68.212  1.00  0.00     0.034 C 
BRANCH   4   5
ATOM      5  C   UNL     1       3.845  31.075  66.881  1.00  0.00     0.032 C 
BRANCH   5   6
ATOM      6  C   UNL     1       2.625  31.958  66.744  1.00  0.00    -0.028 C 
ATOM      7  C   UNL     1       1.018  30.105  67.253  1.00  0.00     0.039 C 
ATOM      8  C   UNL     1       1.351  31.530  66.877  1.00  0.00    -0.080 C 
ATOM      9  C   UNL     1       0.236  32.521  66.661  1.00  0.00     0.039 C 
ENDBRANCH   5   6
ENDBRANCH   4   5
ENDBRANCH   1   4
BRANCH   2  10
ATOM     10  C   UNL     1       3.597  28.302  70.487  1.00  0.00     0.260 C 
BRANCH  10  11
ATOM     11  O   UNL     1       4.634  27.794  71.323  1.00  0.00    -0.462 OA
BRANCH  11  12
ATOM     12  C   UNL     1       5.425  28.606  72.143  1.00  0.00     0.302 C 
ATOM     13  O   UNL     1       6.677  28.644  72.000  1.00  0.00    -0.253 OA
ATOM     14  C   UNL     1       4.782  29.400  73.230  1.00  0.00     0.139 C 
ENDBRANCH  11  12
ENDBRANCH  10  11
ENDBRANCH   2  10
TORSDOF 6
ENDMDL
MODEL 8
REMARK VINA RESULT:    -5.307      2.780      6.188
REMARK INTER + INTRA:          -8.116
REMARK INTER:                  -7.297
REMARK INTRA:                  -0.818
REMARK UNBOUND:                -0.947
REMARK SMILES CC(=O)OCC=C(C)CCC=C(C)C
REMARK SMILES IDX 7 1 6 2 8 3 9 4 10 5 11 6 13 7 12 8 14 9 5 10 4 11 2 12 3 13
REMARK SMILES IDX 1 14
REMARK H PARENT
REMARK Flexibility Score: inf
ROOT
ATOM      1  C   UNL     1       2.622  29.727  70.081  1.00  0.00    -0.074 C 
ATOM      2  C   UNL     1       1.447  29.929  69.446  1.00  0.00     0.013 C 
ATOM      3  C   UNL     1       3.414  30.878  70.654  1.00  0.00     0.039 C 
ENDROOT
BRANCH   1   4
ATOM      4  C   UNL     1       3.156  28.316  70.223  1.00  0.00     0.034 C 
BRANCH   4   5
ATOM      5  C   UNL     1       4.687  28.290  70.326  1.00  0.00     0.032 C 
BRANCH   5   6
ATOM      6  C   UNL     1       5.165  27.234  71.296  1.00  0.00    -0.028 C 
ATOM      7  C   UNL     1       5.251  28.815  73.237  1.00  0.00     0.039 C 
ATOM      8  C   UNL     1       5.452  27.461  72.596  1.00  0.00    -0.080 C 
ATOM      9  C   UNL     1       5.969  26.316  73.427  1.00  0.00     0.039 C 
ENDBRANCH   5   6
ENDBRANCH   4   5
ENDBRANCH   1   4
BRANCH   2  10
ATOM     10  C   UNL     1       0.839  31.294  69.250  1.00  0.00     0.260 C 
BRANCH  10  11
ATOM     11  O   UNL     1       1.100  31.775  67.933  1.00  0.00    -0.462 OA
BRANCH  11  12
ATOM     12  C   UNL     1       2.217  32.553  67.608  1.00  0.00     0.302 C 
ATOM     13  O   UNL     1       2.252  33.782  67.889  1.00  0.00    -0.253 OA
ATOM     14  C   UNL     1       3.359  31.930  66.879  1.00  0.00     0.139 C 
ENDBRANCH  11  12
ENDBRANCH  10  11
ENDBRANCH   2  10
TORSDOF 6
ENDMDL
MODEL 9
REMARK VINA RESULT:    -5.201      3.110      6.101
REMARK INTER + INTRA:          -7.973
REMARK INTER:                  -7.071
REMARK INTRA:                  -0.902
REMARK UNBOUND:                -0.947
REMARK SMILES CC(=O)OCC=C(C)CCC=C(C)C
REMARK SMILES IDX 7 1 6 2 8 3 9 4 10 5 11 6 13 7 12 8 14 9 5 10 4 11 2 12 3 13
REMARK SMILES IDX 1 14
REMARK H PARENT
REMARK Flexibility Score: inf
ROOT
ATOM      1  C   UNL     1       3.416  30.504  69.077  1.00  0.00    -0.074 C 
ATOM      2  C   UNL     1       3.703  31.785  69.394  1.00  0.00     0.013 C 
ATOM      3  C   UNL     1       3.590  29.984  67.670  1.00  0.00     0.039 C 
ENDROOT
BRANCH   1   4
ATOM      4  C   UNL     1       2.910  29.567  70.156  1.00  0.00     0.034 C 
BRANCH   4   5
ATOM      5  C   UNL     1       3.815  28.338  70.318  1.00  0.00     0.032 C 
BRANCH   5   6
ATOM      6  C   UNL     1       4.455  28.290  71.687  1.00  0.00    -0.028 C 
ATOM      7  C   UNL     1       6.556  29.426  70.929  1.00  0.00     0.039 C 
ATOM      8  C   UNL     1       5.695  28.746  71.969  1.00  0.00    -0.080 C 
ATOM      9  C   UNL     1       6.216  28.582  73.373  1.00  0.00     0.039 C 
ENDBRANCH   5   6
ENDBRANCH   4   5
ENDBRANCH   1   4
BRANCH   2  10
ATOM     10  C   UNL     1       4.204  32.791  68.391  1.00  0.00     0.260 C 
BRANCH  10  11
ATOM     11  O   UNL     1       3.186  33.741  68.081  1.00  0.00    -0.462 OA
BRANCH  11  12
ATOM     12  C   UNL     1       2.091  33.450  67.261  1.00  0.00     0.302 C 
ATOM     13  O   UNL     1       2.242  33.269  66.023  1.00  0.00    -0.253 OA
ATOM     14  C   UNL     1       0.722  33.403  67.852  1.00  0.00     0.139 C 
ENDBRANCH  11  12
ENDBRANCH  10  11
ENDBRANCH   2  10
TORSDOF 6
ENDMDL
