MODEL 1
REMARK VINA RESULT:    -4.839      0.000      0.000
REMARK INTER + INTRA:          -7.727
REMARK INTER:                  -6.536
REMARK INTRA:                  -1.192
REMARK UNBOUND:                -1.192
REMARK SMILES C=CC(C)=CCC=C(C)CCC=C(C)C
REMARK SMILES IDX 8 1 7 2 9 3 10 4 11 5 12 6 14 7 13 8 15 9 6 10 5 11 3 12
REMARK SMILES IDX 4 13 2 14 1 15
REMARK H PARENT
REMARK Flexibility Score: inf
ROOT
ATOM      1  C   UNL     1      28.989  24.087  12.553  1.00  0.00    -0.077 C 
ATOM      2  C   UNL     1      29.094  23.207  13.576  1.00  0.00    -0.024 C 
ATOM      3  C   UNL     1      27.610  24.481  12.091  1.00  0.00     0.039 C 
ENDROOT
BRANCH   1   4
ATOM      4  C   UNL     1      30.196  24.714  11.877  1.00  0.00     0.034 C 
BRANCH   4   5
ATOM      5  C   UNL     1      29.792  25.706  10.778  1.00  0.00     0.032 C 
BRANCH   5   6
ATOM      6  C   UNL     1      30.340  27.087  11.054  1.00  0.00    -0.028 C 
ATOM      7  C   UNL     1      30.284  29.489  11.565  1.00  0.00     0.039 C 
ATOM      8  C   UNL     1      29.593  28.162  11.386  1.00  0.00    -0.080 C 
ATOM      9  C   UNL     1      28.098  28.073  11.577  1.00  0.00     0.039 C 
ENDBRANCH   5   6
ENDBRANCH   4   5
ENDBRANCH   1   4
BRANCH   2  10
ATOM     10  C   UNL     1      30.392  22.675  14.131  1.00  0.00     0.055 C 
BRANCH  10  11
ATOM     11  C   UNL     1      30.476  21.175  14.004  1.00  0.00    -0.020 C 
ATOM     12  C   UNL     1      31.251  20.516  13.118  1.00  0.00    -0.055 C 
ATOM     13  C   UNL     1      31.260  19.008  13.149  1.00  0.00     0.044 C 
BRANCH  12  14
ATOM     14  C   UNL     1      32.111  21.240  12.141  1.00  0.00    -0.005 C 
ATOM     15  C   UNL     1      31.744  21.478  10.882  1.00  0.00     0.009 C 
ENDBRANCH  12  14
ENDBRANCH  10  11
ENDBRANCH   2  10
TORSDOF 6
ENDMDL
MODEL 2
REMARK VINA RESULT:    -4.815      1.564      3.713
REMARK INTER + INTRA:          -7.696
REMARK INTER:                  -6.227
REMARK INTRA:                  -1.469
REMARK UNBOUND:                -1.192
REMARK SMILES C=CC(C)=CCC=C(C)CCC=C(C)C
REMARK SMILES IDX 8 1 7 2 9 3 10 4 11 5 12 6 14 7 13 8 15 9 6 10 5 11 3 12
REMARK SMILES IDX 4 13 2 14 1 15
REMARK H PARENT
REMARK Flexibility Score: inf
ROOT
ATOM      1  C   UNL     1      31.788  26.334  10.611  1.00  0.00    -0.077 C 
ATOM      2  C   UNL     1      31.171  25.266  10.053  1.00  0.00    -0.024 C 
ATOM      3  C   UNL     1      32.124  27.505   9.725  1.00  0.00     0.039 C 
ENDROOT
BRANCH   1   4
ATOM      4  C   UNL     1      32.125  26.413  12.089  1.00  0.00     0.034 C 
BRANCH   4   5
ATOM      5  C   UNL     1      31.354  27.534  12.800  1.00  0.00     0.032 C 
BRANCH   5   6
ATOM      6  C   UNL     1      29.891  27.523  12.420  1.00  0.00    -0.028 C 
ATOM      7  C   UNL     1      27.756  28.414  11.597  1.00  0.00     0.039 C 
ATOM      8  C   UNL     1      29.233  28.558  11.855  1.00  0.00    -0.080 C 
ATOM      9  C   UNL     1      29.929  29.845  11.481  1.00  0.00     0.039 C 
ENDBRANCH   5   6
ENDBRANCH   4   5
ENDBRANCH   1   4
BRANCH   2  10
ATOM     10  C   UNL     1      30.804  23.998  10.784  1.00  0.00     0.055 C 
BRANCH  10  11
ATOM     11  C   UNL     1      29.443  24.102  11.423  1.00  0.00    -0.020 C 
ATOM     12  C   UNL     1      29.143  23.700  12.676  1.00  0.00    -0.055 C 
ATOM     13  C   UNL     1      27.741  23.918  13.188  1.00  0.00     0.044 C 
BRANCH  12  14
ATOM     14  C   UNL     1      30.167  23.081  13.563  1.00  0.00    -0.005 C 
ATOM     15  C   UNL     1      30.238  21.769  13.790  1.00  0.00     0.009 C 
ENDBRANCH  12  14
ENDBRANCH  10  11
ENDBRANCH   2  10
TORSDOF 6
ENDMDL
MODEL 3
REMARK VINA RESULT:    -4.812      0.894      1.703
REMARK INTER + INTRA:          -7.692
REMARK INTER:                  -6.835
REMARK INTRA:                  -0.857
REMARK UNBOUND:                -1.192
REMARK SMILES C=CC(C)=CCC=C(C)CCC=C(C)C
REMARK SMILES IDX 8 1 7 2 9 3 10 4 11 5 12 6 14 7 13 8 15 9 6 10 5 11 3 12
REMARK SMILES IDX 4 13 2 14 1 15
REMARK H PARENT
REMARK Flexibility Score: inf
ROOT
ATOM      1  C   UNL     1      28.967  24.105  12.459  1.00  0.00    -0.077 C 
ATOM      2  C   UNL     1      29.103  23.140  13.398  1.00  0.00    -0.024 C 
ATOM      3  C   UNL     1      27.580  24.432  11.969  1.00  0.00     0.039 C 
ENDROOT
BRANCH   1   4
ATOM      4  C   UNL     1      30.143  24.889  11.905  1.00  0.00     0.034 C 
BRANCH   4   5
ATOM      5  C   UNL     1      29.722  25.852  10.786  1.00  0.00     0.032 C 
BRANCH   5   6
ATOM      6  C   UNL     1      30.224  27.253  11.047  1.00  0.00    -0.028 C 
ATOM      7  C   UNL     1      30.092  29.648  11.579  1.00  0.00     0.039 C 
ATOM      8  C   UNL     1      29.449  28.294  11.422  1.00  0.00    -0.080 C 
ATOM      9  C   UNL     1      27.970  28.141  11.682  1.00  0.00     0.039 C 
ENDBRANCH   5   6
ENDBRANCH   4   5
ENDBRANCH   1   4
BRANCH   2  10
ATOM     10  C   UNL     1      30.417  22.661  13.964  1.00  0.00     0.055 C 
BRANCH  10  11
ATOM     11  C   UNL     1      30.992  21.531  13.149  1.00  0.00    -0.020 C 
ATOM     12  C   UNL     1      31.035  20.240  13.538  1.00  0.00    -0.055 C 
ATOM     13  C   UNL     1      31.600  19.217  12.584  1.00  0.00     0.044 C 
BRANCH  12  14
ATOM     14  C   UNL     1      30.513  19.806  14.864  1.00  0.00    -0.005 C 
ATOM     15  C   UNL     1      31.303  19.448  15.877  1.00  0.00     0.009 C 
ENDBRANCH  12  14
ENDBRANCH  10  11
ENDBRANCH   2  10
TORSDOF 6
ENDMDL
MODEL 4
REMARK VINA RESULT:    -4.739      1.339      6.896
REMARK INTER + INTRA:          -7.593
REMARK INTER:                  -6.475
REMARK INTRA:                  -1.118
REMARK UNBOUND:                -1.192
REMARK SMILES C=CC(C)=CCC=C(C)CCC=C(C)C
REMARK SMILES IDX 8 1 7 2 9 3 10 4 11 5 12 6 14 7 13 8 15 9 6 10 5 11 3 12
REMARK SMILES IDX 4 13 2 14 1 15
REMARK H PARENT
REMARK Flexibility Score: inf
ROOT
ATOM      1  C   UNL     1      31.164  24.769  11.552  1.00  0.00    -0.077 C 
ATOM      2  C   UNL     1      31.783  25.957  11.360  1.00  0.00    -0.024 C 
ATOM      3  C   UNL     1      31.150  23.780  10.416  1.00  0.00     0.039 C 
ENDROOT
BRANCH   1   4
ATOM      4  C   UNL     1      30.513  24.382  12.869  1.00  0.00     0.034 C 
BRANCH   4   5
ATOM      5  C   UNL     1      29.606  23.152  12.726  1.00  0.00     0.032 C 
BRANCH   5   6
ATOM      6  C   UNL     1      29.854  22.153  13.832  1.00  0.00    -0.028 C 
ATOM      7  C   UNL     1      30.763  20.142  14.909  1.00  0.00     0.039 C 
ATOM      8  C   UNL     1      30.674  21.083  13.737  1.00  0.00    -0.080 C 
ATOM      9  C   UNL     1      31.492  20.806  12.498  1.00  0.00     0.039 C 
ENDBRANCH   5   6
ENDBRANCH   4   5
ENDBRANCH   1   4
BRANCH   2  10
ATOM     10  C   UNL     1      31.852  27.073  12.373  1.00  0.00     0.055 C 
BRANCH  10  11
ATOM     11  C   UNL     1      31.573  28.412  11.741  1.00  0.00    -0.020 C 
ATOM     12  C   UNL     1      30.383  29.049  11.772  1.00  0.00    -0.055 C 
ATOM     13  C   UNL     1      30.278  30.411  11.132  1.00  0.00     0.044 C 
BRANCH  12  14
ATOM     14  C   UNL     1      29.195  28.453  12.443  1.00  0.00    -0.005 C 
ATOM     15  C   UNL     1      28.252  27.775  11.790  1.00  0.00     0.009 C 
ENDBRANCH  12  14
ENDBRANCH  10  11
ENDBRANCH   2  10
TORSDOF 6
ENDMDL
MODEL 5
REMARK VINA RESULT:    -4.736      1.927      4.130
REMARK INTER + INTRA:          -7.589
REMARK INTER:                  -5.646
REMARK INTRA:                  -1.942
REMARK UNBOUND:                -1.192
REMARK SMILES C=CC(C)=CCC=C(C)CCC=C(C)C
REMARK SMILES IDX 8 1 7 2 9 3 10 4 11 5 12 6 14 7 13 8 15 9 6 10 5 11 3 12
REMARK SMILES IDX 4 13 2 14 1 15
REMARK H PARENT
REMARK Flexibility Score: inf
ROOT
ATOM      1  C   UNL     1      30.099  27.962  12.103  1.00  0.00    -0.077 C 
ATOM      2  C   UNL     1      31.312  27.657  12.617  1.00  0.00    -0.024 C 
ATOM      3  C   UNL     1      29.401  29.198  12.608  1.00  0.00     0.039 C 
ENDROOT
BRANCH   1   4
ATOM      4  C   UNL     1      29.428  27.134  11.021  1.00  0.00     0.034 C 
BRANCH   4   5
ATOM      5  C   UNL     1      28.122  26.492  11.509  1.00  0.00     0.032 C 
BRANCH   5   6
ATOM      6  C   UNL     1      28.383  25.463  12.585  1.00  0.00    -0.028 C 
ATOM      7  C   UNL     1      28.127  23.350  13.811  1.00  0.00     0.039 C 
ATOM      8  C   UNL     1      27.815  24.238  12.634  1.00  0.00    -0.080 C 
ATOM      9  C   UNL     1      26.883  23.740  11.556  1.00  0.00     0.039 C 
ENDBRANCH   5   6
ENDBRANCH   4   5
ENDBRANCH   1   4
BRANCH   2  10
ATOM     10  C   UNL     1      32.124  26.437  12.256  1.00  0.00     0.055 C 
BRANCH  10  11
ATOM     11  C   UNL     1      31.922  25.323  13.250  1.00  0.00    -0.020 C 
ATOM     12  C   UNL     1      31.832  24.013  12.937  1.00  0.00    -0.055 C 
ATOM     13  C   UNL     1      31.678  23.013  14.056  1.00  0.00     0.044 C 
BRANCH  12  14
ATOM     14  C   UNL     1      31.912  23.540  11.527  1.00  0.00    -0.005 C 
ATOM     15  C   UNL     1      30.840  23.371  10.753  1.00  0.00     0.009 C 
ENDBRANCH  12  14
ENDBRANCH  10  11
ENDBRANCH   2  10
TORSDOF 6
ENDMDL
MODEL 6
REMARK VINA RESULT:    -4.651      2.167      5.680
REMARK INTER + INTRA:          -7.474
REMARK INTER:                  -5.468
REMARK INTRA:                  -2.006
REMARK UNBOUND:                -1.192
REMARK SMILES C=CC(C)=CCC=C(C)CCC=C(C)C
REMARK SMILES IDX 8 1 7 2 9 3 10 4 11 5 12 6 14 7 13 8 15 9 6 10 5 11 3 12
REMARK SMILES IDX 4 13 2 14 1 15
REMARK H PARENT
REMARK Flexibility Score: inf
ROOT
ATOM      1  C   UNL     1      32.090  24.892  13.149  1.00  0.00    -0.077 C 
ATOM      2  C   UNL     1      32.036  26.127  13.697  1.00  0.00    -0.024 C 
ATOM      3  C   UNL     1      32.125  23.703  14.074  1.00  0.00     0.039 C 
ENDROOT
BRANCH   1   4
ATOM      4  C   UNL     1      32.085  24.653  11.649  1.00  0.00     0.034 C 
BRANCH   4   5
ATOM      5  C   UNL     1      30.915  23.763  11.209  1.00  0.00     0.032 C 
BRANCH   5   6
ATOM      6  C   UNL     1      29.611  24.526  11.209  1.00  0.00    -0.028 C 
ATOM      7  C   UNL     1      27.343  25.139  11.926  1.00  0.00     0.039 C 
ATOM      8  C   UNL     1      28.611  24.345  12.100  1.00  0.00    -0.080 C 
ATOM      9  C   UNL     1      28.727  23.374  13.251  1.00  0.00     0.039 C 
ENDBRANCH   5   6
ENDBRANCH   4   5
ENDBRANCH   1   4
BRANCH   2  10
ATOM     10  C   UNL     1      32.039  27.421  12.921  1.00  0.00     0.055 C 
BRANCH  10  11
ATOM     11  C   UNL     1      30.639  27.895  12.629  1.00  0.00    -0.020 C 
ATOM     12  C   UNL     1      30.144  28.135  11.397  1.00  0.00    -0.055 C 
ATOM     13  C   UNL     1      28.701  28.559  11.270  1.00  0.00     0.044 C 
BRANCH  12  14
ATOM     14  C   UNL     1      30.975  27.961  10.174  1.00  0.00    -0.005 C 
ATOM     15  C   UNL     1      31.381  28.981   9.417  1.00  0.00     0.009 C 
ENDBRANCH  12  14
ENDBRANCH  10  11
ENDBRANCH   2  10
TORSDOF 6
ENDMDL
MODEL 7
REMARK VINA RESULT:    -4.557      1.457      2.659
REMARK INTER + INTRA:          -7.347
REMARK INTER:                  -6.291
REMARK INTRA:                  -1.056
REMARK UNBOUND:                -1.192
REMARK SMILES C=CC(C)=CCC=C(C)CCC=C(C)C
REMARK SMILES IDX 8 1 7 2 9 3 10 4 11 5 12 6 14 7 13 8 15 9 6 10 5 11 3 12
REMARK SMILES IDX 4 13 2 14 1 15
REMARK H PARENT
REMARK Flexibility Score: inf
ROOT
ATOM      1  C   UNL     1      28.667  26.237  11.680  1.00  0.00    -0.077 C 
ATOM      2  C   UNL     1      27.959  25.229  12.241  1.00  0.00    -0.024 C 
ATOM      3  C   UNL     1      28.118  27.637  11.783  1.00  0.00     0.039 C 
ENDROOT
BRANCH   1   4
ATOM      4  C   UNL     1      29.998  26.022  10.982  1.00  0.00     0.034 C 
BRANCH   4   5
ATOM      5  C   UNL     1      31.006  27.134  11.302  1.00  0.00     0.032 C 
BRANCH   5   6
ATOM      6  C   UNL     1      31.528  27.785  10.042  1.00  0.00    -0.028 C 
ATOM      7  C   UNL     1      31.987  29.597   8.448  1.00  0.00     0.039 C 
ATOM      8  C   UNL     1      31.484  29.110   9.783  1.00  0.00    -0.080 C 
ATOM      9  C   UNL     1      30.949  30.107  10.782  1.00  0.00     0.039 C 
ENDBRANCH   5   6
ENDBRANCH   4   5
ENDBRANCH   1   4
BRANCH   2  10
ATOM     10  C   UNL     1      28.341  23.770  12.191  1.00  0.00     0.055 C 
BRANCH  10  11
ATOM     11  C   UNL     1      29.297  23.411  13.300  1.00  0.00    -0.020 C 
ATOM     12  C   UNL     1      30.558  22.965  13.121  1.00  0.00    -0.055 C 
ATOM     13  C   UNL     1      31.406  22.694  14.339  1.00  0.00     0.044 C 
BRANCH  12  14
ATOM     14  C   UNL     1      31.130  22.766  11.761  1.00  0.00    -0.005 C 
ATOM     15  C   UNL     1      31.737  21.641  11.382  1.00  0.00     0.009 C 
ENDBRANCH  12  14
ENDBRANCH  10  11
ENDBRANCH   2  10
TORSDOF 6
ENDMDL
MODEL 8
REMARK VINA RESULT:    -4.548      1.455      6.704
REMARK INTER + INTRA:          -7.335
REMARK INTER:                  -6.661
REMARK INTRA:                  -0.674
REMARK UNBOUND:                -1.192
REMARK SMILES C=CC(C)=CCC=C(C)CCC=C(C)C
REMARK SMILES IDX 8 1 7 2 9 3 10 4 11 5 12 6 14 7 13 8 15 9 6 10 5 11 3 12
REMARK SMILES IDX 4 13 2 14 1 15
REMARK H PARENT
REMARK Flexibility Score: inf
ROOT
ATOM      1  C   UNL     1      28.556  24.083  12.456  1.00  0.00    -0.077 C 
ATOM      2  C   UNL     1      29.158  24.966  11.626  1.00  0.00    -0.024 C 
ATOM      3  C   UNL     1      27.110  23.742  12.206  1.00  0.00     0.039 C 
ENDROOT
BRANCH   1   4
ATOM      4  C   UNL     1      29.281  23.403  13.604  1.00  0.00     0.034 C 
BRANCH   4   5
ATOM      5  C   UNL     1      30.076  22.175  13.139  1.00  0.00     0.032 C 
BRANCH   5   6
ATOM      6  C   UNL     1      31.032  21.701  14.209  1.00  0.00    -0.028 C 
ATOM      7  C   UNL     1      32.077  20.130  15.782  1.00  0.00     0.039 C 
ATOM      8  C   UNL     1      31.116  20.431  14.662  1.00  0.00    -0.080 C 
ATOM      9  C   UNL     1      30.280  19.315  14.082  1.00  0.00     0.039 C 
ENDBRANCH   5   6
ENDBRANCH   4   5
ENDBRANCH   1   4
BRANCH   2  10
ATOM     10  C   UNL     1      30.581  25.449  11.759  1.00  0.00     0.055 C 
BRANCH  10  11
ATOM     11  C   UNL     1      30.915  26.484  10.715  1.00  0.00    -0.020 C 
ATOM     12  C   UNL     1      30.945  27.816  10.928  1.00  0.00    -0.055 C 
ATOM     13  C   UNL     1      31.346  28.719   9.788  1.00  0.00     0.044 C 
BRANCH  12  14
ATOM     14  C   UNL     1      30.622  28.402  12.258  1.00  0.00    -0.005 C 
ATOM     15  C   UNL     1      29.450  28.970  12.540  1.00  0.00     0.009 C 
ENDBRANCH  12  14
ENDBRANCH  10  11
ENDBRANCH   2  10
TORSDOF 6
ENDMDL
MODEL 9
REMARK VINA RESULT:    -4.426      1.827      6.230
REMARK INTER + INTRA:          -7.170
REMARK INTER:                  -5.975
REMARK INTRA:                  -1.195
REMARK UNBOUND:                -1.192
REMARK SMILES C=CC(C)=CCC=C(C)CCC=C(C)C
REMARK SMILES IDX 8 1 7 2 9 3 10 4 11 5 12 6 14 7 13 8 15 9 6 10 5 11 3 12
REMARK SMILES IDX 4 13 2 14 1 15
REMARK H PARENT
REMARK Flexibility Score: inf
ROOT
ATOM      1  C   UNL     1      31.990  24.657  11.184  1.00  0.00    -0.077 C 
ATOM      2  C   UNL     1      31.968  26.002  11.043  1.00  0.00    -0.024 C 
ATOM      3  C   UNL     1      32.125  23.812   9.944  1.00  0.00     0.039 C 
ENDROOT
BRANCH   1   4
ATOM      4  C   UNL     1      31.915  23.967  12.535  1.00  0.00     0.034 C 
BRANCH   4   5
ATOM      5  C   UNL     1      30.970  22.758  12.517  1.00  0.00     0.032 C 
BRANCH   5   6
ATOM      6  C   UNL     1      29.641  23.088  13.156  1.00  0.00    -0.028 C 
ATOM      7  C   UNL     1      27.378  24.028  13.328  1.00  0.00     0.039 C 
ATOM      8  C   UNL     1      28.617  23.710  12.532  1.00  0.00    -0.080 C 
ATOM      9  C   UNL     1      28.681  24.096  11.074  1.00  0.00     0.039 C 
ENDBRANCH   5   6
ENDBRANCH   4   5
ENDBRANCH   1   4
BRANCH   2  10
ATOM     10  C   UNL     1      31.796  26.989  12.171  1.00  0.00     0.055 C 
BRANCH  10  11
ATOM     11  C   UNL     1      31.495  28.373  11.655  1.00  0.00    -0.020 C 
ATOM     12  C   UNL     1      30.299  28.990  11.747  1.00  0.00    -0.055 C 
ATOM     13  C   UNL     1      30.172  30.400  11.223  1.00  0.00     0.044 C 
BRANCH  12  14
ATOM     14  C   UNL     1      29.124  28.327  12.376  1.00  0.00    -0.005 C 
ATOM     15  C   UNL     1      28.115  27.811  11.674  1.00  0.00     0.009 C 
ENDBRANCH  12  14
ENDBRANCH  10  11
ENDBRANCH   2  10
TORSDOF 6
ENDMDL
