MODEL 1
REMARK VINA RESULT:    -5.709      0.000      0.000
REMARK INTER + INTRA:          -5.709
REMARK INTER:                  -5.709
REMARK INTRA:                   0.000
REMARK UNBOUND:                 0.000
REMARK SMILES O=c1ccc2ccccc2o1
REMARK SMILES IDX 7 1 8 2 9 3 10 4 5 5 6 6 4 7 3 8 2 9 1 10 11 11
REMARK H PARENT
REMARK Flexibility Score: inf
ROOT
ATOM      1  C   UNL     1      73.133  39.431 -10.075  1.00  0.00     0.001 A 
ATOM      2  C   UNL     1      74.175  39.376  -9.143  1.00  0.00     0.004 A 
ATOM      3  C   UNL     1      73.902  39.492  -7.776  1.00  0.00     0.048 A 
ATOM      4  C   UNL     1      72.584  39.665  -7.336  1.00  0.00     0.138 A 
ATOM      5  C   UNL     1      71.532  39.720  -8.277  1.00  0.00     0.018 A 
ATOM      6  C   UNL     1      71.813  39.603  -9.646  1.00  0.00     0.012 A 
ATOM      7  C   UNL     1      70.227  39.892  -7.808  1.00  0.00     0.019 A 
ATOM      8  C   UNL     1      70.002  40.004  -6.436  1.00  0.00     0.094 A 
ATOM      9  C   UNL     1      71.092  39.940  -5.562  1.00  0.00     0.336 A 
ATOM     10  O   UNL     1      70.909  40.039  -4.321  1.00  0.00    -0.246 OA
ATOM     11  O   UNL     1      72.325  39.775  -6.035  1.00  0.00    -0.423 OA
ENDROOT
TORSDOF 0
ENDMDL
MODEL 2
REMARK VINA RESULT:    -5.665      2.799      4.410
REMARK INTER + INTRA:          -5.665
REMARK INTER:                  -5.665
REMARK INTRA:                   0.000
REMARK UNBOUND:                 0.000
REMARK SMILES O=c1ccc2ccccc2o1
REMARK SMILES IDX 7 1 8 2 9 3 10 4 5 5 6 6 4 7 3 8 2 9 1 10 11 11
REMARK H PARENT
REMARK Flexibility Score: inf
ROOT
ATOM      1  C   UNL     1      73.854  42.584  -3.021  1.00  0.00     0.001 A 
ATOM      2  C   UNL     1      74.734  42.581  -4.109  1.00  0.00     0.004 A 
ATOM      3  C   UNL     1      74.454  41.804  -5.238  1.00  0.00     0.048 A 
ATOM      4  C   UNL     1      73.292  41.026  -5.283  1.00  0.00     0.138 A 
ATOM      5  C   UNL     1      72.403  41.029  -4.186  1.00  0.00     0.018 A 
ATOM      6  C   UNL     1      72.689  41.811  -3.057  1.00  0.00     0.012 A 
ATOM      7  C   UNL     1      71.249  40.243  -4.260  1.00  0.00     0.019 A 
ATOM      8  C   UNL     1      71.012  39.484  -5.406  1.00  0.00     0.094 A 
ATOM      9  C   UNL     1      71.936  39.530  -6.454  1.00  0.00     0.336 A 
ATOM     10  O   UNL     1      71.739  38.852  -7.496  1.00  0.00    -0.246 OA
ATOM     11  O   UNL     1      73.026  40.288  -6.359  1.00  0.00    -0.423 OA
ENDROOT
TORSDOF 0
ENDMDL
MODEL 3
REMARK VINA RESULT:    -5.633      3.042      4.472
REMARK INTER + INTRA:          -5.633
REMARK INTER:                  -5.633
REMARK INTRA:                   0.000
REMARK UNBOUND:                 0.000
REMARK SMILES O=c1ccc2ccccc2o1
REMARK SMILES IDX 7 1 8 2 9 3 10 4 5 5 6 6 4 7 3 8 2 9 1 10 11 11
REMARK H PARENT
REMARK Flexibility Score: inf
ROOT
ATOM      1  C   UNL     1      72.048  39.415  -6.400  1.00  0.00     0.001 A 
ATOM      2  C   UNL     1      71.028  39.393  -5.443  1.00  0.00     0.004 A 
ATOM      3  C   UNL     1      71.121  40.191  -4.297  1.00  0.00     0.048 A 
ATOM      4  C   UNL     1      72.236  41.014  -4.104  1.00  0.00     0.138 A 
ATOM      5  C   UNL     1      73.266  41.037  -5.071  1.00  0.00     0.018 A 
ATOM      6  C   UNL     1      73.167  40.235  -6.217  1.00  0.00     0.012 A 
ATOM      7  C   UNL     1      74.367  41.869  -4.852  1.00  0.00     0.019 A 
ATOM      8  C   UNL     1      74.418  42.647  -3.695  1.00  0.00     0.094 A 
ATOM      9  C   UNL     1      73.361  42.574  -2.781  1.00  0.00     0.336 A 
ATOM     10  O   UNL     1      73.388  43.268  -1.732  1.00  0.00    -0.246 OA
ATOM     11  O   UNL     1      72.323  41.773  -3.014  1.00  0.00    -0.423 OA
ENDROOT
TORSDOF 0
ENDMDL
MODEL 4
REMARK VINA RESULT:    -5.620      1.909      4.521
REMARK INTER + INTRA:          -5.620
REMARK INTER:                  -5.620
REMARK INTRA:                   0.000
REMARK UNBOUND:                 0.000
REMARK SMILES O=c1ccc2ccccc2o1
REMARK SMILES IDX 7 1 8 2 9 3 10 4 5 5 6 6 4 7 3 8 2 9 1 10 11 11
REMARK H PARENT
REMARK Flexibility Score: inf
ROOT
ATOM      1  C   UNL     1      72.113  41.002  -3.652  1.00  0.00     0.001 A 
ATOM      2  C   UNL     1      71.029  40.239  -4.101  1.00  0.00     0.004 A 
ATOM      3  C   UNL     1      71.067  39.638  -5.363  1.00  0.00     0.048 A 
ATOM      4  C   UNL     1      72.191  39.797  -6.182  1.00  0.00     0.138 A 
ATOM      5  C   UNL     1      73.285  40.566  -5.729  1.00  0.00     0.018 A 
ATOM      6  C   UNL     1      73.241  41.166  -4.462  1.00  0.00     0.012 A 
ATOM      7  C   UNL     1      74.394  40.707  -6.568  1.00  0.00     0.019 A 
ATOM      8  C   UNL     1      74.388  40.089  -7.818  1.00  0.00     0.094 A 
ATOM      9  C   UNL     1      73.270  39.342  -8.201  1.00  0.00     0.336 A 
ATOM     10  O   UNL     1      73.246  38.777  -9.326  1.00  0.00    -0.246 OA
ATOM     11  O   UNL     1      72.227  39.224  -7.383  1.00  0.00    -0.423 OA
ENDROOT
TORSDOF 0
ENDMDL
MODEL 5
REMARK VINA RESULT:    -5.577      1.828      3.909
REMARK INTER + INTRA:          -5.577
REMARK INTER:                  -5.577
REMARK INTRA:                   0.000
REMARK UNBOUND:                 0.000
REMARK SMILES O=c1ccc2ccccc2o1
REMARK SMILES IDX 7 1 8 2 9 3 10 4 5 5 6 6 4 7 3 8 2 9 1 10 11 11
REMARK H PARENT
REMARK Flexibility Score: inf
ROOT
ATOM      1  C   UNL     1      71.004  40.266  -4.368  1.00  0.00     0.001 A 
ATOM      2  C   UNL     1      72.325  40.688  -4.178  1.00  0.00     0.004 A 
ATOM      3  C   UNL     1      73.219  40.706  -5.253  1.00  0.00     0.048 A 
ATOM      4  C   UNL     1      72.796  40.301  -6.524  1.00  0.00     0.138 A 
ATOM      5  C   UNL     1      71.463  39.875  -6.716  1.00  0.00     0.018 A 
ATOM      6  C   UNL     1      70.571  39.860  -5.634  1.00  0.00     0.012 A 
ATOM      7  C   UNL     1      71.068  39.477  -7.997  1.00  0.00     0.019 A 
ATOM      8  C   UNL     1      71.994  39.510  -9.039  1.00  0.00     0.094 A 
ATOM      9  C   UNL     1      73.298  39.944  -8.775  1.00  0.00     0.336 A 
ATOM     10  O   UNL     1      74.148  39.982  -9.703  1.00  0.00    -0.246 OA
ATOM     11  O   UNL     1      73.647  40.318  -7.547  1.00  0.00    -0.423 OA
ENDROOT
TORSDOF 0
ENDMDL
MODEL 6
REMARK VINA RESULT:    -5.505      5.109      6.255
REMARK INTER + INTRA:          -5.505
REMARK INTER:                  -5.505
REMARK INTRA:                   0.000
REMARK UNBOUND:                 0.000
REMARK SMILES O=c1ccc2ccccc2o1
REMARK SMILES IDX 7 1 8 2 9 3 10 4 5 5 6 6 4 7 3 8 2 9 1 10 11 11
REMARK H PARENT
REMARK Flexibility Score: inf
ROOT
ATOM      1  C   UNL     1      74.264  41.743  -5.269  1.00  0.00     0.001 A 
ATOM      2  C   UNL     1      73.348  41.005  -4.511  1.00  0.00     0.004 A 
ATOM      3  C   UNL     1      72.762  41.567  -3.373  1.00  0.00     0.048 A 
ATOM      4  C   UNL     1      73.089  42.872  -2.987  1.00  0.00     0.138 A 
ATOM      5  C   UNL     1      74.013  43.618  -3.752  1.00  0.00     0.018 A 
ATOM      6  C   UNL     1      74.597  43.049  -4.893  1.00  0.00     0.012 A 
ATOM      7  C   UNL     1      74.320  44.919  -3.343  1.00  0.00     0.019 A 
ATOM      8  C   UNL     1      73.710  45.439  -2.201  1.00  0.00     0.094 A 
ATOM      9  C   UNL     1      72.804  44.643  -1.493  1.00  0.00     0.336 A 
ATOM     10  O   UNL     1      72.244  45.094  -0.460  1.00  0.00    -0.246 OA
ATOM     11  O   UNL     1      72.529  43.407  -1.904  1.00  0.00    -0.423 OA
ENDROOT
TORSDOF 0
ENDMDL
MODEL 7
REMARK VINA RESULT:    -5.501      5.027      6.735
REMARK INTER + INTRA:          -5.501
REMARK INTER:                  -5.501
REMARK INTRA:                   0.000
REMARK UNBOUND:                 0.000
REMARK SMILES O=c1ccc2ccccc2o1
REMARK SMILES IDX 7 1 8 2 9 3 10 4 5 5 6 6 4 7 3 8 2 9 1 10 11 11
REMARK H PARENT
REMARK Flexibility Score: inf
ROOT
ATOM      1  C   UNL     1      72.887  44.939  -1.478  1.00  0.00     0.001 A 
ATOM      2  C   UNL     1      73.785  45.687  -2.248  1.00  0.00     0.004 A 
ATOM      3  C   UNL     1      74.375  45.125  -3.385  1.00  0.00     0.048 A 
ATOM      4  C   UNL     1      74.069  43.811  -3.756  1.00  0.00     0.138 A 
ATOM      5  C   UNL     1      73.162  43.055  -2.979  1.00  0.00     0.018 A 
ATOM      6  C   UNL     1      72.574  43.625  -1.841  1.00  0.00     0.012 A 
ATOM      7  C   UNL     1      72.875  41.746  -3.375  1.00  0.00     0.019 A 
ATOM      8  C   UNL     1      73.487  41.227  -4.516  1.00  0.00     0.094 A 
ATOM      9  C   UNL     1      74.375  42.033  -5.237  1.00  0.00     0.336 A 
ATOM     10  O   UNL     1      74.937  41.582  -6.269  1.00  0.00    -0.246 OA
ATOM     11  O   UNL     1      74.630  43.276  -4.838  1.00  0.00    -0.423 OA
ENDROOT
TORSDOF 0
ENDMDL
MODEL 8
REMARK VINA RESULT:    -5.477      4.893      6.576
REMARK INTER + INTRA:          -5.477
REMARK INTER:                  -5.477
REMARK INTRA:                   0.000
REMARK UNBOUND:                 0.000
REMARK SMILES O=c1ccc2ccccc2o1
REMARK SMILES IDX 7 1 8 2 9 3 10 4 5 5 6 6 4 7 3 8 2 9 1 10 11 11
REMARK H PARENT
REMARK Flexibility Score: inf
ROOT
ATOM      1  C   UNL     1      73.833  45.510  -2.118  1.00  0.00     0.001 A 
ATOM      2  C   UNL     1      73.033  44.626  -1.385  1.00  0.00     0.004 A 
ATOM      3  C   UNL     1      72.750  43.352  -1.889  1.00  0.00     0.048 A 
ATOM      4  C   UNL     1      73.266  42.957  -3.128  1.00  0.00     0.138 A 
ATOM      5  C   UNL     1      74.075  43.849  -3.867  1.00  0.00     0.018 A 
ATOM      6  C   UNL     1      74.355  45.124  -3.356  1.00  0.00     0.012 A 
ATOM      7  C   UNL     1      74.578  43.426  -5.100  1.00  0.00     0.019 A 
ATOM      8  C   UNL     1      74.270  42.147  -5.563  1.00  0.00     0.094 A 
ATOM      9  C   UNL     1      73.463  41.317  -4.777  1.00  0.00     0.336 A 
ATOM     10  O   UNL     1      73.174  40.159  -5.177  1.00  0.00    -0.246 OA
ATOM     11  O   UNL     1      72.997  41.744  -3.605  1.00  0.00    -0.423 OA
ENDROOT
TORSDOF 0
ENDMDL
MODEL 9
REMARK VINA RESULT:    -5.438      2.147      2.863
REMARK INTER + INTRA:          -5.438
REMARK INTER:                  -5.438
REMARK INTRA:                   0.000
REMARK UNBOUND:                 0.000
REMARK SMILES O=c1ccc2ccccc2o1
REMARK SMILES IDX 7 1 8 2 9 3 10 4 5 5 6 6 4 7 3 8 2 9 1 10 11 11
REMARK H PARENT
REMARK Flexibility Score: inf
ROOT
ATOM      1  C   UNL     1      72.818  39.158  -7.769  1.00  0.00     0.001 A 
ATOM      2  C   UNL     1      74.009  39.893  -7.745  1.00  0.00     0.004 A 
ATOM      3  C   UNL     1      74.315  40.699  -6.644  1.00  0.00     0.048 A 
ATOM      4  C   UNL     1      73.431  40.774  -5.562  1.00  0.00     0.138 A 
ATOM      5  C   UNL     1      72.229  40.031  -5.585  1.00  0.00     0.018 A 
ATOM      6  C   UNL     1      71.928  39.224  -6.692  1.00  0.00     0.012 A 
ATOM      7  C   UNL     1      71.367  40.125  -4.490  1.00  0.00     0.019 A 
ATOM      8  C   UNL     1      71.713  40.942  -3.414  1.00  0.00     0.094 A 
ATOM      9  C   UNL     1      72.920  41.648  -3.459  1.00  0.00     0.336 A 
ATOM     10  O   UNL     1      73.250  42.390  -2.497  1.00  0.00    -0.246 OA
ATOM     11  O   UNL     1      73.724  41.541  -4.514  1.00  0.00    -0.423 OA
ENDROOT
TORSDOF 0
ENDMDL
