MODEL 1
REMARK VINA RESULT:    -6.702      0.000      0.000
REMARK INTER + INTRA:          -7.698
REMARK INTER:                  -8.074
REMARK INTRA:                   0.375
REMARK UNBOUND:                 0.375
REMARK SMILES O=c1c(O)c(-c2ccc(O)c(O)c2)oc2cc(O)cc(O)c12
REMARK SMILES IDX 5 1 3 2 2 3 1 4 22 5 20 6 19 7 17 8 16 9 15 10 14 11 6 12
REMARK SMILES IDX 7 13 8 14 9 15 13 16 11 17 10 18 12 20 4 22 21 24 18 26
REMARK H PARENT 10 19 12 21 4 23 21 25 18 27
REMARK Flexibility Score: inf
ROOT
ATOM      1  C   UNL     1      73.289  41.690  -4.897  1.00  0.00     0.180 A 
ATOM      2  C   UNL     1      72.262  40.784  -4.580  1.00  0.00     0.208 A 
ATOM      3  C   UNL     1      72.022  39.699  -5.438  1.00  0.00     0.238 A 
ATOM      4  O   UNL     1      71.065  38.923  -5.177  1.00  0.00    -0.285 OA
ATOM      5  C   UNL     1      72.822  39.524  -6.593  1.00  0.00     0.111 A 
ATOM      6  C   UNL     1      72.693  38.438  -7.510  1.00  0.00     0.134 A 
ATOM      7  C   UNL     1      73.450  38.436  -8.689  1.00  0.00     0.093 A 
ATOM      8  C   UNL     1      74.377  39.443  -8.950  1.00  0.00     0.123 A 
ATOM      9  C   UNL     1      74.554  40.479  -8.031  1.00  0.00     0.094 A 
ATOM     10  C   UNL     1      73.787  40.528  -6.865  1.00  0.00     0.146 A 
ATOM     11  O   UNL     1      73.979  41.535  -6.022  1.00  0.00    -0.452 OA
ENDROOT
BRANCH   1  12
ATOM     12  C   UNL     1      73.619  42.843  -4.028  1.00  0.00     0.025 A 
ATOM     13  C   UNL     1      74.403  43.890  -4.539  1.00  0.00     0.016 A 
ATOM     14  C   UNL     1      74.744  44.977  -3.731  1.00  0.00     0.051 A 
ATOM     15  C   UNL     1      74.320  45.028  -2.397  1.00  0.00     0.157 A 
ATOM     16  C   UNL     1      73.211  42.886  -2.683  1.00  0.00     0.062 A 
ATOM     17  C   UNL     1      73.553  43.974  -1.870  1.00  0.00     0.158 A 
BRANCH  15  18
ATOM     18  O   UNL     1      74.659  46.115  -1.593  1.00  0.00    -0.504 OA
ATOM     19  H   UNL     1      75.487  46.104  -1.009  1.00  0.00     0.293 HD
ENDBRANCH  15  18
BRANCH  17  20
ATOM     20  O   UNL     1      73.127  43.987  -0.543  1.00  0.00    -0.504 OA
ATOM     21  H   UNL     1      72.853  43.141  -0.057  1.00  0.00     0.293 HD
ENDBRANCH  17  20
ENDBRANCH   1  12
BRANCH   2  22
ATOM     22  O   UNL     1      71.471  40.989  -3.446  1.00  0.00    -0.502 OA
ATOM     23  H   UNL     1      70.581  41.471  -3.485  1.00  0.00     0.293 HD
ENDBRANCH   2  22
BRANCH   6  24
ATOM     24  O   UNL     1      71.863  37.333  -7.300  1.00  0.00    -0.507 OA
ATOM     25  H   UNL     1      70.861  37.379  -7.191  1.00  0.00     0.293 HD
ENDBRANCH   6  24
BRANCH   8  26
ATOM     26  O   UNL     1      75.125  39.400 -10.125  1.00  0.00    -0.508 OA
ATOM     27  H   UNL     1      74.885  39.972 -10.927  1.00  0.00     0.293 HD
ENDBRANCH   8  26
TORSDOF 6
ENDMDL
MODEL 2
REMARK VINA RESULT:    -6.375     11.040     13.940
REMARK INTER + INTRA:          -7.303
REMARK INTER:                  -6.981
REMARK INTRA:                  -0.322
REMARK UNBOUND:                 0.375
REMARK SMILES O=c1c(O)c(-c2ccc(O)c(O)c2)oc2cc(O)cc(O)c12
REMARK SMILES IDX 5 1 3 2 2 3 1 4 22 5 20 6 19 7 17 8 16 9 15 10 14 11 6 12
REMARK SMILES IDX 7 13 8 14 9 15 13 16 11 17 10 18 12 20 4 22 21 24 18 26
REMARK H PARENT 10 19 12 21 4 23 21 25 18 27
REMARK Flexibility Score: inf
ROOT
ATOM      1  C   UNL     1      71.427  44.117   6.366  1.00  0.00     0.180 A 
ATOM      2  C   UNL     1      71.795  44.474   5.057  1.00  0.00     0.208 A 
ATOM      3  C   UNL     1      72.529  45.653   4.854  1.00  0.00     0.238 A 
ATOM      4  O   UNL     1      72.807  45.995   3.674  1.00  0.00    -0.285 OA
ATOM      5  C   UNL     1      72.901  46.451   5.962  1.00  0.00     0.111 A 
ATOM      6  C   UNL     1      73.679  47.644   5.876  1.00  0.00     0.134 A 
ATOM      7  C   UNL     1      73.877  48.424   7.023  1.00  0.00     0.093 A 
ATOM      8  C   UNL     1      73.382  48.021   8.261  1.00  0.00     0.123 A 
ATOM      9  C   UNL     1      72.670  46.825   8.368  1.00  0.00     0.094 A 
ATOM     10  C   UNL     1      72.425  46.044   7.236  1.00  0.00     0.146 A 
ATOM     11  O   UNL     1      71.735  44.919   7.378  1.00  0.00    -0.452 OA
ENDROOT
BRANCH   1  12
ATOM     12  C   UNL     1      70.675  42.875   6.662  1.00  0.00     0.025 A 
ATOM     13  C   UNL     1      71.378  41.686   6.914  1.00  0.00     0.016 A 
ATOM     14  C   UNL     1      70.689  40.499   7.175  1.00  0.00     0.051 A 
ATOM     15  C   UNL     1      69.288  40.479   7.173  1.00  0.00     0.157 A 
ATOM     16  C   UNL     1      69.269  42.848   6.641  1.00  0.00     0.062 A 
ATOM     17  C   UNL     1      68.576  41.660   6.901  1.00  0.00     0.158 A 
BRANCH  15  18
ATOM     18  O   UNL     1      68.603  39.294   7.436  1.00  0.00    -0.504 OA
ATOM     19  H   UNL     1      67.620  39.293   7.680  1.00  0.00     0.293 HD
ENDBRANCH  15  18
BRANCH  17  20
ATOM     20  O   UNL     1      67.182  41.670   6.877  1.00  0.00    -0.504 OA
ATOM     21  H   UNL     1      66.628  41.338   7.657  1.00  0.00     0.293 HD
ENDBRANCH  17  20
ENDBRANCH   1  12
BRANCH   2  22
ATOM     22  O   UNL     1      71.397  43.683   3.975  1.00  0.00    -0.502 OA
ATOM     23  H   UNL     1      70.665  42.986   4.051  1.00  0.00     0.293 HD
ENDBRANCH   2  22
BRANCH   6  24
ATOM     24  O   UNL     1      74.299  48.090   4.704  1.00  0.00    -0.507 OA
ATOM     25  H   UNL     1      74.750  47.492   4.030  1.00  0.00     0.293 HD
ENDBRANCH   6  24
BRANCH   8  26
ATOM     26  O   UNL     1      73.612  48.813   9.384  1.00  0.00    -0.508 OA
ATOM     27  H   UNL     1      74.523  48.850   9.829  1.00  0.00     0.293 HD
ENDBRANCH   8  26
TORSDOF 6
ENDMDL
MODEL 3
REMARK VINA RESULT:    -6.326     14.897     16.911
REMARK INTER + INTRA:          -7.245
REMARK INTER:                  -7.201
REMARK INTRA:                  -0.044
REMARK UNBOUND:                 0.375
REMARK SMILES O=c1c(O)c(-c2ccc(O)c(O)c2)oc2cc(O)cc(O)c12
REMARK SMILES IDX 5 1 3 2 2 3 1 4 22 5 20 6 19 7 17 8 16 9 15 10 14 11 6 12
REMARK SMILES IDX 7 13 8 14 9 15 13 16 11 17 10 18 12 20 4 22 21 24 18 26
REMARK H PARENT 10 19 12 21 4 23 21 25 18 27
REMARK Flexibility Score: inf
ROOT
ATOM      1  C   UNL     1      68.187  47.902   9.011  1.00  0.00     0.180 A 
ATOM      2  C   UNL     1      67.277  48.798   9.598  1.00  0.00     0.208 A 
ATOM      3  C   UNL     1      65.917  48.454   9.647  1.00  0.00     0.238 A 
ATOM      4  O   UNL     1      65.101  49.285  10.125  1.00  0.00    -0.285 OA
ATOM      5  C   UNL     1      65.486  47.211   9.123  1.00  0.00     0.111 A 
ATOM      6  C   UNL     1      64.138  46.742   9.157  1.00  0.00     0.134 A 
ATOM      7  C   UNL     1      63.804  45.555   8.492  1.00  0.00     0.093 A 
ATOM      8  C   UNL     1      64.778  44.789   7.854  1.00  0.00     0.123 A 
ATOM      9  C   UNL     1      66.109  45.207   7.867  1.00  0.00     0.094 A 
ATOM     10  C   UNL     1      66.467  46.405   8.489  1.00  0.00     0.146 A 
ATOM     11  O   UNL     1      67.743  46.773   8.470  1.00  0.00    -0.452 OA
ENDROOT
BRANCH   1  12
ATOM     12  C   UNL     1      69.640  48.184   8.945  1.00  0.00     0.025 A 
ATOM     13  C   UNL     1      70.337  48.491  10.124  1.00  0.00     0.016 A 
ATOM     14  C   UNL     1      71.703  48.781  10.083  1.00  0.00     0.051 A 
ATOM     15  C   UNL     1      72.389  48.783   8.862  1.00  0.00     0.157 A 
ATOM     16  C   UNL     1      70.326  48.207   7.718  1.00  0.00     0.062 A 
ATOM     17  C   UNL     1      71.695  48.498   7.673  1.00  0.00     0.158 A 
BRANCH  15  18
ATOM     18  O   UNL     1      73.753  49.070   8.824  1.00  0.00    -0.504 OA
ATOM     19  H   UNL     1      74.094  49.988   8.564  1.00  0.00     0.293 HD
ENDBRANCH  15  18
BRANCH  17  20
ATOM     20  O   UNL     1      72.346  48.507   6.440  1.00  0.00    -0.504 OA
ATOM     21  H   UNL     1      72.327  47.708   5.816  1.00  0.00     0.293 HD
ENDBRANCH  17  20
ENDBRANCH   1  12
BRANCH   2  22
ATOM     22  O   UNL     1      67.722  50.030  10.089  1.00  0.00    -0.502 OA
ATOM     23  H   UNL     1      67.152  50.866  10.055  1.00  0.00     0.293 HD
ENDBRANCH   2  22
BRANCH   6  24
ATOM     24  O   UNL     1      63.105  47.384   9.845  1.00  0.00    -0.507 OA
ATOM     25  H   UNL     1      62.294  47.797   9.410  1.00  0.00     0.293 HD
ENDBRANCH   6  24
BRANCH   8  26
ATOM     26  O   UNL     1      64.411  43.605   7.217  1.00  0.00    -0.508 OA
ATOM     27  H   UNL     1      64.556  42.701   7.655  1.00  0.00     0.293 HD
ENDBRANCH   8  26
TORSDOF 6
ENDMDL
MODEL 4
REMARK VINA RESULT:    -6.171     12.158     14.664
REMARK INTER + INTRA:          -7.058
REMARK INTER:                  -6.771
REMARK INTRA:                  -0.288
REMARK UNBOUND:                 0.375
REMARK SMILES O=c1c(O)c(-c2ccc(O)c(O)c2)oc2cc(O)cc(O)c12
REMARK SMILES IDX 5 1 3 2 2 3 1 4 22 5 20 6 19 7 17 8 16 9 15 10 14 11 6 12
REMARK SMILES IDX 7 13 8 14 9 15 13 16 11 17 10 18 12 20 4 22 21 24 18 26
REMARK H PARENT 10 19 12 21 4 23 21 25 18 27
REMARK Flexibility Score: inf
ROOT
ATOM      1  C   UNL     1      70.061  47.372   7.127  1.00  0.00     0.180 A 
ATOM      2  C   UNL     1      70.617  47.976   5.986  1.00  0.00     0.208 A 
ATOM      3  C   UNL     1      71.855  47.517   5.509  1.00  0.00     0.238 A 
ATOM      4  O   UNL     1      72.374  48.098   4.519  1.00  0.00    -0.285 OA
ATOM      5  C   UNL     1      72.513  46.451   6.168  1.00  0.00     0.111 A 
ATOM      6  C   UNL     1      73.752  45.879   5.747  1.00  0.00     0.134 A 
ATOM      7  C   UNL     1      74.375  44.915   6.549  1.00  0.00     0.093 A 
ATOM      8  C   UNL     1      73.775  44.456   7.720  1.00  0.00     0.123 A 
ATOM      9  C   UNL     1      72.535  44.964   8.110  1.00  0.00     0.094 A 
ATOM     10  C   UNL     1      71.906  45.953   7.350  1.00  0.00     0.146 A 
ATOM     11  O   UNL     1      70.733  46.418   7.761  1.00  0.00    -0.452 OA
ENDROOT
BRANCH   1  12
ATOM     12  C   UNL     1      68.747  47.783   7.674  1.00  0.00     0.025 A 
ATOM     13  C   UNL     1      68.698  48.535   8.859  1.00  0.00     0.016 A 
ATOM     14  C   UNL     1      67.470  48.915   9.405  1.00  0.00     0.051 A 
ATOM     15  C   UNL     1      66.272  48.539   8.784  1.00  0.00     0.157 A 
ATOM     16  C   UNL     1      67.543  47.389   7.064  1.00  0.00     0.062 A 
ATOM     17  C   UNL     1      66.311  47.768   7.610  1.00  0.00     0.158 A 
BRANCH  15  18
ATOM     18  O   UNL     1      65.048  48.922   9.329  1.00  0.00    -0.504 OA
ATOM     19  H   UNL     1      64.177  48.510   9.017  1.00  0.00     0.293 HD
ENDBRANCH  15  18
BRANCH  17  20
ATOM     20  O   UNL     1      65.137  47.363   6.975  1.00  0.00    -0.504 OA
ATOM     21  H   UNL     1      65.050  47.342   5.965  1.00  0.00     0.293 HD
ENDBRANCH  17  20
ENDBRANCH   1  12
BRANCH   2  22
ATOM     22  O   UNL     1      69.961  49.042   5.365  1.00  0.00    -0.502 OA
ATOM     23  H   UNL     1      69.302  48.907   4.607  1.00  0.00     0.293 HD
ENDBRANCH   2  22
BRANCH   6  24
ATOM     24  O   UNL     1      74.392  46.201   4.546  1.00  0.00    -0.507 OA
ATOM     25  H   UNL     1      75.383  46.356   4.447  1.00  0.00     0.293 HD
ENDBRANCH   6  24
BRANCH   8  26
ATOM     26  O   UNL     1      74.417  43.484   8.485  1.00  0.00    -0.508 OA
ATOM     27  H   UNL     1      74.044  43.181   9.378  1.00  0.00     0.293 HD
ENDBRANCH   8  26
TORSDOF 6
ENDMDL
MODEL 5
REMARK VINA RESULT:    -6.162     12.845     15.821
REMARK INTER + INTRA:          -7.047
REMARK INTER:                  -6.810
REMARK INTRA:                  -0.237
REMARK UNBOUND:                 0.375
REMARK SMILES O=c1c(O)c(-c2ccc(O)c(O)c2)oc2cc(O)cc(O)c12
REMARK SMILES IDX 5 1 3 2 2 3 1 4 22 5 20 6 19 7 17 8 16 9 15 10 14 11 6 12
REMARK SMILES IDX 7 13 8 14 9 15 13 16 11 17 10 18 12 20 4 22 21 24 18 26
REMARK H PARENT 10 19 12 21 4 23 21 25 18 27
REMARK Flexibility Score: inf
ROOT
ATOM      1  C   UNL     1      69.026  47.349   8.013  1.00  0.00     0.180 A 
ATOM      2  C   UNL     1      69.454  48.143   9.091  1.00  0.00     0.208 A 
ATOM      3  C   UNL     1      70.789  48.576   9.130  1.00  0.00     0.238 A 
ATOM      4  O   UNL     1      71.180  49.241  10.125  1.00  0.00    -0.285 OA
ATOM      5  C   UNL     1      71.674  48.223   8.083  1.00  0.00     0.111 A 
ATOM      6  C   UNL     1      73.037  48.641   7.999  1.00  0.00     0.134 A 
ATOM      7  C   UNL     1      73.856  48.125   6.987  1.00  0.00     0.093 A 
ATOM      8  C   UNL     1      73.347  47.262   6.019  1.00  0.00     0.123 A 
ATOM      9  C   UNL     1      72.001  46.894   6.056  1.00  0.00     0.094 A 
ATOM     10  C   UNL     1      71.168  47.362   7.074  1.00  0.00     0.146 A 
ATOM     11  O   UNL     1      69.896  46.981   7.080  1.00  0.00    -0.452 OA
ENDROOT
BRANCH   1  12
ATOM     12  C   UNL     1      67.628  46.876   7.890  1.00  0.00     0.025 A 
ATOM     13  C   UNL     1      66.613  47.794   7.577  1.00  0.00     0.016 A 
ATOM     14  C   UNL     1      65.285  47.374   7.477  1.00  0.00     0.051 A 
ATOM     15  C   UNL     1      64.948  46.033   7.701  1.00  0.00     0.157 A 
ATOM     16  C   UNL     1      67.284  45.534   8.135  1.00  0.00     0.062 A 
ATOM     17  C   UNL     1      65.953  45.110   8.036  1.00  0.00     0.158 A 
BRANCH  15  18
ATOM     18  O   UNL     1      63.622  45.616   7.598  1.00  0.00    -0.504 OA
ATOM     19  H   UNL     1      62.851  46.250   7.777  1.00  0.00     0.293 HD
ENDBRANCH  15  18
BRANCH  17  20
ATOM     20  O   UNL     1      65.649  43.771   8.280  1.00  0.00    -0.504 OA
ATOM     21  H   UNL     1      65.351  43.144   7.543  1.00  0.00     0.293 HD
ENDBRANCH  17  20
ENDBRANCH   1  12
BRANCH   2  22
ATOM     22  O   UNL     1      68.569  48.460  10.125  1.00  0.00    -0.502 OA
ATOM     23  H   UNL     1      67.703  47.956  10.272  1.00  0.00     0.293 HD
ENDBRANCH   2  22
BRANCH   6  24
ATOM     24  O   UNL     1      73.622  49.573   8.861  1.00  0.00    -0.507 OA
ATOM     25  H   UNL     1      74.386  50.183   8.615  1.00  0.00     0.293 HD
ENDBRANCH   6  24
BRANCH   8  26
ATOM     26  O   UNL     1      74.187  46.781   5.017  1.00  0.00    -0.508 OA
ATOM     27  H   UNL     1      74.089  47.082   4.053  1.00  0.00     0.293 HD
ENDBRANCH   8  26
TORSDOF 6
ENDMDL
MODEL 6
REMARK VINA RESULT:    -6.143     10.993     13.627
REMARK INTER + INTRA:          -7.025
REMARK INTER:                  -6.706
REMARK INTRA:                  -0.318
REMARK UNBOUND:                 0.375
REMARK SMILES O=c1c(O)c(-c2ccc(O)c(O)c2)oc2cc(O)cc(O)c12
REMARK SMILES IDX 5 1 3 2 2 3 1 4 22 5 20 6 19 7 17 8 16 9 15 10 14 11 6 12
REMARK SMILES IDX 7 13 8 14 9 15 13 16 11 17 10 18 12 20 4 22 21 24 18 26
REMARK H PARENT 10 19 12 21 4 23 21 25 18 27
REMARK Flexibility Score: inf
ROOT
ATOM      1  C   UNL     1      68.576  43.585   7.472  1.00  0.00     0.180 A 
ATOM      2  C   UNL     1      67.996  42.763   8.453  1.00  0.00     0.208 A 
ATOM      3  C   UNL     1      68.131  41.370   8.341  1.00  0.00     0.238 A 
ATOM      4  O   UNL     1      67.563  40.638   9.193  1.00  0.00    -0.285 OA
ATOM      5  C   UNL     1      68.858  40.817   7.259  1.00  0.00     0.111 A 
ATOM      6  C   UNL     1      69.092  39.422   7.068  1.00  0.00     0.134 A 
ATOM      7  C   UNL     1      69.712  38.980   5.893  1.00  0.00     0.093 A 
ATOM      8  C   UNL     1      70.164  39.884   4.934  1.00  0.00     0.123 A 
ATOM      9  C   UNL     1      69.994  41.255   5.138  1.00  0.00     0.094 A 
ATOM     10  C   UNL     1      69.347  41.724   6.283  1.00  0.00     0.146 A 
ATOM     11  O   UNL     1      69.196  43.034   6.434  1.00  0.00    -0.452 OA
ENDROOT
BRANCH   1  12
ATOM     12  C   UNL     1      68.499  45.063   7.535  1.00  0.00     0.025 A 
ATOM     13  C   UNL     1      69.516  45.780   8.185  1.00  0.00     0.016 A 
ATOM     14  C   UNL     1      69.452  47.172   8.276  1.00  0.00     0.051 A 
ATOM     15  C   UNL     1      68.365  47.868   7.732  1.00  0.00     0.157 A 
ATOM     16  C   UNL     1      67.398  45.762   7.008  1.00  0.00     0.062 A 
ATOM     17  C   UNL     1      67.331  47.158   7.099  1.00  0.00     0.158 A 
BRANCH  15  18
ATOM     18  O   UNL     1      68.306  49.258   7.822  1.00  0.00    -0.504 OA
ATOM     19  H   UNL     1      69.020  49.847   7.410  1.00  0.00     0.293 HD
ENDBRANCH  15  18
BRANCH  17  20
ATOM     20  O   UNL     1      66.228  47.819   6.560  1.00  0.00    -0.504 OA
ATOM     21  H   UNL     1      65.382  47.979   7.094  1.00  0.00     0.293 HD
ENDBRANCH  17  20
ENDBRANCH   1  12
BRANCH   2  22
ATOM     22  O   UNL     1      67.264  43.329   9.501  1.00  0.00    -0.502 OA
ATOM     23  H   UNL     1      67.372  43.030  10.462  1.00  0.00     0.293 HD
ENDBRANCH   2  22
BRANCH   6  24
ATOM     24  O   UNL     1      68.762  38.440   8.008  1.00  0.00    -0.507 OA
ATOM     25  H   UNL     1      68.793  38.568   9.007  1.00  0.00     0.293 HD
ENDBRANCH   6  24
BRANCH   8  26
ATOM     26  O   UNL     1      70.792  39.409   3.784  1.00  0.00    -0.508 OA
ATOM     27  H   UNL     1      71.106  38.448   3.711  1.00  0.00     0.293 HD
ENDBRANCH   8  26
TORSDOF 6
ENDMDL
