MODEL 1
REMARK VINA RESULT:    -5.784      0.000      0.000
REMARK INTER + INTRA:          -6.466
REMARK INTER:                  -6.291
REMARK INTRA:                  -0.175
REMARK UNBOUND:                -0.175
REMARK SMILES C=C(C)[C@H]1CC[C@@H](C)C[C@@H]1O
REMARK SMILES IDX 8 1 7 2 6 3 5 4 4 5 10 6 9 7 11 8 2 10 1 11 3 12
REMARK H PARENT 11 9
REMARK Flexibility Score: inf
ROOT
ATOM      1  C   UNL     1     136.538 124.879 134.693  1.00  0.00     0.008 C 
ATOM      2  C   UNL     1     135.909 126.239 135.015  1.00  0.00    -0.012 C 
ATOM      3  C   UNL     1     135.684 127.066 133.723  1.00  0.00     0.004 C 
ATOM      4  C   UNL     1     135.668 128.589 133.963  1.00  0.00     0.011 C 
ATOM      5  C   UNL     1     135.167 128.935 135.377  1.00  0.00     0.043 C 
ATOM      6  C   UNL     1     136.096 128.339 136.473  1.00  0.00     0.121 C 
ATOM      7  C   UNL     1     136.773 127.017 136.026  1.00  0.00     0.035 C 
ENDROOT
BRANCH   6   8
ATOM      8  O   UNL     1     135.338 128.119 137.636  1.00  0.00    -0.392 OA
ATOM      9  H   UNL     1     135.858 128.491 138.396  1.00  0.00     0.210 HD
ENDBRANCH   6   8
BRANCH   5  10
ATOM     10  C   UNL     1     134.993 130.439 135.553  1.00  0.00    -0.075 C 
ATOM     11  C   UNL     1     133.778 130.954 135.801  1.00  0.00     0.008 C 
ATOM     12  C   UNL     1     136.172 131.378 135.474  1.00  0.00     0.039 C 
ENDBRANCH   5  10
TORSDOF 2
ENDMDL
MODEL 2
REMARK VINA RESULT:    -5.754      0.090      1.047
REMARK INTER + INTRA:          -6.434
REMARK INTER:                  -6.252
REMARK INTRA:                  -0.182
REMARK UNBOUND:                -0.175
REMARK SMILES C=C(C)[C@H]1CC[C@@H](C)C[C@@H]1O
REMARK SMILES IDX 8 1 7 2 6 3 5 4 4 5 10 6 9 7 11 8 2 10 1 11 3 12
REMARK H PARENT 11 9
REMARK Flexibility Score: inf
ROOT
ATOM      1  C   UNL     1     136.500 124.881 134.704  1.00  0.00     0.008 C 
ATOM      2  C   UNL     1     135.906 126.255 135.036  1.00  0.00    -0.012 C 
ATOM      3  C   UNL     1     135.709 127.098 133.750  1.00  0.00     0.004 C 
ATOM      4  C   UNL     1     135.733 128.619 134.004  1.00  0.00     0.011 C 
ATOM      5  C   UNL     1     135.236 128.967 135.419  1.00  0.00     0.043 C 
ATOM      6  C   UNL     1     136.143 128.335 136.513  1.00  0.00     0.121 C 
ATOM      7  C   UNL     1     136.786 127.000 136.057  1.00  0.00     0.035 C 
ENDROOT
BRANCH   6   8
ATOM      8  O   UNL     1     135.375 128.126 137.671  1.00  0.00    -0.392 OA
ATOM      9  H   UNL     1     134.652 128.807 137.667  1.00  0.00     0.210 HD
ENDBRANCH   6   8
BRANCH   5  10
ATOM     10  C   UNL     1     135.101 130.473 135.608  1.00  0.00    -0.075 C 
ATOM     11  C   UNL     1     136.180 131.265 135.506  1.00  0.00     0.008 C 
ATOM     12  C   UNL     1     133.762 131.109 135.890  1.00  0.00     0.039 C 
ENDBRANCH   5  10
TORSDOF 2
ENDMDL
MODEL 3
REMARK VINA RESULT:    -5.322      1.394      4.200
REMARK INTER + INTRA:          -5.963
REMARK INTER:                  -5.790
REMARK INTRA:                  -0.173
REMARK UNBOUND:                -0.175
REMARK SMILES C=C(C)[C@H]1CC[C@@H](C)C[C@@H]1O
REMARK SMILES IDX 8 1 7 2 6 3 5 4 4 5 10 6 9 7 11 8 2 10 1 11 3 12
REMARK H PARENT 11 9
REMARK Flexibility Score: inf
ROOT
ATOM      1  C   UNL     1     134.044 131.433 137.963  1.00  0.00     0.008 C 
ATOM      2  C   UNL     1     134.638 130.217 137.243  1.00  0.00    -0.012 C 
ATOM      3  C   UNL     1     135.665 130.657 136.168  1.00  0.00     0.004 C 
ATOM      4  C   UNL     1     135.827 129.639 135.021  1.00  0.00     0.011 C 
ATOM      5  C   UNL     1     135.549 128.201 135.495  1.00  0.00     0.043 C 
ATOM      6  C   UNL     1     134.088 128.042 136.006  1.00  0.00     0.121 C 
ATOM      7  C   UNL     1     133.527 129.348 136.625  1.00  0.00     0.035 C 
ENDROOT
BRANCH   6   8
ATOM      8  O   UNL     1     134.053 127.007 136.956  1.00  0.00    -0.392 OA
ATOM      9  H   UNL     1     133.105 126.724 137.042  1.00  0.00     0.210 HD
ENDBRANCH   6   8
BRANCH   5  10
ATOM     10  C   UNL     1     135.872 127.184 134.406  1.00  0.00    -0.075 C 
ATOM     11  C   UNL     1     135.511 127.418 133.135  1.00  0.00     0.008 C 
ATOM     12  C   UNL     1     136.618 125.911 134.723  1.00  0.00     0.039 C 
ENDBRANCH   5  10
TORSDOF 2
ENDMDL
MODEL 4
REMARK VINA RESULT:    -5.290      1.943      4.385
REMARK INTER + INTRA:          -5.929
REMARK INTER:                  -5.752
REMARK INTRA:                  -0.178
REMARK UNBOUND:                -0.175
REMARK SMILES C=C(C)[C@H]1CC[C@@H](C)C[C@@H]1O
REMARK SMILES IDX 8 1 7 2 6 3 5 4 4 5 10 6 9 7 11 8 2 10 1 11 3 12
REMARK H PARENT 11 9
REMARK Flexibility Score: inf
ROOT
ATOM      1  C   UNL     1     130.878 130.167 138.569  1.00  0.00     0.008 C 
ATOM      2  C   UNL     1     132.270 130.209 137.929  1.00  0.00    -0.012 C 
ATOM      3  C   UNL     1     132.332 131.280 136.809  1.00  0.00     0.004 C 
ATOM      4  C   UNL     1     133.398 130.983 135.735  1.00  0.00     0.011 C 
ATOM      5  C   UNL     1     134.581 130.185 136.314  1.00  0.00     0.043 C 
ATOM      6  C   UNL     1     134.124 128.802 136.857  1.00  0.00     0.121 C 
ATOM      7  C   UNL     1     132.668 128.822 137.391  1.00  0.00     0.035 C 
ENDROOT
BRANCH   6   8
ATOM      8  O   UNL     1     135.003 128.406 137.879  1.00  0.00    -0.392 OA
ATOM      9  H   UNL     1     135.361 127.515 137.625  1.00  0.00     0.210 HD
ENDBRANCH   6   8
BRANCH   5  10
ATOM     10  C   UNL     1     135.706 130.041 135.296  1.00  0.00    -0.075 C 
ATOM     11  C   UNL     1     136.657 130.983 135.202  1.00  0.00     0.008 C 
ATOM     12  C   UNL     1     135.792 128.836 134.391  1.00  0.00     0.039 C 
ENDBRANCH   5  10
TORSDOF 2
ENDMDL
MODEL 5
REMARK VINA RESULT:    -5.246      2.445      3.504
REMARK INTER + INTRA:          -5.881
REMARK INTER:                  -5.703
REMARK INTRA:                  -0.179
REMARK UNBOUND:                -0.175
REMARK SMILES C=C(C)[C@H]1CC[C@@H](C)C[C@@H]1O
REMARK SMILES IDX 8 1 7 2 6 3 5 4 4 5 10 6 9 7 11 8 2 10 1 11 3 12
REMARK H PARENT 11 9
REMARK Flexibility Score: inf
ROOT
ATOM      1  C   UNL     1     134.640 125.339 139.785  1.00  0.00     0.008 C 
ATOM      2  C   UNL     1     135.121 126.200 138.612  1.00  0.00    -0.012 C 
ATOM      3  C   UNL     1     134.105 127.331 138.303  1.00  0.00     0.004 C 
ATOM      4  C   UNL     1     134.155 127.819 136.841  1.00  0.00     0.011 C 
ATOM      5  C   UNL     1     135.561 127.651 136.234  1.00  0.00     0.043 C 
ATOM      6  C   UNL     1     135.994 126.158 136.203  1.00  0.00     0.121 C 
ATOM      7  C   UNL     1     135.380 125.334 137.365  1.00  0.00     0.035 C 
ENDROOT
BRANCH   6   8
ATOM      8  O   UNL     1     137.396 126.093 136.259  1.00  0.00    -0.392 OA
ATOM      9  H   UNL     1     137.636 125.150 136.456  1.00  0.00     0.210 HD
ENDBRANCH   6   8
BRANCH   5  10
ATOM     10  C   UNL     1     135.649 128.286 134.852  1.00  0.00    -0.075 C 
ATOM     11  C   UNL     1     136.000 129.575 134.722  1.00  0.00     0.008 C 
ATOM     12  C   UNL     1     135.368 127.486 133.604  1.00  0.00     0.039 C 
ENDBRANCH   5  10
TORSDOF 2
ENDMDL
MODEL 6
REMARK VINA RESULT:    -5.135      2.294      3.328
REMARK INTER + INTRA:          -5.761
REMARK INTER:                  -5.594
REMARK INTRA:                  -0.167
REMARK UNBOUND:                -0.175
REMARK SMILES C=C(C)[C@H]1CC[C@@H](C)C[C@@H]1O
REMARK SMILES IDX 8 1 7 2 6 3 5 4 4 5 10 6 9 7 11 8 2 10 1 11 3 12
REMARK H PARENT 11 9
REMARK Flexibility Score: inf
ROOT
ATOM      1  C   UNL     1     134.596 125.370 139.705  1.00  0.00     0.008 C 
ATOM      2  C   UNL     1     134.578 125.984 138.301  1.00  0.00    -0.012 C 
ATOM      3  C   UNL     1     135.681 125.357 137.409  1.00  0.00     0.004 C 
ATOM      4  C   UNL     1     136.151 126.286 136.271  1.00  0.00     0.011 C 
ATOM      5  C   UNL     1     135.030 127.241 135.818  1.00  0.00     0.043 C 
ATOM      6  C   UNL     1     134.576 128.176 136.974  1.00  0.00     0.121 C 
ATOM      7  C   UNL     1     134.724 127.515 138.369  1.00  0.00     0.035 C 
ENDROOT
BRANCH   6   8
ATOM      8  O   UNL     1     133.237 128.542 136.758  1.00  0.00    -0.392 OA
ATOM      9  H   UNL     1     132.813 127.805 136.245  1.00  0.00     0.210 HD
ENDBRANCH   6   8
BRANCH   5  10
ATOM     10  C   UNL     1     135.443 128.037 134.586  1.00  0.00    -0.075 C 
ATOM     11  C   UNL     1     135.364 127.483 133.366  1.00  0.00     0.008 C 
ATOM     12  C   UNL     1     135.926 129.462 134.702  1.00  0.00     0.039 C 
ENDBRANCH   5  10
TORSDOF 2
ENDMDL
MODEL 7
REMARK VINA RESULT:    -5.130      3.769      5.623
REMARK INTER + INTRA:          -5.755
REMARK INTER:                  -5.575
REMARK INTRA:                  -0.180
REMARK UNBOUND:                -0.175
REMARK SMILES C=C(C)[C@H]1CC[C@@H](C)C[C@@H]1O
REMARK SMILES IDX 8 1 7 2 6 3 5 4 4 5 10 6 9 7 11 8 2 10 1 11 3 12
REMARK H PARENT 11 9
REMARK Flexibility Score: inf
ROOT
ATOM      1  C   UNL     1     134.314 131.402 135.870  1.00  0.00     0.008 C 
ATOM      2  C   UNL     1     133.269 130.378 136.327  1.00  0.00    -0.012 C 
ATOM      3  C   UNL     1     132.019 131.085 136.910  1.00  0.00     0.004 C 
ATOM      4  C   UNL     1     131.242 130.221 137.925  1.00  0.00     0.011 C 
ATOM      5  C   UNL     1     131.395 128.718 137.625  1.00  0.00     0.043 C 
ATOM      6  C   UNL     1     132.879 128.266 137.724  1.00  0.00     0.121 C 
ATOM      7  C   UNL     1     133.874 129.394 137.345  1.00  0.00     0.035 C 
ENDROOT
BRANCH   6   8
ATOM      8  O   UNL     1     133.070 127.157 136.883  1.00  0.00    -0.392 OA
ATOM      9  H   UNL     1     132.179 126.742 136.743  1.00  0.00     0.210 HD
ENDBRANCH   6   8
BRANCH   5  10
ATOM     10  C   UNL     1     130.494 127.878 138.522  1.00  0.00    -0.075 C 
ATOM     11  C   UNL     1     130.550 128.018 139.856  1.00  0.00     0.008 C 
ATOM     12  C   UNL     1     129.512 126.891 137.940  1.00  0.00     0.039 C 
ENDBRANCH   5  10
TORSDOF 2
ENDMDL
MODEL 8
REMARK VINA RESULT:    -4.941      1.641      2.326
REMARK INTER + INTRA:          -5.549
REMARK INTER:                  -5.428
REMARK INTRA:                  -0.121
REMARK UNBOUND:                -0.175
REMARK SMILES C=C(C)[C@H]1CC[C@@H](C)C[C@@H]1O
REMARK SMILES IDX 8 1 7 2 6 3 5 4 4 5 10 6 9 7 11 8 2 10 1 11 3 12
REMARK H PARENT 11 9
REMARK Flexibility Score: inf
ROOT
ATOM      1  C   UNL     1     136.530 125.207 134.644  1.00  0.00     0.008 C 
ATOM      2  C   UNL     1     136.177 126.569 135.250  1.00  0.00    -0.012 C 
ATOM      3  C   UNL     1     135.351 126.399 136.551  1.00  0.00     0.004 C 
ATOM      4  C   UNL     1     134.448 127.609 136.868  1.00  0.00     0.011 C 
ATOM      5  C   UNL     1     135.040 128.919 136.317  1.00  0.00     0.043 C 
ATOM      6  C   UNL     1     135.173 128.877 134.768  1.00  0.00     0.121 C 
ATOM      7  C   UNL     1     135.427 127.445 134.229  1.00  0.00     0.035 C 
ENDROOT
BRANCH   6   8
ATOM      8  O   UNL     1     136.224 129.727 134.382  1.00  0.00    -0.392 OA
ATOM      9  H   UNL     1     135.866 130.332 133.681  1.00  0.00     0.210 HD
ENDBRANCH   6   8
BRANCH   5  10
ATOM     10  C   UNL     1     134.235 130.130 136.775  1.00  0.00    -0.075 C 
ATOM     11  C   UNL     1     134.257 130.507 138.063  1.00  0.00     0.008 C 
ATOM     12  C   UNL     1     133.418 130.940 135.799  1.00  0.00     0.039 C 
ENDBRANCH   5  10
TORSDOF 2
ENDMDL
MODEL 9
REMARK VINA RESULT:    -4.935      2.617      4.603
REMARK INTER + INTRA:          -5.542
REMARK INTER:                  -5.397
REMARK INTRA:                  -0.145
REMARK UNBOUND:                -0.175
REMARK SMILES C=C(C)[C@H]1CC[C@@H](C)C[C@@H]1O
REMARK SMILES IDX 8 1 7 2 6 3 5 4 4 5 10 6 9 7 11 8 2 10 1 11 3 12
REMARK H PARENT 11 9
REMARK Flexibility Score: inf
ROOT
ATOM      1  C   UNL     1     130.762 129.800 138.790  1.00  0.00     0.008 C 
ATOM      2  C   UNL     1     131.763 129.709 137.634  1.00  0.00    -0.012 C 
ATOM      3  C   UNL     1     132.438 128.313 137.595  1.00  0.00     0.004 C 
ATOM      4  C   UNL     1     133.831 128.324 136.934  1.00  0.00     0.011 C 
ATOM      5  C   UNL     1     133.947 129.433 135.872  1.00  0.00     0.043 C 
ATOM      6  C   UNL     1     133.760 130.844 136.500  1.00  0.00     0.121 C 
ATOM      7  C   UNL     1     132.814 130.830 137.728  1.00  0.00     0.035 C 
ENDROOT
BRANCH   6   8
ATOM      8  O   UNL     1     133.256 131.712 135.516  1.00  0.00    -0.392 OA
ATOM      9  H   UNL     1     133.922 132.440 135.402  1.00  0.00     0.210 HD
ENDBRANCH   6   8
BRANCH   5  10
ATOM     10  C   UNL     1     135.260 129.334 135.104  1.00  0.00    -0.075 C 
ATOM     11  C   UNL     1     135.432 128.373 134.183  1.00  0.00     0.008 C 
ATOM     12  C   UNL     1     136.382 130.315 135.343  1.00  0.00     0.039 C 
ENDBRANCH   5  10
TORSDOF 2
ENDMDL
