MODEL 1
REMARK VINA RESULT:    -2.887      0.000      0.000
REMARK INTER + INTRA:          -3.140
REMARK INTER:                  -3.140
REMARK INTRA:                   0.000
REMARK UNBOUND:                 0.000
REMARK SMILES [NH3+]CC(=O)[O-]
REMARK SMILES IDX 2 1 1 2 3 6 4 7 5 8
REMARK H PARENT 1 3 1 4 1 5
REMARK Flexibility Score: inf
ROOT
ATOM      1  C   UNL     1      21.674  21.905  22.168  1.00  0.00     0.312 C 
ENDROOT
BRANCH   1   2
ATOM      2  N   UNL     1      22.842  21.600  21.344  1.00  0.00    -0.353 N 
ATOM      3  H   UNL     1      23.191  22.469  20.879  1.00  0.00     0.344 HD
ATOM      4  H   UNL     1      22.570  20.909  20.607  1.00  0.00     0.344 HD
ATOM      5  H   UNL     1      23.600  21.185  21.933  1.00  0.00     0.344 HD
ENDBRANCH   1   2
BRANCH   1   6
ATOM      6  C   UNL     1      21.895  23.163  22.950  1.00  0.00     0.096 C 
ATOM      7  O   UNL     1      20.964  23.650  23.643  1.00  0.00    -0.544 OA
ATOM      8  O   UNL     1      23.145  23.768  22.954  1.00  0.00    -0.544 OA
ENDBRANCH   1   6
TORSDOF 2
ENDMDL
MODEL 2
REMARK VINA RESULT:    -2.798     14.353     14.650
REMARK INTER + INTRA:          -3.044
REMARK INTER:                  -3.044
REMARK INTRA:                   0.000
REMARK UNBOUND:                 0.000
REMARK SMILES [NH3+]CC(=O)[O-]
REMARK SMILES IDX 2 1 1 2 3 6 4 7 5 8
REMARK H PARENT 1 3 1 4 1 5
REMARK Flexibility Score: inf
ROOT
ATOM      1  C   UNL     1      15.931  13.412  13.036  1.00  0.00     0.312 C 
ENDROOT
BRANCH   1   2
ATOM      2  N   UNL     1      15.607  14.656  12.342  1.00  0.00    -0.353 N 
ATOM      3  H   UNL     1      14.635  14.611  11.956  1.00  0.00     0.344 HD
ATOM      4  H   UNL     1      16.278  14.791  11.550  1.00  0.00     0.344 HD
ATOM      5  H   UNL     1      15.690  15.467  12.997  1.00  0.00     0.344 HD
ENDBRANCH   1   2
BRANCH   1   6
ATOM      6  C   UNL     1      15.080  13.253  14.259  1.00  0.00     0.096 C 
ATOM      7  O   UNL     1      15.594  12.875  15.343  1.00  0.00    -0.544 OA
ATOM      8  O   UNL     1      13.729  13.573  14.211  1.00  0.00    -0.544 OA
ENDBRANCH   1   6
TORSDOF 2
ENDMDL
MODEL 3
REMARK VINA RESULT:    -2.760      7.378      7.809
REMARK INTER + INTRA:          -3.002
REMARK INTER:                  -3.002
REMARK INTRA:                   0.000
REMARK UNBOUND:                 0.000
REMARK SMILES [NH3+]CC(=O)[O-]
REMARK SMILES IDX 2 1 1 2 3 6 4 7 5 8
REMARK H PARENT 1 3 1 4 1 5
REMARK Flexibility Score: inf
ROOT
ATOM      1  C   UNL     1      27.758  26.102  22.124  1.00  0.00     0.312 C 
ENDROOT
BRANCH   1   2
ATOM      2  N   UNL     1      27.187  26.828  20.991  1.00  0.00    -0.353 N 
ATOM      3  H   UNL     1      26.327  26.342  20.649  1.00  0.00     0.344 HD
ATOM      4  H   UNL     1      27.889  26.858  20.215  1.00  0.00     0.344 HD
ATOM      5  H   UNL     1      26.952  27.808  21.273  1.00  0.00     0.344 HD
ENDBRANCH   1   2
BRANCH   1   6
ATOM      6  C   UNL     1      29.237  25.936  21.953  1.00  0.00     0.096 C 
ATOM      7  O   UNL     1      29.726  24.796  21.744  1.00  0.00    -0.544 OA
ATOM      8  O   UNL     1      30.067  27.049  21.974  1.00  0.00    -0.544 OA
ENDBRANCH   1   6
TORSDOF 2
ENDMDL
MODEL 4
REMARK VINA RESULT:    -2.576      5.472      5.918
REMARK INTER + INTRA:          -2.802
REMARK INTER:                  -2.802
REMARK INTRA:                   0.000
REMARK UNBOUND:                 0.000
REMARK SMILES [NH3+]CC(=O)[O-]
REMARK SMILES IDX 2 1 1 2 3 6 4 7 5 8
REMARK H PARENT 1 3 1 4 1 5
REMARK Flexibility Score: inf
ROOT
ATOM      1  C   UNL     1      27.180  26.843  22.523  1.00  0.00     0.312 C 
ENDROOT
BRANCH   1   2
ATOM      2  N   UNL     1      26.986  26.853  21.074  1.00  0.00    -0.353 N 
ATOM      3  H   UNL     1      27.689  27.481  20.622  1.00  0.00     0.344 HD
ATOM      4  H   UNL     1      26.026  27.211  20.860  1.00  0.00     0.344 HD
ATOM      5  H   UNL     1      27.079  25.884  20.692  1.00  0.00     0.344 HD
ENDBRANCH   1   2
BRANCH   1   6
ATOM      6  C   UNL     1      25.860  26.823  23.231  1.00  0.00     0.096 C 
ATOM      7  O   UNL     1      25.361  25.731  23.609  1.00  0.00    -0.544 OA
ATOM      8  O   UNL     1      25.208  28.015  23.519  1.00  0.00    -0.544 OA
ENDBRANCH   1   6
TORSDOF 2
ENDMDL
MODEL 5
REMARK VINA RESULT:    -2.564      6.150      6.624
REMARK INTER + INTRA:          -2.788
REMARK INTER:                  -2.788
REMARK INTRA:                   0.000
REMARK UNBOUND:                 0.000
REMARK SMILES [NH3+]CC(=O)[O-]
REMARK SMILES IDX 2 1 1 2 3 6 4 7 5 8
REMARK H PARENT 1 3 1 4 1 5
REMARK Flexibility Score: inf
ROOT
ATOM      1  C   UNL     1      27.469  26.625  22.359  1.00  0.00     0.312 C 
ENDROOT
BRANCH   1   2
ATOM      2  N   UNL     1      27.170  26.817  20.941  1.00  0.00    -0.353 N 
ATOM      3  H   UNL     1      26.156  26.637  20.760  1.00  0.00     0.344 HD
ATOM      4  H   UNL     1      27.738  26.142  20.377  1.00  0.00     0.344 HD
ATOM      5  H   UNL     1      27.415  27.791  20.649  1.00  0.00     0.344 HD
ENDBRANCH   1   2
BRANCH   1   6
ATOM      6  C   UNL     1      26.582  27.485  23.206  1.00  0.00     0.096 C 
ATOM      7  O   UNL     1      27.012  28.572  23.672  1.00  0.00    -0.544 OA
ATOM      8  O   UNL     1      25.265  27.109  23.436  1.00  0.00    -0.544 OA
ENDBRANCH   1   6
TORSDOF 2
ENDMDL
MODEL 6
REMARK VINA RESULT:    -2.551      2.281      2.844
REMARK INTER + INTRA:          -2.775
REMARK INTER:                  -2.775
REMARK INTRA:                   0.000
REMARK UNBOUND:                 0.000
REMARK SMILES [NH3+]CC(=O)[O-]
REMARK SMILES IDX 2 1 1 2 3 6 4 7 5 8
REMARK H PARENT 1 3 1 4 1 5
REMARK Flexibility Score: inf
ROOT
ATOM      1  C   UNL     1      21.598  22.905  22.877  1.00  0.00     0.312 C 
ENDROOT
BRANCH   1   2
ATOM      2  N   UNL     1      22.679  23.840  22.571  1.00  0.00    -0.353 N 
ATOM      3  H   UNL     1      22.485  24.330  21.668  1.00  0.00     0.344 HD
ATOM      4  H   UNL     1      23.576  23.309  22.482  1.00  0.00     0.344 HD
ATOM      5  H   UNL     1      22.776  24.542  23.341  1.00  0.00     0.344 HD
ENDBRANCH   1   2
BRANCH   1   6
ATOM      6  C   UNL     1      21.702  21.681  22.021  1.00  0.00     0.096 C 
ATOM      7  O   UNL     1      22.722  21.490  21.310  1.00  0.00    -0.544 OA
ATOM      8  O   UNL     1      20.693  20.727  22.049  1.00  0.00    -0.544 OA
ENDBRANCH   1   6
TORSDOF 2
ENDMDL
MODEL 7
REMARK VINA RESULT:    -2.428      6.617      7.142
REMARK INTER + INTRA:          -2.641
REMARK INTER:                  -2.641
REMARK INTRA:                   0.000
REMARK UNBOUND:                 0.000
REMARK SMILES [NH3+]CC(=O)[O-]
REMARK SMILES IDX 2 1 1 2 3 6 4 7 5 8
REMARK H PARENT 1 3 1 4 1 5
REMARK Flexibility Score: inf
ROOT
ATOM      1  C   UNL     1      24.551  29.126  24.130  1.00  0.00     0.312 C 
ENDROOT
BRANCH   1   2
ATOM      2  N   UNL     1      24.243  30.133  23.117  1.00  0.00    -0.353 N 
ATOM      3  H   UNL     1      24.271  29.704  22.164  1.00  0.00     0.344 HD
ATOM      4  H   UNL     1      24.956  30.897  23.165  1.00  0.00     0.344 HD
ATOM      5  H   UNL     1      23.296  30.543  23.293  1.00  0.00     0.344 HD
ENDBRANCH   1   2
BRANCH   1   6
ATOM      6  C   UNL     1      25.621  28.198  23.643  1.00  0.00     0.096 C 
ATOM      7  O   UNL     1      26.818  28.583  23.591  1.00  0.00    -0.544 OA
ATOM      8  O   UNL     1      25.301  26.892  23.297  1.00  0.00    -0.544 OA
ENDBRANCH   1   6
TORSDOF 2
ENDMDL
MODEL 8
REMARK VINA RESULT:    -2.323      2.455      2.884
REMARK INTER + INTRA:          -2.527
REMARK INTER:                  -2.527
REMARK INTRA:                   0.000
REMARK UNBOUND:                 0.000
REMARK SMILES [NH3+]CC(=O)[O-]
REMARK SMILES IDX 2 1 1 2 3 6 4 7 5 8
REMARK H PARENT 1 3 1 4 1 5
REMARK Flexibility Score: inf
ROOT
ATOM      1  C   UNL     1      20.926  23.735  23.985  1.00  0.00     0.312 C 
ENDROOT
BRANCH   1   2
ATOM      2  N   UNL     1      21.691  24.593  24.888  1.00  0.00    -0.353 N 
ATOM      3  H   UNL     1      21.926  24.074  25.765  1.00  0.00     0.344 HD
ATOM      4  H   UNL     1      21.114  25.431  25.135  1.00  0.00     0.344 HD
ATOM      5  H   UNL     1      22.570  24.914  24.420  1.00  0.00     0.344 HD
ENDBRANCH   1   2
BRANCH   1   6
ATOM      6  C   UNL     1      21.824  23.112  22.961  1.00  0.00     0.096 C 
ATOM      7  O   UNL     1      22.986  23.562  22.781  1.00  0.00    -0.544 OA
ATOM      8  O   UNL     1      21.395  22.003  22.244  1.00  0.00    -0.544 OA
ENDBRANCH   1   6
TORSDOF 2
ENDMDL
MODEL 9
REMARK VINA RESULT:    -2.306     14.332     14.680
REMARK INTER + INTRA:          -2.508
REMARK INTER:                  -2.508
REMARK INTRA:                   0.000
REMARK UNBOUND:                 0.000
REMARK SMILES [NH3+]CC(=O)[O-]
REMARK SMILES IDX 2 1 1 2 3 6 4 7 5 8
REMARK H PARENT 1 3 1 4 1 5
REMARK Flexibility Score: inf
ROOT
ATOM      1  C   UNL     1      13.836  13.156  14.221  1.00  0.00     0.312 C 
ENDROOT
BRANCH   1   2
ATOM      2  N   UNL     1      13.391  14.546  14.147  1.00  0.00    -0.353 N 
ATOM      3  H   UNL     1      13.730  15.076  14.983  1.00  0.00     0.344 HD
ATOM      4  H   UNL     1      12.345  14.570  14.133  1.00  0.00     0.344 HD
ATOM      5  H   UNL     1      13.752  14.994  13.273  1.00  0.00     0.344 HD
ENDBRANCH   1   2
BRANCH   1   6
ATOM      6  C   UNL     1      15.329  13.084  14.319  1.00  0.00     0.096 C 
ATOM      7  O   UNL     1      15.881  12.876  15.431  1.00  0.00    -0.544 OA
ATOM      8  O   UNL     1      16.106  13.196  13.174  1.00  0.00    -0.544 OA
ENDBRANCH   1   6
TORSDOF 2
ENDMDL
