MODEL 1
REMARK VINA RESULT:    -3.782      0.000      0.000
REMARK INTER + INTRA:          -8.764
REMARK INTER:                  -6.657
REMARK INTRA:                  -2.108
REMARK UNBOUND:                -2.108
REMARK SMILES CCCCCCCCCCCCCCC(=O)[O-]
REMARK SMILES IDX 9 1 10 2 11 3 12 4 13 5 14 6 15 7 16 8 17 9 8 10 7 11 6 12
REMARK SMILES IDX 5 13 4 14 3 15 2 16 1 17
REMARK H PARENT
REMARK Flexibility Score: inf
ROOT
ATOM      1  C   UNL     1     -33.842  25.330  30.412  1.00  0.00     0.000 C 
ENDROOT
BRANCH   1   2
ATOM      2  C   UNL     1     -32.335  25.314  30.715  1.00  0.00     0.000 C 
BRANCH   2   3
ATOM      3  C   UNL     1     -31.541  24.462  29.709  1.00  0.00     0.000 C 
BRANCH   3   4
ATOM      4  C   UNL     1     -32.105  23.040  29.565  1.00  0.00     0.000 C 
BRANCH   4   5
ATOM      5  C   UNL     1     -31.153  22.096  28.808  1.00  0.00     0.006 C 
BRANCH   5   6
ATOM      6  C   UNL     1     -29.963  22.845  28.195  1.00  0.00     0.053 C 
BRANCH   6   7
ATOM      7  C   UNL     1     -29.422  22.135  26.992  1.00  0.00     0.041 C 
ATOM      8  O   UNL     1     -30.081  21.206  26.454  1.00  0.00    -0.550 OA
ATOM      9  O   UNL     1     -28.175  22.478  26.484  1.00  0.00    -0.550 OA
ENDBRANCH   6   7
ENDBRANCH   5   6
ENDBRANCH   4   5
ENDBRANCH   3   4
ENDBRANCH   2   3
ENDBRANCH   1   2
BRANCH   1  10
ATOM     10  C   UNL     1     -34.688  24.804  31.585  1.00  0.00     0.000 C 
BRANCH  10  11
ATOM     11  C   UNL     1     -33.971  24.932  32.939  1.00  0.00    -0.000 C 
BRANCH  11  12
ATOM     12  C   UNL     1     -33.860  23.587  33.678  1.00  0.00    -0.000 C 
BRANCH  12  13
ATOM     13  C   UNL     1     -33.643  22.404  32.721  1.00  0.00    -0.000 C 
BRANCH  13  14
ATOM     14  C   UNL     1     -32.305  21.683  32.959  1.00  0.00    -0.000 C 
BRANCH  14  15
ATOM     15  C   UNL     1     -31.347  22.510  33.843  1.00  0.00    -0.000 C 
BRANCH  15  16
ATOM     16  C   UNL     1     -30.323  23.330  33.039  1.00  0.00    -0.003 C 
ATOM     17  C   UNL     1     -29.438  22.468  32.142  1.00  0.00     0.004 C 
ENDBRANCH  15  16
ENDBRANCH  14  15
ENDBRANCH  13  14
ENDBRANCH  12  13
ENDBRANCH  11  12
ENDBRANCH  10  11
ENDBRANCH   1  10
TORSDOF 13
ENDMDL
MODEL 2
REMARK VINA RESULT:    -3.724      3.355      6.255
REMARK INTER + INTRA:          -8.661
REMARK INTER:                  -7.643
REMARK INTRA:                  -1.018
REMARK UNBOUND:                -2.108
REMARK SMILES CCCCCCCCCCCCCCC(=O)[O-]
REMARK SMILES IDX 9 1 10 2 11 3 12 4 13 5 14 6 15 7 16 8 17 9 8 10 7 11 6 12
REMARK SMILES IDX 5 13 4 14 3 15 2 16 1 17
REMARK H PARENT
REMARK Flexibility Score: inf
ROOT
ATOM      1  C   UNL     1     -28.706  21.526  25.751  1.00  0.00     0.000 C 
ENDROOT
BRANCH   1   2
ATOM      2  C   UNL     1     -29.359  21.666  24.366  1.00  0.00     0.000 C 
BRANCH   2   3
ATOM      3  C   UNL     1     -30.282  20.482  24.027  1.00  0.00     0.000 C 
BRANCH   3   4
ATOM      4  C   UNL     1     -30.773  19.739  25.280  1.00  0.00     0.000 C 
BRANCH   4   5
ATOM      5  C   UNL     1     -32.305  19.771  25.427  1.00  0.00     0.006 C 
BRANCH   5   6
ATOM      6  C   UNL     1     -33.011  19.018  24.293  1.00  0.00     0.053 C 
BRANCH   6   7
ATOM      7  C   UNL     1     -33.547  17.697  24.755  1.00  0.00     0.041 C 
ATOM      8  O   UNL     1     -34.234  16.984  23.978  1.00  0.00    -0.550 OA
ATOM      9  O   UNL     1     -33.314  17.270  26.056  1.00  0.00    -0.550 OA
ENDBRANCH   6   7
ENDBRANCH   5   6
ENDBRANCH   4   5
ENDBRANCH   3   4
ENDBRANCH   2   3
ENDBRANCH   1   2
BRANCH   1  10
ATOM     10  C   UNL     1     -28.956  22.749  26.651  1.00  0.00     0.000 C 
BRANCH  10  11
ATOM     11  C   UNL     1     -29.402  22.359  28.070  1.00  0.00    -0.000 C 
BRANCH  11  12
ATOM     12  C   UNL     1     -30.899  22.010  28.143  1.00  0.00    -0.000 C 
BRANCH  12  13
ATOM     13  C   UNL     1     -31.616  22.721  29.301  1.00  0.00    -0.000 C 
BRANCH  13  14
ATOM     14  C   UNL     1     -31.194  24.193  29.450  1.00  0.00    -0.000 C 
BRANCH  14  15
ATOM     15  C   UNL     1     -31.994  24.919  30.553  1.00  0.00    -0.000 C 
BRANCH  15  16
ATOM     16  C   UNL     1     -33.518  24.857  30.348  1.00  0.00    -0.003 C 
ATOM     17  C   UNL     1     -34.233  26.133  30.788  1.00  0.00     0.004 C 
ENDBRANCH  15  16
ENDBRANCH  14  15
ENDBRANCH  13  14
ENDBRANCH  12  13
ENDBRANCH  11  12
ENDBRANCH  10  11
ENDBRANCH   1  10
TORSDOF 13
ENDMDL
MODEL 3
REMARK VINA RESULT:    -3.693      3.442      7.514
REMARK INTER + INTRA:          -8.607
REMARK INTER:                  -7.662
REMARK INTRA:                  -0.945
REMARK UNBOUND:                -2.108
REMARK SMILES CCCCCCCCCCCCCCC(=O)[O-]
REMARK SMILES IDX 9 1 10 2 11 3 12 4 13 5 14 6 15 7 16 8 17 9 8 10 7 11 6 12
REMARK SMILES IDX 5 13 4 14 3 15 2 16 1 17
REMARK H PARENT
REMARK Flexibility Score: inf
ROOT
ATOM      1  C   UNL     1     -31.076  22.089  28.567  1.00  0.00     0.000 C 
ENDROOT
BRANCH   1   2
ATOM      2  C   UNL     1     -31.965  22.920  29.505  1.00  0.00     0.000 C 
BRANCH   2   3
ATOM      3  C   UNL     1     -31.153  23.882  30.389  1.00  0.00     0.000 C 
BRANCH   3   4
ATOM      4  C   UNL     1     -31.872  25.221  30.619  1.00  0.00     0.000 C 
BRANCH   4   5
ATOM      5  C   UNL     1     -33.398  25.115  30.442  1.00  0.00     0.006 C 
BRANCH   5   6
ATOM      6  C   UNL     1     -34.146  25.261  31.773  1.00  0.00     0.053 C 
BRANCH   6   7
ATOM      7  C   UNL     1     -34.582  23.932  32.311  1.00  0.00     0.041 C 
ATOM      8  O   UNL     1     -33.727  23.086  32.684  1.00  0.00    -0.550 OA
ATOM      9  O   UNL     1     -35.934  23.616  32.371  1.00  0.00    -0.550 OA
ENDBRANCH   6   7
ENDBRANCH   5   6
ENDBRANCH   4   5
ENDBRANCH   3   4
ENDBRANCH   2   3
ENDBRANCH   1   2
BRANCH   1  10
ATOM     10  C   UNL     1     -29.575  22.338  28.797  1.00  0.00     0.000 C 
BRANCH  10  11
ATOM     11  C   UNL     1     -28.710  21.892  27.607  1.00  0.00    -0.000 C 
BRANCH  11  12
ATOM     12  C   UNL     1     -28.985  22.717  26.337  1.00  0.00    -0.000 C 
BRANCH  12  13
ATOM     13  C   UNL     1     -28.009  22.389  25.197  1.00  0.00    -0.000 C 
BRANCH  13  14
ATOM     14  C   UNL     1     -28.416  21.134  24.405  1.00  0.00    -0.000 C 
BRANCH  14  15
ATOM     15  C   UNL     1     -29.361  21.468  23.230  1.00  0.00    -0.000 C 
BRANCH  15  16
ATOM     16  C   UNL     1     -30.406  20.374  22.953  1.00  0.00    -0.003 C 
ATOM     17  C   UNL     1     -31.054  19.829  24.224  1.00  0.00     0.004 C 
ENDBRANCH  15  16
ENDBRANCH  14  15
ENDBRANCH  13  14
ENDBRANCH  12  13
ENDBRANCH  11  12
ENDBRANCH  10  11
ENDBRANCH   1  10
TORSDOF 13
ENDMDL
MODEL 4
REMARK VINA RESULT:    -3.660      3.681      7.721
REMARK INTER + INTRA:          -8.549
REMARK INTER:                  -7.152
REMARK INTRA:                  -1.397
REMARK UNBOUND:                -2.108
REMARK SMILES CCCCCCCCCCCCCCC(=O)[O-]
REMARK SMILES IDX 9 1 10 2 11 3 12 4 13 5 14 6 15 7 16 8 17 9 8 10 7 11 6 12
REMARK SMILES IDX 5 13 4 14 3 15 2 16 1 17
REMARK H PARENT
REMARK Flexibility Score: inf
ROOT
ATOM      1  C   UNL     1     -29.236  21.856  26.606  1.00  0.00     0.000 C 
ENDROOT
BRANCH   1   2
ATOM      2  C   UNL     1     -29.762  22.764  27.728  1.00  0.00     0.000 C 
BRANCH   2   3
ATOM      3  C   UNL     1     -29.707  22.088  29.109  1.00  0.00     0.000 C 
BRANCH   3   4
ATOM      4  C   UNL     1     -30.743  22.663  30.089  1.00  0.00     0.000 C 
BRANCH   4   5
ATOM      5  C   UNL     1     -31.516  23.858  29.503  1.00  0.00     0.006 C 
BRANCH   5   6
ATOM      6  C   UNL     1     -31.683  24.994  30.520  1.00  0.00     0.053 C 
BRANCH   6   7
ATOM      7  C   UNL     1     -33.115  25.168  30.925  1.00  0.00     0.041 C 
ATOM      8  O   UNL     1     -34.005  25.344  30.052  1.00  0.00    -0.550 OA
ATOM      9  O   UNL     1     -33.462  25.168  32.271  1.00  0.00    -0.550 OA
ENDBRANCH   6   7
ENDBRANCH   5   6
ENDBRANCH   4   5
ENDBRANCH   3   4
ENDBRANCH   2   3
ENDBRANCH   1   2
BRANCH   1  10
ATOM     10  C   UNL     1     -29.475  20.362  26.890  1.00  0.00     0.000 C 
BRANCH  10  11
ATOM     11  C   UNL     1     -30.830  19.867  26.359  1.00  0.00    -0.000 C 
BRANCH  11  12
ATOM     12  C   UNL     1     -31.183  20.471  24.989  1.00  0.00    -0.000 C 
BRANCH  12  13
ATOM     13  C   UNL     1     -31.000  19.470  23.837  1.00  0.00    -0.000 C 
BRANCH  13  14
ATOM     14  C   UNL     1     -29.843  19.848  22.896  1.00  0.00    -0.000 C 
BRANCH  14  15
ATOM     15  C   UNL     1     -29.547  21.363  22.919  1.00  0.00    -0.000 C 
BRANCH  15  16
ATOM     16  C   UNL     1     -28.066  21.695  23.169  1.00  0.00    -0.003 C 
ATOM     17  C   UNL     1     -27.178  20.455  23.241  1.00  0.00     0.004 C 
ENDBRANCH  15  16
ENDBRANCH  14  15
ENDBRANCH  13  14
ENDBRANCH  12  13
ENDBRANCH  11  12
ENDBRANCH  10  11
ENDBRANCH   1  10
TORSDOF 13
ENDMDL
MODEL 5
REMARK VINA RESULT:    -3.658      3.986      7.658
REMARK INTER + INTRA:          -8.545
REMARK INTER:                  -7.410
REMARK INTRA:                  -1.135
REMARK UNBOUND:                -2.108
REMARK SMILES CCCCCCCCCCCCCCC(=O)[O-]
REMARK SMILES IDX 9 1 10 2 11 3 12 4 13 5 14 6 15 7 16 8 17 9 8 10 7 11 6 12
REMARK SMILES IDX 5 13 4 14 3 15 2 16 1 17
REMARK H PARENT
REMARK Flexibility Score: inf
ROOT
ATOM      1  C   UNL     1     -28.349  22.212  27.103  1.00  0.00     0.000 C 
ENDROOT
BRANCH   1   2
ATOM      2  C   UNL     1     -29.740  22.742  27.487  1.00  0.00     0.000 C 
BRANCH   2   3
ATOM      3  C   UNL     1     -30.545  21.734  28.325  1.00  0.00     0.000 C 
BRANCH   3   4
ATOM      4  C   UNL     1     -31.616  22.413  29.194  1.00  0.00     0.000 C 
BRANCH   4   5
ATOM      5  C   UNL     1     -31.022  23.433  30.182  1.00  0.00     0.006 C 
BRANCH   5   6
ATOM      6  C   UNL     1     -31.629  24.830  30.007  1.00  0.00     0.053 C 
BRANCH   6   7
ATOM      7  C   UNL     1     -32.900  24.983  30.785  1.00  0.00     0.041 C 
ATOM      8  O   UNL     1     -33.939  25.421  30.225  1.00  0.00    -0.550 OA
ATOM      9  O   UNL     1     -32.928  24.670  32.139  1.00  0.00    -0.550 OA
ENDBRANCH   6   7
ENDBRANCH   5   6
ENDBRANCH   4   5
ENDBRANCH   3   4
ENDBRANCH   2   3
ENDBRANCH   1   2
BRANCH   1  10
ATOM     10  C   UNL     1     -28.409  21.112  26.028  1.00  0.00     0.000 C 
BRANCH  10  11
ATOM     11  C   UNL     1     -28.924  21.633  24.675  1.00  0.00    -0.000 C 
BRANCH  11  12
ATOM     12  C   UNL     1     -30.086  20.790  24.122  1.00  0.00    -0.000 C 
BRANCH  12  13
ATOM     13  C   UNL     1     -30.645  19.803  25.159  1.00  0.00    -0.000 C 
BRANCH  13  14
ATOM     14  C   UNL     1     -32.141  20.022  25.444  1.00  0.00    -0.000 C 
BRANCH  14  15
ATOM     15  C   UNL     1     -33.041  19.256  24.450  1.00  0.00    -0.000 C 
BRANCH  15  16
ATOM     16  C   UNL     1     -33.674  17.987  25.046  1.00  0.00    -0.003 C 
ATOM     17  C   UNL     1     -33.899  16.886  24.012  1.00  0.00     0.004 C 
ENDBRANCH  15  16
ENDBRANCH  14  15
ENDBRANCH  13  14
ENDBRANCH  12  13
ENDBRANCH  11  12
ENDBRANCH  10  11
ENDBRANCH   1  10
TORSDOF 13
ENDMDL
MODEL 6
REMARK VINA RESULT:    -3.627      4.115      7.257
REMARK INTER + INTRA:          -8.491
REMARK INTER:                  -7.474
REMARK INTRA:                  -1.017
REMARK UNBOUND:                -2.108
REMARK SMILES CCCCCCCCCCCCCCC(=O)[O-]
REMARK SMILES IDX 9 1 10 2 11 3 12 4 13 5 14 6 15 7 16 8 17 9 8 10 7 11 6 12
REMARK SMILES IDX 5 13 4 14 3 15 2 16 1 17
REMARK H PARENT
REMARK Flexibility Score: inf
ROOT
ATOM      1  C   UNL     1     -29.702  21.335  23.772  1.00  0.00     0.000 C 
ENDROOT
BRANCH   1   2
ATOM      2  C   UNL     1     -30.508  20.030  23.670  1.00  0.00     0.000 C 
BRANCH   2   3
ATOM      3  C   UNL     1     -31.466  19.834  24.858  1.00  0.00     0.000 C 
BRANCH   3   4
ATOM      4  C   UNL     1     -32.944  19.902  24.441  1.00  0.00     0.000 C 
BRANCH   4   5
ATOM      5  C   UNL     1     -33.823  18.893  25.202  1.00  0.00     0.006 C 
BRANCH   5   6
ATOM      6  C   UNL     1     -33.625  17.458  24.699  1.00  0.00     0.053 C 
BRANCH   6   7
ATOM      7  C   UNL     1     -33.715  16.463  25.815  1.00  0.00     0.041 C 
ATOM      8  O   UNL     1     -32.701  15.798  26.156  1.00  0.00    -0.550 OA
ATOM      9  O   UNL     1     -34.927  16.246  26.458  1.00  0.00    -0.550 OA
ENDBRANCH   6   7
ENDBRANCH   5   6
ENDBRANCH   4   5
ENDBRANCH   3   4
ENDBRANCH   2   3
ENDBRANCH   1   2
BRANCH   1  10
ATOM     10  C   UNL     1     -28.304  21.123  24.379  1.00  0.00     0.000 C 
BRANCH  10  11
ATOM     11  C   UNL     1     -28.287  21.308  25.906  1.00  0.00    -0.000 C 
BRANCH  11  12
ATOM     12  C   UNL     1     -29.082  22.544  26.359  1.00  0.00    -0.000 C 
BRANCH  12  13
ATOM     13  C   UNL     1     -29.483  22.478  27.841  1.00  0.00    -0.000 C 
BRANCH  13  14
ATOM     14  C   UNL     1     -30.864  21.835  28.057  1.00  0.00    -0.000 C 
BRANCH  14  15
ATOM     15  C   UNL     1     -31.724  22.628  29.065  1.00  0.00    -0.000 C 
BRANCH  15  16
ATOM     16  C   UNL     1     -31.236  24.070  29.288  1.00  0.00    -0.003 C 
ATOM     17  C   UNL     1     -31.844  24.724  30.527  1.00  0.00     0.004 C 
ENDBRANCH  15  16
ENDBRANCH  14  15
ENDBRANCH  13  14
ENDBRANCH  12  13
ENDBRANCH  11  12
ENDBRANCH  10  11
ENDBRANCH   1  10
TORSDOF 13
ENDMDL
MODEL 7
REMARK VINA RESULT:    -3.597      3.843      7.923
REMARK INTER + INTRA:          -8.439
REMARK INTER:                  -7.560
REMARK INTRA:                  -0.879
REMARK UNBOUND:                -2.108
REMARK SMILES CCCCCCCCCCCCCCC(=O)[O-]
REMARK SMILES IDX 9 1 10 2 11 3 12 4 13 5 14 6 15 7 16 8 17 9 8 10 7 11 6 12
REMARK SMILES IDX 5 13 4 14 3 15 2 16 1 17
REMARK H PARENT
REMARK Flexibility Score: inf
ROOT
ATOM      1  C   UNL     1     -29.737  21.680  26.899  1.00  0.00     0.000 C 
ENDROOT
BRANCH   1   2
ATOM      2  C   UNL     1     -29.904  22.661  28.070  1.00  0.00     0.000 C 
BRANCH   2   3
ATOM      3  C   UNL     1     -30.648  22.035  29.263  1.00  0.00     0.000 C 
BRANCH   3   4
ATOM      4  C   UNL     1     -31.894  22.839  29.668  1.00  0.00     0.000 C 
BRANCH   4   5
ATOM      5  C   UNL     1     -31.669  24.360  29.600  1.00  0.00     0.006 C 
BRANCH   5   6
ATOM      6  C   UNL     1     -32.017  25.056  30.922  1.00  0.00     0.053 C 
BRANCH   6   7
ATOM      7  C   UNL     1     -33.498  25.131  31.135  1.00  0.00     0.041 C 
ATOM      8  O   UNL     1     -34.059  24.369  31.965  1.00  0.00    -0.550 OA
ATOM      9  O   UNL     1     -34.263  26.021  30.392  1.00  0.00    -0.550 OA
ENDBRANCH   6   7
ENDBRANCH   5   6
ENDBRANCH   4   5
ENDBRANCH   3   4
ENDBRANCH   2   3
ENDBRANCH   1   2
BRANCH   1  10
ATOM     10  C   UNL     1     -28.882  22.259  25.758  1.00  0.00     0.000 C 
BRANCH  10  11
ATOM     11  C   UNL     1     -28.264  21.168  24.867  1.00  0.00    -0.000 C 
BRANCH  11  12
ATOM     12  C   UNL     1     -28.704  21.286  23.398  1.00  0.00    -0.000 C 
BRANCH  12  13
ATOM     13  C   UNL     1     -30.160  20.844  23.180  1.00  0.00    -0.000 C 
BRANCH  13  14
ATOM     14  C   UNL     1     -30.363  19.334  23.395  1.00  0.00    -0.000 C 
BRANCH  14  15
ATOM     15  C   UNL     1     -31.253  19.036  24.621  1.00  0.00    -0.000 C 
BRANCH  15  16
ATOM     16  C   UNL     1     -32.736  18.834  24.268  1.00  0.00    -0.003 C 
ATOM     17  C   UNL     1     -33.582  20.085  24.495  1.00  0.00     0.004 C 
ENDBRANCH  15  16
ENDBRANCH  14  15
ENDBRANCH  13  14
ENDBRANCH  12  13
ENDBRANCH  11  12
ENDBRANCH  10  11
ENDBRANCH   1  10
TORSDOF 13
ENDMDL
MODEL 8
REMARK VINA RESULT:    -3.568      1.268      2.509
REMARK INTER + INTRA:          -8.387
REMARK INTER:                  -6.803
REMARK INTRA:                  -1.584
REMARK UNBOUND:                -2.108
REMARK SMILES CCCCCCCCCCCCCCC(=O)[O-]
REMARK SMILES IDX 9 1 10 2 11 3 12 4 13 5 14 6 15 7 16 8 17 9 8 10 7 11 6 12
REMARK SMILES IDX 5 13 4 14 3 15 2 16 1 17
REMARK H PARENT
REMARK Flexibility Score: inf
ROOT
ATOM      1  C   UNL     1     -31.293  24.386  29.758  1.00  0.00     0.000 C 
ENDROOT
BRANCH   1   2
ATOM      2  C   UNL     1     -32.028  23.059  29.511  1.00  0.00     0.000 C 
BRANCH   2   3
ATOM      3  C   UNL     1     -31.220  22.093  28.627  1.00  0.00     0.000 C 
BRANCH   3   4
ATOM      4  C   UNL     1     -29.797  22.602  28.345  1.00  0.00     0.000 C 
BRANCH   4   5
ATOM      5  C   UNL     1     -29.355  22.357  26.890  1.00  0.00     0.006 C 
BRANCH   5   6
ATOM      6  C   UNL     1     -29.955  21.070  26.312  1.00  0.00     0.053 C 
BRANCH   6   7
ATOM      7  C   UNL     1     -29.349  20.723  24.987  1.00  0.00     0.041 C 
ATOM      8  O   UNL     1     -28.179  20.263  24.924  1.00  0.00    -0.550 OA
ATOM      9  O   UNL     1     -30.066  20.940  23.817  1.00  0.00    -0.550 OA
ENDBRANCH   6   7
ENDBRANCH   5   6
ENDBRANCH   4   5
ENDBRANCH   3   4
ENDBRANCH   2   3
ENDBRANCH   1   2
BRANCH   1  10
ATOM     10  C   UNL     1     -32.064  25.324  30.704  1.00  0.00     0.000 C 
BRANCH  10  11
ATOM     11  C   UNL     1     -33.576  25.044  30.715  1.00  0.00    -0.000 C 
BRANCH  11  12
ATOM     12  C   UNL     1     -34.220  25.335  32.081  1.00  0.00    -0.000 C 
BRANCH  12  13
ATOM     13  C   UNL     1     -34.958  24.116  32.658  1.00  0.00    -0.000 C 
BRANCH  13  14
ATOM     14  C   UNL     1     -34.169  22.806  32.487  1.00  0.00    -0.000 C 
BRANCH  14  15
ATOM     15  C   UNL     1     -33.171  22.573  33.642  1.00  0.00    -0.000 C 
BRANCH  15  16
ATOM     16  C   UNL     1     -31.752  22.219  33.165  1.00  0.00    -0.003 C 
ATOM     17  C   UNL     1     -30.746  23.346  33.389  1.00  0.00     0.004 C 
ENDBRANCH  15  16
ENDBRANCH  14  15
ENDBRANCH  13  14
ENDBRANCH  12  13
ENDBRANCH  11  12
ENDBRANCH  10  11
ENDBRANCH   1  10
TORSDOF 13
ENDMDL
MODEL 9
REMARK VINA RESULT:    -3.461      4.474      7.949
REMARK INTER + INTRA:          -8.199
REMARK INTER:                  -6.675
REMARK INTRA:                  -1.524
REMARK UNBOUND:                -2.108
REMARK SMILES CCCCCCCCCCCCCCC(=O)[O-]
REMARK SMILES IDX 9 1 10 2 11 3 12 4 13 5 14 6 15 7 16 8 17 9 8 10 7 11 6 12
REMARK SMILES IDX 5 13 4 14 3 15 2 16 1 17
REMARK H PARENT
REMARK Flexibility Score: inf
ROOT
ATOM      1  C   UNL     1     -30.158  20.559  23.076  1.00  0.00     0.000 C 
ENDROOT
BRANCH   1   2
ATOM      2  C   UNL     1     -28.917  21.456  23.211  1.00  0.00     0.000 C 
BRANCH   2   3
ATOM      3  C   UNL     1     -28.299  21.400  24.619  1.00  0.00     0.000 C 
BRANCH   3   4
ATOM      4  C   UNL     1     -29.128  22.173  25.658  1.00  0.00     0.000 C 
BRANCH   4   5
ATOM      5  C   UNL     1     -29.177  21.465  27.024  1.00  0.00     0.006 C 
BRANCH   5   6
ATOM      6  C   UNL     1     -30.526  21.658  27.728  1.00  0.00     0.053 C 
BRANCH   6   7
ATOM      7  C   UNL     1     -30.386  22.469  28.980  1.00  0.00     0.041 C 
ATOM      8  O   UNL     1     -29.798  21.989  29.985  1.00  0.00    -0.550 OA
ATOM      9  O   UNL     1     -30.936  23.743  29.047  1.00  0.00    -0.550 OA
ENDBRANCH   6   7
ENDBRANCH   5   6
ENDBRANCH   4   5
ENDBRANCH   3   4
ENDBRANCH   2   3
ENDBRANCH   1   2
BRANCH   1  10
ATOM     10  C   UNL     1     -29.916  19.130  23.594  1.00  0.00     0.000 C 
BRANCH  10  11
ATOM     11  C   UNL     1     -30.981  18.678  24.607  1.00  0.00    -0.000 C 
BRANCH  11  12
ATOM     12  C   UNL     1     -32.009  19.781  24.914  1.00  0.00    -0.000 C 
BRANCH  12  13
ATOM     13  C   UNL     1     -33.458  19.314  24.704  1.00  0.00    -0.000 C 
BRANCH  13  14
ATOM     14  C   UNL     1     -33.566  17.800  24.453  1.00  0.00    -0.000 C 
BRANCH  14  15
ATOM     15  C   UNL     1     -34.284  17.068  25.608  1.00  0.00    -0.000 C 
BRANCH  15  16
ATOM     16  C   UNL     1     -33.443  15.947  26.242  1.00  0.00    -0.003 C 
ATOM     17  C   UNL     1     -33.416  16.008  27.768  1.00  0.00     0.004 C 
ENDBRANCH  15  16
ENDBRANCH  14  15
ENDBRANCH  13  14
ENDBRANCH  12  13
ENDBRANCH  11  12
ENDBRANCH  10  11
ENDBRANCH   1  10
TORSDOF 13
ENDMDL
