MODEL 1
REMARK VINA RESULT:    -5.653      0.000      0.000
REMARK INTER + INTRA:          -8.038
REMARK INTER:                  -7.635
REMARK INTRA:                  -0.402
REMARK UNBOUND:                -0.402
REMARK SMILES CC(=O)CCC=C(C)CCC=C(C)C
REMARK SMILES IDX 7 1 6 2 8 3 9 4 10 5 11 6 13 7 12 8 14 9 5 10 4 11 2 12 3 13
REMARK SMILES IDX 1 14
REMARK H PARENT
REMARK Flexibility Score: inf
ROOT
ATOM      1  C   UNL     1     -13.847 -15.410  31.428  1.00  0.00    -0.077 C 
ATOM      2  C   UNL     1     -12.971 -16.082  30.650  1.00  0.00    -0.028 C 
ATOM      3  C   UNL     1     -14.673 -14.271  30.880  1.00  0.00     0.039 C 
ENDROOT
BRANCH   1   4
ATOM      4  C   UNL     1     -14.001 -15.805  32.882  1.00  0.00     0.034 C 
BRANCH   4   5
ATOM      5  C   UNL     1     -13.643 -14.652  33.831  1.00  0.00     0.032 C 
BRANCH   5   6
ATOM      6  C   UNL     1     -12.465 -14.993  34.713  1.00  0.00    -0.028 C 
ATOM      7  C   UNL     1     -12.904 -13.120  36.316  1.00  0.00     0.039 C 
ATOM      8  C   UNL     1     -12.098 -14.289  35.808  1.00  0.00    -0.080 C 
ATOM      9  C   UNL     1     -10.883 -14.708  36.594  1.00  0.00     0.039 C 
ENDBRANCH   5   6
ENDBRANCH   4   5
ENDBRANCH   1   4
BRANCH   2  10
ATOM     10  C   UNL     1     -12.738 -15.752  29.193  1.00  0.00     0.035 C 
BRANCH  10  11
ATOM     11  C   UNL     1     -11.337 -16.166  28.727  1.00  0.00     0.079 C 
BRANCH  11  12
ATOM     12  C   UNL     1     -11.386 -17.371  27.821  1.00  0.00     0.130 C 
ATOM     13  O   UNL     1     -11.744 -18.449  28.271  1.00  0.00    -0.300 OA
ATOM     14  C   UNL     1     -10.994 -17.278  26.376  1.00  0.00     0.087 C 
ENDBRANCH  11  12
ENDBRANCH  10  11
ENDBRANCH   2  10
TORSDOF 6
ENDMDL
MODEL 2
REMARK VINA RESULT:    -5.569      3.629      5.602
REMARK INTER + INTRA:          -7.925
REMARK INTER:                  -7.261
REMARK INTRA:                  -0.663
REMARK UNBOUND:                -0.402
REMARK SMILES CC(=O)CCC=C(C)CCC=C(C)C
REMARK SMILES IDX 7 1 6 2 8 3 9 4 10 5 11 6 13 7 12 8 14 9 5 10 4 11 2 12 3 13
REMARK SMILES IDX 1 14
REMARK H PARENT
REMARK Flexibility Score: inf
ROOT
ATOM      1  C   UNL     1     -12.446 -17.403  27.602  1.00  0.00    -0.077 C 
ATOM      2  C   UNL     1     -13.212 -18.331  28.214  1.00  0.00    -0.028 C 
ATOM      3  C   UNL     1     -10.984 -17.651  27.318  1.00  0.00     0.039 C 
ENDROOT
BRANCH   1   4
ATOM      4  C   UNL     1     -13.066 -16.081  27.195  1.00  0.00     0.034 C 
BRANCH   4   5
ATOM      5  C   UNL     1     -12.938 -15.022  28.300  1.00  0.00     0.032 C 
BRANCH   5   6
ATOM      6  C   UNL     1     -14.128 -14.092  28.326  1.00  0.00    -0.028 C 
ATOM      7  C   UNL     1     -14.551 -14.427  30.772  1.00  0.00     0.039 C 
ATOM      8  C   UNL     1     -14.885 -13.847  29.420  1.00  0.00    -0.080 C 
ATOM      9  C   UNL     1     -16.069 -12.921  29.319  1.00  0.00     0.039 C 
ENDBRANCH   5   6
ENDBRANCH   4   5
ENDBRANCH   1   4
BRANCH   2  10
ATOM     10  C   UNL     1     -12.681 -19.671  28.670  1.00  0.00     0.035 C 
BRANCH  10  11
ATOM     11  C   UNL     1     -13.054 -19.972  30.127  1.00  0.00     0.079 C 
BRANCH  11  12
ATOM     12  C   UNL     1     -11.835 -20.012  31.016  1.00  0.00     0.130 C 
ATOM     13  O   UNL     1     -11.841 -20.719  32.012  1.00  0.00    -0.300 OA
ATOM     14  C   UNL     1     -10.617 -19.194  30.708  1.00  0.00     0.087 C 
ENDBRANCH  11  12
ENDBRANCH  10  11
ENDBRANCH   2  10
TORSDOF 6
ENDMDL
MODEL 3
REMARK VINA RESULT:    -5.437      2.882      4.893
REMARK INTER + INTRA:          -7.746
REMARK INTER:                  -7.208
REMARK INTRA:                  -0.538
REMARK UNBOUND:                -0.402
REMARK SMILES CC(=O)CCC=C(C)CCC=C(C)C
REMARK SMILES IDX 7 1 6 2 8 3 9 4 10 5 11 6 13 7 12 8 14 9 5 10 4 11 2 12 3 13
REMARK SMILES IDX 1 14
REMARK H PARENT
REMARK Flexibility Score: inf
ROOT
ATOM      1  C   UNL     1     -12.376 -17.342  27.678  1.00  0.00    -0.077 C 
ATOM      2  C   UNL     1     -13.157 -18.276  28.264  1.00  0.00    -0.028 C 
ATOM      3  C   UNL     1     -10.937 -17.628  27.326  1.00  0.00     0.039 C 
ENDROOT
BRANCH   1   4
ATOM      4  C   UNL     1     -12.958 -15.977  27.371  1.00  0.00     0.034 C 
BRANCH   4   5
ATOM      5  C   UNL     1     -12.913 -15.046  28.591  1.00  0.00     0.032 C 
BRANCH   5   6
ATOM      6  C   UNL     1     -12.913 -15.819  29.889  1.00  0.00    -0.028 C 
ATOM      7  C   UNL     1     -14.646 -14.360  30.956  1.00  0.00     0.039 C 
ATOM      8  C   UNL     1     -13.656 -15.498  30.972  1.00  0.00    -0.080 C 
ATOM      9  C   UNL     1     -13.550 -16.327  32.225  1.00  0.00     0.039 C 
ENDBRANCH   5   6
ENDBRANCH   4   5
ENDBRANCH   1   4
BRANCH   2  10
ATOM     10  C   UNL     1     -12.664 -19.659  28.622  1.00  0.00     0.035 C 
BRANCH  10  11
ATOM     11  C   UNL     1     -13.028 -20.045  30.060  1.00  0.00     0.079 C 
BRANCH  11  12
ATOM     12  C   UNL     1     -11.816 -20.052  30.959  1.00  0.00     0.130 C 
ATOM     13  O   UNL     1     -11.818 -20.745  31.965  1.00  0.00    -0.300 OA
ATOM     14  C   UNL     1     -10.609 -19.218  30.648  1.00  0.00     0.087 C 
ENDBRANCH  11  12
ENDBRANCH  10  11
ENDBRANCH   2  10
TORSDOF 6
ENDMDL
MODEL 4
REMARK VINA RESULT:    -5.333      3.898      6.076
REMARK INTER + INTRA:          -7.606
REMARK INTER:                  -7.039
REMARK INTRA:                  -0.566
REMARK UNBOUND:                -0.402
REMARK SMILES CC(=O)CCC=C(C)CCC=C(C)C
REMARK SMILES IDX 7 1 6 2 8 3 9 4 10 5 11 6 13 7 12 8 14 9 5 10 4 11 2 12 3 13
REMARK SMILES IDX 1 14
REMARK H PARENT
REMARK Flexibility Score: inf
ROOT
ATOM      1  C   UNL     1     -11.618 -16.191  28.326  1.00  0.00    -0.077 C 
ATOM      2  C   UNL     1     -12.566 -15.327  28.745  1.00  0.00    -0.028 C 
ATOM      3  C   UNL     1     -11.680 -16.825  26.957  1.00  0.00     0.039 C 
ENDROOT
BRANCH   1   4
ATOM      4  C   UNL     1     -10.467 -16.534  29.250  1.00  0.00     0.034 C 
BRANCH   4   5
ATOM      5  C   UNL     1     -10.080 -18.017  29.159  1.00  0.00     0.032 C 
BRANCH   5   6
ATOM      6  C   UNL     1     -10.626 -18.813  30.321  1.00  0.00    -0.028 C 
ATOM      7  C   UNL     1     -12.551 -19.732  29.007  1.00  0.00     0.039 C 
ATOM      8  C   UNL     1     -11.757 -19.554  30.278  1.00  0.00    -0.080 C 
ATOM      9  C   UNL     1     -12.222 -20.282  31.512  1.00  0.00     0.039 C 
ENDBRANCH   5   6
ENDBRANCH   4   5
ENDBRANCH   1   4
BRANCH   2  10
ATOM     10  C   UNL     1     -13.758 -14.934  27.902  1.00  0.00     0.035 C 
BRANCH  10  11
ATOM     11  C   UNL     1     -14.340 -13.580  28.324  1.00  0.00     0.079 C 
BRANCH  11  12
ATOM     12  C   UNL     1     -15.269 -13.717  29.505  1.00  0.00     0.130 C 
ATOM     13  O   UNL     1     -16.445 -13.408  29.384  1.00  0.00    -0.300 OA
ATOM     14  C   UNL     1     -14.778 -14.216  30.831  1.00  0.00     0.087 C 
ENDBRANCH  11  12
ENDBRANCH  10  11
ENDBRANCH   2  10
TORSDOF 6
ENDMDL
MODEL 5
REMARK VINA RESULT:    -5.323      1.629      2.151
REMARK INTER + INTRA:          -7.592
REMARK INTER:                  -7.035
REMARK INTRA:                  -0.557
REMARK UNBOUND:                -0.402
REMARK SMILES CC(=O)CCC=C(C)CCC=C(C)C
REMARK SMILES IDX 7 1 6 2 8 3 9 4 10 5 11 6 13 7 12 8 14 9 5 10 4 11 2 12 3 13
REMARK SMILES IDX 1 14
REMARK H PARENT
REMARK Flexibility Score: inf
ROOT
ATOM      1  C   UNL     1     -13.968 -15.175  31.347  1.00  0.00    -0.077 C 
ATOM      2  C   UNL     1     -13.075 -16.146  31.059  1.00  0.00    -0.028 C 
ATOM      3  C   UNL     1     -14.524 -14.273  30.271  1.00  0.00     0.039 C 
ENDROOT
BRANCH   1   4
ATOM      4  C   UNL     1     -14.421 -14.986  32.780  1.00  0.00     0.034 C 
BRANCH   4   5
ATOM      5  C   UNL     1     -13.292 -15.271  33.781  1.00  0.00     0.032 C 
BRANCH   5   6
ATOM      6  C   UNL     1     -13.244 -14.239  34.883  1.00  0.00    -0.028 C 
ATOM      7  C   UNL     1     -10.839 -14.682  35.426  1.00  0.00     0.039 C 
ATOM      8  C   UNL     1     -12.162 -13.994  35.656  1.00  0.00    -0.080 C 
ATOM      9  C   UNL     1     -12.241 -12.960  36.749  1.00  0.00     0.039 C 
ENDBRANCH   5   6
ENDBRANCH   4   5
ENDBRANCH   1   4
BRANCH   2  10
ATOM     10  C   UNL     1     -12.554 -16.403  29.664  1.00  0.00     0.035 C 
BRANCH  10  11
ATOM     11  C   UNL     1     -12.724 -17.868  29.247  1.00  0.00     0.079 C 
BRANCH  11  12
ATOM     12  C   UNL     1     -11.961 -18.798  30.158  1.00  0.00     0.130 C 
ATOM     13  O   UNL     1     -10.745 -18.707  30.228  1.00  0.00    -0.300 OA
ATOM     14  C   UNL     1     -12.663 -19.842  30.973  1.00  0.00     0.087 C 
ENDBRANCH  11  12
ENDBRANCH  10  11
ENDBRANCH   2  10
TORSDOF 6
ENDMDL
MODEL 6
REMARK VINA RESULT:    -5.320      2.531      6.241
REMARK INTER + INTRA:          -7.588
REMARK INTER:                  -6.976
REMARK INTRA:                  -0.612
REMARK UNBOUND:                -0.402
REMARK SMILES CC(=O)CCC=C(C)CCC=C(C)C
REMARK SMILES IDX 7 1 6 2 8 3 9 4 10 5 11 6 13 7 12 8 14 9 5 10 4 11 2 12 3 13
REMARK SMILES IDX 1 14
REMARK H PARENT
REMARK Flexibility Score: inf
ROOT
ATOM      1  C   UNL     1     -11.876 -16.127  29.518  1.00  0.00    -0.077 C 
ATOM      2  C   UNL     1     -12.604 -15.903  30.632  1.00  0.00    -0.028 C 
ATOM      3  C   UNL     1     -12.411 -15.793  28.146  1.00  0.00     0.039 C 
ENDROOT
BRANCH   1   4
ATOM      4  C   UNL     1     -10.491 -16.730  29.647  1.00  0.00     0.034 C 
BRANCH   4   5
ATOM      5  C   UNL     1     -10.545 -18.241  29.910  1.00  0.00     0.032 C 
BRANCH   5   6
ATOM      6  C   UNL     1     -11.606 -18.920  29.076  1.00  0.00    -0.028 C 
ATOM      7  C   UNL     1     -12.782 -19.897  31.060  1.00  0.00     0.039 C 
ATOM      8  C   UNL     1     -12.591 -19.699  29.577  1.00  0.00    -0.080 C 
ATOM      9  C   UNL     1     -13.577 -20.351  28.642  1.00  0.00     0.039 C 
ENDBRANCH   5   6
ENDBRANCH   4   5
ENDBRANCH   1   4
BRANCH   2  10
ATOM     10  C   UNL     1     -13.999 -15.320  30.605  1.00  0.00     0.035 C 
BRANCH  10  11
ATOM     11  C   UNL     1     -14.386 -14.693  31.949  1.00  0.00     0.079 C 
BRANCH  11  12
ATOM     12  C   UNL     1     -14.012 -15.584  33.107  1.00  0.00     0.130 C 
ATOM     13  O   UNL     1     -14.446 -16.725  33.153  1.00  0.00    -0.300 OA
ATOM     14  C   UNL     1     -13.123 -15.096  34.212  1.00  0.00     0.087 C 
ENDBRANCH  11  12
ENDBRANCH  10  11
ENDBRANCH   2  10
TORSDOF 6
ENDMDL
MODEL 7
REMARK VINA RESULT:    -5.169      3.347      4.951
REMARK INTER + INTRA:          -7.384
REMARK INTER:                  -6.699
REMARK INTRA:                  -0.685
REMARK UNBOUND:                -0.402
REMARK SMILES CC(=O)CCC=C(C)CCC=C(C)C
REMARK SMILES IDX 7 1 6 2 8 3 9 4 10 5 11 6 13 7 12 8 14 9 5 10 4 11 2 12 3 13
REMARK SMILES IDX 1 14
REMARK H PARENT
REMARK Flexibility Score: inf
ROOT
ATOM      1  C   UNL     1     -11.765 -16.065  30.071  1.00  0.00    -0.077 C 
ATOM      2  C   UNL     1     -11.881 -15.432  28.884  1.00  0.00    -0.028 C 
ATOM      3  C   UNL     1     -12.960 -16.281  30.968  1.00  0.00     0.039 C 
ENDROOT
BRANCH   1   4
ATOM      4  C   UNL     1     -10.405 -16.566  30.514  1.00  0.00     0.034 C 
BRANCH   4   5
ATOM      5  C   UNL     1     -10.082 -17.947  29.925  1.00  0.00     0.032 C 
BRANCH   5   6
ATOM      6  C   UNL     1     -10.520 -19.065  30.841  1.00  0.00    -0.028 C 
ATOM      7  C   UNL     1     -12.496 -19.678  29.428  1.00  0.00     0.039 C 
ATOM      8  C   UNL     1     -11.624 -19.823  30.651  1.00  0.00    -0.080 C 
ATOM      9  C   UNL     1     -11.978 -20.893  31.651  1.00  0.00     0.039 C 
ENDBRANCH   5   6
ENDBRANCH   4   5
ENDBRANCH   1   4
BRANCH   2  10
ATOM     10  C   UNL     1     -13.190 -14.885  28.364  1.00  0.00     0.035 C 
BRANCH  10  11
ATOM     11  C   UNL     1     -13.528 -15.429  26.971  1.00  0.00     0.079 C 
BRANCH  11  12
ATOM     12  C   UNL     1     -12.953 -16.808  26.758  1.00  0.00     0.130 C 
ATOM     13  O   UNL     1     -13.579 -17.785  27.138  1.00  0.00    -0.300 OA
ATOM     14  C   UNL     1     -11.621 -17.005  26.097  1.00  0.00     0.087 C 
ENDBRANCH  11  12
ENDBRANCH  10  11
ENDBRANCH   2  10
TORSDOF 6
ENDMDL
MODEL 8
REMARK VINA RESULT:    -5.136      3.051      7.172
REMARK INTER + INTRA:          -7.339
REMARK INTER:                  -6.822
REMARK INTRA:                  -0.517
REMARK UNBOUND:                -0.402
REMARK SMILES CC(=O)CCC=C(C)CCC=C(C)C
REMARK SMILES IDX 7 1 6 2 8 3 9 4 10 5 11 6 13 7 12 8 14 9 5 10 4 11 2 12 3 13
REMARK SMILES IDX 1 14
REMARK H PARENT
REMARK Flexibility Score: inf
ROOT
ATOM      1  C   UNL     1     -13.679 -15.541  32.296  1.00  0.00    -0.077 C 
ATOM      2  C   UNL     1     -12.969 -15.436  33.440  1.00  0.00    -0.028 C 
ATOM      3  C   UNL     1     -14.852 -14.634  32.011  1.00  0.00     0.039 C 
ENDROOT
BRANCH   1   4
ATOM      4  C   UNL     1     -13.291 -16.594  31.278  1.00  0.00     0.034 C 
BRANCH   4   5
ATOM      5  C   UNL     1     -12.056 -16.180  30.465  1.00  0.00     0.032 C 
BRANCH   5   6
ATOM      6  C   UNL     1     -12.153 -16.629  29.027  1.00  0.00    -0.028 C 
ATOM      7  C   UNL     1     -13.464 -14.619  28.309  1.00  0.00     0.039 C 
ATOM      8  C   UNL     1     -12.817 -15.958  28.058  1.00  0.00    -0.080 C 
ATOM      9  C   UNL     1     -12.871 -16.521  26.661  1.00  0.00     0.039 C 
ENDBRANCH   5   6
ENDBRANCH   4   5
ENDBRANCH   1   4
BRANCH   2  10
ATOM     10  C   UNL     1     -13.287 -14.427  34.520  1.00  0.00     0.035 C 
BRANCH  10  11
ATOM     11  C   UNL     1     -12.227 -14.416  35.627  1.00  0.00     0.079 C 
BRANCH  11  12
ATOM     12  C   UNL     1     -12.409 -13.245  36.561  1.00  0.00     0.130 C 
ATOM     13  O   UNL     1     -13.325 -13.257  37.369  1.00  0.00    -0.300 OA
ATOM     14  C   UNL     1     -11.494 -12.058  36.512  1.00  0.00     0.087 C 
ENDBRANCH  11  12
ENDBRANCH  10  11
ENDBRANCH   2  10
TORSDOF 6
ENDMDL
MODEL 9
REMARK VINA RESULT:    -4.885      3.408      5.357
REMARK INTER + INTRA:          -7.000
REMARK INTER:                  -6.459
REMARK INTRA:                  -0.541
REMARK UNBOUND:                -0.402
REMARK SMILES CC(=O)CCC=C(C)CCC=C(C)C
REMARK SMILES IDX 7 1 6 2 8 3 9 4 10 5 11 6 13 7 12 8 14 9 5 10 4 11 2 12 3 13
REMARK SMILES IDX 1 14
REMARK H PARENT
REMARK Flexibility Score: inf
ROOT
ATOM      1  C   UNL     1     -10.565 -16.664  29.799  1.00  0.00    -0.077 C 
ATOM      2  C   UNL     1     -10.653 -17.999  29.615  1.00  0.00    -0.028 C 
ATOM      3  C   UNL     1      -9.988 -16.080  31.066  1.00  0.00     0.039 C 
ENDROOT
BRANCH   1   4
ATOM      4  C   UNL     1     -11.059 -15.732  28.710  1.00  0.00     0.034 C 
BRANCH   4   5
ATOM      5  C   UNL     1     -12.474 -16.098  28.240  1.00  0.00     0.032 C 
BRANCH   5   6
ATOM      6  C   UNL     1     -13.372 -14.886  28.164  1.00  0.00    -0.028 C 
ATOM      7  C   UNL     1     -13.975 -14.968  30.594  1.00  0.00     0.039 C 
ATOM      8  C   UNL     1     -14.083 -14.394  29.204  1.00  0.00    -0.080 C 
ATOM      9  C   UNL     1     -14.972 -13.194  29.000  1.00  0.00     0.039 C 
ENDBRANCH   5   6
ENDBRANCH   4   5
ENDBRANCH   1   4
BRANCH   2  10
ATOM     10  C   UNL     1     -10.201 -19.006  30.647  1.00  0.00     0.035 C 
BRANCH  10  11
ATOM     11  C   UNL     1     -11.304 -20.015  30.988  1.00  0.00     0.079 C 
BRANCH  11  12
ATOM     12  C   UNL     1     -12.657 -19.538  30.521  1.00  0.00     0.130 C 
ATOM     13  O   UNL     1     -13.225 -18.647  31.134  1.00  0.00    -0.300 OA
ATOM     14  C   UNL     1     -13.327 -20.141  29.323  1.00  0.00     0.087 C 
ENDBRANCH  11  12
ENDBRANCH  10  11
ENDBRANCH   2  10
TORSDOF 6
ENDMDL
