MODEL 1
REMARK VINA RESULT:    -3.359      0.000      0.000
REMARK INTER + INTRA:          -8.304
REMARK INTER:                  -6.304
REMARK INTRA:                  -2.000
REMARK UNBOUND:                -2.000
REMARK SMILES O=C([O-])CCCCCCCCCCCCCCC(=O)[O-]
REMARK SMILES IDX 10 1 9 2 8 3 7 4 6 5 5 6 4 7 2 8 1 9 3 10 11 11 12 12 13 13
REMARK SMILES IDX 14 14 15 15 16 16 17 17 18 18 19 19 20 20
REMARK H PARENT
REMARK Flexibility Score: inf
ROOT
ATOM      1  C   UNL     1      22.308   9.760  37.289  1.00  0.00     0.000 C 
ENDROOT
BRANCH   1   2
ATOM      2  C   UNL     1      20.837   9.963  36.910  1.00  0.00     0.000 C 
BRANCH   2   3
ATOM      3  C   UNL     1      20.519   9.303  35.560  1.00  0.00     0.000 C 
BRANCH   3   4
ATOM      4  C   UNL     1      19.391   8.254  35.670  1.00  0.00     0.000 C 
BRANCH   4   5
ATOM      5  C   UNL     1      19.832   6.828  35.291  1.00  0.00     0.000 C 
BRANCH   5   6
ATOM      6  C   UNL     1      20.886   6.748  34.170  1.00  0.00     0.006 C 
BRANCH   6   7
ATOM      7  C   UNL     1      20.568   5.716  33.075  1.00  0.00     0.053 C 
BRANCH   7   8
ATOM      8  C   UNL     1      21.695   5.571  32.100  1.00  0.00     0.041 C 
ATOM      9  O   UNL     1      21.731   4.587  31.315  1.00  0.00    -0.550 OA
ATOM     10  O   UNL     1      22.722   6.505  32.081  1.00  0.00    -0.550 OA
ENDBRANCH   7   8
ENDBRANCH   6   7
ENDBRANCH   5   6
ENDBRANCH   4   5
ENDBRANCH   3   4
ENDBRANCH   2   3
ENDBRANCH   1   2
BRANCH   1  11
ATOM     11  C   UNL     1      22.435   9.042  38.638  1.00  0.00     0.000 C 
BRANCH  11  12
ATOM     12  C   UNL     1      21.056   8.773  39.251  1.00  0.00     0.000 C 
BRANCH  12  13
ATOM     13  C   UNL     1      20.906   7.297  39.641  1.00  0.00     0.000 C 
BRANCH  13  14
ATOM     14  C   UNL     1      21.471   6.378  38.552  1.00  0.00     0.000 C 
BRANCH  14  15
ATOM     15  C   UNL     1      22.284   5.230  39.167  1.00  0.00     0.000 C 
BRANCH  15  16
ATOM     16  C   UNL     1      22.240   3.946  38.319  1.00  0.00     0.006 C 
BRANCH  16  17
ATOM     17  C   UNL     1      22.271   4.190  36.801  1.00  0.00     0.053 C 
BRANCH  17  18
ATOM     18  C   UNL     1      21.158   3.479  36.095  1.00  0.00     0.041 C 
ATOM     19  O   UNL     1      20.008   3.439  36.605  1.00  0.00    -0.550 OA
ATOM     20  O   UNL     1      21.401   2.830  34.891  1.00  0.00    -0.550 OA
ENDBRANCH  17  18
ENDBRANCH  16  17
ENDBRANCH  15  16
ENDBRANCH  14  15
ENDBRANCH  13  14
ENDBRANCH  12  13
ENDBRANCH  11  12
ENDBRANCH   1  11
TORSDOF 15
ENDMDL
MODEL 2
REMARK VINA RESULT:    -3.314      1.615      5.036
REMARK INTER + INTRA:          -8.221
REMARK INTER:                  -6.414
REMARK INTRA:                  -1.807
REMARK UNBOUND:                -2.000
REMARK SMILES O=C([O-])CCCCCCCCCCCCCCC(=O)[O-]
REMARK SMILES IDX 10 1 9 2 8 3 7 4 6 5 5 6 4 7 2 8 1 9 3 10 11 11 12 12 13 13
REMARK SMILES IDX 14 14 15 15 16 16 17 17 18 18 19 19 20 20
REMARK H PARENT
REMARK Flexibility Score: inf
ROOT
ATOM      1  C   UNL     1      20.950  10.072  36.758  1.00  0.00     0.000 C 
ENDROOT
BRANCH   1   2
ATOM      2  C   UNL     1      22.378   9.691  37.166  1.00  0.00     0.000 C 
BRANCH   2   3
ATOM      3  C   UNL     1      22.462   9.403  38.673  1.00  0.00     0.000 C 
BRANCH   3   4
ATOM      4  C   UNL     1      21.115   8.924  39.255  1.00  0.00     0.000 C 
BRANCH   4   5
ATOM      5  C   UNL     1      21.043   7.401  39.480  1.00  0.00     0.000 C 
BRANCH   5   6
ATOM      6  C   UNL     1      22.283   6.615  39.012  1.00  0.00     0.006 C 
BRANCH   6   7
ATOM      7  C   UNL     1      21.962   5.267  38.345  1.00  0.00     0.053 C 
BRANCH   7   8
ATOM      8  C   UNL     1      22.345   4.109  39.214  1.00  0.00     0.041 C 
ATOM      9  O   UNL     1      22.955   4.304  40.298  1.00  0.00    -0.550 OA
ATOM     10  O   UNL     1      22.058   2.812  38.809  1.00  0.00    -0.550 OA
ENDBRANCH   7   8
ENDBRANCH   6   7
ENDBRANCH   5   6
ENDBRANCH   4   5
ENDBRANCH   3   4
ENDBRANCH   2   3
ENDBRANCH   1   2
BRANCH   1  11
ATOM     11  C   UNL     1      20.473   9.227  35.570  1.00  0.00     0.000 C 
BRANCH  11  12
ATOM     12  C   UNL     1      19.398   8.224  36.004  1.00  0.00     0.000 C 
BRANCH  12  13
ATOM     13  C   UNL     1      19.837   6.784  35.710  1.00  0.00     0.000 C 
BRANCH  13  14
ATOM     14  C   UNL     1      20.773   6.731  34.496  1.00  0.00     0.000 C 
BRANCH  14  15
ATOM     15  C   UNL     1      20.307   5.669  33.489  1.00  0.00     0.000 C 
BRANCH  15  16
ATOM     16  C   UNL     1      21.217   5.583  32.250  1.00  0.00     0.006 C 
BRANCH  16  17
ATOM     17  C   UNL     1      22.692   5.286  32.567  1.00  0.00     0.053 C 
BRANCH  17  18
ATOM     18  C   UNL     1      22.918   3.839  32.880  1.00  0.00     0.041 C 
ATOM     19  O   UNL     1      22.530   2.949  32.079  1.00  0.00    -0.550 OA
ATOM     20  O   UNL     1      23.528   3.474  34.073  1.00  0.00    -0.550 OA
ENDBRANCH  17  18
ENDBRANCH  16  17
ENDBRANCH  15  16
ENDBRANCH  14  15
ENDBRANCH  13  14
ENDBRANCH  12  13
ENDBRANCH  11  12
ENDBRANCH   1  11
TORSDOF 15
ENDMDL
MODEL 3
REMARK VINA RESULT:    -3.241      1.629      3.687
REMARK INTER + INTRA:          -8.083
REMARK INTER:                  -6.028
REMARK INTRA:                  -2.055
REMARK UNBOUND:                -2.000
REMARK SMILES O=C([O-])CCCCCCCCCCCCCCC(=O)[O-]
REMARK SMILES IDX 10 1 9 2 8 3 7 4 6 5 5 6 4 7 2 8 1 9 3 10 11 11 12 12 13 13
REMARK SMILES IDX 14 14 15 15 16 16 17 17 18 18 19 19 20 20
REMARK H PARENT
REMARK Flexibility Score: inf
ROOT
ATOM      1  C   UNL     1      20.953   8.202  39.518  1.00  0.00     0.000 C 
ENDROOT
BRANCH   1   2
ATOM      2  C   UNL     1      20.848   6.673  39.519  1.00  0.00     0.000 C 
BRANCH   2   3
ATOM      3  C   UNL     1      20.471   6.145  38.127  1.00  0.00     0.000 C 
BRANCH   3   4
ATOM      4  C   UNL     1      21.009   4.720  37.873  1.00  0.00     0.000 C 
BRANCH   4   5
ATOM      5  C   UNL     1      22.041   4.640  36.733  1.00  0.00     0.000 C 
BRANCH   5   6
ATOM      6  C   UNL     1      21.994   3.343  35.902  1.00  0.00     0.006 C 
BRANCH   6   7
ATOM      7  C   UNL     1      23.305   3.015  35.168  1.00  0.00     0.053 C 
BRANCH   7   8
ATOM      8  C   UNL     1      23.151   3.109  33.681  1.00  0.00     0.041 C 
ATOM      9  O   UNL     1      22.841   2.090  33.010  1.00  0.00    -0.550 OA
ATOM     10  O   UNL     1      23.381   4.316  33.033  1.00  0.00    -0.550 OA
ENDBRANCH   7   8
ENDBRANCH   6   7
ENDBRANCH   5   6
ENDBRANCH   4   5
ENDBRANCH   3   4
ENDBRANCH   2   3
ENDBRANCH   1   2
BRANCH   1  11
ATOM     11  C   UNL     1      22.379   8.655  39.182  1.00  0.00     0.000 C 
BRANCH  11  12
ATOM     12  C   UNL     1      22.402   9.491  37.896  1.00  0.00     0.000 C 
BRANCH  12  13
ATOM     13  C   UNL     1      20.980   9.760  37.388  1.00  0.00     0.000 C 
BRANCH  13  14
ATOM     14  C   UNL     1      20.921   9.701  35.857  1.00  0.00     0.000 C 
BRANCH  14  15
ATOM     15  C   UNL     1      21.401   8.338  35.340  1.00  0.00     0.000 C 
BRANCH  15  16
ATOM     16  C   UNL     1      20.259   7.484  34.760  1.00  0.00     0.006 C 
BRANCH  16  17
ATOM     17  C   UNL     1      20.713   6.432  33.735  1.00  0.00     0.053 C 
BRANCH  17  18
ATOM     18  C   UNL     1      19.762   5.278  33.656  1.00  0.00     0.041 C 
ATOM     19  O   UNL     1      18.743   5.244  34.394  1.00  0.00    -0.550 OA
ATOM     20  O   UNL     1      20.022   4.222  32.791  1.00  0.00    -0.550 OA
ENDBRANCH  17  18
ENDBRANCH  16  17
ENDBRANCH  15  16
ENDBRANCH  14  15
ENDBRANCH  13  14
ENDBRANCH  12  13
ENDBRANCH  11  12
ENDBRANCH   1  11
TORSDOF 15
ENDMDL
MODEL 4
REMARK VINA RESULT:    -3.208      3.676      5.590
REMARK INTER + INTRA:          -8.021
REMARK INTER:                  -5.963
REMARK INTRA:                  -2.059
REMARK UNBOUND:                -2.000
REMARK SMILES O=C([O-])CCCCCCCCCCCCCCC(=O)[O-]
REMARK SMILES IDX 10 1 9 2 8 3 7 4 6 5 5 6 4 7 2 8 1 9 3 10 11 11 12 12 13 13
REMARK SMILES IDX 14 14 15 15 16 16 17 17 18 18 19 19 20 20
REMARK H PARENT
REMARK Flexibility Score: inf
ROOT
ATOM      1  C   UNL     1      21.317   9.902  36.148  1.00  0.00     0.000 C 
ENDROOT
BRANCH   1   2
ATOM      2  C   UNL     1      22.369   9.076  36.897  1.00  0.00     0.000 C 
BRANCH   2   3
ATOM      3  C   UNL     1      22.803   9.779  38.192  1.00  0.00     0.000 C 
BRANCH   3   4
ATOM      4  C   UNL     1      22.110   9.193  39.440  1.00  0.00     0.000 C 
BRANCH   4   5
ATOM      5  C   UNL     1      21.396   7.852  39.181  1.00  0.00     0.000 C 
BRANCH   5   6
ATOM      6  C   UNL     1      19.866   7.885  39.356  1.00  0.00     0.006 C 
BRANCH   6   7
ATOM      7  C   UNL     1      19.237   9.275  39.161  1.00  0.00     0.053 C 
BRANCH   7   8
ATOM      8  C   UNL     1      18.163   9.548  40.168  1.00  0.00     0.041 C 
ATOM      9  O   UNL     1      18.422   9.506  41.400  1.00  0.00    -0.550 OA
ATOM     10  O   UNL     1      16.867   9.817  39.746  1.00  0.00    -0.550 OA
ENDBRANCH   7   8
ENDBRANCH   6   7
ENDBRANCH   5   6
ENDBRANCH   4   5
ENDBRANCH   3   4
ENDBRANCH   2   3
ENDBRANCH   1   2
BRANCH   1  11
ATOM     11  C   UNL     1      20.197   9.006  35.605  1.00  0.00     0.000 C 
BRANCH  11  12
ATOM     12  C   UNL     1      20.758   7.682  35.074  1.00  0.00     0.000 C 
BRANCH  12  13
ATOM     13  C   UNL     1      20.228   6.493  35.886  1.00  0.00     0.000 C 
BRANCH  13  14
ATOM     14  C   UNL     1      21.364   5.535  36.265  1.00  0.00     0.000 C 
BRANCH  14  15
ATOM     15  C   UNL     1      20.825   4.321  37.035  1.00  0.00     0.000 C 
BRANCH  15  16
ATOM     16  C   UNL     1      21.868   3.706  37.986  1.00  0.00     0.006 C 
BRANCH  16  17
ATOM     17  C   UNL     1      22.357   4.659  39.089  1.00  0.00     0.053 C 
BRANCH  17  18
ATOM     18  C   UNL     1      21.968   4.184  40.454  1.00  0.00     0.041 C 
ATOM     19  O   UNL     1      20.768   4.247  40.830  1.00  0.00    -0.550 OA
ATOM     20  O   UNL     1      22.938   3.704  41.326  1.00  0.00    -0.550 OA
ENDBRANCH  17  18
ENDBRANCH  16  17
ENDBRANCH  15  16
ENDBRANCH  14  15
ENDBRANCH  13  14
ENDBRANCH  12  13
ENDBRANCH  11  12
ENDBRANCH   1  11
TORSDOF 15
ENDMDL
MODEL 5
REMARK VINA RESULT:    -3.162      2.021      5.375
REMARK INTER + INTRA:          -7.935
REMARK INTER:                  -6.210
REMARK INTRA:                  -1.724
REMARK UNBOUND:                -2.000
REMARK SMILES O=C([O-])CCCCCCCCCCCCCCC(=O)[O-]
REMARK SMILES IDX 10 1 9 2 8 3 7 4 6 5 5 6 4 7 2 8 1 9 3 10 11 11 12 12 13 13
REMARK SMILES IDX 14 14 15 15 16 16 17 17 18 18 19 19 20 20
REMARK H PARENT
REMARK Flexibility Score: inf
ROOT
ATOM      1  C   UNL     1      21.121   7.694  34.802  1.00  0.00     0.000 C 
ENDROOT
BRANCH   1   2
ATOM      2  C   UNL     1      20.056   8.688  35.277  1.00  0.00     0.000 C 
BRANCH   2   3
ATOM      3  C   UNL     1      20.703   9.918  35.932  1.00  0.00     0.000 C 
BRANCH   3   4
ATOM      4  C   UNL     1      20.792   9.786  37.468  1.00  0.00     0.000 C 
BRANCH   4   5
ATOM      5  C   UNL     1      22.180   9.348  37.972  1.00  0.00     0.000 C 
BRANCH   5   6
ATOM      6  C   UNL     1      22.168   8.507  39.263  1.00  0.00     0.006 C 
BRANCH   6   7
ATOM      7  C   UNL     1      20.861   8.605  40.068  1.00  0.00     0.053 C 
BRANCH   7   8
ATOM      8  C   UNL     1      20.208   7.268  40.239  1.00  0.00     0.041 C 
ATOM      9  O   UNL     1      20.774   6.227  39.814  1.00  0.00    -0.550 OA
ATOM     10  O   UNL     1      18.959   7.176  40.839  1.00  0.00    -0.550 OA
ENDBRANCH   7   8
ENDBRANCH   6   7
ENDBRANCH   5   6
ENDBRANCH   4   5
ENDBRANCH   3   4
ENDBRANCH   2   3
ENDBRANCH   1   2
BRANCH   1  11
ATOM     11  C   UNL     1      20.828   6.282  35.326  1.00  0.00     0.000 C 
BRANCH  11  12
ATOM     12  C   UNL     1      21.789   5.904  36.459  1.00  0.00     0.000 C 
BRANCH  12  13
ATOM     13  C   UNL     1      21.710   4.404  36.771  1.00  0.00     0.000 C 
BRANCH  13  14
ATOM     14  C   UNL     1      22.621   3.599  35.837  1.00  0.00     0.000 C 
BRANCH  14  15
ATOM     15  C   UNL     1      21.802   2.883  34.752  1.00  0.00     0.000 C 
BRANCH  15  16
ATOM     16  C   UNL     1      22.493   2.896  33.377  1.00  0.00     0.006 C 
BRANCH  16  17
ATOM     17  C   UNL     1      23.112   4.250  32.993  1.00  0.00     0.053 C 
BRANCH  17  18
ATOM     18  C   UNL     1      22.212   5.047  32.102  1.00  0.00     0.041 C 
ATOM     19  O   UNL     1      22.486   6.246  31.832  1.00  0.00    -0.550 OA
ATOM     20  O   UNL     1      21.051   4.476  31.596  1.00  0.00    -0.550 OA
ENDBRANCH  17  18
ENDBRANCH  16  17
ENDBRANCH  15  16
ENDBRANCH  14  15
ENDBRANCH  13  14
ENDBRANCH  12  13
ENDBRANCH  11  12
ENDBRANCH   1  11
TORSDOF 15
ENDMDL
MODEL 6
REMARK VINA RESULT:    -3.130      9.660     11.583
REMARK INTER + INTRA:          -7.874
REMARK INTER:                  -5.098
REMARK INTRA:                  -2.776
REMARK UNBOUND:                -2.000
REMARK SMILES O=C([O-])CCCCCCCCCCCCCCC(=O)[O-]
REMARK SMILES IDX 10 1 9 2 8 3 7 4 6 5 5 6 4 7 2 8 1 9 3 10 11 11 12 12 13 13
REMARK SMILES IDX 14 14 15 15 16 16 17 17 18 18 19 19 20 20
REMARK H PARENT
REMARK Flexibility Score: inf
ROOT
ATOM      1  C   UNL     1       9.007   3.618  33.563  1.00  0.00     0.000 C 
ENDROOT
BRANCH   1   2
ATOM      2  C   UNL     1      10.131   2.580  33.659  1.00  0.00     0.000 C 
BRANCH   2   3
ATOM      3  C   UNL     1      10.227   1.750  32.370  1.00  0.00     0.000 C 
BRANCH   3   4
ATOM      4  C   UNL     1       9.011   1.961  31.443  1.00  0.00     0.000 C 
BRANCH   4   5
ATOM      5  C   UNL     1       9.373   2.562  30.072  1.00  0.00     0.000 C 
BRANCH   5   6
ATOM      6  C   UNL     1      10.883   2.712  29.805  1.00  0.00     0.006 C 
BRANCH   6   7
ATOM      7  C   UNL     1      11.241   3.824  28.805  1.00  0.00     0.053 C 
BRANCH   7   8
ATOM      8  C   UNL     1      12.622   3.654  28.252  1.00  0.00     0.041 C 
ATOM      9  O   UNL     1      12.880   4.006  27.070  1.00  0.00    -0.550 OA
ATOM     10  O   UNL     1      13.617   3.077  29.031  1.00  0.00    -0.550 OA
ENDBRANCH   7   8
ENDBRANCH   6   7
ENDBRANCH   5   6
ENDBRANCH   4   5
ENDBRANCH   3   4
ENDBRANCH   2   3
ENDBRANCH   1   2
BRANCH   1  11
ATOM     11  C   UNL     1       9.573   5.042  33.531  1.00  0.00     0.000 C 
BRANCH  11  12
ATOM     12  C   UNL     1       9.299   5.714  32.181  1.00  0.00     0.000 C 
BRANCH  12  13
ATOM     13  C   UNL     1      10.584   6.310  31.591  1.00  0.00     0.000 C 
BRANCH  13  14
ATOM     14  C   UNL     1      11.776   6.084  32.527  1.00  0.00     0.000 C 
BRANCH  14  15
ATOM     15  C   UNL     1      12.857   5.232  31.846  1.00  0.00     0.000 C 
BRANCH  15  16
ATOM     16  C   UNL     1      13.436   4.148  32.774  1.00  0.00     0.006 C 
BRANCH  16  17
ATOM     17  C   UNL     1      13.818   4.653  34.175  1.00  0.00     0.053 C 
BRANCH  17  18
ATOM     18  C   UNL     1      13.149   3.866  35.258  1.00  0.00     0.041 C 
ATOM     19  O   UNL     1      13.462   2.663  35.453  1.00  0.00    -0.550 OA
ATOM     20  O   UNL     1      12.152   4.452  36.029  1.00  0.00    -0.550 OA
ENDBRANCH  17  18
ENDBRANCH  16  17
ENDBRANCH  15  16
ENDBRANCH  14  15
ENDBRANCH  13  14
ENDBRANCH  12  13
ENDBRANCH  11  12
ENDBRANCH   1  11
TORSDOF 15
ENDMDL
MODEL 7
REMARK VINA RESULT:    -3.126      9.907     12.108
REMARK INTER + INTRA:          -7.867
REMARK INTER:                  -5.386
REMARK INTRA:                  -2.481
REMARK UNBOUND:                -2.000
REMARK SMILES O=C([O-])CCCCCCCCCCCCCCC(=O)[O-]
REMARK SMILES IDX 10 1 9 2 8 3 7 4 6 5 5 6 4 7 2 8 1 9 3 10 11 11 12 12 13 13
REMARK SMILES IDX 14 14 15 15 16 16 17 17 18 18 19 19 20 20
REMARK H PARENT
REMARK Flexibility Score: inf
ROOT
ATOM      1  C   UNL     1      11.914   1.624  30.440  1.00  0.00     0.000 C 
ENDROOT
BRANCH   1   2
ATOM      2  C   UNL     1      10.810   1.819  29.395  1.00  0.00     0.000 C 
BRANCH   2   3
ATOM      3  C   UNL     1       9.494   2.253  30.058  1.00  0.00     0.000 C 
BRANCH   3   4
ATOM      4  C   UNL     1       9.539   2.122  31.596  1.00  0.00     0.000 C 
BRANCH   4   5
ATOM      5  C   UNL     1       9.360   3.460  32.338  1.00  0.00     0.000 C 
BRANCH   5   6
ATOM      6  C   UNL     1       9.730   4.712  31.520  1.00  0.00     0.006 C 
BRANCH   6   7
ATOM      7  C   UNL     1       9.345   6.041  32.191  1.00  0.00     0.053 C 
BRANCH   7   8
ATOM      8  C   UNL     1      10.248   7.160  31.773  1.00  0.00     0.041 C 
ATOM      9  O   UNL     1      10.960   7.753  32.626  1.00  0.00    -0.550 OA
ATOM     10  O   UNL     1      10.278   7.571  30.447  1.00  0.00    -0.550 OA
ENDBRANCH   7   8
ENDBRANCH   6   7
ENDBRANCH   5   6
ENDBRANCH   4   5
ENDBRANCH   3   4
ENDBRANCH   2   3
ENDBRANCH   1   2
BRANCH   1  11
ATOM     11  C   UNL     1      13.149   2.468  30.099  1.00  0.00     0.000 C 
BRANCH  11  12
ATOM     12  C   UNL     1      12.752   3.905  29.743  1.00  0.00     0.000 C 
BRANCH  12  13
ATOM     13  C   UNL     1      13.487   4.916  30.634  1.00  0.00     0.000 C 
BRANCH  13  14
ATOM     14  C   UNL     1      13.851   4.294  31.987  1.00  0.00     0.000 C 
BRANCH  14  15
ATOM     15  C   UNL     1      13.008   4.901  33.118  1.00  0.00     0.000 C 
BRANCH  15  16
ATOM     16  C   UNL     1      12.489   3.844  34.109  1.00  0.00     0.006 C 
BRANCH  16  17
ATOM     17  C   UNL     1      12.145   4.398  35.502  1.00  0.00     0.053 C 
BRANCH  17  18
ATOM     18  C   UNL     1      10.691   4.732  35.629  1.00  0.00     0.041 C 
ATOM     19  O   UNL     1      10.310   5.931  35.598  1.00  0.00    -0.550 OA
ATOM     20  O   UNL     1       9.759   3.719  35.819  1.00  0.00    -0.550 OA
ENDBRANCH  17  18
ENDBRANCH  16  17
ENDBRANCH  15  16
ENDBRANCH  14  15
ENDBRANCH  13  14
ENDBRANCH  12  13
ENDBRANCH  11  12
ENDBRANCH   1  11
TORSDOF 15
ENDMDL
MODEL 8
REMARK VINA RESULT:    -3.119      4.827      9.418
REMARK INTER + INTRA:          -7.854
REMARK INTER:                  -6.167
REMARK INTRA:                  -1.688
REMARK UNBOUND:                -2.000
REMARK SMILES O=C([O-])CCCCCCCCCCCCCCC(=O)[O-]
REMARK SMILES IDX 10 1 9 2 8 3 7 4 6 5 5 6 4 7 2 8 1 9 3 10 11 11 12 12 13 13
REMARK SMILES IDX 14 14 15 15 16 16 17 17 18 18 19 19 20 20
REMARK H PARENT
REMARK Flexibility Score: inf
ROOT
ATOM      1  C   UNL     1      22.802   2.266  29.149  1.00  0.00     0.000 C 
ENDROOT
BRANCH   1   2
ATOM      2  C   UNL     1      22.507   1.383  30.367  1.00  0.00     0.000 C 
BRANCH   2   3
ATOM      3  C   UNL     1      21.180   1.784  31.031  1.00  0.00     0.000 C 
BRANCH   3   4
ATOM      4  C   UNL     1      21.113   1.359  32.513  1.00  0.00     0.000 C 
BRANCH   4   5
ATOM      5  C   UNL     1      22.392   1.679  33.309  1.00  0.00     0.000 C 
BRANCH   5   6
ATOM      6  C   UNL     1      22.439   3.091  33.924  1.00  0.00     0.006 C 
BRANCH   6   7
ATOM      7  C   UNL     1      23.149   4.138  33.050  1.00  0.00     0.053 C 
BRANCH   7   8
ATOM      8  C   UNL     1      22.201   5.187  32.555  1.00  0.00     0.041 C 
ATOM      9  O   UNL     1      20.958   4.992  32.603  1.00  0.00    -0.550 OA
ATOM     10  O   UNL     1      22.693   6.367  32.011  1.00  0.00    -0.550 OA
ENDBRANCH   7   8
ENDBRANCH   6   7
ENDBRANCH   5   6
ENDBRANCH   4   5
ENDBRANCH   3   4
ENDBRANCH   2   3
ENDBRANCH   1   2
BRANCH   1  11
ATOM     11  C   UNL     1      21.925   3.524  29.156  1.00  0.00     0.000 C 
BRANCH  11  12
ATOM     12  C   UNL     1      22.420   4.546  28.126  1.00  0.00     0.000 C 
BRANCH  12  13
ATOM     13  C   UNL     1      23.214   3.859  27.007  1.00  0.00     0.000 C 
BRANCH  13  14
ATOM     14  C   UNL     1      24.423   4.705  26.591  1.00  0.00     0.000 C 
BRANCH  14  15
ATOM     15  C   UNL     1      24.008   5.820  25.620  1.00  0.00     0.000 C 
BRANCH  15  16
ATOM     16  C   UNL     1      24.276   7.229  26.179  1.00  0.00     0.006 C 
BRANCH  16  17
ATOM     17  C   UNL     1      25.302   7.270  27.324  1.00  0.00     0.053 C 
BRANCH  17  18
ATOM     18  C   UNL     1      24.820   8.087  28.482  1.00  0.00     0.041 C 
ATOM     19  O   UNL     1      23.845   7.693  29.173  1.00  0.00    -0.550 OA
ATOM     20  O   UNL     1      25.425   9.303  28.775  1.00  0.00    -0.550 OA
ENDBRANCH  17  18
ENDBRANCH  16  17
ENDBRANCH  15  16
ENDBRANCH  14  15
ENDBRANCH  13  14
ENDBRANCH  12  13
ENDBRANCH  11  12
ENDBRANCH   1  11
TORSDOF 15
ENDMDL
MODEL 9
REMARK VINA RESULT:    -3.081     10.260     12.538
REMARK INTER + INTRA:          -7.782
REMARK INTER:                  -5.383
REMARK INTRA:                  -2.399
REMARK UNBOUND:                -2.000
REMARK SMILES O=C([O-])CCCCCCCCCCCCCCC(=O)[O-]
REMARK SMILES IDX 10 1 9 2 8 3 7 4 6 5 5 6 4 7 2 8 1 9 3 10 11 11 12 12 13 13
REMARK SMILES IDX 14 14 15 15 16 16 17 17 18 18 19 19 20 20
REMARK H PARENT
REMARK Flexibility Score: inf
ROOT
ATOM      1  C   UNL     1      10.034   0.839  33.498  1.00  0.00     0.000 C 
ENDROOT
BRANCH   1   2
ATOM      2  C   UNL     1      10.414   1.906  34.530  1.00  0.00     0.000 C 
BRANCH   2   3
ATOM      3  C   UNL     1      11.552   2.798  34.009  1.00  0.00     0.000 C 
BRANCH   3   4
ATOM      4  C   UNL     1      11.178   4.295  34.020  1.00  0.00     0.000 C 
BRANCH   4   5
ATOM      5  C   UNL     1       9.695   4.561  34.343  1.00  0.00     0.000 C 
BRANCH   5   6
ATOM      6  C   UNL     1       8.876   5.167  33.187  1.00  0.00     0.006 C 
BRANCH   6   7
ATOM      7  C   UNL     1       9.708   5.528  31.944  1.00  0.00     0.053 C 
BRANCH   7   8
ATOM      8  C   UNL     1       9.682   6.999  31.663  1.00  0.00     0.041 C 
ATOM      9  O   UNL     1       9.034   7.445  30.680  1.00  0.00    -0.550 OA
ATOM     10  O   UNL     1      10.401   7.873  32.467  1.00  0.00    -0.550 OA
ENDBRANCH   7   8
ENDBRANCH   6   7
ENDBRANCH   5   6
ENDBRANCH   4   5
ENDBRANCH   3   4
ENDBRANCH   2   3
ENDBRANCH   1   2
BRANCH   1  11
ATOM     11  C   UNL     1      10.339   1.318  32.073  1.00  0.00     0.000 C 
BRANCH  11  12
ATOM     12  C   UNL     1       9.079   1.867  31.395  1.00  0.00     0.000 C 
BRANCH  12  13
ATOM     13  C   UNL     1       9.396   2.399  29.992  1.00  0.00     0.000 C 
BRANCH  13  14
ATOM     14  C   UNL     1      10.798   1.972  29.544  1.00  0.00     0.000 C 
BRANCH  14  15
ATOM     15  C   UNL     1      11.531   3.129  28.850  1.00  0.00     0.000 C 
BRANCH  15  16
ATOM     16  C   UNL     1      12.916   3.410  29.462  1.00  0.00     0.006 C 
BRANCH  16  17
ATOM     17  C   UNL     1      12.875   4.177  30.794  1.00  0.00     0.053 C 
BRANCH  17  18
ATOM     18  C   UNL     1      14.247   4.454  31.325  1.00  0.00     0.041 C 
ATOM     19  O   UNL     1      14.474   4.385  32.561  1.00  0.00    -0.550 OA
ATOM     20  O   UNL     1      15.267   4.822  30.457  1.00  0.00    -0.550 OA
ENDBRANCH  17  18
ENDBRANCH  16  17
ENDBRANCH  15  16
ENDBRANCH  14  15
ENDBRANCH  13  14
ENDBRANCH  12  13
ENDBRANCH  11  12
ENDBRANCH   1  11
TORSDOF 15
ENDMDL
