MODEL 1
REMARK VINA RESULT:    -4.693      0.000      0.000
REMARK INTER + INTRA:          -4.693
REMARK INTER:                  -4.693
REMARK INTRA:                   0.000
REMARK UNBOUND:                 0.000
REMARK SMILES C[C@@H]1CCC=C2CC[C@H]3[C@H](C3(C)C)[C@]21C
REMARK SMILES IDX 1 1 2 2 3 3 4 4 5 5 6 6 14 7 10 8 9 9 11 10 12 11 13 12 8 13
REMARK SMILES IDX 7 14 15 15
REMARK H PARENT
REMARK Flexibility Score: inf
ROOT
ATOM      1  C   UNL     1      20.953  64.834  12.751  1.00  0.00     0.008 C 
ATOM      2  C   UNL     1      21.145  63.767  13.858  1.00  0.00    -0.004 C 
ATOM      3  C   UNL     1      19.940  62.806  13.860  1.00  0.00     0.008 C 
ATOM      4  C   UNL     1      18.674  63.539  14.293  1.00  0.00     0.027 C 
ATOM      5  C   UNL     1      18.887  64.300  15.570  1.00  0.00    -0.027 C 
ATOM      6  C   UNL     1      20.101  64.713  16.012  1.00  0.00    -0.068 C 
ATOM      7  C   UNL     1      21.416  64.334  15.315  1.00  0.00    -0.005 C 
ATOM      8  C   UNL     1      22.107  63.177  16.146  1.00  0.00     0.009 C 
ATOM      9  C   UNL     1      21.602  62.935  17.595  1.00  0.00    -0.000 C 
ATOM     10  C   UNL     1      23.078  63.284  17.354  1.00  0.00    -0.028 C 
ATOM     11  C   UNL     1      24.036  62.091  17.490  1.00  0.00     0.012 C 
ATOM     12  C   UNL     1      23.644  64.605  17.904  1.00  0.00     0.012 C 
ATOM     13  C   UNL     1      20.685  63.974  18.301  1.00  0.00     0.009 C 
ATOM     14  C   UNL     1      20.203  65.153  17.443  1.00  0.00     0.031 C 
ATOM     15  C   UNL     1      22.347  65.572  15.190  1.00  0.00     0.017 C 
ENDROOT
TORSDOF 0
ENDMDL
MODEL 2
REMARK VINA RESULT:    -4.576      1.164      4.525
REMARK INTER + INTRA:          -4.576
REMARK INTER:                  -4.576
REMARK INTRA:                   0.000
REMARK UNBOUND:                 0.000
REMARK SMILES C[C@@H]1CCC=C2CC[C@H]3[C@H](C3(C)C)[C@]21C
REMARK SMILES IDX 1 1 2 2 3 3 4 4 5 5 6 6 14 7 10 8 9 9 11 10 12 11 13 12 8 13
REMARK SMILES IDX 7 14 15 15
REMARK H PARENT
REMARK Flexibility Score: inf
ROOT
ATOM      1  C   UNL     1      23.167  65.014  18.700  1.00  0.00     0.008 C 
ATOM      2  C   UNL     1      21.955  64.277  18.075  1.00  0.00    -0.004 C 
ATOM      3  C   UNL     1      22.072  62.766  18.354  1.00  0.00     0.008 C 
ATOM      4  C   UNL     1      23.265  62.176  17.609  1.00  0.00     0.027 C 
ATOM      5  C   UNL     1      23.253  62.560  16.156  1.00  0.00    -0.027 C 
ATOM      6  C   UNL     1      22.611  63.650  15.667  1.00  0.00    -0.068 C 
ATOM      7  C   UNL     1      21.714  64.548  16.529  1.00  0.00    -0.005 C 
ATOM      8  C   UNL     1      20.203  64.189  16.223  1.00  0.00     0.009 C 
ATOM      9  C   UNL     1      19.908  63.369  14.936  1.00  0.00    -0.000 C 
ATOM     10  C   UNL     1      19.266  64.753  15.119  1.00  0.00    -0.028 C 
ATOM     11  C   UNL     1      17.775  64.711  15.487  1.00  0.00     0.012 C 
ATOM     12  C   UNL     1      19.641  65.895  14.158  1.00  0.00     0.012 C 
ATOM     13  C   UNL     1      21.000  63.181  13.846  1.00  0.00     0.009 C 
ATOM     14  C   UNL     1      22.400  63.718  14.182  1.00  0.00     0.031 C 
ATOM     15  C   UNL     1      22.006  66.048  16.247  1.00  0.00     0.017 C 
ENDROOT
TORSDOF 0
ENDMDL
MODEL 3
REMARK VINA RESULT:    -4.511      1.094      4.552
REMARK INTER + INTRA:          -4.511
REMARK INTER:                  -4.511
REMARK INTRA:                   0.000
REMARK UNBOUND:                 0.000
REMARK SMILES C[C@@H]1CCC=C2CC[C@H]3[C@H](C3(C)C)[C@]21C
REMARK SMILES IDX 1 1 2 2 3 3 4 4 5 5 6 6 14 7 10 8 9 9 11 10 12 11 13 12 8 13
REMARK SMILES IDX 7 14 15 15
REMARK H PARENT
REMARK Flexibility Score: inf
ROOT
ATOM      1  C   UNL     1      22.085  63.239  19.493  1.00  0.00     0.008 C 
ATOM      2  C   UNL     1      22.054  62.870  17.988  1.00  0.00    -0.004 C 
ATOM      3  C   UNL     1      23.457  62.415  17.540  1.00  0.00     0.008 C 
ATOM      4  C   UNL     1      24.439  63.581  17.597  1.00  0.00     0.027 C 
ATOM      5  C   UNL     1      23.902  64.790  16.886  1.00  0.00    -0.027 C 
ATOM      6  C   UNL     1      22.582  65.018  16.671  1.00  0.00    -0.068 C 
ATOM      7  C   UNL     1      21.491  63.995  17.020  1.00  0.00    -0.005 C 
ATOM      8  C   UNL     1      21.033  63.277  15.686  1.00  0.00     0.009 C 
ATOM      9  C   UNL     1      21.423  63.948  14.340  1.00  0.00    -0.000 C 
ATOM     10  C   UNL     1      19.942  63.707  14.666  1.00  0.00    -0.028 C 
ATOM     11  C   UNL     1      19.312  62.535  13.898  1.00  0.00     0.012 C 
ATOM     12  C   UNL     1      19.001  64.911  14.852  1.00  0.00     0.012 C 
ATOM     13  C   UNL     1      21.962  65.406  14.305  1.00  0.00     0.009 C 
ATOM     14  C   UNL     1      22.217  66.071  15.667  1.00  0.00     0.031 C 
ATOM     15  C   UNL     1      20.294  64.691  17.727  1.00  0.00     0.017 C 
ENDROOT
TORSDOF 0
ENDMDL
MODEL 4
REMARK VINA RESULT:    -4.297      1.835      4.469
REMARK INTER + INTRA:          -4.297
REMARK INTER:                  -4.297
REMARK INTRA:                   0.000
REMARK UNBOUND:                 0.000
REMARK SMILES C[C@@H]1CCC=C2CC[C@H]3[C@H](C3(C)C)[C@]21C
REMARK SMILES IDX 1 1 2 2 3 3 4 4 5 5 6 6 14 7 10 8 9 9 11 10 12 11 13 12 8 13
REMARK SMILES IDX 7 14 15 15
REMARK H PARENT
REMARK Flexibility Score: inf
ROOT
ATOM      1  C   UNL     1      24.659  61.832  15.909  1.00  0.00     0.008 C 
ATOM      2  C   UNL     1      23.590  62.110  14.823  1.00  0.00    -0.004 C 
ATOM      3  C   UNL     1      24.279  62.293  13.457  1.00  0.00     0.008 C 
ATOM      4  C   UNL     1      25.125  63.562  13.452  1.00  0.00     0.027 C 
ATOM      5  C   UNL     1      24.342  64.749  13.937  1.00  0.00    -0.027 C 
ATOM      6  C   UNL     1      23.248  64.659  14.733  1.00  0.00    -0.068 C 
ATOM      7  C   UNL     1      22.607  63.320  15.125  1.00  0.00    -0.005 C 
ATOM      8  C   UNL     1      21.314  63.104  14.238  1.00  0.00     0.009 C 
ATOM      9  C   UNL     1      20.740  64.342  13.495  1.00  0.00    -0.000 C 
ATOM     10  C   UNL     1      19.858  63.581  14.496  1.00  0.00    -0.028 C 
ATOM     11  C   UNL     1      18.788  62.694  13.843  1.00  0.00     0.012 C 
ATOM     12  C   UNL     1      19.387  64.286  15.780  1.00  0.00     0.012 C 
ATOM     13  C   UNL     1      21.222  65.777  13.851  1.00  0.00     0.009 C 
ATOM     14  C   UNL     1      22.380  65.878  14.855  1.00  0.00     0.031 C 
ATOM     15  C   UNL     1      22.263  63.300  16.640  1.00  0.00     0.017 C 
ENDROOT
TORSDOF 0
ENDMDL
MODEL 5
REMARK VINA RESULT:    -4.236      1.850      4.230
REMARK INTER + INTRA:          -4.236
REMARK INTER:                  -4.236
REMARK INTRA:                   0.000
REMARK UNBOUND:                 0.000
REMARK SMILES C[C@@H]1CCC=C2CC[C@H]3[C@H](C3(C)C)[C@]21C
REMARK SMILES IDX 1 1 2 2 3 3 4 4 5 5 6 6 14 7 10 8 9 9 11 10 12 11 13 12 8 13
REMARK SMILES IDX 7 14 15 15
REMARK H PARENT
REMARK Flexibility Score: inf
ROOT
ATOM      1  C   UNL     1      20.191  63.373  18.007  1.00  0.00     0.008 C 
ATOM      2  C   UNL     1      21.664  62.902  17.913  1.00  0.00    -0.004 C 
ATOM      3  C   UNL     1      22.434  63.363  19.165  1.00  0.00     0.008 C 
ATOM      4  C   UNL     1      22.552  64.884  19.189  1.00  0.00     0.027 C 
ATOM      5  C   UNL     1      23.074  65.417  17.885  1.00  0.00    -0.027 C 
ATOM      6  C   UNL     1      22.977  64.757  16.705  1.00  0.00    -0.068 C 
ATOM      7  C   UNL     1      22.434  63.325  16.590  1.00  0.00    -0.005 C 
ATOM      8  C   UNL     1      23.659  62.337  16.426  1.00  0.00     0.009 C 
ATOM      9  C   UNL     1      25.030  62.953  16.032  1.00  0.00    -0.000 C 
ATOM     10  C   UNL     1      24.389  61.887  15.130  1.00  0.00    -0.028 C 
ATOM     11  C   UNL     1      25.044  60.501  15.233  1.00  0.00     0.012 C 
ATOM     12  C   UNL     1      23.948  62.266  13.706  1.00  0.00     0.012 C 
ATOM     13  C   UNL     1      25.125  64.418  15.520  1.00  0.00     0.009 C 
ATOM     14  C   UNL     1      23.829  65.243  15.569  1.00  0.00     0.031 C 
ATOM     15  C   UNL     1      21.449  63.206  15.395  1.00  0.00     0.017 C 
ENDROOT
TORSDOF 0
ENDMDL
MODEL 6
REMARK VINA RESULT:    -4.206      1.697      2.885
REMARK INTER + INTRA:          -4.206
REMARK INTER:                  -4.206
REMARK INTRA:                   0.000
REMARK UNBOUND:                 0.000
REMARK SMILES C[C@@H]1CCC=C2CC[C@H]3[C@H](C3(C)C)[C@]21C
REMARK SMILES IDX 1 1 2 2 3 3 4 4 5 5 6 6 14 7 10 8 9 9 11 10 12 11 13 12 8 13
REMARK SMILES IDX 7 14 15 15
REMARK H PARENT
REMARK Flexibility Score: inf
ROOT
ATOM      1  C   UNL     1      24.758  64.772  14.987  1.00  0.00     0.008 C 
ATOM      2  C   UNL     1      24.126  63.790  16.005  1.00  0.00    -0.004 C 
ATOM      3  C   UNL     1      23.910  62.420  15.333  1.00  0.00     0.008 C 
ATOM      4  C   UNL     1      22.852  62.523  14.239  1.00  0.00     0.027 C 
ATOM      5  C   UNL     1      21.604  63.193  14.740  1.00  0.00    -0.027 C 
ATOM      6  C   UNL     1      21.571  64.033  15.805  1.00  0.00    -0.068 C 
ATOM      7  C   UNL     1      22.790  64.292  16.701  1.00  0.00    -0.005 C 
ATOM      8  C   UNL     1      22.617  63.459  18.036  1.00  0.00     0.009 C 
ATOM      9  C   UNL     1      21.201  62.907  18.358  1.00  0.00    -0.000 C 
ATOM     10  C   UNL     1      21.890  63.855  19.351  1.00  0.00    -0.028 C 
ATOM     11  C   UNL     1      22.445  63.158  20.603  1.00  0.00     0.012 C 
ATOM     12  C   UNL     1      21.279  65.240  19.626  1.00  0.00     0.012 C 
ATOM     13  C   UNL     1      19.955  63.409  17.574  1.00  0.00     0.009 C 
ATOM     14  C   UNL     1      20.227  64.352  16.392  1.00  0.00     0.031 C 
ATOM     15  C   UNL     1      22.939  65.810  16.999  1.00  0.00     0.017 C 
ENDROOT
TORSDOF 0
ENDMDL
MODEL 7
REMARK VINA RESULT:    -4.206      1.304      2.830
REMARK INTER + INTRA:          -4.206
REMARK INTER:                  -4.206
REMARK INTRA:                   0.000
REMARK UNBOUND:                 0.000
REMARK SMILES C[C@@H]1CCC=C2CC[C@H]3[C@H](C3(C)C)[C@]21C
REMARK SMILES IDX 1 1 2 2 3 3 4 4 5 5 6 6 14 7 10 8 9 9 11 10 12 11 13 12 8 13
REMARK SMILES IDX 7 14 15 15
REMARK H PARENT
REMARK Flexibility Score: inf
ROOT
ATOM      1  C   UNL     1      19.209  63.648  14.630  1.00  0.00     0.008 C 
ATOM      2  C   UNL     1      20.240  63.355  15.749  1.00  0.00    -0.004 C 
ATOM      3  C   UNL     1      19.847  64.122  17.026  1.00  0.00     0.008 C 
ATOM      4  C   UNL     1      19.981  65.626  16.808  1.00  0.00     0.027 C 
ATOM      5  C   UNL     1      21.324  65.982  16.236  1.00  0.00    -0.027 C 
ATOM      6  C   UNL     1      22.104  65.118  15.541  1.00  0.00    -0.068 C 
ATOM      7  C   UNL     1      21.757  63.632  15.370  1.00  0.00    -0.005 C 
ATOM      8  C   UNL     1      22.649  62.791  16.370  1.00  0.00     0.009 C 
ATOM      9  C   UNL     1      23.888  63.494  16.991  1.00  0.00    -0.000 C 
ATOM     10  C   UNL     1      24.078  62.215  16.162  1.00  0.00    -0.028 C 
ATOM     11  C   UNL     1      24.371  60.961  17.000  1.00  0.00     0.012 C 
ATOM     12  C   UNL     1      24.858  62.279  14.838  1.00  0.00     0.012 C 
ATOM     13  C   UNL     1      24.402  64.847  16.422  1.00  0.00     0.009 C 
ATOM     14  C   UNL     1      23.540  65.499  15.330  1.00  0.00     0.031 C 
ATOM     15  C   UNL     1      21.980  63.183  13.899  1.00  0.00     0.017 C 
ENDROOT
TORSDOF 0
ENDMDL
MODEL 8
REMARK VINA RESULT:    -4.077      1.462      3.421
REMARK INTER + INTRA:          -4.077
REMARK INTER:                  -4.077
REMARK INTRA:                   0.000
REMARK UNBOUND:                 0.000
REMARK SMILES C[C@@H]1CCC=C2CC[C@H]3[C@H](C3(C)C)[C@]21C
REMARK SMILES IDX 1 1 2 2 3 3 4 4 5 5 6 6 14 7 10 8 9 9 11 10 12 11 13 12 8 13
REMARK SMILES IDX 7 14 15 15
REMARK H PARENT
REMARK Flexibility Score: inf
ROOT
ATOM      1  C   UNL     1      19.328  64.131  15.498  1.00  0.00     0.008 C 
ATOM      2  C   UNL     1      20.544  64.820  16.167  1.00  0.00    -0.004 C 
ATOM      3  C   UNL     1      21.498  65.351  15.080  1.00  0.00     0.008 C 
ATOM      4  C   UNL     1      22.128  64.193  14.311  1.00  0.00     0.027 C 
ATOM      5  C   UNL     1      22.722  63.173  15.240  1.00  0.00    -0.027 C 
ATOM      6  C   UNL     1      22.336  63.008  16.530  1.00  0.00    -0.068 C 
ATOM      7  C   UNL     1      21.332  63.938  17.226  1.00  0.00    -0.005 C 
ATOM      8  C   UNL     1      22.134  64.934  18.159  1.00  0.00     0.009 C 
ATOM      9  C   UNL     1      23.607  64.571  18.496  1.00  0.00    -0.000 C 
ATOM     10  C   UNL     1      22.589  64.745  19.633  1.00  0.00    -0.028 C 
ATOM     11  C   UNL     1      22.737  66.062  20.411  1.00  0.00     0.012 C 
ATOM     12  C   UNL     1      22.219  63.538  20.511  1.00  0.00     0.012 C 
ATOM     13  C   UNL     1      24.165  63.151  18.193  1.00  0.00     0.009 C 
ATOM     14  C   UNL     1      23.234  62.202  17.423  1.00  0.00     0.031 C 
ATOM     15  C   UNL     1      20.295  63.114  18.040  1.00  0.00     0.017 C 
ENDROOT
TORSDOF 0
ENDMDL
MODEL 9
REMARK VINA RESULT:    -4.047      1.647      4.473
REMARK INTER + INTRA:          -4.047
REMARK INTER:                  -4.047
REMARK INTRA:                   0.000
REMARK UNBOUND:                 0.000
REMARK SMILES C[C@@H]1CCC=C2CC[C@H]3[C@H](C3(C)C)[C@]21C
REMARK SMILES IDX 1 1 2 2 3 3 4 4 5 5 6 6 14 7 10 8 9 9 11 10 12 11 13 12 8 13
REMARK SMILES IDX 7 14 15 15
REMARK H PARENT
REMARK Flexibility Score: inf
ROOT
ATOM      1  C   UNL     1      22.630  65.669  18.582  1.00  0.00     0.008 C 
ATOM      2  C   UNL     1      21.870  64.961  17.433  1.00  0.00    -0.004 C 
ATOM      3  C   UNL     1      21.087  63.759  17.997  1.00  0.00     0.008 C 
ATOM      4  C   UNL     1      22.047  62.685  18.499  1.00  0.00     0.027 C 
ATOM      5  C   UNL     1      23.083  62.345  17.466  1.00  0.00    -0.027 C 
ATOM      6  C   UNL     1      23.454  63.179  16.463  1.00  0.00    -0.068 C 
ATOM      7  C   UNL     1      22.760  64.521  16.193  1.00  0.00    -0.005 C 
ATOM      8  C   UNL     1      21.786  64.343  14.959  1.00  0.00     0.009 C 
ATOM      9  C   UNL     1      21.986  63.088  14.063  1.00  0.00    -0.000 C 
ATOM     10  C   UNL     1      22.090  64.489  13.442  1.00  0.00    -0.028 C 
ATOM     11  C   UNL     1      20.870  64.894  12.600  1.00  0.00     0.012 C 
ATOM     12  C   UNL     1      23.434  64.964  12.864  1.00  0.00     0.012 C 
ATOM     13  C   UNL     1      23.270  62.220  14.188  1.00  0.00     0.009 C 
ATOM     14  C   UNL     1      24.235  62.587  15.325  1.00  0.00     0.031 C 
ATOM     15  C   UNL     1      23.809  65.637  15.928  1.00  0.00     0.017 C 
ENDROOT
TORSDOF 0
ENDMDL
