MODEL 1
REMARK VINA RESULT:    -4.409      0.000      0.000
REMARK INTER + INTRA:          -4.897
REMARK INTER:                  -4.925
REMARK INTRA:                   0.028
REMARK UNBOUND:                 0.028
REMARK SMILES CCCC(=O)[O-]
REMARK SMILES IDX 3 1 4 2 5 3 6 4 2 5 1 6
REMARK H PARENT
REMARK Flexibility Score: inf
ROOT
ATOM      1  C   UNL     1      49.057  53.612  42.945  1.00  0.00     0.052 C 
ENDROOT
BRANCH   1   2
ATOM      2  C   UNL     1      49.208  53.996  44.383  1.00  0.00     0.041 C 
ATOM      3  O   UNL     1      48.624  53.334  45.280  1.00  0.00    -0.550 OA
ATOM      4  O   UNL     1      49.953  55.116  44.729  1.00  0.00    -0.550 OA
ENDBRANCH   1   2
BRANCH   1   5
ATOM      5  C   UNL     1      47.968  54.455  42.277  1.00  0.00     0.003 C 
ATOM      6  C   UNL     1      48.521  55.795  41.802  1.00  0.00     0.004 C 
ENDBRANCH   1   5
TORSDOF 2
ENDMDL
MODEL 2
REMARK VINA RESULT:    -4.335      2.135      3.285
REMARK INTER + INTRA:          -4.814
REMARK INTER:                  -4.830
REMARK INTRA:                   0.016
REMARK UNBOUND:                 0.028
REMARK SMILES CCCC(=O)[O-]
REMARK SMILES IDX 3 1 4 2 5 3 6 4 2 5 1 6
REMARK H PARENT
REMARK Flexibility Score: inf
ROOT
ATOM      1  C   UNL     1      49.746  54.631  42.943  1.00  0.00     0.052 C 
ENDROOT
BRANCH   1   2
ATOM      2  C   UNL     1      48.457  55.033  42.299  1.00  0.00     0.041 C 
ATOM      3  O   UNL     1      48.231  56.243  42.036  1.00  0.00    -0.550 OA
ATOM      4  O   UNL     1      47.485  54.078  42.035  1.00  0.00    -0.550 OA
ENDBRANCH   1   2
BRANCH   1   5
ATOM      5  C   UNL     1      49.603  54.621  44.468  1.00  0.00     0.003 C 
ATOM      6  C   UNL     1      48.951  53.329  44.951  1.00  0.00     0.004 C 
ENDBRANCH   1   5
TORSDOF 2
ENDMDL
MODEL 3
REMARK VINA RESULT:    -3.975     16.950     17.192
REMARK INTER + INTRA:          -4.412
REMARK INTER:                  -4.429
REMARK INTRA:                   0.017
REMARK UNBOUND:                 0.028
REMARK SMILES CCCC(=O)[O-]
REMARK SMILES IDX 3 1 4 2 5 3 6 4 2 5 1 6
REMARK H PARENT
REMARK Flexibility Score: inf
ROOT
ATOM      1  C   UNL     1      37.920  63.061  52.804  1.00  0.00     0.052 C 
ENDROOT
BRANCH   1   2
ATOM      2  C   UNL     1      37.037  61.978  53.339  1.00  0.00     0.041 C 
ATOM      3  O   UNL     1      36.368  62.167  54.388  1.00  0.00    -0.550 OA
ATOM      4  O   UNL     1      36.992  60.742  52.706  1.00  0.00    -0.550 OA
ENDBRANCH   1   2
BRANCH   1   5
ATOM      5  C   UNL     1      37.394  63.565  51.457  1.00  0.00     0.003 C 
ATOM      6  C   UNL     1      35.882  63.766  51.496  1.00  0.00     0.004 C 
ENDBRANCH   1   5
TORSDOF 2
ENDMDL
MODEL 4
REMARK VINA RESULT:    -3.966      2.031      2.683
REMARK INTER + INTRA:          -4.402
REMARK INTER:                  -4.507
REMARK INTRA:                   0.105
REMARK UNBOUND:                 0.028
REMARK SMILES CCCC(=O)[O-]
REMARK SMILES IDX 3 1 4 2 5 3 6 4 2 5 1 6
REMARK H PARENT
REMARK Flexibility Score: inf
ROOT
ATOM      1  C   UNL     1      48.594  55.190  42.324  1.00  0.00     0.052 C 
ENDROOT
BRANCH   1   2
ATOM      2  C   UNL     1      48.097  53.795  42.536  1.00  0.00     0.041 C 
ATOM      3  O   UNL     1      46.877  53.527  42.376  1.00  0.00    -0.550 OA
ATOM      4  O   UNL     1      48.971  52.802  42.959  1.00  0.00    -0.550 OA
ENDBRANCH   1   2
BRANCH   1   5
ATOM      5  C   UNL     1      49.986  55.362  42.938  1.00  0.00     0.003 C 
ATOM      6  C   UNL     1      49.909  55.466  44.458  1.00  0.00     0.004 C 
ENDBRANCH   1   5
TORSDOF 2
ENDMDL
MODEL 5
REMARK VINA RESULT:    -3.712     17.007     17.345
REMARK INTER + INTRA:          -4.118
REMARK INTER:                  -4.107
REMARK INTRA:                  -0.011
REMARK UNBOUND:                 0.028
REMARK SMILES CCCC(=O)[O-]
REMARK SMILES IDX 3 1 4 2 5 3 6 4 2 5 1 6
REMARK H PARENT
REMARK Flexibility Score: inf
ROOT
ATOM      1  C   UNL     1      36.434  63.148  53.000  1.00  0.00     0.052 C 
ENDROOT
BRANCH   1   2
ATOM      2  C   UNL     1      36.536  63.198  51.508  1.00  0.00     0.041 C 
ATOM      3  O   UNL     1      37.491  63.809  50.959  1.00  0.00    -0.550 OA
ATOM      4  O   UNL     1      35.552  62.612  50.723  1.00  0.00    -0.550 OA
ENDBRANCH   1   2
BRANCH   1   5
ATOM      5  C   UNL     1      37.295  62.012  53.559  1.00  0.00     0.003 C 
ATOM      6  C   UNL     1      36.694  60.650  53.225  1.00  0.00     0.004 C 
ENDBRANCH   1   5
TORSDOF 2
ENDMDL
MODEL 6
REMARK VINA RESULT:    -3.229      9.742     10.032
REMARK INTER + INTRA:          -3.579
REMARK INTER:                  -3.545
REMARK INTRA:                  -0.034
REMARK UNBOUND:                 0.028
REMARK SMILES CCCC(=O)[O-]
REMARK SMILES IDX 3 1 4 2 5 3 6 4 2 5 1 6
REMARK H PARENT
REMARK Flexibility Score: inf
ROOT
ATOM      1  C   UNL     1      42.098  59.679  48.371  1.00  0.00     0.052 C 
ENDROOT
BRANCH   1   2
ATOM      2  C   UNL     1      43.068  60.482  49.179  1.00  0.00     0.041 C 
ATOM      3  O   UNL     1      42.664  61.452  49.872  1.00  0.00    -0.550 OA
ATOM      4  O   UNL     1      44.425  60.190  49.128  1.00  0.00    -0.550 OA
ENDBRANCH   1   2
BRANCH   1   5
ATOM      5  C   UNL     1      41.681  58.418  49.133  1.00  0.00     0.003 C 
ATOM      6  C   UNL     1      42.563  57.230  48.758  1.00  0.00     0.004 C 
ENDBRANCH   1   5
TORSDOF 2
ENDMDL
MODEL 7
REMARK VINA RESULT:    -3.205      9.221      9.411
REMARK INTER + INTRA:          -3.552
REMARK INTER:                  -3.514
REMARK INTRA:                  -0.038
REMARK UNBOUND:                 0.028
REMARK SMILES CCCC(=O)[O-]
REMARK SMILES IDX 3 1 4 2 5 3 6 4 2 5 1 6
REMARK H PARENT
REMARK Flexibility Score: inf
ROOT
ATOM      1  C   UNL     1      42.533  59.530  48.340  1.00  0.00     0.052 C 
ENDROOT
BRANCH   1   2
ATOM      2  C   UNL     1      43.322  60.430  49.239  1.00  0.00     0.041 C 
ATOM      3  O   UNL     1      44.523  60.162  49.507  1.00  0.00    -0.550 OA
ATOM      4  O   UNL     1      42.717  61.536  49.819  1.00  0.00    -0.550 OA
ENDBRANCH   1   2
BRANCH   1   5
ATOM      5  C   UNL     1      42.990  59.688  46.888  1.00  0.00     0.003 C 
ATOM      6  C   UNL     1      43.808  58.483  46.432  1.00  0.00     0.004 C 
ENDBRANCH   1   5
TORSDOF 2
ENDMDL
MODEL 8
REMARK VINA RESULT:    -3.198      8.005      8.424
REMARK INTER + INTRA:          -3.544
REMARK INTER:                  -3.477
REMARK INTRA:                  -0.067
REMARK UNBOUND:                 0.028
REMARK SMILES CCCC(=O)[O-]
REMARK SMILES IDX 3 1 4 2 5 3 6 4 2 5 1 6
REMARK H PARENT
REMARK Flexibility Score: inf
ROOT
ATOM      1  C   UNL     1      43.470  56.999  47.920  1.00  0.00     0.052 C 
ENDROOT
BRANCH   1   2
ATOM      2  C   UNL     1      43.343  57.751  46.633  1.00  0.00     0.041 C 
ATOM      3  O   UNL     1      44.011  58.803  46.446  1.00  0.00    -0.550 OA
ATOM      4  O   UNL     1      42.451  57.320  45.660  1.00  0.00    -0.550 OA
ENDBRANCH   1   2
BRANCH   1   5
ATOM      5  C   UNL     1      43.105  57.898  49.105  1.00  0.00     0.003 C 
ATOM      6  C   UNL     1      41.594  58.088  49.208  1.00  0.00     0.004 C 
ENDBRANCH   1   5
TORSDOF 2
ENDMDL
MODEL 9
REMARK VINA RESULT:    -3.173      8.058      8.208
REMARK INTER + INTRA:          -3.516
REMARK INTER:                  -3.451
REMARK INTRA:                  -0.065
REMARK UNBOUND:                 0.028
REMARK SMILES CCCC(=O)[O-]
REMARK SMILES IDX 3 1 4 2 5 3 6 4 2 5 1 6
REMARK H PARENT
REMARK Flexibility Score: inf
ROOT
ATOM      1  C   UNL     1      43.752  59.127  46.874  1.00  0.00     0.052 C 
ENDROOT
BRANCH   1   2
ATOM      2  C   UNL     1      44.262  58.074  47.806  1.00  0.00     0.041 C 
ATOM      3  O   UNL     1      43.802  56.903  47.750  1.00  0.00    -0.550 OA
ATOM      4  O   UNL     1      45.209  58.396  48.769  1.00  0.00    -0.550 OA
ENDBRANCH   1   2
BRANCH   1   5
ATOM      5  C   UNL     1      42.277  59.427  47.159  1.00  0.00     0.003 C 
ATOM      6  C   UNL     1      42.122  60.289  48.408  1.00  0.00     0.004 C 
ENDBRANCH   1   5
TORSDOF 2
ENDMDL
