MODEL 1
REMARK VINA RESULT:    12.537      0.000      0.000
REMARK INTER + INTRA:          14.226
REMARK INTER:                  14.370
REMARK INTRA:                  -0.143
REMARK UNBOUND:                -0.143
REMARK SMILES COc1ccc(C(C)=O)c(O)c1
REMARK SMILES IDX 6 1 10 2 12 3 3 4 4 5 5 6 7 7 8 8 9 9 11 10 2 12 1 13
REMARK H PARENT 11 11
REMARK Flexibility Score: inf
ROOT
ATOM      1  C   UNL     1       9.715  70.562   5.071  1.00  0.00     0.059 A 
ATOM      2  C   UNL     1      10.993  70.084   4.697  1.00  0.00     0.130 A 
ATOM      3  C   UNL     1      11.123  69.214   3.604  1.00  0.00     0.093 A 
ATOM      4  C   UNL     1      10.006  68.821   2.862  1.00  0.00     0.122 A 
ATOM      5  C   UNL     1       8.739  69.310   3.220  1.00  0.00     0.047 A 
ATOM      6  C   UNL     1       8.599  70.172   4.309  1.00  0.00     0.019 A 
ENDROOT
BRANCH   1   7
ATOM      7  C   UNL     1       9.509  71.472   6.229  1.00  0.00     0.163 C 
ATOM      8  C   UNL     1       9.572  70.993   7.650  1.00  0.00     0.093 C 
ATOM      9  O   UNL     1       9.271  72.693   6.023  1.00  0.00    -0.294 OA
ENDBRANCH   1   7
BRANCH   2  10
ATOM     10  O   UNL     1      12.137  70.483   5.388  1.00  0.00    -0.507 OA
ATOM     11  H   UNL     1      13.064  70.198   5.094  1.00  0.00     0.293 HD
ENDBRANCH   2  10
BRANCH   4  12
ATOM     12  O   UNL     1      10.198  67.951   1.778  1.00  0.00    -0.497 OA
ATOM     13  C   UNL     1       9.321  66.879   1.442  1.00  0.00     0.278 C 
ENDBRANCH   4  12
TORSDOF 3
ENDMDL
MODEL 2
REMARK VINA RESULT:    12.826      1.249      4.578
REMARK INTER + INTRA:          14.557
REMARK INTER:                  14.891
REMARK INTRA:                  -0.334
REMARK UNBOUND:                -0.143
REMARK SMILES COc1ccc(C(C)=O)c(O)c1
REMARK SMILES IDX 6 1 10 2 12 3 3 4 4 5 5 6 7 7 8 8 9 9 11 10 2 12 1 13
REMARK H PARENT 11 11
REMARK Flexibility Score: inf
ROOT
ATOM      1  C   UNL     1       9.813  69.730   3.439  1.00  0.00     0.059 A 
ATOM      2  C   UNL     1      10.914  69.720   4.327  1.00  0.00     0.130 A 
ATOM      3  C   UNL     1      10.792  70.298   5.599  1.00  0.00     0.093 A 
ATOM      4  C   UNL     1       9.590  70.875   6.015  1.00  0.00     0.122 A 
ATOM      5  C   UNL     1       8.490  70.871   5.141  1.00  0.00     0.047 A 
ATOM      6  C   UNL     1       8.603  70.301   3.870  1.00  0.00     0.019 A 
ENDROOT
BRANCH   1   7
ATOM      7  C   UNL     1       9.884  69.150   2.071  1.00  0.00     0.163 C 
ATOM      8  C   UNL     1       9.518  69.932   0.845  1.00  0.00     0.093 C 
ATOM      9  O   UNL     1      10.262  67.955   1.925  1.00  0.00    -0.294 OA
ENDBRANCH   1   7
BRANCH   2  10
ATOM     10  O   UNL     1      12.119  69.119   3.965  1.00  0.00    -0.507 OA
ATOM     11  H   UNL     1      12.504  68.340   4.486  1.00  0.00     0.293 HD
ENDBRANCH   2  10
BRANCH   4  12
ATOM     12  O   UNL     1       9.528  71.437   7.299  1.00  0.00    -0.497 OA
ATOM     13  C   UNL     1       9.537  70.683   8.507  1.00  0.00     0.278 C 
ENDBRANCH   4  12
TORSDOF 3
ENDMDL
MODEL 3
REMARK VINA RESULT:    12.996      1.634      4.945
REMARK INTER + INTRA:          14.753
REMARK INTER:                  14.839
REMARK INTRA:                  -0.086
REMARK UNBOUND:                -0.143
REMARK SMILES COc1ccc(C(C)=O)c(O)c1
REMARK SMILES IDX 6 1 10 2 12 3 3 4 4 5 5 6 7 7 8 8 9 9 11 10 2 12 1 13
REMARK H PARENT 11 11
REMARK Flexibility Score: inf
ROOT
ATOM      1  C   UNL     1       9.929  69.745   3.576  1.00  0.00     0.059 A 
ATOM      2  C   UNL     1       8.779  70.127   4.306  1.00  0.00     0.130 A 
ATOM      3  C   UNL     1       8.910  70.607   5.618  1.00  0.00     0.093 A 
ATOM      4  C   UNL     1      10.167  70.730   6.216  1.00  0.00     0.122 A 
ATOM      5  C   UNL     1      11.311  70.369   5.486  1.00  0.00     0.047 A 
ATOM      6  C   UNL     1      11.191  69.886   4.181  1.00  0.00     0.019 A 
ENDROOT
BRANCH   1   7
ATOM      7  C   UNL     1       9.855  69.213   2.189  1.00  0.00     0.163 C 
ATOM      8  C   UNL     1       9.443  70.061   1.022  1.00  0.00     0.093 C 
ATOM      9  O   UNL     1      10.147  68.005   1.974  1.00  0.00    -0.294 OA
ENDBRANCH   1   7
BRANCH   2  10
ATOM     10  O   UNL     1       7.511  70.056   3.732  1.00  0.00    -0.507 OA
ATOM     11  H   UNL     1       7.093  70.850   3.261  1.00  0.00     0.293 HD
ENDBRANCH   2  10
BRANCH   4  12
ATOM     12  O   UNL     1      10.235  71.217   7.530  1.00  0.00    -0.497 OA
ATOM     13  C   UNL     1       9.411  70.763   8.600  1.00  0.00     0.278 C 
ENDBRANCH   4  12
TORSDOF 3
ENDMDL
MODEL 4
REMARK VINA RESULT:    14.402      6.257      6.982
REMARK INTER + INTRA:          16.364
REMARK INTER:                  16.692
REMARK INTRA:                  -0.328
REMARK UNBOUND:                -0.143
REMARK SMILES COc1ccc(C(C)=O)c(O)c1
REMARK SMILES IDX 6 1 10 2 12 3 3 4 4 5 5 6 7 7 8 8 9 9 11 10 2 12 1 13
REMARK H PARENT 11 11
REMARK Flexibility Score: inf
ROOT
ATOM      1  C   UNL     1      11.234  76.699   4.062  1.00  0.00     0.059 A 
ATOM      2  C   UNL     1       9.874  76.311   4.104  1.00  0.00     0.130 A 
ATOM      3  C   UNL     1       9.221  75.916   2.927  1.00  0.00     0.093 A 
ATOM      4  C   UNL     1       9.900  75.883   1.706  1.00  0.00     0.122 A 
ATOM      5  C   UNL     1      11.254  76.250   1.665  1.00  0.00     0.047 A 
ATOM      6  C   UNL     1      11.911  76.650   2.831  1.00  0.00     0.019 A 
ENDROOT
BRANCH   1   7
ATOM      7  C   UNL     1      11.976  77.145   5.271  1.00  0.00     0.163 C 
ATOM      8  C   UNL     1      12.949  78.286   5.242  1.00  0.00     0.093 C 
ATOM      9  O   UNL     1      11.790  76.548   6.366  1.00  0.00    -0.294 OA
ENDBRANCH   1   7
BRANCH   2  10
ATOM     10  O   UNL     1       9.173  76.293   5.309  1.00  0.00    -0.507 OA
ATOM     11  H   UNL     1       8.253  75.874   5.385  1.00  0.00     0.293 HD
ENDBRANCH   2  10
BRANCH   4  12
ATOM     12  O   UNL     1       9.194  75.478   0.562  1.00  0.00    -0.497 OA
ATOM     13  C   UNL     1       9.548  74.359  -0.246  1.00  0.00     0.278 C 
ENDBRANCH   4  12
TORSDOF 3
ENDMDL
MODEL 5
REMARK VINA RESULT:    14.720      6.579      7.929
REMARK INTER + INTRA:          16.728
REMARK INTER:                  17.024
REMARK INTRA:                  -0.297
REMARK UNBOUND:                -0.143
REMARK SMILES COc1ccc(C(C)=O)c(O)c1
REMARK SMILES IDX 6 1 10 2 12 3 3 4 4 5 5 6 7 7 8 8 9 9 11 10 2 12 1 13
REMARK H PARENT 11 11
REMARK Flexibility Score: inf
ROOT
ATOM      1  C   UNL     1      10.316  75.473   1.136  1.00  0.00     0.059 A 
ATOM      2  C   UNL     1      11.721  75.614   1.225  1.00  0.00     0.130 A 
ATOM      3  C   UNL     1      12.291  76.265   2.328  1.00  0.00     0.093 A 
ATOM      4  C   UNL     1      11.492  76.769   3.357  1.00  0.00     0.122 A 
ATOM      5  C   UNL     1      10.098  76.614   3.280  1.00  0.00     0.047 A 
ATOM      6  C   UNL     1       9.520  75.971   2.183  1.00  0.00     0.019 A 
ENDROOT
BRANCH   1   7
ATOM      7  C   UNL     1       9.649  74.809  -0.016  1.00  0.00     0.163 C 
ATOM      8  C   UNL     1       8.240  75.124  -0.422  1.00  0.00     0.093 C 
ATOM      9  O   UNL     1      10.282  73.945  -0.683  1.00  0.00    -0.294 OA
ENDBRANCH   1   7
BRANCH   2  10
ATOM     10  O   UNL     1      12.555  75.091   0.237  1.00  0.00    -0.507 OA
ATOM     11  H   UNL     1      12.296  74.274  -0.303  1.00  0.00     0.293 HD
ENDBRANCH   2  10
BRANCH   4  12
ATOM     12  O   UNL     1      12.120  77.410   4.436  1.00  0.00    -0.497 OA
ATOM     13  C   UNL     1      11.969  77.024   5.799  1.00  0.00     0.278 C 
ENDBRANCH   4  12
TORSDOF 3
ENDMDL
