MODEL 1
REMARK VINA RESULT:    -2.794      0.000      0.000
REMARK INTER + INTRA:          -3.691
REMARK INTER:                  -3.447
REMARK INTRA:                  -0.244
REMARK UNBOUND:                -0.244
REMARK SMILES CCCCC(=O)CC
REMARK SMILES IDX 4 1 3 2 2 3 1 4 5 5 6 6 7 7 8 8
REMARK H PARENT
REMARK Flexibility Score: inf
ROOT
ATOM      1  C   UNL     1     171.039 159.994 170.153  1.00  0.00     0.075 C 
ENDROOT
BRANCH   1   2
ATOM      2  C   UNL     1     169.715 159.245 170.361  1.00  0.00     0.008 C 
BRANCH   2   3
ATOM      3  C   UNL     1     168.528 159.940 169.677  1.00  0.00    -0.003 C 
ATOM      4  C   UNL     1     168.081 159.227 168.401  1.00  0.00     0.004 C 
ENDBRANCH   2   3
ENDBRANCH   1   2
BRANCH   1   5
ATOM      5  C   UNL     1     171.849 159.344 169.063  1.00  0.00     0.132 C 
ATOM      6  O   UNL     1     172.712 159.993 168.489  1.00  0.00    -0.300 OA
BRANCH   5   7
ATOM      7  C   UNL     1     171.632 157.903 168.680  1.00  0.00     0.072 C 
ATOM      8  C   UNL     1     172.717 157.430 167.717  1.00  0.00     0.012 C 
ENDBRANCH   5   7
ENDBRANCH   1   5
TORSDOF 4
ENDMDL
MODEL 2
REMARK VINA RESULT:    -2.727     15.320     17.151
REMARK INTER + INTRA:          -3.608
REMARK INTER:                  -3.324
REMARK INTRA:                  -0.284
REMARK UNBOUND:                -0.244
REMARK SMILES CCCCC(=O)CC
REMARK SMILES IDX 4 1 3 2 2 3 1 4 5 5 6 6 7 7 8 8
REMARK H PARENT
REMARK Flexibility Score: inf
ROOT
ATOM      1  C   UNL     1     160.061 171.275 170.166  1.00  0.00     0.075 C 
ENDROOT
BRANCH   1   2
ATOM      2  C   UNL     1     161.366 172.082 170.221  1.00  0.00     0.008 C 
BRANCH   2   3
ATOM      3  C   UNL     1     162.523 171.386 169.487  1.00  0.00    -0.003 C 
ATOM      4  C   UNL     1     163.026 172.186 168.286  1.00  0.00     0.004 C 
ENDBRANCH   2   3
ENDBRANCH   1   2
BRANCH   1   5
ATOM      5  C   UNL     1     159.090 171.906 169.203  1.00  0.00     0.132 C 
ATOM      6  O   UNL     1     158.461 171.192 168.434  1.00  0.00    -0.300 OA
BRANCH   5   7
ATOM      7  C   UNL     1     158.861 173.394 169.184  1.00  0.00     0.072 C 
ATOM      8  C   UNL     1     159.130 173.964 167.795  1.00  0.00     0.012 C 
ENDBRANCH   5   7
ENDBRANCH   1   5
TORSDOF 4
ENDMDL
MODEL 3
REMARK VINA RESULT:    -2.714      1.287      1.576
REMARK INTER + INTRA:          -3.592
REMARK INTER:                  -3.471
REMARK INTRA:                  -0.121
REMARK UNBOUND:                -0.244
REMARK SMILES CCCCC(=O)CC
REMARK SMILES IDX 4 1 3 2 2 3 1 4 5 5 6 6 7 7 8 8
REMARK H PARENT
REMARK Flexibility Score: inf
ROOT
ATOM      1  C   UNL     1     170.626 159.148 169.187  1.00  0.00     0.075 C 
ENDROOT
BRANCH   1   2
ATOM      2  C   UNL     1     169.747 159.840 170.239  1.00  0.00     0.008 C 
BRANCH   2   3
ATOM      3  C   UNL     1     168.296 160.025 169.767  1.00  0.00    -0.003 C 
ATOM      4  C   UNL     1     168.001 159.283 168.463  1.00  0.00     0.004 C 
ENDBRANCH   2   3
ENDBRANCH   1   2
BRANCH   1   5
ATOM      5  C   UNL     1     172.075 159.496 169.399  1.00  0.00     0.132 C 
ATOM      6  O   UNL     1     172.715 159.982 168.476  1.00  0.00    -0.300 OA
BRANCH   5   7
ATOM      7  C   UNL     1     172.747 159.278 170.729  1.00  0.00     0.072 C 
ATOM      8  C   UNL     1     173.425 157.912 170.775  1.00  0.00     0.012 C 
ENDBRANCH   5   7
ENDBRANCH   1   5
TORSDOF 4
ENDMDL
MODEL 4
REMARK VINA RESULT:    -2.681      7.801      8.464
REMARK INTER + INTRA:          -3.552
REMARK INTER:                  -3.495
REMARK INTRA:                  -0.057
REMARK UNBOUND:                -0.244
REMARK SMILES CCCCC(=O)CC
REMARK SMILES IDX 4 1 3 2 2 3 1 4 5 5 6 6 7 7 8 8
REMARK H PARENT
REMARK Flexibility Score: inf
ROOT
ATOM      1  C   UNL     1     167.900 166.355 169.866  1.00  0.00     0.075 C 
ENDROOT
BRANCH   1   2
ATOM      2  C   UNL     1     166.985 165.715 168.813  1.00  0.00     0.008 C 
BRANCH   2   3
ATOM      3  C   UNL     1     165.534 165.571 169.300  1.00  0.00    -0.003 C 
ATOM      4  C   UNL     1     164.513 166.018 168.255  1.00  0.00     0.004 C 
ENDBRANCH   2   3
ENDBRANCH   1   2
BRANCH   1   5
ATOM      5  C   UNL     1     169.060 167.052 169.204  1.00  0.00     0.132 C 
ATOM      6  O   UNL     1     169.453 166.658 168.115  1.00  0.00    -0.300 OA
BRANCH   5   7
ATOM      7  C   UNL     1     169.732 168.237 169.847  1.00  0.00     0.072 C 
ATOM      8  C   UNL     1     170.692 168.909 168.872  1.00  0.00     0.012 C 
ENDBRANCH   5   7
ENDBRANCH   1   5
TORSDOF 4
ENDMDL
MODEL 5
REMARK VINA RESULT:    -2.659      2.617      3.759
REMARK INTER + INTRA:          -3.525
REMARK INTER:                  -3.273
REMARK INTRA:                  -0.252
REMARK UNBOUND:                -0.244
REMARK SMILES CCCCC(=O)CC
REMARK SMILES IDX 4 1 3 2 2 3 1 4 5 5 6 6 7 7 8 8
REMARK H PARENT
REMARK Flexibility Score: inf
ROOT
ATOM      1  C   UNL     1     168.173 159.324 168.616  1.00  0.00     0.075 C 
ENDROOT
BRANCH   1   2
ATOM      2  C   UNL     1     169.268 159.616 169.652  1.00  0.00     0.008 C 
BRANCH   2   3
ATOM      3  C   UNL     1     170.664 159.190 169.170  1.00  0.00    -0.003 C 
ATOM      4  C   UNL     1     171.785 159.745 170.049  1.00  0.00     0.004 C 
ENDBRANCH   2   3
ENDBRANCH   1   2
BRANCH   1   5
ATOM      5  C   UNL     1     167.991 157.839 168.443  1.00  0.00     0.132 C 
ATOM      6  O   UNL     1     167.661 157.160 169.405  1.00  0.00    -0.300 OA
BRANCH   5   7
ATOM      7  C   UNL     1     168.187 157.177 167.105  1.00  0.00     0.072 C 
ATOM      8  C   UNL     1     169.444 156.314 167.106  1.00  0.00     0.012 C 
ENDBRANCH   5   7
ENDBRANCH   1   5
TORSDOF 4
ENDMDL
MODEL 6
REMARK VINA RESULT:    -2.645     15.360     17.225
REMARK INTER + INTRA:          -3.508
REMARK INTER:                  -3.400
REMARK INTRA:                  -0.108
REMARK UNBOUND:                -0.244
REMARK SMILES CCCCC(=O)CC
REMARK SMILES IDX 4 1 3 2 2 3 1 4 5 5 6 6 7 7 8 8
REMARK H PARENT
REMARK Flexibility Score: inf
ROOT
ATOM      1  C   UNL     1     160.391 171.330 170.110  1.00  0.00     0.075 C 
ENDROOT
BRANCH   1   2
ATOM      2  C   UNL     1     161.344 172.237 169.318  1.00  0.00     0.008 C 
BRANCH   2   3
ATOM      3  C   UNL     1     162.753 171.638 169.183  1.00  0.00    -0.003 C 
ATOM      4  C   UNL     1     163.417 171.988 167.851  1.00  0.00     0.004 C 
ENDBRANCH   2   3
ENDBRANCH   1   2
BRANCH   1   5
ATOM      5  C   UNL     1     158.959 171.624 169.748  1.00  0.00     0.132 C 
ATOM      6  O   UNL     1     158.526 171.249 168.667  1.00  0.00    -0.300 OA
BRANCH   5   7
ATOM      7  C   UNL     1     158.044 172.351 170.698  1.00  0.00     0.072 C 
ATOM      8  C   UNL     1     157.972 173.835 170.351  1.00  0.00     0.012 C 
ENDBRANCH   5   7
ENDBRANCH   1   5
TORSDOF 4
ENDMDL
MODEL 7
REMARK VINA RESULT:    -2.613     15.381     16.583
REMARK INTER + INTRA:          -3.468
REMARK INTER:                  -3.221
REMARK INTRA:                  -0.247
REMARK UNBOUND:                -0.244
REMARK SMILES CCCCC(=O)CC
REMARK SMILES IDX 4 1 3 2 2 3 1 4 5 5 6 6 7 7 8 8
REMARK H PARENT
REMARK Flexibility Score: inf
ROOT
ATOM      1  C   UNL     1     162.924 171.931 168.804  1.00  0.00     0.075 C 
ENDROOT
BRANCH   1   2
ATOM      2  C   UNL     1     161.748 171.689 169.761  1.00  0.00     0.008 C 
BRANCH   2   3
ATOM      3  C   UNL     1     160.395 172.077 169.144  1.00  0.00    -0.003 C 
ATOM      4  C   UNL     1     159.208 171.524 169.932  1.00  0.00     0.004 C 
ENDBRANCH   2   3
ENDBRANCH   1   2
BRANCH   1   5
ATOM      5  C   UNL     1     163.068 173.399 168.504  1.00  0.00     0.132 C 
ATOM      6  O   UNL     1     163.291 174.178 169.421  1.00  0.00    -0.300 OA
BRANCH   5   7
ATOM      7  C   UNL     1     162.965 173.926 167.097  1.00  0.00     0.072 C 
ATOM      8  C   UNL     1     161.801 174.903 166.969  1.00  0.00     0.012 C 
ENDBRANCH   5   7
ENDBRANCH   1   5
TORSDOF 4
ENDMDL
MODEL 8
REMARK VINA RESULT:    -2.608     15.251     16.845
REMARK INTER + INTRA:          -3.462
REMARK INTER:                  -3.197
REMARK INTRA:                  -0.265
REMARK UNBOUND:                -0.244
REMARK SMILES CCCCC(=O)CC
REMARK SMILES IDX 4 1 3 2 2 3 1 4 5 5 6 6 7 7 8 8
REMARK H PARENT
REMARK Flexibility Score: inf
ROOT
ATOM      1  C   UNL     1     163.094 173.656 168.265  1.00  0.00     0.075 C 
ENDROOT
BRANCH   1   2
ATOM      2  C   UNL     1     163.156 172.122 168.256  1.00  0.00     0.008 C 
BRANCH   2   3
ATOM      3  C   UNL     1     162.373 171.493 169.420  1.00  0.00    -0.003 C 
ATOM      4  C   UNL     1     160.907 171.926 169.447  1.00  0.00     0.004 C 
ENDBRANCH   2   3
ENDBRANCH   1   2
BRANCH   1   5
ATOM      5  C   UNL     1     163.132 174.194 166.859  1.00  0.00     0.132 C 
ATOM      6  O   UNL     1     164.052 173.872 166.119  1.00  0.00    -0.300 OA
BRANCH   5   7
ATOM      7  C   UNL     1     162.051 175.104 166.339  1.00  0.00     0.072 C 
ATOM      8  C   UNL     1     160.781 174.968 167.173  1.00  0.00     0.012 C 
ENDBRANCH   5   7
ENDBRANCH   1   5
TORSDOF 4
ENDMDL
MODEL 9
REMARK VINA RESULT:    -2.538     16.277     17.960
REMARK INTER + INTRA:          -3.375
REMARK INTER:                  -3.110
REMARK INTRA:                  -0.265
REMARK UNBOUND:                -0.244
REMARK SMILES CCCCC(=O)CC
REMARK SMILES IDX 4 1 3 2 2 3 1 4 5 5 6 6 7 7 8 8
REMARK H PARENT
REMARK Flexibility Score: inf
ROOT
ATOM      1  C   UNL     1     158.885 173.419 169.081  1.00  0.00     0.075 C 
ENDROOT
BRANCH   1   2
ATOM      2  C   UNL     1     158.426 173.803 167.667  1.00  0.00     0.008 C 
BRANCH   2   3
ATOM      3  C   UNL     1     159.365 174.819 166.996  1.00  0.00    -0.003 C 
ATOM      4  C   UNL     1     160.779 174.787 167.577  1.00  0.00     0.004 C 
ENDBRANCH   2   3
ENDBRANCH   1   2
BRANCH   1   5
ATOM      5  C   UNL     1     159.115 171.934 169.177  1.00  0.00     0.132 C 
ATOM      6  O   UNL     1     158.455 171.180 168.475  1.00  0.00    -0.300 OA
BRANCH   5   7
ATOM      7  C   UNL     1     160.154 171.360 170.103  1.00  0.00     0.072 C 
ATOM      8  C   UNL     1     161.559 171.712 169.624  1.00  0.00     0.012 C 
ENDBRANCH   5   7
ENDBRANCH   1   5
TORSDOF 4
ENDMDL
