MODEL 1
REMARK VINA RESULT:    -3.380      0.000      0.000
REMARK INTER + INTRA:          -3.892
REMARK INTER:                  -3.677
REMARK INTRA:                  -0.216
REMARK UNBOUND:                -0.216
REMARK SMILES CC(C)(C)[C@@H]1C=C[C@H](O)CC1
REMARK SMILES IDX 5 1 11 2 10 3 8 4 7 5 6 6 2 7 1 8 3 9 4 10 9 11
REMARK H PARENT 9 12
REMARK Flexibility Score: inf
ROOT
ATOM      1  C   UNL     1     -17.827 -15.104   9.828  1.00  0.00     0.017 C 
ATOM      2  C   UNL     1     -17.874 -16.513  10.475  1.00  0.00     0.011 C 
ATOM      3  C   UNL     1     -19.125 -16.680  11.340  1.00  0.00     0.037 C 
ATOM      4  C   UNL     1     -19.125 -15.660  12.487  1.00  0.00     0.137 C 
ATOM      5  C   UNL     1     -18.859 -14.267  11.980  1.00  0.00     0.000 C 
ATOM      6  C   UNL     1     -18.210 -14.016  10.829  1.00  0.00    -0.025 C 
ENDROOT
BRANCH   1   7
ATOM      7  C   UNL     1     -16.464 -14.796   9.092  1.00  0.00    -0.032 C 
ATOM      8  C   UNL     1     -15.981 -16.001   8.251  1.00  0.00     0.011 C 
ATOM      9  C   UNL     1     -16.611 -13.572   8.156  1.00  0.00     0.011 C 
ATOM     10  C   UNL     1     -15.366 -14.448  10.128  1.00  0.00     0.011 C 
ENDBRANCH   1   7
BRANCH   4  11
ATOM     11  O   UNL     1     -18.145 -15.989  13.436  1.00  0.00    -0.389 OA
ATOM     12  H   UNL     1     -17.639 -15.157  13.627  1.00  0.00     0.211 HD
ENDBRANCH   4  11
TORSDOF 2
ENDMDL
MODEL 2
REMARK VINA RESULT:    -3.317      1.654      2.318
REMARK INTER + INTRA:          -3.824
REMARK INTER:                  -3.612
REMARK INTRA:                  -0.212
REMARK UNBOUND:                -0.216
REMARK SMILES CC(C)(C)[C@@H]1C=C[C@H](O)CC1
REMARK SMILES IDX 5 1 11 2 10 3 8 4 7 5 6 6 2 7 1 8 3 9 4 10 9 11
REMARK H PARENT 9 12
REMARK Flexibility Score: inf
ROOT
ATOM      1  C   UNL     1     -17.933 -15.250   9.751  1.00  0.00     0.017 C 
ATOM      2  C   UNL     1     -17.716 -15.224  11.287  1.00  0.00     0.011 C 
ATOM      3  C   UNL     1     -18.919 -14.608  12.003  1.00  0.00     0.037 C 
ATOM      4  C   UNL     1     -19.125 -13.154  11.554  1.00  0.00     0.137 C 
ATOM      5  C   UNL     1     -19.125 -13.039  10.053  1.00  0.00     0.000 C 
ATOM      6  C   UNL     1     -18.526 -13.936   9.249  1.00  0.00    -0.025 C 
ENDROOT
BRANCH   1   7
ATOM      7  C   UNL     1     -16.648 -15.682   8.942  1.00  0.00    -0.032 C 
ATOM      8  C   UNL     1     -15.422 -15.864   9.868  1.00  0.00     0.011 C 
ATOM      9  C   UNL     1     -16.896 -17.011   8.189  1.00  0.00     0.011 C 
ATOM     10  C   UNL     1     -16.304 -14.611   7.877  1.00  0.00     0.011 C 
ENDBRANCH   1   7
BRANCH   4  11
ATOM     11  O   UNL     1     -18.108 -12.335  12.069  1.00  0.00    -0.389 OA
ATOM     12  H   UNL     1     -17.261 -12.847  11.994  1.00  0.00     0.211 HD
ENDBRANCH   4  11
TORSDOF 2
ENDMDL
MODEL 3
REMARK VINA RESULT:    -2.345      1.264      2.190
REMARK INTER + INTRA:          -2.766
REMARK INTER:                  -2.548
REMARK INTRA:                  -0.218
REMARK UNBOUND:                -0.216
REMARK SMILES CC(C)(C)[C@@H]1C=C[C@H](O)CC1
REMARK SMILES IDX 5 1 11 2 10 3 8 4 7 5 6 6 2 7 1 8 3 9 4 10 9 11
REMARK H PARENT 9 12
REMARK Flexibility Score: inf
ROOT
ATOM      1  C   UNL     1     -17.355 -14.479  10.119  1.00  0.00     0.017 C 
ATOM      2  C   UNL     1     -18.867 -14.559  10.457  1.00  0.00     0.011 C 
ATOM      3  C   UNL     1     -19.093 -14.575  11.970  1.00  0.00     0.037 C 
ATOM      4  C   UNL     1     -18.426 -15.807  12.600  1.00  0.00     0.137 C 
ATOM      5  C   UNL     1     -16.997 -15.947  12.148  1.00  0.00     0.000 C 
ATOM      6  C   UNL     1     -16.535 -15.419  11.000  1.00  0.00    -0.025 C 
ENDROOT
BRANCH   1   7
ATOM      7  C   UNL     1     -17.044 -14.667   8.582  1.00  0.00    -0.032 C 
ATOM      8  C   UNL     1     -16.772 -13.313   7.883  1.00  0.00     0.011 C 
ATOM      9  C   UNL     1     -15.811 -15.580   8.380  1.00  0.00     0.011 C 
ATOM     10  C   UNL     1     -18.240 -15.352   7.877  1.00  0.00     0.011 C 
ENDBRANCH   1   7
BRANCH   4  11
ATOM     11  O   UNL     1     -19.125 -16.973  12.252  1.00  0.00    -0.389 OA
ATOM     12  H   UNL     1     -18.506 -17.527  11.708  1.00  0.00     0.211 HD
ENDBRANCH   4  11
TORSDOF 2
ENDMDL
MODEL 4
REMARK VINA RESULT:    -2.011      2.326      4.289
REMARK INTER + INTRA:          -2.403
REMARK INTER:                  -2.179
REMARK INTRA:                  -0.223
REMARK UNBOUND:                -0.216
REMARK SMILES CC(C)(C)[C@@H]1C=C[C@H](O)CC1
REMARK SMILES IDX 5 1 11 2 10 3 8 4 7 5 6 6 2 7 1 8 3 9 4 10 9 11
REMARK H PARENT 9 12
REMARK Flexibility Score: inf
ROOT
ATOM      1  C   UNL     1     -18.595 -14.728  10.392  1.00  0.00     0.017 C 
ATOM      2  C   UNL     1     -17.689 -13.473  10.504  1.00  0.00     0.011 C 
ATOM      3  C   UNL     1     -17.705 -12.665   9.206  1.00  0.00     0.037 C 
ATOM      4  C   UNL     1     -17.163 -13.507   8.042  1.00  0.00     0.137 C 
ATOM      5  C   UNL     1     -17.831 -14.855   7.984  1.00  0.00     0.000 C 
ATOM      6  C   UNL     1     -18.404 -15.436   9.052  1.00  0.00    -0.025 C 
ENDROOT
BRANCH   1   7
ATOM      7  C   UNL     1     -18.461 -15.711  11.620  1.00  0.00    -0.032 C 
ATOM      8  C   UNL     1     -19.117 -15.128  12.895  1.00  0.00     0.011 C 
ATOM      9  C   UNL     1     -19.125 -17.073  11.306  1.00  0.00     0.011 C 
ATOM     10  C   UNL     1     -16.967 -15.989  11.919  1.00  0.00     0.011 C 
ENDBRANCH   1   7
BRANCH   4  11
ATOM     11  O   UNL     1     -15.779 -13.695   8.177  1.00  0.00    -0.389 OA
ATOM     12  H   UNL     1     -15.612 -14.669   8.087  1.00  0.00     0.211 HD
ENDBRANCH   4  11
TORSDOF 2
ENDMDL
MODEL 5
REMARK VINA RESULT:    -1.884      2.147      4.018
REMARK INTER + INTRA:          -2.265
REMARK INTER:                  -2.049
REMARK INTRA:                  -0.216
REMARK UNBOUND:                -0.216
REMARK SMILES CC(C)(C)[C@@H]1C=C[C@H](O)CC1
REMARK SMILES IDX 5 1 11 2 10 3 8 4 7 5 6 6 2 7 1 8 3 9 4 10 9 11
REMARK H PARENT 9 12
REMARK Flexibility Score: inf
ROOT
ATOM      1  C   UNL     1     -16.922 -14.147  10.222  1.00  0.00     0.017 C 
ATOM      2  C   UNL     1     -16.648 -15.637  10.559  1.00  0.00     0.011 C 
ATOM      3  C   UNL     1     -15.429 -16.159   9.796  1.00  0.00     0.037 C 
ATOM      4  C   UNL     1     -15.667 -16.077   8.282  1.00  0.00     0.137 C 
ATOM      5  C   UNL     1     -16.159 -14.713   7.878  1.00  0.00     0.000 C 
ATOM      6  C   UNL     1     -16.789 -13.879   8.725  1.00  0.00    -0.025 C 
ENDROOT
BRANCH   1   7
ATOM      7  C   UNL     1     -18.282 -13.609  10.815  1.00  0.00    -0.032 C 
ATOM      8  C   UNL     1     -18.048 -12.594  11.960  1.00  0.00     0.011 C 
ATOM      9  C   UNL     1     -19.125 -12.921   9.715  1.00  0.00     0.011 C 
ATOM     10  C   UNL     1     -19.125 -14.785  11.367  1.00  0.00     0.011 C 
ENDBRANCH   1   7
BRANCH   4  11
ATOM     11  O   UNL     1     -16.613 -17.034   7.883  1.00  0.00    -0.389 OA
ATOM     12  H   UNL     1     -17.191 -17.211   8.670  1.00  0.00     0.211 HD
ENDBRANCH   4  11
TORSDOF 2
ENDMDL
MODEL 6
REMARK VINA RESULT:    -1.834      2.485      3.763
REMARK INTER + INTRA:          -2.211
REMARK INTER:                  -1.997
REMARK INTRA:                  -0.213
REMARK UNBOUND:                -0.216
REMARK SMILES CC(C)(C)[C@@H]1C=C[C@H](O)CC1
REMARK SMILES IDX 5 1 11 2 10 3 8 4 7 5 6 6 2 7 1 8 3 9 4 10 9 11
REMARK H PARENT 9 12
REMARK Flexibility Score: inf
ROOT
ATOM      1  C   UNL     1     -18.153 -14.580  10.532  1.00  0.00     0.017 C 
ATOM      2  C   UNL     1     -18.569 -15.061   9.117  1.00  0.00     0.011 C 
ATOM      3  C   UNL     1     -18.174 -16.522   8.894  1.00  0.00     0.037 C 
ATOM      4  C   UNL     1     -16.651 -16.689   8.995  1.00  0.00     0.137 C 
ATOM      5  C   UNL     1     -16.113 -16.047  10.246  1.00  0.00     0.000 C 
ATOM      6  C   UNL     1     -16.746 -15.051  10.891  1.00  0.00    -0.025 C 
ENDROOT
BRANCH   1   7
ATOM      7  C   UNL     1     -18.345 -13.028  10.750  1.00  0.00    -0.032 C 
ATOM      8  C   UNL     1     -19.122 -12.723  12.053  1.00  0.00     0.011 C 
ATOM      9  C   UNL     1     -16.976 -12.310  10.816  1.00  0.00     0.011 C 
ATOM     10  C   UNL     1     -19.124 -12.416   9.559  1.00  0.00     0.011 C 
ENDBRANCH   1   7
BRANCH   4  11
ATOM     11  O   UNL     1     -16.020 -16.110   7.883  1.00  0.00    -0.389 OA
ATOM     12  H   UNL     1     -15.141 -15.773   8.196  1.00  0.00     0.211 HD
ENDBRANCH   4  11
TORSDOF 2
ENDMDL
MODEL 7
REMARK VINA RESULT:    -1.444      2.093      3.646
REMARK INTER + INTRA:          -1.787
REMARK INTER:                  -1.575
REMARK INTRA:                  -0.211
REMARK UNBOUND:                -0.216
REMARK SMILES CC(C)(C)[C@@H]1C=C[C@H](O)CC1
REMARK SMILES IDX 5 1 11 2 10 3 8 4 7 5 6 6 2 7 1 8 3 9 4 10 9 11
REMARK H PARENT 9 12
REMARK Flexibility Score: inf
ROOT
ATOM      1  C   UNL     1     -18.673 -14.865   9.444  1.00  0.00     0.017 C 
ATOM      2  C   UNL     1     -18.570 -14.281  10.879  1.00  0.00     0.011 C 
ATOM      3  C   UNL     1     -18.621 -12.753  10.857  1.00  0.00     0.037 C 
ATOM      4  C   UNL     1     -17.439 -12.187  10.057  1.00  0.00     0.137 C 
ATOM      5  C   UNL     1     -17.314 -12.859   8.715  1.00  0.00     0.000 C 
ATOM      6  C   UNL     1     -17.798 -14.088   8.462  1.00  0.00    -0.025 C 
ENDROOT
BRANCH   1   7
ATOM      7  C   UNL     1     -18.420 -16.422   9.379  1.00  0.00    -0.032 C 
ATOM      8  C   UNL     1     -16.911 -16.755   9.296  1.00  0.00     0.011 C 
ATOM      9  C   UNL     1     -19.009 -17.125  10.625  1.00  0.00     0.011 C 
ATOM     10  C   UNL     1     -19.125 -17.024   8.139  1.00  0.00     0.011 C 
ENDBRANCH   1   7
BRANCH   4  11
ATOM     11  O   UNL     1     -16.239 -12.366  10.764  1.00  0.00    -0.389 OA
ATOM     12  H   UNL     1     -15.746 -13.099  10.311  1.00  0.00     0.211 HD
ENDBRANCH   4  11
TORSDOF 2
ENDMDL
MODEL 8
REMARK VINA RESULT:    -1.236      1.506      2.009
REMARK INTER + INTRA:          -1.560
REMARK INTER:                  -1.342
REMARK INTRA:                  -0.218
REMARK UNBOUND:                -0.216
REMARK SMILES CC(C)(C)[C@@H]1C=C[C@H](O)CC1
REMARK SMILES IDX 5 1 11 2 10 3 8 4 7 5 6 6 2 7 1 8 3 9 4 10 9 11
REMARK H PARENT 9 12
REMARK Flexibility Score: inf
ROOT
ATOM      1  C   UNL     1     -17.616 -14.006  10.549  1.00  0.00     0.017 C 
ATOM      2  C   UNL     1     -19.078 -14.244  11.011  1.00  0.00     0.011 C 
ATOM      3  C   UNL     1     -19.125 -14.723  12.463  1.00  0.00     0.037 C 
ATOM      4  C   UNL     1     -18.383 -16.059  12.613  1.00  0.00     0.137 C 
ATOM      5  C   UNL     1     -17.016 -15.999  11.986  1.00  0.00     0.000 C 
ATOM      6  C   UNL     1     -16.694 -15.133  11.008  1.00  0.00    -0.025 C 
ENDROOT
BRANCH   1   7
ATOM      7  C   UNL     1     -17.486 -13.711   9.003  1.00  0.00    -0.032 C 
ATOM      8  C   UNL     1     -18.123 -14.833   8.149  1.00  0.00     0.011 C 
ATOM      9  C   UNL     1     -18.170 -12.371   8.642  1.00  0.00     0.011 C 
ATOM     10  C   UNL     1     -15.994 -13.582   8.609  1.00  0.00     0.011 C 
ENDBRANCH   1   7
BRANCH   4  11
ATOM     11  O   UNL     1     -19.113 -17.094  12.008  1.00  0.00    -0.389 OA
ATOM     12  H   UNL     1     -20.027 -17.064  12.393  1.00  0.00     0.211 HD
ENDBRANCH   4  11
TORSDOF 2
ENDMDL
MODEL 9
REMARK VINA RESULT:    -0.524      2.138      2.890
REMARK INTER + INTRA:          -0.785
REMARK INTER:                  -0.572
REMARK INTRA:                  -0.213
REMARK UNBOUND:                -0.216
REMARK SMILES CC(C)(C)[C@@H]1C=C[C@H](O)CC1
REMARK SMILES IDX 5 1 11 2 10 3 8 4 7 5 6 6 2 7 1 8 3 9 4 10 9 11
REMARK H PARENT 9 12
REMARK Flexibility Score: inf
ROOT
ATOM      1  C   UNL     1     -16.809 -15.096  10.200  1.00  0.00     0.017 C 
ATOM      2  C   UNL     1     -16.457 -13.613   9.912  1.00  0.00     0.011 C 
ATOM      3  C   UNL     1     -17.169 -12.677  10.890  1.00  0.00     0.037 C 
ATOM      4  C   UNL     1     -18.692 -12.812  10.751  1.00  0.00     0.137 C 
ATOM      5  C   UNL     1     -19.119 -14.255  10.794  1.00  0.00     0.000 C 
ATOM      6  C   UNL     1     -18.301 -15.273  10.473  1.00  0.00    -0.025 C 
ENDROOT
BRANCH   1   7
ATOM      7  C   UNL     1     -16.272 -16.095   9.101  1.00  0.00    -0.032 C 
ATOM      8  C   UNL     1     -17.376 -17.066   8.621  1.00  0.00     0.011 C 
ATOM      9  C   UNL     1     -15.732 -15.321   7.875  1.00  0.00     0.011 C 
ATOM     10  C   UNL     1     -15.097 -16.929   9.668  1.00  0.00     0.011 C 
ENDBRANCH   1   7
BRANCH   4  11
ATOM     11  O   UNL     1     -19.125 -12.249   9.541  1.00  0.00    -0.389 OA
ATOM     12  H   UNL     1     -19.040 -11.265   9.636  1.00  0.00     0.211 HD
ENDBRANCH   4  11
TORSDOF 2
ENDMDL
