MODEL 1
REMARK VINA RESULT:    -0.506      0.000      0.000
REMARK INTER + INTRA:          -1.083
REMARK INTER:                  -0.595
REMARK INTRA:                  -0.489
REMARK UNBOUND:                -0.489
REMARK SMILES C=C[C@]1(C)CC[C@H](C(=C)C)C[C@@H]1C(=C)C
REMARK SMILES IDX 7 1 6 2 5 3 3 4 12 5 11 6 4 7 8 8 10 9 9 10 13 11 14 12
REMARK SMILES IDX 15 13 2 14 1 15
REMARK H PARENT
REMARK Flexibility Score: inf
ROOT
ATOM      1  C   UNL     1     152.074 137.663 159.998  1.00  0.00     0.015 C 
ATOM      2  C   UNL     1     151.624 138.580 161.134  1.00  0.00     0.009 C 
ATOM      3  C   UNL     1     152.855 139.123 161.850  1.00  0.00     0.012 C 
ATOM      4  C   UNL     1     153.651 138.022 162.619  1.00  0.00    -0.008 C 
ATOM      5  C   UNL     1     153.621 136.591 161.899  1.00  0.00     0.024 C 
ATOM      6  C   UNL     1     152.942 136.477 160.487  1.00  0.00     0.017 C 
ATOM      7  C   UNL     1     155.125 138.508 162.673  1.00  0.00     0.016 C 
ENDROOT
BRANCH   1   8
ATOM      8  C   UNL     1     150.883 137.198 159.165  1.00  0.00    -0.077 C 
ATOM      9  C   UNL     1     151.104 136.401 157.903  1.00  0.00     0.039 C 
ATOM     10  C   UNL     1     149.622 137.499 159.520  1.00  0.00     0.008 C 
ENDBRANCH   1   8
BRANCH   5  11
ATOM     11  C   UNL     1     153.158 135.443 162.809  1.00  0.00    -0.077 C 
ATOM     12  C   UNL     1     153.984 134.904 163.721  1.00  0.00     0.008 C 
ATOM     13  C   UNL     1     151.766 134.878 162.684  1.00  0.00     0.039 C 
ENDBRANCH   5  11
BRANCH   4  14
ATOM     14  C   UNL     1     153.215 137.928 164.092  1.00  0.00    -0.028 C 
ATOM     15  C   UNL     1     153.704 138.661 165.104  1.00  0.00     0.004 C 
ENDBRANCH   4  14
TORSDOF 3
ENDMDL
MODEL 2
REMARK VINA RESULT:     1.768     20.532     22.330
REMARK INTER + INTRA:           1.590
REMARK INTER:                   2.198
REMARK INTRA:                  -0.608
REMARK UNBOUND:                -0.489
REMARK SMILES C=C[C@]1(C)CC[C@H](C(=C)C)C[C@@H]1C(=C)C
REMARK SMILES IDX 7 1 6 2 5 3 3 4 12 5 11 6 4 7 8 8 10 9 9 10 13 11 14 12
REMARK SMILES IDX 15 13 2 14 1 15
REMARK H PARENT
REMARK Flexibility Score: inf
ROOT
ATOM      1  C   UNL     1     138.188 153.147 160.413  1.00  0.00     0.015 C 
ATOM      2  C   UNL     1     138.893 152.276 161.453  1.00  0.00     0.009 C 
ATOM      3  C   UNL     1     137.898 151.266 162.010  1.00  0.00     0.012 C 
ATOM      4  C   UNL     1     136.765 151.927 162.857  1.00  0.00    -0.008 C 
ATOM      5  C   UNL     1     136.334 153.377 162.328  1.00  0.00     0.024 C 
ATOM      6  C   UNL     1     136.966 153.903 160.990  1.00  0.00     0.017 C 
ATOM      7  C   UNL     1     135.536 150.985 162.751  1.00  0.00     0.016 C 
ENDROOT
BRANCH   1   8
ATOM      8  C   UNL     1     139.176 154.087 159.727  1.00  0.00    -0.077 C 
ATOM      9  C   UNL     1     139.571 153.855 158.290  1.00  0.00     0.039 C 
ATOM     10  C   UNL     1     139.726 155.122 160.384  1.00  0.00     0.008 C 
ENDBRANCH   1   8
BRANCH   5  11
ATOM     11  C   UNL     1     136.370 154.472 163.404  1.00  0.00    -0.077 C 
ATOM     12  C   UNL     1     137.508 155.125 163.693  1.00  0.00     0.008 C 
ATOM     13  C   UNL     1     135.127 154.825 164.181  1.00  0.00     0.039 C 
ENDBRANCH   5  11
BRANCH   4  14
ATOM     14  C   UNL     1     137.115 151.949 164.357  1.00  0.00    -0.028 C 
ATOM     15  C   UNL     1     136.744 151.031 165.263  1.00  0.00     0.004 C 
ENDBRANCH   4  14
TORSDOF 3
ENDMDL
MODEL 3
REMARK VINA RESULT:     2.440     19.871     21.936
REMARK INTER + INTRA:           2.379
REMARK INTER:                   2.719
REMARK INTRA:                  -0.340
REMARK UNBOUND:                -0.489
REMARK SMILES C=C[C@]1(C)CC[C@H](C(=C)C)C[C@@H]1C(=C)C
REMARK SMILES IDX 7 1 6 2 5 3 3 4 12 5 11 6 4 7 8 8 10 9 9 10 13 11 14 12
REMARK SMILES IDX 15 13 2 14 1 15
REMARK H PARENT
REMARK Flexibility Score: inf
ROOT
ATOM      1  C   UNL     1     139.385 154.182 160.301  1.00  0.00     0.015 C 
ATOM      2  C   UNL     1     137.931 154.470 159.934  1.00  0.00     0.009 C 
ATOM      3  C   UNL     1     137.239 155.125 161.123  1.00  0.00     0.012 C 
ATOM      4  C   UNL     1     137.079 154.164 162.343  1.00  0.00    -0.008 C 
ATOM      5  C   UNL     1     138.288 153.124 162.500  1.00  0.00     0.024 C 
ATOM      6  C   UNL     1     139.523 153.261 161.539  1.00  0.00     0.017 C 
ATOM      7  C   UNL     1     137.046 155.066 163.607  1.00  0.00     0.016 C 
ENDROOT
BRANCH   1   8
ATOM      8  C   UNL     1     140.158 153.647 159.099  1.00  0.00    -0.077 C 
ATOM      9  C   UNL     1     141.429 152.861 159.302  1.00  0.00     0.039 C 
ATOM     10  C   UNL     1     139.742 153.877 157.842  1.00  0.00     0.008 C 
ENDBRANCH   1   8
BRANCH   5  11
ATOM     11  C   UNL     1     137.842 151.657 162.593  1.00  0.00    -0.077 C 
ATOM     12  C   UNL     1     137.855 150.857 161.514  1.00  0.00     0.008 C 
ATOM     13  C   UNL     1     137.356 151.084 163.900  1.00  0.00     0.039 C 
ENDBRANCH   5  11
BRANCH   4  14
ATOM     14  C   UNL     1     135.713 153.453 162.332  1.00  0.00    -0.028 C 
ATOM     15  C   UNL     1     134.875 153.347 163.375  1.00  0.00     0.004 C 
ENDBRANCH   4  14
TORSDOF 3
ENDMDL
