MODEL 1
REMARK VINA RESULT:    -6.779      0.000      0.000
REMARK INTER + INTRA:         -12.138
REMARK INTER:                 -10.345
REMARK INTRA:                  -1.793
REMARK UNBOUND:                -1.793
REMARK SMILES CC(=O)CCC=C(C)CCC=C(C)CCC=C(C)C
REMARK SMILES IDX 10 1 11 2 12 3 13 4 14 5 15 6 16 7 18 8 17 9 19 10 9 11 7 12
REMARK SMILES IDX 6 13 8 14 5 15 4 16 2 17 3 18 1 19
REMARK H PARENT
REMARK Flexibility Score: inf
ROOT
ATOM      1  C   UNL     1      -7.985  34.971  23.016  1.00  0.00     0.032 C 
ENDROOT
BRANCH   1   2
ATOM      2  C   UNL     1      -7.354  34.435  21.756  1.00  0.00    -0.028 C 
ATOM      3  C   UNL     1      -7.866  33.431  21.005  1.00  0.00    -0.077 C 
ATOM      4  C   UNL     1      -7.127  33.032  19.754  1.00  0.00     0.039 C 
BRANCH   3   5
ATOM      5  C   UNL     1      -9.166  32.716  21.338  1.00  0.00     0.034 C 
BRANCH   5   6
ATOM      6  C   UNL     1      -9.021  31.784  22.551  1.00  0.00     0.032 C 
BRANCH   6   7
ATOM      7  C   UNL     1      -9.054  30.327  22.157  1.00  0.00    -0.028 C 
ATOM      8  C   UNL     1      -8.271  28.000  22.020  1.00  0.00     0.039 C 
ATOM      9  C   UNL     1      -8.066  29.440  22.416  1.00  0.00    -0.080 C 
ATOM     10  C   UNL     1      -6.777  29.849  23.086  1.00  0.00     0.039 C 
ENDBRANCH   6   7
ENDBRANCH   5   6
ENDBRANCH   3   5
ENDBRANCH   1   2
BRANCH   1  11
ATOM     11  C   UNL     1      -7.144  34.652  24.261  1.00  0.00     0.034 C 
BRANCH  11  12
ATOM     12  C   UNL     1      -8.037  34.231  25.410  1.00  0.00    -0.077 C 
ATOM     13  C   UNL     1      -8.273  32.914  25.610  1.00  0.00    -0.028 C 
ATOM     14  C   UNL     1      -8.627  35.290  26.313  1.00  0.00     0.039 C 
BRANCH  13  15
ATOM     15  C   UNL     1      -9.012  32.357  26.800  1.00  0.00     0.035 C 
BRANCH  15  16
ATOM     16  C   UNL     1     -10.025  31.299  26.348  1.00  0.00     0.079 C 
BRANCH  16  17
ATOM     17  C   UNL     1      -9.390  29.937  26.292  1.00  0.00     0.130 C 
ATOM     18  O   UNL     1      -8.343  29.731  26.888  1.00  0.00    -0.300 OA
ATOM     19  C   UNL     1     -10.019  28.838  25.492  1.00  0.00     0.087 C 
ENDBRANCH  16  17
ENDBRANCH  15  16
ENDBRANCH  13  15
ENDBRANCH  11  12
ENDBRANCH   1  11
TORSDOF 9
ENDMDL
MODEL 2
REMARK VINA RESULT:    -6.443      1.672      4.162
REMARK INTER + INTRA:         -11.626
REMARK INTER:                  -9.565
REMARK INTRA:                  -2.061
REMARK UNBOUND:                -1.793
REMARK SMILES CC(=O)CCC=C(C)CCC=C(C)CCC=C(C)C
REMARK SMILES IDX 10 1 11 2 12 3 13 4 14 5 15 6 16 7 18 8 17 9 19 10 9 11 7 12
REMARK SMILES IDX 6 13 8 14 5 15 4 16 2 17 3 18 1 19
REMARK H PARENT
REMARK Flexibility Score: inf
ROOT
ATOM      1  C   UNL     1      -7.903  33.353  27.304  1.00  0.00     0.032 C 
ENDROOT
BRANCH   1   2
ATOM      2  C   UNL     1      -8.521  34.525  26.585  1.00  0.00    -0.028 C 
ATOM      3  C   UNL     1      -8.360  34.792  25.267  1.00  0.00    -0.077 C 
ATOM      4  C   UNL     1      -9.072  35.989  24.693  1.00  0.00     0.039 C 
BRANCH   3   5
ATOM      5  C   UNL     1      -7.533  33.925  24.332  1.00  0.00     0.034 C 
BRANCH   5   6
ATOM      6  C   UNL     1      -7.799  34.247  22.854  1.00  0.00     0.032 C 
BRANCH   6   7
ATOM      7  C   UNL     1      -8.711  33.233  22.206  1.00  0.00    -0.028 C 
ATOM      8  C   UNL     1      -9.422  31.556  20.555  1.00  0.00     0.039 C 
ATOM      9  C   UNL     1      -8.445  32.593  21.044  1.00  0.00    -0.080 C 
ATOM     10  C   UNL     1      -7.206  32.888  20.234  1.00  0.00     0.039 C 
ENDBRANCH   6   7
ENDBRANCH   5   6
ENDBRANCH   3   5
ENDBRANCH   1   2
BRANCH   1  11
ATOM     11  C   UNL     1      -8.941  32.272  27.641  1.00  0.00     0.034 C 
BRANCH  11  12
ATOM     12  C   UNL     1      -8.766  31.069  26.738  1.00  0.00    -0.077 C 
ATOM     13  C   UNL     1      -9.263  31.114  25.480  1.00  0.00    -0.028 C 
ATOM     14  C   UNL     1      -8.028  29.857  27.257  1.00  0.00     0.039 C 
BRANCH  13  15
ATOM     15  C   UNL     1      -9.025  30.053  24.437  1.00  0.00     0.035 C 
BRANCH  15  16
ATOM     16  C   UNL     1      -7.591  30.148  23.901  1.00  0.00     0.079 C 
BRANCH  16  17
ATOM     17  C   UNL     1      -7.448  29.384  22.614  1.00  0.00     0.130 C 
ATOM     18  O   UNL     1      -6.512  29.627  21.866  1.00  0.00    -0.300 OA
ATOM     19  C   UNL     1      -8.457  28.345  22.230  1.00  0.00     0.087 C 
ENDBRANCH  16  17
ENDBRANCH  15  16
ENDBRANCH  13  15
ENDBRANCH  11  12
ENDBRANCH   1  11
TORSDOF 9
ENDMDL
MODEL 3
REMARK VINA RESULT:    -6.409      1.877      4.759
REMARK INTER + INTRA:         -11.574
REMARK INTER:                  -9.821
REMARK INTRA:                  -1.753
REMARK UNBOUND:                -1.793
REMARK SMILES CC(=O)CCC=C(C)CCC=C(C)CCC=C(C)C
REMARK SMILES IDX 10 1 11 2 12 3 13 4 14 5 15 6 16 7 18 8 17 9 19 10 9 11 7 12
REMARK SMILES IDX 6 13 8 14 5 15 4 16 2 17 3 18 1 19
REMARK H PARENT
REMARK Flexibility Score: inf
ROOT
ATOM      1  C   UNL     1      -8.891  33.272  26.927  1.00  0.00     0.032 C 
ENDROOT
BRANCH   1   2
ATOM      2  C   UNL     1      -8.386  31.916  27.353  1.00  0.00    -0.028 C 
ATOM      3  C   UNL     1      -8.905  30.736  26.941  1.00  0.00    -0.077 C 
ATOM      4  C   UNL     1      -8.264  29.466  27.437  1.00  0.00     0.039 C 
BRANCH   3   5
ATOM      5  C   UNL     1     -10.074  30.628  25.974  1.00  0.00     0.034 C 
BRANCH   5   6
ATOM      6  C   UNL     1      -9.750  29.729  24.771  1.00  0.00     0.032 C 
BRANCH   6   7
ATOM      7  C   UNL     1      -8.478  30.147  24.073  1.00  0.00    -0.028 C 
ATOM      8  C   UNL     1      -6.723  30.112  22.351  1.00  0.00     0.039 C 
ATOM      9  C   UNL     1      -7.968  29.538  22.979  1.00  0.00    -0.080 C 
ATOM     10  C   UNL     1      -8.606  28.311  22.374  1.00  0.00     0.039 C 
ENDBRANCH   6   7
ENDBRANCH   5   6
ENDBRANCH   3   5
ENDBRANCH   1   2
BRANCH   1  11
ATOM     11  C   UNL     1      -7.753  34.185  26.447  1.00  0.00     0.034 C 
BRANCH  11  12
ATOM     12  C   UNL     1      -8.008  34.650  25.028  1.00  0.00    -0.077 C 
ATOM     13  C   UNL     1      -7.368  34.032  24.009  1.00  0.00    -0.028 C 
ATOM     14  C   UNL     1      -8.984  35.778  24.785  1.00  0.00     0.039 C 
BRANCH  13  15
ATOM     15  C   UNL     1      -7.647  34.292  22.551  1.00  0.00     0.035 C 
BRANCH  15  16
ATOM     16  C   UNL     1      -8.824  33.433  22.075  1.00  0.00     0.079 C 
BRANCH  16  17
ATOM     17  C   UNL     1      -8.479  32.707  20.804  1.00  0.00     0.130 C 
ATOM     18  O   UNL     1      -9.198  31.801  20.408  1.00  0.00    -0.300 OA
ATOM     19  C   UNL     1      -7.248  33.071  20.031  1.00  0.00     0.087 C 
ENDBRANCH  16  17
ENDBRANCH  15  16
ENDBRANCH  13  15
ENDBRANCH  11  12
ENDBRANCH   1  11
TORSDOF 9
ENDMDL
MODEL 4
REMARK VINA RESULT:    -5.977      1.347      4.425
REMARK INTER + INTRA:         -10.914
REMARK INTER:                  -8.946
REMARK INTRA:                  -1.969
REMARK UNBOUND:                -1.793
REMARK SMILES CC(=O)CCC=C(C)CCC=C(C)CCC=C(C)C
REMARK SMILES IDX 10 1 11 2 12 3 13 4 14 5 15 6 16 7 18 8 17 9 19 10 9 11 7 12
REMARK SMILES IDX 6 13 8 14 5 15 4 16 2 17 3 18 1 19
REMARK H PARENT
REMARK Flexibility Score: inf
ROOT
ATOM      1  C   UNL     1      -6.841  34.626  23.107  1.00  0.00     0.032 C 
ENDROOT
BRANCH   1   2
ATOM      2  C   UNL     1      -7.441  35.139  24.391  1.00  0.00    -0.028 C 
ATOM      3  C   UNL     1      -8.029  34.362  25.332  1.00  0.00    -0.077 C 
ATOM      4  C   UNL     1      -8.554  35.028  26.577  1.00  0.00     0.039 C 
BRANCH   3   5
ATOM      5  C   UNL     1      -8.148  32.851  25.213  1.00  0.00     0.034 C 
BRANCH   5   6
ATOM      6  C   UNL     1      -9.204  32.275  26.170  1.00  0.00     0.032 C 
BRANCH   6   7
ATOM      7  C   UNL     1      -9.718  30.934  25.709  1.00  0.00    -0.028 C 
ATOM      8  C   UNL     1      -9.928  28.484  25.659  1.00  0.00     0.039 C 
ATOM      9  C   UNL     1      -9.269  29.742  26.164  1.00  0.00    -0.080 C 
ATOM     10  C   UNL     1      -8.136  29.639  27.156  1.00  0.00     0.039 C 
ENDBRANCH   6   7
ENDBRANCH   5   6
ENDBRANCH   3   5
ENDBRANCH   1   2
BRANCH   1  11
ATOM     11  C   UNL     1      -7.848  34.659  21.947  1.00  0.00     0.034 C 
BRANCH  11  12
ATOM     12  C   UNL     1      -7.962  33.293  21.305  1.00  0.00    -0.077 C 
ATOM     13  C   UNL     1      -8.853  32.405  21.803  1.00  0.00    -0.028 C 
ATOM     14  C   UNL     1      -7.092  32.962  20.114  1.00  0.00     0.039 C 
BRANCH  13  15
ATOM     15  C   UNL     1      -9.173  31.077  21.165  1.00  0.00     0.035 C 
BRANCH  15  16
ATOM     16  C   UNL     1      -9.290  29.988  22.237  1.00  0.00     0.079 C 
BRANCH  16  17
ATOM     17  C   UNL     1      -7.972  29.294  22.443  1.00  0.00     0.130 C 
ATOM     18  O   UNL     1      -7.835  28.133  22.085  1.00  0.00    -0.300 OA
ATOM     19  C   UNL     1      -6.833  30.007  23.107  1.00  0.00     0.087 C 
ENDBRANCH  16  17
ENDBRANCH  15  16
ENDBRANCH  13  15
ENDBRANCH  11  12
ENDBRANCH   1  11
TORSDOF 9
ENDMDL
MODEL 5
REMARK VINA RESULT:    -5.865      1.378      3.952
REMARK INTER + INTRA:         -10.744
REMARK INTER:                  -9.364
REMARK INTRA:                  -1.380
REMARK UNBOUND:                -1.793
REMARK SMILES CC(=O)CCC=C(C)CCC=C(C)CCC=C(C)C
REMARK SMILES IDX 10 1 11 2 12 3 13 4 14 5 15 6 16 7 18 8 17 9 19 10 9 11 7 12
REMARK SMILES IDX 6 13 8 14 5 15 4 16 2 17 3 18 1 19
REMARK H PARENT
REMARK Flexibility Score: inf
ROOT
ATOM      1  C   UNL     1     -10.116  31.834  21.888  1.00  0.00     0.032 C 
ENDROOT
BRANCH   1   2
ATOM      2  C   UNL     1      -8.845  31.863  21.077  1.00  0.00    -0.028 C 
ATOM      3  C   UNL     1      -8.040  32.943  20.944  1.00  0.00    -0.077 C 
ATOM      4  C   UNL     1      -6.787  32.798  20.121  1.00  0.00     0.039 C 
BRANCH   3   5
ATOM      5  C   UNL     1      -8.315  34.279  21.615  1.00  0.00     0.034 C 
BRANCH   5   6
ATOM      6  C   UNL     1      -7.150  34.731  22.509  1.00  0.00     0.032 C 
BRANCH   6   7
ATOM      7  C   UNL     1      -7.253  34.169  23.906  1.00  0.00    -0.028 C 
ATOM      8  C   UNL     1      -8.146  33.912  26.183  1.00  0.00     0.039 C 
ATOM      9  C   UNL     1      -8.110  34.618  24.852  1.00  0.00    -0.080 C 
ATOM     10  C   UNL     1      -9.024  35.795  24.611  1.00  0.00     0.039 C 
ENDBRANCH   6   7
ENDBRANCH   5   6
ENDBRANCH   3   5
ENDBRANCH   1   2
BRANCH   1  11
ATOM     11  C   UNL     1      -9.861  32.155  23.368  1.00  0.00     0.034 C 
BRANCH  11  12
ATOM     12  C   UNL     1      -9.312  30.940  24.087  1.00  0.00    -0.077 C 
ATOM     13  C   UNL     1     -10.104  30.281  24.964  1.00  0.00    -0.028 C 
ATOM     14  C   UNL     1      -7.900  30.485  23.794  1.00  0.00     0.039 C 
BRANCH  13  15
ATOM     15  C   UNL     1      -9.735  28.978  25.625  1.00  0.00     0.035 C 
BRANCH  15  16
ATOM     16  C   UNL     1      -9.749  29.134  27.150  1.00  0.00     0.079 C 
BRANCH  16  17
ATOM     17  C   UNL     1      -8.669  30.078  27.602  1.00  0.00     0.130 C 
ATOM     18  O   UNL     1      -7.515  29.898  27.242  1.00  0.00    -0.300 OA
ATOM     19  C   UNL     1      -8.994  31.225  28.511  1.00  0.00     0.087 C 
ENDBRANCH  16  17
ENDBRANCH  15  16
ENDBRANCH  13  15
ENDBRANCH  11  12
ENDBRANCH   1  11
TORSDOF 9
ENDMDL
MODEL 6
REMARK VINA RESULT:    -5.850      1.416      4.424
REMARK INTER + INTRA:         -10.720
REMARK INTER:                  -9.114
REMARK INTRA:                  -1.606
REMARK UNBOUND:                -1.793
REMARK SMILES CC(=O)CCC=C(C)CCC=C(C)CCC=C(C)C
REMARK SMILES IDX 10 1 11 2 12 3 13 4 14 5 15 6 16 7 18 8 17 9 19 10 9 11 7 12
REMARK SMILES IDX 6 13 8 14 5 15 4 16 2 17 3 18 1 19
REMARK H PARENT
REMARK Flexibility Score: inf
ROOT
ATOM      1  C   UNL     1      -7.190  34.311  21.914  1.00  0.00     0.032 C 
ENDROOT
BRANCH   1   2
ATOM      2  C   UNL     1      -7.926  35.177  22.904  1.00  0.00    -0.028 C 
ATOM      3  C   UNL     1      -8.280  34.791  24.153  1.00  0.00    -0.077 C 
ATOM      4  C   UNL     1      -8.986  35.790  25.032  1.00  0.00     0.039 C 
BRANCH   3   5
ATOM      5  C   UNL     1      -7.964  33.418  24.725  1.00  0.00     0.034 C 
BRANCH   5   6
ATOM      6  C   UNL     1      -9.057  32.924  25.684  1.00  0.00     0.032 C 
BRANCH   6   7
ATOM      7  C   UNL     1      -8.831  31.496  26.119  1.00  0.00    -0.028 C 
ATOM      8  C   UNL     1      -8.361  29.650  27.674  1.00  0.00     0.039 C 
ATOM      9  C   UNL     1      -8.487  31.121  27.372  1.00  0.00    -0.080 C 
ATOM     10  C   UNL     1      -8.230  32.128  28.468  1.00  0.00     0.039 C 
ENDBRANCH   6   7
ENDBRANCH   5   6
ENDBRANCH   3   5
ENDBRANCH   1   2
BRANCH   1  11
ATOM     11  C   UNL     1      -8.145  33.637  20.917  1.00  0.00     0.034 C 
BRANCH  11  12
ATOM     12  C   UNL     1      -8.192  32.143  21.154  1.00  0.00    -0.077 C 
ATOM     13  C   UNL     1      -7.139  31.537  21.749  1.00  0.00    -0.028 C 
ATOM     14  C   UNL     1      -9.422  31.368  20.738  1.00  0.00     0.039 C 
BRANCH  13  15
ATOM     15  C   UNL     1      -7.123  30.093  22.180  1.00  0.00     0.035 C 
BRANCH  15  16
ATOM     16  C   UNL     1      -7.839  29.933  23.526  1.00  0.00     0.079 C 
BRANCH  16  17
ATOM     17  C   UNL     1      -8.822  28.796  23.479  1.00  0.00     0.130 C 
ATOM     18  O   UNL     1      -9.578  28.608  24.421  1.00  0.00    -0.300 OA
ATOM     19  C   UNL     1      -8.865  27.877  22.296  1.00  0.00     0.087 C 
ENDBRANCH  16  17
ENDBRANCH  15  16
ENDBRANCH  13  15
ENDBRANCH  11  12
ENDBRANCH   1  11
TORSDOF 9
ENDMDL
MODEL 7
REMARK VINA RESULT:    -5.729      1.801      4.816
REMARK INTER + INTRA:         -10.537
REMARK INTER:                  -8.749
REMARK INTRA:                  -1.788
REMARK UNBOUND:                -1.793
REMARK SMILES CC(=O)CCC=C(C)CCC=C(C)CCC=C(C)C
REMARK SMILES IDX 10 1 11 2 12 3 13 4 14 5 15 6 16 7 18 8 17 9 19 10 9 11 7 12
REMARK SMILES IDX 6 13 8 14 5 15 4 16 2 17 3 18 1 19
REMARK H PARENT
REMARK Flexibility Score: inf
ROOT
ATOM      1  C   UNL     1      -8.503  34.586  25.605  1.00  0.00     0.032 C 
ENDROOT
BRANCH   1   2
ATOM      2  C   UNL     1      -8.251  33.800  26.867  1.00  0.00    -0.028 C 
ATOM      3  C   UNL     1      -8.690  32.539  27.090  1.00  0.00    -0.077 C 
ATOM      4  C   UNL     1      -8.327  31.881  28.395  1.00  0.00     0.039 C 
BRANCH   3   5
ATOM      5  C   UNL     1      -9.495  31.742  26.076  1.00  0.00     0.034 C 
BRANCH   5   6
ATOM      6  C   UNL     1      -9.099  30.258  26.058  1.00  0.00     0.032 C 
BRANCH   6   7
ATOM      7  C   UNL     1      -9.207  29.656  24.678  1.00  0.00    -0.028 C 
ATOM      8  C   UNL     1      -8.451  28.969  22.441  1.00  0.00     0.039 C 
ATOM      9  C   UNL     1      -8.219  29.671  23.755  1.00  0.00    -0.080 C 
ATOM     10  C   UNL     1      -6.902  30.365  24.003  1.00  0.00     0.039 C 
ENDBRANCH   6   7
ENDBRANCH   5   6
ENDBRANCH   3   5
ENDBRANCH   1   2
BRANCH   1  11
ATOM     11  C   UNL     1      -7.366  34.417  24.585  1.00  0.00     0.034 C 
BRANCH  11  12
ATOM     12  C   UNL     1      -7.926  34.261  23.187  1.00  0.00    -0.077 C 
ATOM     13  C   UNL     1      -8.712  33.196  22.909  1.00  0.00    -0.028 C 
ATOM     14  C   UNL     1      -7.607  35.307  22.143  1.00  0.00     0.039 C 
BRANCH  13  15
ATOM     15  C   UNL     1      -9.453  33.005  21.611  1.00  0.00     0.035 C 
BRANCH  15  16
ATOM     16  C   UNL     1      -8.826  31.862  20.805  1.00  0.00     0.079 C 
BRANCH  16  17
ATOM     17  C   UNL     1      -7.401  32.180  20.441  1.00  0.00     0.130 C 
ATOM     18  O   UNL     1      -6.494  31.488  20.880  1.00  0.00    -0.300 OA
ATOM     19  C   UNL     1      -7.084  33.353  19.564  1.00  0.00     0.087 C 
ENDBRANCH  16  17
ENDBRANCH  15  16
ENDBRANCH  13  15
ENDBRANCH  11  12
ENDBRANCH   1  11
TORSDOF 9
ENDMDL
MODEL 8
REMARK VINA RESULT:    -5.583      1.309      4.400
REMARK INTER + INTRA:         -10.313
REMARK INTER:                  -8.724
REMARK INTRA:                  -1.589
REMARK UNBOUND:                -1.793
REMARK SMILES CC(=O)CCC=C(C)CCC=C(C)CCC=C(C)C
REMARK SMILES IDX 10 1 11 2 12 3 13 4 14 5 15 6 16 7 18 8 17 9 19 10 9 11 7 12
REMARK SMILES IDX 6 13 8 14 5 15 4 16 2 17 3 18 1 19
REMARK H PARENT
REMARK Flexibility Score: inf
ROOT
ATOM      1  C   UNL     1      -8.171  31.244  21.042  1.00  0.00     0.032 C 
ENDROOT
BRANCH   1   2
ATOM      2  C   UNL     1      -7.622  32.639  20.880  1.00  0.00    -0.028 C 
ATOM      3  C   UNL     1      -7.883  33.672  21.716  1.00  0.00    -0.077 C 
ATOM      4  C   UNL     1      -7.230  34.999  21.431  1.00  0.00     0.039 C 
BRANCH   3   5
ATOM      5  C   UNL     1      -8.766  33.549  22.947  1.00  0.00     0.034 C 
BRANCH   5   6
ATOM      6  C   UNL     1      -8.177  34.285  24.161  1.00  0.00     0.032 C 
BRANCH   6   7
ATOM      7  C   UNL     1      -8.112  33.404  25.384  1.00  0.00    -0.028 C 
ATOM      8  C   UNL     1      -8.197  32.841  27.777  1.00  0.00     0.039 C 
ATOM      9  C   UNL     1      -8.212  33.850  26.657  1.00  0.00    -0.080 C 
ATOM     10  C   UNL     1      -8.339  35.319  26.983  1.00  0.00     0.039 C 
ENDBRANCH   6   7
ENDBRANCH   5   6
ENDBRANCH   3   5
ENDBRANCH   1   2
BRANCH   1  11
ATOM     11  C   UNL     1      -7.318  30.398  22.000  1.00  0.00     0.034 C 
BRANCH  11  12
ATOM     12  C   UNL     1      -8.202  29.519  22.861  1.00  0.00    -0.077 C 
ATOM     13  C   UNL     1      -8.625  29.985  24.058  1.00  0.00    -0.028 C 
ATOM     14  C   UNL     1      -8.603  28.153  22.353  1.00  0.00     0.039 C 
BRANCH  13  15
ATOM     15  C   UNL     1      -9.626  29.279  24.936  1.00  0.00     0.035 C 
BRANCH  15  16
ATOM     16  C   UNL     1      -9.785  30.025  26.266  1.00  0.00     0.079 C 
BRANCH  16  17
ATOM     17  C   UNL     1      -9.629  29.087  27.431  1.00  0.00     0.130 C 
ATOM     18  O   UNL     1      -9.433  27.897  27.229  1.00  0.00    -0.300 OA
ATOM     19  C   UNL     1      -9.736  29.595  28.836  1.00  0.00     0.087 C 
ENDBRANCH  16  17
ENDBRANCH  15  16
ENDBRANCH  13  15
ENDBRANCH  11  12
ENDBRANCH   1  11
TORSDOF 9
ENDMDL
MODEL 9
REMARK VINA RESULT:    -5.344      2.336      6.591
REMARK INTER + INTRA:          -9.950
REMARK INTER:                  -8.728
REMARK INTRA:                  -1.221
REMARK UNBOUND:                -1.793
REMARK SMILES CC(=O)CCC=C(C)CCC=C(C)CCC=C(C)C
REMARK SMILES IDX 10 1 11 2 12 3 13 4 14 5 15 6 16 7 18 8 17 9 19 10 9 11 7 12
REMARK SMILES IDX 6 13 8 14 5 15 4 16 2 17 3 18 1 19
REMARK H PARENT
REMARK Flexibility Score: inf
ROOT
ATOM      1  C   UNL     1      -8.007  30.073  25.360  1.00  0.00     0.032 C 
ENDROOT
BRANCH   1   2
ATOM      2  C   UNL     1      -8.256  29.849  26.830  1.00  0.00    -0.028 C 
ATOM      3  C   UNL     1      -8.814  30.757  27.664  1.00  0.00    -0.077 C 
ATOM      4  C   UNL     1      -9.023  30.366  29.104  1.00  0.00     0.039 C 
BRANCH   3   5
ATOM      5  C   UNL     1      -9.275  32.135  27.214  1.00  0.00     0.034 C 
BRANCH   5   6
ATOM      6  C   UNL     1      -8.176  33.197  27.378  1.00  0.00     0.032 C 
BRANCH   6   7
ATOM      7  C   UNL     1      -8.511  34.478  26.654  1.00  0.00    -0.028 C 
ATOM      8  C   UNL     1      -8.769  35.994  24.735  1.00  0.00     0.039 C 
ATOM      9  C   UNL     1      -8.323  34.683  25.330  1.00  0.00    -0.080 C 
ATOM     10  C   UNL     1      -7.684  33.644  24.441  1.00  0.00     0.039 C 
ENDBRANCH   6   7
ENDBRANCH   5   6
ENDBRANCH   3   5
ENDBRANCH   1   2
BRANCH   1  11
ATOM     11  C   UNL     1      -8.986  29.279  24.482  1.00  0.00     0.034 C 
BRANCH  11  12
ATOM     12  C   UNL     1      -8.849  29.689  23.031  1.00  0.00    -0.077 C 
ATOM     13  C   UNL     1      -9.096  30.973  22.684  1.00  0.00    -0.028 C 
ATOM     14  C   UNL     1      -8.424  28.658  22.010  1.00  0.00     0.039 C 
BRANCH  13  15
ATOM     15  C   UNL     1      -8.848  31.542  21.310  1.00  0.00     0.035 C 
BRANCH  15  16
ATOM     16  C   UNL     1      -7.374  31.932  21.156  1.00  0.00     0.079 C 
BRANCH  16  17
ATOM     17  C   UNL     1      -7.243  33.318  20.586  1.00  0.00     0.130 C 
ATOM     18  O   UNL     1      -6.726  33.477  19.490  1.00  0.00    -0.300 OA
ATOM     19  C   UNL     1      -7.720  34.507  21.363  1.00  0.00     0.087 C 
ENDBRANCH  16  17
ENDBRANCH  15  16
ENDBRANCH  13  15
ENDBRANCH  11  12
ENDBRANCH   1  11
TORSDOF 9
ENDMDL
