MODEL 1
REMARK VINA RESULT:    -3.210      0.000      0.000
REMARK INTER + INTRA:          -3.591
REMARK INTER:                  -3.585
REMARK INTRA:                  -0.006
REMARK UNBOUND:                -0.006
REMARK SMILES CCCC(=O)[O-]
REMARK SMILES IDX 3 1 4 2 5 3 6 4 2 5 1 6
REMARK H PARENT
REMARK Flexibility Score: inf
ROOT
ATOM      1  C   UNL     1      -6.774  25.937  60.028  1.00  0.00     0.052 C 
ENDROOT
BRANCH   1   2
ATOM      2  C   UNL     1      -7.536  26.318  58.795  1.00  0.00     0.041 C 
ATOM      3  O   UNL     1      -8.559  25.667  58.456  1.00  0.00    -0.550 OA
ATOM      4  O   UNL     1      -7.097  27.370  58.002  1.00  0.00    -0.550 OA
ENDBRANCH   1   2
BRANCH   1   5
ATOM      5  C   UNL     1      -7.680  25.894  61.265  1.00  0.00     0.003 C 
ATOM      6  C   UNL     1      -6.916  26.189  62.556  1.00  0.00     0.004 C 
ENDBRANCH   1   5
TORSDOF 2
ENDMDL
MODEL 2
REMARK VINA RESULT:    -3.092      1.789      2.391
REMARK INTER + INTRA:          -3.460
REMARK INTER:                  -3.417
REMARK INTRA:                  -0.042
REMARK UNBOUND:                -0.006
REMARK SMILES CCCC(=O)[O-]
REMARK SMILES IDX 3 1 4 2 5 3 6 4 2 5 1 6
REMARK H PARENT
REMARK Flexibility Score: inf
ROOT
ATOM      1  C   UNL     1      -7.009  26.023  58.069  1.00  0.00     0.052 C 
ENDROOT
BRANCH   1   2
ATOM      2  C   UNL     1      -7.606  24.815  57.413  1.00  0.00     0.041 C 
ATOM      3  O   UNL     1      -8.787  24.847  56.979  1.00  0.00    -0.550 OA
ATOM      4  O   UNL     1      -6.868  23.642  57.310  1.00  0.00    -0.550 OA
ENDBRANCH   1   2
BRANCH   1   5
ATOM      5  C   UNL     1      -7.870  26.518  59.238  1.00  0.00     0.003 C 
ATOM      6  C   UNL     1      -7.473  25.875  60.566  1.00  0.00     0.004 C 
ENDBRANCH   1   5
TORSDOF 2
ENDMDL
MODEL 3
REMARK VINA RESULT:    -2.976      2.395      2.866
REMARK INTER + INTRA:          -3.329
REMARK INTER:                  -3.267
REMARK INTRA:                  -0.062
REMARK UNBOUND:                -0.006
REMARK SMILES CCCC(=O)[O-]
REMARK SMILES IDX 3 1 4 2 5 3 6 4 2 5 1 6
REMARK H PARENT
REMARK Flexibility Score: inf
ROOT
ATOM      1  C   UNL     1      -6.629  24.336  57.953  1.00  0.00     0.052 C 
ENDROOT
BRANCH   1   2
ATOM      2  C   UNL     1      -7.420  24.548  56.697  1.00  0.00     0.041 C 
ATOM      3  O   UNL     1      -8.282  23.703  56.342  1.00  0.00    -0.550 OA
ATOM      4  O   UNL     1      -7.181  25.663  55.903  1.00  0.00    -0.550 OA
ENDBRANCH   1   2
BRANCH   1   5
ATOM      5  C   UNL     1      -6.683  25.563  58.873  1.00  0.00     0.003 C 
ATOM      6  C   UNL     1      -8.113  25.932  59.268  1.00  0.00     0.004 C 
ENDBRANCH   1   5
TORSDOF 2
ENDMDL
MODEL 4
REMARK VINA RESULT:    -2.929      2.709      3.751
REMARK INTER + INTRA:          -3.278
REMARK INTER:                  -3.266
REMARK INTRA:                  -0.011
REMARK UNBOUND:                -0.006
REMARK SMILES CCCC(=O)[O-]
REMARK SMILES IDX 3 1 4 2 5 3 6 4 2 5 1 6
REMARK H PARENT
REMARK Flexibility Score: inf
ROOT
ATOM      1  C   UNL     1      -7.267  25.989  60.778  1.00  0.00     0.052 C 
ENDROOT
BRANCH   1   2
ATOM      2  C   UNL     1      -7.873  25.864  62.143  1.00  0.00     0.041 C 
ATOM      3  O   UNL     1      -7.141  25.901  63.167  1.00  0.00    -0.550 OA
ATOM      4  O   UNL     1      -9.242  25.672  62.282  1.00  0.00    -0.550 OA
ENDBRANCH   1   2
BRANCH   1   5
ATOM      5  C   UNL     1      -8.340  26.057  59.683  1.00  0.00     0.003 C 
ATOM      6  C   UNL     1      -7.792  25.682  58.307  1.00  0.00     0.004 C 
ENDBRANCH   1   5
TORSDOF 2
ENDMDL
MODEL 5
REMARK VINA RESULT:    -2.916      6.812      7.459
REMARK INTER + INTRA:          -3.263
REMARK INTER:                  -3.238
REMARK INTRA:                  -0.025
REMARK UNBOUND:                -0.006
REMARK SMILES CCCC(=O)[O-]
REMARK SMILES IDX 3 1 4 2 5 3 6 4 2 5 1 6
REMARK H PARENT
REMARK Flexibility Score: inf
ROOT
ATOM      1  C   UNL     1      -6.090  30.906  54.870  1.00  0.00     0.052 C 
ENDROOT
BRANCH   1   2
ATOM      2  C   UNL     1      -7.356  31.706  54.802  1.00  0.00     0.041 C 
ATOM      3  O   UNL     1      -8.226  31.594  55.705  1.00  0.00    -0.550 OA
ATOM      4  O   UNL     1      -7.589  32.551  53.724  1.00  0.00    -0.550 OA
ENDBRANCH   1   2
BRANCH   1   5
ATOM      5  C   UNL     1      -5.284  31.224  56.136  1.00  0.00     0.003 C 
ATOM      6  C   UNL     1      -4.107  32.157  55.857  1.00  0.00     0.004 C 
ENDBRANCH   1   5
TORSDOF 2
ENDMDL
MODEL 6
REMARK VINA RESULT:    -2.901      7.432      8.727
REMARK INTER + INTRA:          -3.246
REMARK INTER:                  -3.240
REMARK INTRA:                  -0.006
REMARK UNBOUND:                -0.006
REMARK SMILES CCCC(=O)[O-]
REMARK SMILES IDX 3 1 4 2 5 3 6 4 2 5 1 6
REMARK H PARENT
REMARK Flexibility Score: inf
ROOT
ATOM      1  C   UNL     1      -7.249  32.884  54.080  1.00  0.00     0.052 C 
ENDROOT
BRANCH   1   2
ATOM      2  C   UNL     1      -7.374  31.669  54.948  1.00  0.00     0.041 C 
ATOM      3  O   UNL     1      -8.003  31.731  56.037  1.00  0.00    -0.550 OA
ATOM      4  O   UNL     1      -6.767  30.478  54.571  1.00  0.00    -0.550 OA
ENDBRANCH   1   2
BRANCH   1   5
ATOM      5  C   UNL     1      -5.803  33.393  54.018  1.00  0.00     0.003 C 
ATOM      6  C   UNL     1      -5.726  34.912  53.873  1.00  0.00     0.004 C 
ENDBRANCH   1   5
TORSDOF 2
ENDMDL
MODEL 7
REMARK VINA RESULT:    -2.838      3.211      4.298
REMARK INTER + INTRA:          -3.176
REMARK INTER:                  -3.133
REMARK INTRA:                  -0.043
REMARK UNBOUND:                -0.006
REMARK SMILES CCCC(=O)[O-]
REMARK SMILES IDX 3 1 4 2 5 3 6 4 2 5 1 6
REMARK H PARENT
REMARK Flexibility Score: inf
ROOT
ATOM      1  C   UNL     1      -6.366  24.063  57.947  1.00  0.00     0.052 C 
ENDROOT
BRANCH   1   2
ATOM      2  C   UNL     1      -7.530  24.549  57.137  1.00  0.00     0.041 C 
ATOM      3  O   UNL     1      -7.909  25.746  57.229  1.00  0.00    -0.550 OA
ATOM      4  O   UNL     1      -8.215  23.672  56.306  1.00  0.00    -0.550 OA
ENDBRANCH   1   2
BRANCH   1   5
ATOM      5  C   UNL     1      -5.026  24.436  57.298  1.00  0.00     0.003 C 
ATOM      6  C   UNL     1      -4.519  23.354  56.346  1.00  0.00     0.004 C 
ENDBRANCH   1   5
TORSDOF 2
ENDMDL
MODEL 8
REMARK VINA RESULT:    -2.759     12.365     13.330
REMARK INTER + INTRA:          -3.088
REMARK INTER:                  -3.064
REMARK INTRA:                  -0.023
REMARK UNBOUND:                -0.006
REMARK SMILES CCCC(=O)[O-]
REMARK SMILES IDX 3 1 4 2 5 3 6 4 2 5 1 6
REMARK H PARENT
REMARK Flexibility Score: inf
ROOT
ATOM      1  C   UNL     1     -13.741  25.523  48.280  1.00  0.00     0.052 C 
ENDROOT
BRANCH   1   2
ATOM      2  C   UNL     1     -14.244  26.248  49.491  1.00  0.00     0.041 C 
ATOM      3  O   UNL     1     -14.295  27.506  49.500  1.00  0.00    -0.550 OA
ATOM      4  O   UNL     1     -14.625  25.536  50.621  1.00  0.00    -0.550 OA
ENDBRANCH   1   2
BRANCH   1   5
ATOM      5  C   UNL     1     -12.602  26.288  47.591  1.00  0.00     0.003 C 
ATOM      6  C   UNL     1     -12.715  26.251  46.068  1.00  0.00     0.004 C 
ENDBRANCH   1   5
TORSDOF 2
ENDMDL
MODEL 9
REMARK VINA RESULT:    -2.728      2.029      2.892
REMARK INTER + INTRA:          -3.053
REMARK INTER:                  -3.023
REMARK INTRA:                  -0.030
REMARK UNBOUND:                -0.006
REMARK SMILES CCCC(=O)[O-]
REMARK SMILES IDX 3 1 4 2 5 3 6 4 2 5 1 6
REMARK H PARENT
REMARK Flexibility Score: inf
ROOT
ATOM      1  C   UNL     1      -6.263  25.955  59.322  1.00  0.00     0.052 C 
ENDROOT
BRANCH   1   2
ATOM      2  C   UNL     1      -7.182  25.039  58.572  1.00  0.00     0.041 C 
ATOM      3  O   UNL     1      -6.830  23.857  58.319  1.00  0.00    -0.550 OA
ATOM      4  O   UNL     1      -8.413  25.501  58.124  1.00  0.00    -0.550 OA
ENDBRANCH   1   2
BRANCH   1   5
ATOM      5  C   UNL     1      -5.007  26.291  58.508  1.00  0.00     0.003 C 
ATOM      6  C   UNL     1      -3.719  25.945  59.254  1.00  0.00     0.004 C 
ENDBRANCH   1   5
TORSDOF 2
ENDMDL
