MODEL 1
REMARK VINA RESULT:    -6.609      0.000      0.000
REMARK INTER + INTRA:          -8.769
REMARK INTER:                  -8.154
REMARK INTRA:                  -0.615
REMARK UNBOUND:                -0.615
REMARK SMILES CC(C)=CCC[C@H](C)c1ccc(C)cc1
REMARK SMILES IDX 6 1 7 2 8 3 9 4 13 5 12 6 11 7 14 8 10 9 15 10 5 11 4 12
REMARK SMILES IDX 2 13 1 14 3 15
REMARK H PARENT
REMARK Flexibility Score: inf
ROOT
ATOM      1  C   UNL     1     -16.488  -3.669 -22.806  1.00  0.00     0.012 C 
ENDROOT
BRANCH   1   2
ATOM      2  C   UNL     1     -16.906  -4.827 -23.747  1.00  0.00     0.016 C 
ATOM      3  C   UNL     1     -16.137  -6.125 -23.455  1.00  0.00     0.013 C 
BRANCH   2   4
ATOM      4  C   UNL     1     -16.721  -4.416 -25.196  1.00  0.00    -0.045 A 
ATOM      5  C   UNL     1     -16.188  -3.283 -29.331  1.00  0.00     0.044 C 
ATOM      6  C   UNL     1     -16.404  -3.682 -27.901  1.00  0.00    -0.051 A 
ATOM      7  C   UNL     1     -16.195  -5.009 -27.498  1.00  0.00     0.004 A 
ATOM      8  C   UNL     1     -16.750  -2.719 -26.943  1.00  0.00     0.004 A 
ATOM      9  C   UNL     1     -16.359  -5.375 -26.160  1.00  0.00     0.004 A 
ATOM     10  C   UNL     1     -16.915  -3.083 -25.604  1.00  0.00     0.004 A 
ENDBRANCH   2   4
ENDBRANCH   1   2
BRANCH   1  11
ATOM     11  C   UNL     1     -15.457  -4.065 -21.734  1.00  0.00     0.028 C 
BRANCH  11  12
ATOM     12  C   UNL     1     -14.194  -3.241 -21.817  1.00  0.00    -0.028 C 
ATOM     13  C   UNL     1     -13.798  -2.346 -20.886  1.00  0.00    -0.080 C 
ATOM     14  C   UNL     1     -12.490  -1.626 -21.094  1.00  0.00     0.039 C 
ATOM     15  C   UNL     1     -14.634  -2.032 -19.666  1.00  0.00     0.039 C 
ENDBRANCH  11  12
ENDBRANCH   1  11
TORSDOF 4
ENDMDL
MODEL 2
REMARK VINA RESULT:    -6.496     12.943     16.013
REMARK INTER + INTRA:          -8.631
REMARK INTER:                  -7.863
REMARK INTRA:                  -0.768
REMARK UNBOUND:                -0.615
REMARK SMILES CC(C)=CCC[C@H](C)c1ccc(C)cc1
REMARK SMILES IDX 6 1 7 2 8 3 9 4 13 5 12 6 11 7 14 8 10 9 15 10 5 11 4 12
REMARK SMILES IDX 2 13 1 14 3 15
REMARK H PARENT
REMARK Flexibility Score: inf
ROOT
ATOM      1  C   UNL     1      -1.688   5.718 -20.766  1.00  0.00     0.012 C 
ENDROOT
BRANCH   1   2
ATOM      2  C   UNL     1      -2.696   6.839 -20.411  1.00  0.00     0.016 C 
ATOM      3  C   UNL     1      -3.658   6.427 -19.285  1.00  0.00     0.013 C 
BRANCH   2   4
ATOM      4  C   UNL     1      -3.474   7.253 -21.647  1.00  0.00    -0.045 A 
ATOM      5  C   UNL     1      -5.707   8.456 -25.145  1.00  0.00     0.044 C 
ATOM      6  C   UNL     1      -4.910   8.061 -23.937  1.00  0.00    -0.051 A 
ATOM      7  C   UNL     1      -5.191   8.632 -22.687  1.00  0.00     0.004 A 
ATOM      8  C   UNL     1      -3.924   7.069 -24.034  1.00  0.00     0.004 A 
ATOM      9  C   UNL     1      -4.474   8.238 -21.554  1.00  0.00     0.004 A 
ATOM     10  C   UNL     1      -3.207   6.674 -22.902  1.00  0.00     0.004 A 
ENDBRANCH   2   4
ENDBRANCH   1   2
BRANCH   1  11
ATOM     11  C   UNL     1      -2.100   4.318 -20.276  1.00  0.00     0.028 C 
BRANCH  11  12
ATOM     12  C   UNL     1      -3.056   3.635 -21.224  1.00  0.00    -0.028 C 
ATOM     13  C   UNL     1      -4.085   2.848 -20.843  1.00  0.00    -0.080 C 
ATOM     14  C   UNL     1      -4.976   2.266 -21.910  1.00  0.00     0.039 C 
ATOM     15  C   UNL     1      -4.351   2.519 -19.392  1.00  0.00     0.039 C 
ENDBRANCH  11  12
ENDBRANCH   1  11
TORSDOF 4
ENDMDL
MODEL 3
REMARK VINA RESULT:    -6.495     13.126     16.291
REMARK INTER + INTRA:          -8.629
REMARK INTER:                  -7.577
REMARK INTRA:                  -1.053
REMARK UNBOUND:                -0.615
REMARK SMILES CC(C)=CCC[C@H](C)c1ccc(C)cc1
REMARK SMILES IDX 6 1 7 2 8 3 9 4 13 5 12 6 11 7 14 8 10 9 15 10 5 11 4 12
REMARK SMILES IDX 2 13 1 14 3 15
REMARK H PARENT
REMARK Flexibility Score: inf
ROOT
ATOM      1  C   UNL     1      -3.443   7.659 -19.961  1.00  0.00     0.012 C 
ENDROOT
BRANCH   1   2
ATOM      2  C   UNL     1      -2.380   6.533 -20.019  1.00  0.00     0.016 C 
ATOM      3  C   UNL     1      -1.502   6.622 -21.277  1.00  0.00     0.013 C 
BRANCH   2   4
ATOM      4  C   UNL     1      -3.051   5.174 -19.936  1.00  0.00    -0.045 A 
ATOM      5  C   UNL     1      -4.957   1.303 -19.736  1.00  0.00     0.044 C 
ATOM      6  C   UNL     1      -4.267   2.633 -19.799  1.00  0.00    -0.051 A 
ATOM      7  C   UNL     1      -3.810   3.134 -21.027  1.00  0.00     0.004 A 
ATOM      8  C   UNL     1      -4.134   3.416 -18.644  1.00  0.00     0.004 A 
ATOM      9  C   UNL     1      -3.201   4.390 -21.094  1.00  0.00     0.004 A 
ATOM     10  C   UNL     1      -3.525   4.672 -18.710  1.00  0.00     0.004 A 
ENDBRANCH   2   4
ENDBRANCH   1   2
BRANCH   1  11
ATOM     11  C   UNL     1      -3.521   8.522 -21.233  1.00  0.00     0.028 C 
BRANCH  11  12
ATOM     12  C   UNL     1      -4.908   8.544 -21.829  1.00  0.00    -0.028 C 
ATOM     13  C   UNL     1      -5.313   7.772 -22.861  1.00  0.00    -0.080 C 
ATOM     14  C   UNL     1      -6.745   7.883 -23.320  1.00  0.00     0.039 C 
ATOM     15  C   UNL     1      -4.373   6.830 -23.577  1.00  0.00     0.039 C 
ENDBRANCH  11  12
ENDBRANCH   1  11
TORSDOF 4
ENDMDL
MODEL 4
REMARK VINA RESULT:    -6.386     13.169     15.892
REMARK INTER + INTRA:          -8.495
REMARK INTER:                  -7.712
REMARK INTRA:                  -0.783
REMARK UNBOUND:                -0.615
REMARK SMILES CC(C)=CCC[C@H](C)c1ccc(C)cc1
REMARK SMILES IDX 6 1 7 2 8 3 9 4 13 5 12 6 11 7 14 8 10 9 15 10 5 11 4 12
REMARK SMILES IDX 2 13 1 14 3 15
REMARK H PARENT
REMARK Flexibility Score: inf
ROOT
ATOM      1  C   UNL     1      -3.680   5.967 -19.385  1.00  0.00     0.012 C 
ENDROOT
BRANCH   1   2
ATOM      2  C   UNL     1      -3.027   7.150 -20.143  1.00  0.00     0.016 C 
ATOM      3  C   UNL     1      -3.059   8.454 -19.331  1.00  0.00     0.013 C 
BRANCH   2   4
ATOM      4  C   UNL     1      -3.702   7.346 -21.488  1.00  0.00    -0.045 A 
ATOM      5  C   UNL     1      -5.606   7.876 -25.330  1.00  0.00     0.044 C 
ATOM      6  C   UNL     1      -4.970   7.675 -23.986  1.00  0.00    -0.051 A 
ATOM      7  C   UNL     1      -4.090   6.604 -23.774  1.00  0.00     0.004 A 
ATOM      8  C   UNL     1      -5.197   8.595 -22.952  1.00  0.00     0.004 A 
ATOM      9  C   UNL     1      -3.468   6.436 -22.534  1.00  0.00     0.004 A 
ATOM     10  C   UNL     1      -4.575   8.428 -21.712  1.00  0.00     0.004 A 
ENDBRANCH   2   4
ENDBRANCH   1   2
BRANCH   1  11
ATOM     11  C   UNL     1      -2.852   4.670 -19.402  1.00  0.00     0.028 C 
BRANCH  11  12
ATOM     12  C   UNL     1      -3.696   3.445 -19.143  1.00  0.00    -0.028 C 
ATOM     13  C   UNL     1      -4.188   2.634 -20.105  1.00  0.00    -0.080 C 
ATOM     14  C   UNL     1      -4.984   1.425 -19.684  1.00  0.00     0.039 C 
ATOM     15  C   UNL     1      -3.986   2.916 -21.576  1.00  0.00     0.039 C 
ENDBRANCH  11  12
ENDBRANCH   1  11
TORSDOF 4
ENDMDL
MODEL 5
REMARK VINA RESULT:    -6.245     14.401     15.737
REMARK INTER + INTRA:          -8.320
REMARK INTER:                  -7.752
REMARK INTRA:                  -0.568
REMARK UNBOUND:                -0.615
REMARK SMILES CC(C)=CCC[C@H](C)c1ccc(C)cc1
REMARK SMILES IDX 6 1 7 2 8 3 9 4 13 5 12 6 11 7 14 8 10 9 15 10 5 11 4 12
REMARK SMILES IDX 2 13 1 14 3 15
REMARK H PARENT
REMARK Flexibility Score: inf
ROOT
ATOM      1  C   UNL     1      -6.292   7.902 -23.136  1.00  0.00     0.012 C 
ENDROOT
BRANCH   1   2
ATOM      2  C   UNL     1      -4.749   7.908 -23.271  1.00  0.00     0.016 C 
ATOM      3  C   UNL     1      -4.289   7.943 -24.737  1.00  0.00     0.013 C 
BRANCH   2   4
ATOM      4  C   UNL     1      -4.156   6.706 -22.559  1.00  0.00    -0.045 A 
ATOM      5  C   UNL     1      -2.486   3.263 -20.553  1.00  0.00     0.044 C 
ATOM      6  C   UNL     1      -3.040   4.460 -21.269  1.00  0.00    -0.051 A 
ATOM      7  C   UNL     1      -3.917   4.292 -22.350  1.00  0.00     0.004 A 
ATOM      8  C   UNL     1      -2.741   5.754 -20.820  1.00  0.00     0.004 A 
ATOM      9  C   UNL     1      -4.464   5.405 -22.995  1.00  0.00     0.004 A 
ATOM     10  C   UNL     1      -3.287   6.867 -21.463  1.00  0.00     0.004 A 
ENDBRANCH   2   4
ENDBRANCH   1   2
BRANCH   1  11
ATOM     11  C   UNL     1      -6.804   8.200 -21.716  1.00  0.00     0.028 C 
BRANCH  11  12
ATOM     12  C   UNL     1      -8.295   8.436 -21.680  1.00  0.00    -0.028 C 
ATOM     13  C   UNL     1      -9.022   8.590 -20.551  1.00  0.00    -0.080 C 
ATOM     14  C   UNL     1     -10.500   8.858 -20.682  1.00  0.00     0.039 C 
ATOM     15  C   UNL     1      -8.405   8.478 -19.177  1.00  0.00     0.039 C 
ENDBRANCH  11  12
ENDBRANCH   1  11
TORSDOF 4
ENDMDL
MODEL 6
REMARK VINA RESULT:    -6.224     14.575     16.466
REMARK INTER + INTRA:          -8.295
REMARK INTER:                  -7.006
REMARK INTRA:                  -1.289
REMARK UNBOUND:                -0.615
REMARK SMILES CC(C)=CCC[C@H](C)c1ccc(C)cc1
REMARK SMILES IDX 6 1 7 2 8 3 9 4 13 5 12 6 11 7 14 8 10 9 15 10 5 11 4 12
REMARK SMILES IDX 2 13 1 14 3 15
REMARK H PARENT
REMARK Flexibility Score: inf
ROOT
ATOM      1  C   UNL     1      -2.190   5.679 -21.583  1.00  0.00     0.012 C 
ENDROOT
BRANCH   1   2
ATOM      2  C   UNL     1      -3.692   5.377 -21.811  1.00  0.00     0.016 C 
ATOM      3  C   UNL     1      -3.925   3.973 -22.394  1.00  0.00     0.013 C 
BRANCH   2   4
ATOM      4  C   UNL     1      -4.308   6.432 -22.712  1.00  0.00    -0.045 A 
ATOM      5  C   UNL     1      -6.086   9.441 -25.251  1.00  0.00     0.044 C 
ATOM      6  C   UNL     1      -5.452   8.419 -24.355  1.00  0.00    -0.051 A 
ATOM      7  C   UNL     1      -6.071   8.053 -23.151  1.00  0.00     0.004 A 
ATOM      8  C   UNL     1      -4.270   7.773 -24.745  1.00  0.00     0.004 A 
ATOM      9  C   UNL     1      -5.500   7.074 -22.333  1.00  0.00     0.004 A 
ATOM     10  C   UNL     1      -3.699   6.794 -23.928  1.00  0.00     0.004 A 
ENDBRANCH   2   4
ENDBRANCH   1   2
BRANCH   1  11
ATOM     11  C   UNL     1      -1.909   6.628 -20.404  1.00  0.00     0.028 C 
BRANCH  11  12
ATOM     12  C   UNL     1      -2.026   8.082 -20.795  1.00  0.00    -0.028 C 
ATOM     13  C   UNL     1      -2.993   8.919 -20.359  1.00  0.00    -0.080 C 
ATOM     14  C   UNL     1      -2.953  10.357 -20.811  1.00  0.00     0.039 C 
ATOM     15  C   UNL     1      -4.114   8.453 -19.459  1.00  0.00     0.039 C 
ENDBRANCH  11  12
ENDBRANCH   1  11
TORSDOF 4
ENDMDL
MODEL 7
REMARK VINA RESULT:    -6.134     14.493     16.046
REMARK INTER + INTRA:          -8.184
REMARK INTER:                  -6.906
REMARK INTRA:                  -1.278
REMARK UNBOUND:                -0.615
REMARK SMILES CC(C)=CCC[C@H](C)c1ccc(C)cc1
REMARK SMILES IDX 6 1 7 2 8 3 9 4 13 5 12 6 11 7 14 8 10 9 15 10 5 11 4 12
REMARK SMILES IDX 2 13 1 14 3 15
REMARK H PARENT
REMARK Flexibility Score: inf
ROOT
ATOM      1  C   UNL     1      -3.766   3.187 -19.290  1.00  0.00     0.012 C 
ENDROOT
BRANCH   1   2
ATOM      2  C   UNL     1      -2.778   3.241 -20.482  1.00  0.00     0.016 C 
ATOM      3  C   UNL     1      -1.314   3.338 -20.026  1.00  0.00     0.013 C 
BRANCH   2   4
ATOM      4  C   UNL     1      -3.126   4.400 -21.398  1.00  0.00    -0.045 A 
ATOM      5  C   UNL     1      -4.142   7.681 -24.019  1.00  0.00     0.044 C 
ATOM      6  C   UNL     1      -3.810   6.553 -23.087  1.00  0.00    -0.051 A 
ATOM      7  C   UNL     1      -4.513   5.343 -23.164  1.00  0.00     0.004 A 
ATOM      8  C   UNL     1      -2.748   6.677 -22.179  1.00  0.00     0.004 A 
ATOM      9  C   UNL     1      -4.180   4.278 -22.321  1.00  0.00     0.004 A 
ATOM     10  C   UNL     1      -2.414   5.613 -21.337  1.00  0.00     0.004 A 
ENDBRANCH   2   4
ENDBRANCH   1   2
BRANCH   1  11
ATOM     11  C   UNL     1      -3.247   3.863 -18.008  1.00  0.00     0.028 C 
BRANCH  11  12
ATOM     12  C   UNL     1      -3.692   5.301 -17.895  1.00  0.00    -0.028 C 
ATOM     13  C   UNL     1      -2.857   6.360 -17.817  1.00  0.00    -0.080 C 
ATOM     14  C   UNL     1      -3.457   7.742 -17.747  1.00  0.00     0.039 C 
ATOM     15  C   UNL     1      -1.356   6.198 -17.773  1.00  0.00     0.039 C 
ENDBRANCH  11  12
ENDBRANCH   1  11
TORSDOF 4
ENDMDL
MODEL 8
REMARK VINA RESULT:    -6.131     14.836     15.939
REMARK INTER + INTRA:          -8.180
REMARK INTER:                  -7.278
REMARK INTRA:                  -0.902
REMARK UNBOUND:                -0.615
REMARK SMILES CC(C)=CCC[C@H](C)c1ccc(C)cc1
REMARK SMILES IDX 6 1 7 2 8 3 9 4 13 5 12 6 11 7 14 8 10 9 15 10 5 11 4 12
REMARK SMILES IDX 2 13 1 14 3 15
REMARK H PARENT
REMARK Flexibility Score: inf
ROOT
ATOM      1  C   UNL     1      -1.967   5.744 -20.989  1.00  0.00     0.012 C 
ENDROOT
BRANCH   1   2
ATOM      2  C   UNL     1      -3.405   5.269 -21.317  1.00  0.00     0.016 C 
ATOM      3  C   UNL     1      -3.427   3.884 -21.981  1.00  0.00     0.013 C 
BRANCH   2   4
ATOM      4  C   UNL     1      -4.105   6.289 -22.197  1.00  0.00    -0.045 A 
ATOM      5  C   UNL     1      -6.104   9.167 -24.724  1.00  0.00     0.044 C 
ATOM      6  C   UNL     1      -5.438   8.162 -23.831  1.00  0.00    -0.051 A 
ATOM      7  C   UNL     1      -5.338   6.821 -24.228  1.00  0.00     0.004 A 
ATOM      8  C   UNL     1      -4.849   8.569 -22.626  1.00  0.00     0.004 A 
ATOM      9  C   UNL     1      -4.685   5.891 -23.414  1.00  0.00     0.004 A 
ATOM     10  C   UNL     1      -4.195   7.640 -21.812  1.00  0.00     0.004 A 
ENDBRANCH   2   4
ENDBRANCH   1   2
BRANCH   1  11
ATOM     11  C   UNL     1      -1.594   5.646 -19.499  1.00  0.00     0.028 C 
BRANCH  11  12
ATOM     12  C   UNL     1      -2.724   6.073 -18.593  1.00  0.00    -0.028 C 
ATOM     13  C   UNL     1      -3.438   5.236 -17.809  1.00  0.00    -0.080 C 
ATOM     14  C   UNL     1      -4.514   5.821 -16.930  1.00  0.00     0.039 C 
ATOM     15  C   UNL     1      -3.207   3.743 -17.808  1.00  0.00     0.039 C 
ENDBRANCH  11  12
ENDBRANCH   1  11
TORSDOF 4
ENDMDL
MODEL 9
REMARK VINA RESULT:    -6.051     14.876     16.552
REMARK INTER + INTRA:          -8.081
REMARK INTER:                  -7.042
REMARK INTRA:                  -1.039
REMARK UNBOUND:                -0.615
REMARK SMILES CC(C)=CCC[C@H](C)c1ccc(C)cc1
REMARK SMILES IDX 6 1 7 2 8 3 9 4 13 5 12 6 11 7 14 8 10 9 15 10 5 11 4 12
REMARK SMILES IDX 2 13 1 14 3 15
REMARK H PARENT
REMARK Flexibility Score: inf
ROOT
ATOM      1  C   UNL     1      -1.661   5.614 -21.134  1.00  0.00     0.012 C 
ENDROOT
BRANCH   1   2
ATOM      2  C   UNL     1      -3.161   5.238 -21.222  1.00  0.00     0.016 C 
ATOM      3  C   UNL     1      -3.377   3.812 -21.752  1.00  0.00     0.013 C 
BRANCH   2   4
ATOM      4  C   UNL     1      -3.903   6.242 -22.085  1.00  0.00    -0.045 A 
ATOM      5  C   UNL     1      -6.022   9.075 -24.565  1.00  0.00     0.044 C 
ATOM      6  C   UNL     1      -5.313   8.086 -23.688  1.00  0.00    -0.051 A 
ATOM      7  C   UNL     1      -5.210   6.743 -24.077  1.00  0.00     0.004 A 
ATOM      8  C   UNL     1      -4.689   8.509 -22.505  1.00  0.00     0.004 A 
ATOM      9  C   UNL     1      -4.518   5.827 -23.279  1.00  0.00     0.004 A 
ATOM     10  C   UNL     1      -3.997   7.595 -21.707  1.00  0.00     0.004 A 
ENDBRANCH   2   4
ENDBRANCH   1   2
BRANCH   1  11
ATOM     11  C   UNL     1      -1.073   5.541 -19.713  1.00  0.00     0.028 C 
BRANCH  11  12
ATOM     12  C   UNL     1      -2.014   6.098 -18.672  1.00  0.00    -0.028 C 
ATOM     13  C   UNL     1      -2.171   7.413 -18.402  1.00  0.00    -0.080 C 
ATOM     14  C   UNL     1      -3.180   7.814 -17.357  1.00  0.00     0.039 C 
ATOM     15  C   UNL     1      -1.353   8.478 -19.094  1.00  0.00     0.039 C 
ENDBRANCH  11  12
ENDBRANCH   1  11
TORSDOF 4
ENDMDL
