MODEL 1
REMARK VINA RESULT:    -3.559      0.000      0.000
REMARK INTER + INTRA:          -5.115
REMARK INTER:                  -4.391
REMARK INTRA:                  -0.724
REMARK UNBOUND:                -0.724
REMARK SMILES C=CC(=C)CCC=C(C)C
REMARK SMILES IDX 5 1 6 2 7 3 9 4 8 5 10 6 3 7 4 8 2 9 1 10
REMARK H PARENT
REMARK Flexibility Score: inf
ROOT
ATOM      1  C   UNL     1     139.722 133.267 135.736  1.00  0.00     0.039 C 
ENDROOT
BRANCH   1   2
ATOM      2  C   UNL     1     139.374 134.503 134.899  1.00  0.00     0.032 C 
BRANCH   2   3
ATOM      3  C   UNL     1     140.277 135.658 135.251  1.00  0.00    -0.028 C 
ATOM      4  C   UNL     1     140.914 137.807 136.259  1.00  0.00     0.039 C 
ATOM      5  C   UNL     1     139.888 136.749 135.946  1.00  0.00    -0.080 C 
ATOM      6  C   UNL     1     138.459 136.942 136.398  1.00  0.00     0.039 C 
ENDBRANCH   2   3
ENDBRANCH   1   2
BRANCH   1   7
ATOM      7  C   UNL     1     138.540 132.835 136.574  1.00  0.00    -0.055 C 
ATOM      8  C   UNL     1     137.861 131.737 136.222  1.00  0.00     0.012 C 
BRANCH   7   9
ATOM      9  C   UNL     1     138.132 133.561 137.806  1.00  0.00    -0.005 C 
ATOM     10  C   UNL     1     138.989 134.023 138.716  1.00  0.00     0.009 C 
ENDBRANCH   7   9
ENDBRANCH   1   7
TORSDOF 4
ENDMDL
MODEL 2
REMARK VINA RESULT:    -3.554      4.013      5.514
REMARK INTER + INTRA:          -5.109
REMARK INTER:                  -4.373
REMARK INTRA:                  -0.736
REMARK UNBOUND:                -0.724
REMARK SMILES C=CC(=C)CCC=C(C)C
REMARK SMILES IDX 5 1 6 2 7 3 9 4 8 5 10 6 3 7 4 8 2 9 1 10
REMARK H PARENT
REMARK Flexibility Score: inf
ROOT
ATOM      1  C   UNL     1     139.449 139.714 135.731  1.00  0.00     0.039 C 
ENDROOT
BRANCH   1   2
ATOM      2  C   UNL     1     138.226 139.395 134.865  1.00  0.00     0.032 C 
BRANCH   2   3
ATOM      3  C   UNL     1     137.060 140.275 135.241  1.00  0.00    -0.028 C 
ATOM      4  C   UNL     1     134.892 140.854 136.244  1.00  0.00     0.039 C 
ATOM      5  C   UNL     1     135.961 139.848 135.900  1.00  0.00    -0.080 C 
ATOM      6  C   UNL     1     135.769 138.400 136.283  1.00  0.00     0.039 C 
ENDBRANCH   2   3
ENDBRANCH   1   2
BRANCH   1   7
ATOM      7  C   UNL     1     139.898 138.490 136.499  1.00  0.00    -0.055 C 
ATOM      8  C   UNL     1     140.931 137.778 136.037  1.00  0.00     0.012 C 
BRANCH   7   9
ATOM      9  C   UNL     1     139.261 138.077 137.777  1.00  0.00    -0.005 C 
ATOM     10  C   UNL     1     138.646 138.917 138.609  1.00  0.00     0.009 C 
ENDBRANCH   7   9
ENDBRANCH   1   7
TORSDOF 4
ENDMDL
MODEL 3
REMARK VINA RESULT:    -3.549      5.596      7.861
REMARK INTER + INTRA:          -5.104
REMARK INTER:                  -4.360
REMARK INTRA:                  -0.744
REMARK UNBOUND:                -0.724
REMARK SMILES C=CC(=C)CCC=C(C)C
REMARK SMILES IDX 5 1 6 2 7 3 9 4 8 5 10 6 3 7 4 8 2 9 1 10
REMARK H PARENT
REMARK Flexibility Score: inf
ROOT
ATOM      1  C   UNL     1     132.948 139.465 135.728  1.00  0.00     0.039 C 
ENDROOT
BRANCH   1   2
ATOM      2  C   UNL     1     133.280 138.228 134.886  1.00  0.00     0.032 C 
BRANCH   2   3
ATOM      3  C   UNL     1     132.384 137.073 135.258  1.00  0.00    -0.028 C 
ATOM      4  C   UNL     1     131.779 134.905 136.245  1.00  0.00     0.039 C 
ATOM      5  C   UNL     1     132.799 135.961 135.903  1.00  0.00    -0.080 C 
ATOM      6  C   UNL     1     134.247 135.743 136.273  1.00  0.00     0.039 C 
ENDBRANCH   2   3
ENDBRANCH   1   2
BRANCH   1   7
ATOM      7  C   UNL     1     134.130 139.864 136.584  1.00  0.00    -0.055 C 
ATOM      8  C   UNL     1     134.823 140.961 136.263  1.00  0.00     0.012 C 
BRANCH   7   9
ATOM      9  C   UNL     1     134.519 139.105 137.802  1.00  0.00    -0.005 C 
ATOM     10  C   UNL     1     133.649 138.597 138.674  1.00  0.00     0.009 C 
ENDBRANCH   7   9
ENDBRANCH   1   7
TORSDOF 4
ENDMDL
MODEL 4
REMARK VINA RESULT:    -3.545      2.514      4.655
REMARK INTER + INTRA:          -5.098
REMARK INTER:                  -4.203
REMARK INTRA:                  -0.896
REMARK UNBOUND:                -0.724
REMARK SMILES C=CC(=C)CCC=C(C)C
REMARK SMILES IDX 5 1 6 2 7 3 9 4 8 5 10 6 3 7 4 8 2 9 1 10
REMARK H PARENT
REMARK Flexibility Score: inf
ROOT
ATOM      1  C   UNL     1     140.822 137.882 136.208  1.00  0.00     0.039 C 
ENDROOT
BRANCH   1   2
ATOM      2  C   UNL     1     139.762 138.788 136.845  1.00  0.00     0.032 C 
BRANCH   2   3
ATOM      3  C   UNL     1     139.214 139.763 135.833  1.00  0.00    -0.028 C 
ATOM      4  C   UNL     1     137.530 140.813 134.384  1.00  0.00     0.039 C 
ATOM      5  C   UNL     1     137.947 139.748 135.366  1.00  0.00    -0.080 C 
ATOM      6  C   UNL     1     136.951 138.693 135.786  1.00  0.00     0.039 C 
ENDBRANCH   2   3
ENDBRANCH   1   2
BRANCH   1   7
ATOM      7  C   UNL     1     140.174 136.717 135.494  1.00  0.00    -0.055 C 
ATOM      8  C   UNL     1     139.422 135.863 136.196  1.00  0.00     0.012 C 
BRANCH   7   9
ATOM      9  C   UNL     1     140.303 136.514 134.027  1.00  0.00    -0.005 C 
ATOM     10  C   UNL     1     140.099 137.470 133.122  1.00  0.00     0.009 C 
ENDBRANCH   7   9
ENDBRANCH   1   7
TORSDOF 4
ENDMDL
MODEL 5
REMARK VINA RESULT:    -3.536      1.735      3.166
REMARK INTER + INTRA:          -5.087
REMARK INTER:                  -4.171
REMARK INTRA:                  -0.916
REMARK UNBOUND:                -0.724
REMARK SMILES C=CC(=C)CCC=C(C)C
REMARK SMILES IDX 5 1 6 2 7 3 9 4 8 5 10 6 3 7 4 8 2 9 1 10
REMARK H PARENT
REMARK Flexibility Score: inf
ROOT
ATOM      1  C   UNL     1     137.896 131.877 136.243  1.00  0.00     0.039 C 
ENDROOT
BRANCH   1   2
ATOM      2  C   UNL     1     138.752 132.991 136.854  1.00  0.00     0.032 C 
BRANCH   2   3
ATOM      3  C   UNL     1     139.761 133.499 135.854  1.00  0.00    -0.028 C 
ATOM      4  C   UNL     1     140.825 135.108 134.331  1.00  0.00     0.039 C 
ATOM      5  C   UNL     1     139.723 134.724 135.285  1.00  0.00    -0.080 C 
ATOM      6  C   UNL     1     138.607 135.703 135.564  1.00  0.00     0.039 C 
ENDBRANCH   2   3
ENDBRANCH   1   2
BRANCH   1   7
ATOM      7  C   UNL     1     136.726 132.456 135.478  1.00  0.00    -0.055 C 
ATOM      8  C   UNL     1     135.825 133.196 136.133  1.00  0.00     0.012 C 
BRANCH   7   9
ATOM      9  C   UNL     1     136.566 132.271 134.011  1.00  0.00    -0.005 C 
ATOM     10  C   UNL     1     137.499 132.592 133.114  1.00  0.00     0.009 C 
ENDBRANCH   7   9
ENDBRANCH   1   7
TORSDOF 4
ENDMDL
MODEL 6
REMARK VINA RESULT:    -3.533      4.094      5.618
REMARK INTER + INTRA:          -5.083
REMARK INTER:                  -4.355
REMARK INTRA:                  -0.728
REMARK UNBOUND:                -0.724
REMARK SMILES C=CC(=C)CCC=C(C)C
REMARK SMILES IDX 5 1 6 2 7 3 9 4 8 5 10 6 3 7 4 8 2 9 1 10
REMARK H PARENT
REMARK Flexibility Score: inf
ROOT
ATOM      1  C   UNL     1     133.236 132.836 135.961  1.00  0.00     0.039 C 
ENDROOT
BRANCH   1   2
ATOM      2  C   UNL     1     134.306 133.070 134.889  1.00  0.00     0.032 C 
BRANCH   2   3
ATOM      3  C   UNL     1     135.544 132.259 135.183  1.00  0.00    -0.028 C 
ATOM      4  C   UNL     1     137.777 131.786 136.093  1.00  0.00     0.039 C 
ATOM      5  C   UNL     1     136.629 132.728 135.836  1.00  0.00    -0.080 C 
ATOM      6  C   UNL     1     136.727 134.163 136.297  1.00  0.00     0.039 C 
ENDBRANCH   2   3
ENDBRANCH   1   2
BRANCH   1   7
ATOM      7  C   UNL     1     132.838 134.140 136.616  1.00  0.00    -0.055 C 
ATOM      8  C   UNL     1     131.993 134.956 135.976  1.00  0.00     0.012 C 
BRANCH   7   9
ATOM      9  C   UNL     1     133.314 134.526 137.970  1.00  0.00    -0.005 C 
ATOM     10  C   UNL     1     134.023 133.727 138.767  1.00  0.00     0.009 C 
ENDBRANCH   7   9
ENDBRANCH   1   7
TORSDOF 4
ENDMDL
MODEL 7
REMARK VINA RESULT:    -3.503      6.669      7.109
REMARK INTER + INTRA:          -5.047
REMARK INTER:                  -4.596
REMARK INTRA:                  -0.451
REMARK UNBOUND:                -0.724
REMARK SMILES C=CC(=C)CCC=C(C)C
REMARK SMILES IDX 5 1 6 2 7 3 9 4 8 5 10 6 3 7 4 8 2 9 1 10
REMARK H PARENT
REMARK Flexibility Score: inf
ROOT
ATOM      1  C   UNL     1     132.671 137.331 133.919  1.00  0.00     0.039 C 
ENDROOT
BRANCH   1   2
ATOM      2  C   UNL     1     132.283 138.234 135.096  1.00  0.00     0.032 C 
BRANCH   2   3
ATOM      3  C   UNL     1     133.246 139.387 135.225  1.00  0.00    -0.028 C 
ATOM      4  C   UNL     1     134.886 140.854 136.320  1.00  0.00     0.039 C 
ATOM      5  C   UNL     1     133.925 139.694 136.353  1.00  0.00    -0.080 C 
ATOM      6  C   UNL     1     133.733 138.922 137.637  1.00  0.00     0.039 C 
ENDBRANCH   2   3
ENDBRANCH   1   2
BRANCH   1   7
ATOM      7  C   UNL     1     132.670 135.877 134.335  1.00  0.00    -0.055 C 
ATOM      8  C   UNL     1     132.711 134.932 133.390  1.00  0.00     0.012 C 
BRANCH   7   9
ATOM      9  C   UNL     1     132.674 135.459 135.762  1.00  0.00    -0.005 C 
ATOM     10  C   UNL     1     131.695 134.761 136.337  1.00  0.00     0.009 C 
ENDBRANCH   7   9
ENDBRANCH   1   7
TORSDOF 4
ENDMDL
MODEL 8
REMARK VINA RESULT:    -3.502      4.271      6.074
REMARK INTER + INTRA:          -5.046
REMARK INTER:                  -4.522
REMARK INTRA:                  -0.524
REMARK UNBOUND:                -0.724
REMARK SMILES C=CC(=C)CCC=C(C)C
REMARK SMILES IDX 5 1 6 2 7 3 9 4 8 5 10 6 3 7 4 8 2 9 1 10
REMARK H PARENT
REMARK Flexibility Score: inf
ROOT
ATOM      1  C   UNL     1     137.017 139.541 134.195  1.00  0.00     0.039 C 
ENDROOT
BRANCH   1   2
ATOM      2  C   UNL     1     138.134 140.286 134.936  1.00  0.00     0.032 C 
BRANCH   2   3
ATOM      3  C   UNL     1     139.334 139.393 135.128  1.00  0.00    -0.028 C 
ATOM      4  C   UNL     1     140.863 137.882 136.320  1.00  0.00     0.039 C 
ATOM      5  C   UNL     1     139.652 138.779 136.289  1.00  0.00    -0.080 C 
ATOM      6  C   UNL     1     138.842 138.979 137.548  1.00  0.00     0.039 C 
ENDBRANCH   2   3
ENDBRANCH   1   2
BRANCH   1   7
ATOM      7  C   UNL     1     135.658 139.977 134.696  1.00  0.00    -0.055 C 
ATOM      8  C   UNL     1     134.570 139.643 133.994  1.00  0.00     0.012 C 
BRANCH   7   9
ATOM      9  C   UNL     1     135.483 140.723 135.970  1.00  0.00    -0.005 C 
ATOM     10  C   UNL     1     134.941 140.202 137.071  1.00  0.00     0.009 C 
ENDBRANCH   7   9
ENDBRANCH   1   7
TORSDOF 4
ENDMDL
MODEL 9
REMARK VINA RESULT:    -3.458      3.798      5.536
REMARK INTER + INTRA:          -4.990
REMARK INTER:                  -4.443
REMARK INTRA:                  -0.547
REMARK UNBOUND:                -0.724
REMARK SMILES C=CC(=C)CCC=C(C)C
REMARK SMILES IDX 5 1 6 2 7 3 9 4 8 5 10 6 3 7 4 8 2 9 1 10
REMARK H PARENT
REMARK Flexibility Score: inf
ROOT
ATOM      1  C   UNL     1     135.649 132.988 134.125  1.00  0.00     0.039 C 
ENDROOT
BRANCH   1   2
ATOM      2  C   UNL     1     134.583 132.297 134.983  1.00  0.00     0.032 C 
BRANCH   2   3
ATOM      3  C   UNL     1     133.381 133.191 135.163  1.00  0.00    -0.028 C 
ATOM      4  C   UNL     1     131.858 134.728 136.326  1.00  0.00     0.039 C 
ATOM      5  C   UNL     1     133.072 133.836 136.309  1.00  0.00    -0.080 C 
ATOM      6  C   UNL     1     133.894 133.674 137.565  1.00  0.00     0.039 C 
ENDBRANCH   2   3
ENDBRANCH   1   2
BRANCH   1   7
ATOM      7  C   UNL     1     137.028 132.782 134.712  1.00  0.00    -0.055 C 
ATOM      8  C   UNL     1     138.075 133.381 134.135  1.00  0.00     0.012 C 
BRANCH   7   9
ATOM      9  C   UNL     1     137.255 131.976 135.941  1.00  0.00    -0.005 C 
ATOM     10  C   UNL     1     137.704 132.479 137.090  1.00  0.00     0.009 C 
ENDBRANCH   7   9
ENDBRANCH   1   7
TORSDOF 4
ENDMDL
