MODEL 1
REMARK VINA RESULT:    -4.039      0.000      0.000
REMARK INTER + INTRA:          -4.587
REMARK INTER:                  -4.394
REMARK INTRA:                  -0.194
REMARK UNBOUND:                -0.194
REMARK SMILES Cc1ccc(C(C)C)c(O)c1
REMARK SMILES IDX 1 1 2 2 11 3 9 4 5 5 4 6 3 7 10 8 6 10 7 11 8 12
REMARK H PARENT 10 9
REMARK Flexibility Score: inf
ROOT
ATOM      1  C   UNL     1      -2.876  81.129  -5.783  1.00  0.00     0.044 C 
ATOM      2  C   UNL     1      -3.690  81.777  -6.864  1.00  0.00    -0.047 A 
ATOM      3  C   UNL     1      -3.286  81.687  -8.202  1.00  0.00     0.049 A 
ATOM      4  C   UNL     1      -4.021  82.321  -9.216  1.00  0.00     0.119 A 
ATOM      5  C   UNL     1      -5.176  83.070  -8.889  1.00  0.00    -0.004 A 
ATOM      6  C   UNL     1      -5.559  83.169  -7.539  1.00  0.00     0.008 A 
ATOM      7  C   UNL     1      -4.821  82.534  -6.537  1.00  0.00     0.004 A 
ENDROOT
BRANCH   4   8
ATOM      8  O   UNL     1      -3.598  82.205 -10.540  1.00  0.00    -0.508 OA
ATOM      9  H   UNL     1      -4.175  81.764 -11.247  1.00  0.00     0.293 HD
ENDBRANCH   4   8
BRANCH   5  10
ATOM     10  C   UNL     1      -6.015  83.780  -9.944  1.00  0.00     0.017 C 
ATOM     11  C   UNL     1      -7.504  83.790  -9.578  1.00  0.00     0.012 C 
ATOM     12  C   UNL     1      -5.495  85.197 -10.227  1.00  0.00     0.012 C 
ENDBRANCH   5  10
TORSDOF 2
ENDMDL
MODEL 2
REMARK VINA RESULT:    -3.792      2.405      3.305
REMARK INTER + INTRA:          -4.318
REMARK INTER:                  -4.121
REMARK INTRA:                  -0.197
REMARK UNBOUND:                -0.194
REMARK SMILES Cc1ccc(C(C)C)c(O)c1
REMARK SMILES IDX 1 1 2 2 11 3 9 4 5 5 4 6 3 7 10 8 6 10 7 11 8 12
REMARK H PARENT 10 9
REMARK Flexibility Score: inf
ROOT
ATOM      1  C   UNL     1      -3.224  81.742  -9.153  1.00  0.00     0.044 C 
ATOM      2  C   UNL     1      -3.868  83.095  -9.230  1.00  0.00    -0.047 A 
ATOM      3  C   UNL     1      -3.244  84.207  -8.649  1.00  0.00     0.049 A 
ATOM      4  C   UNL     1      -3.856  85.470  -8.684  1.00  0.00     0.119 A 
ATOM      5  C   UNL     1      -5.120  85.627  -9.299  1.00  0.00    -0.004 A 
ATOM      6  C   UNL     1      -5.744  84.497  -9.861  1.00  0.00     0.008 A 
ATOM      7  C   UNL     1      -5.127  83.245  -9.821  1.00  0.00     0.004 A 
ENDROOT
BRANCH   4   8
ATOM      8  O   UNL     1      -3.205  86.559  -8.105  1.00  0.00    -0.508 OA
ATOM      9  H   UNL     1      -2.459  86.438  -7.430  1.00  0.00     0.293 HD
ENDBRANCH   4   8
BRANCH   5  10
ATOM     10  C   UNL     1      -5.834  86.971  -9.369  1.00  0.00     0.017 C 
ATOM     11  C   UNL     1      -6.565  87.159 -10.704  1.00  0.00     0.012 C 
ATOM     12  C   UNL     1      -6.777  87.178  -8.176  1.00  0.00     0.012 C 
ENDBRANCH   5  10
TORSDOF 2
ENDMDL
MODEL 3
REMARK VINA RESULT:    -3.760      5.992      7.260
REMARK INTER + INTRA:          -4.283
REMARK INTER:                  -4.088
REMARK INTRA:                  -0.195
REMARK UNBOUND:                -0.194
REMARK SMILES Cc1ccc(C(C)C)c(O)c1
REMARK SMILES IDX 1 1 2 2 11 3 9 4 5 5 4 6 3 7 10 8 6 10 7 11 8 12
REMARK H PARENT 10 9
REMARK Flexibility Score: inf
ROOT
ATOM      1  C   UNL     1     -10.727  80.463  -5.815  1.00  0.00     0.044 C 
ATOM      2  C   UNL     1     -11.162  80.876  -7.190  1.00  0.00    -0.047 A 
ATOM      3  C   UNL     1     -10.226  81.376  -8.106  1.00  0.00     0.049 A 
ATOM      4  C   UNL     1     -10.629  81.800  -9.381  1.00  0.00     0.119 A 
ATOM      5  C   UNL     1     -11.993  81.735  -9.751  1.00  0.00    -0.004 A 
ATOM      6  C   UNL     1     -12.925  81.249  -8.814  1.00  0.00     0.008 A 
ATOM      7  C   UNL     1     -12.514  80.830  -7.547  1.00  0.00     0.004 A 
ENDROOT
BRANCH   4   8
ATOM      8  O   UNL     1      -9.672  82.284 -10.273  1.00  0.00    -0.508 OA
ATOM      9  H   UNL     1      -8.710  81.966 -10.248  1.00  0.00     0.293 HD
ENDBRANCH   4   8
BRANCH   5  10
ATOM     10  C   UNL     1     -12.492  82.180 -11.119  1.00  0.00     0.017 C 
ATOM     11  C   UNL     1     -12.763  80.986 -12.042  1.00  0.00     0.012 C 
ATOM     12  C   UNL     1     -13.717  83.097 -11.009  1.00  0.00     0.012 C 
ENDBRANCH   5  10
TORSDOF 2
ENDMDL
MODEL 4
REMARK VINA RESULT:    -3.708      1.772      4.381
REMARK INTER + INTRA:          -4.227
REMARK INTER:                  -4.031
REMARK INTRA:                  -0.196
REMARK UNBOUND:                -0.194
REMARK SMILES Cc1ccc(C(C)C)c(O)c1
REMARK SMILES IDX 1 1 2 2 11 3 9 4 5 5 4 6 3 7 10 8 6 10 7 11 8 12
REMARK H PARENT 10 9
REMARK Flexibility Score: inf
ROOT
ATOM      1  C   UNL     1      -5.884  87.726  -9.314  1.00  0.00     0.044 C 
ATOM      2  C   UNL     1      -5.416  86.306  -9.189  1.00  0.00    -0.047 A 
ATOM      3  C   UNL     1      -6.260  85.250  -9.559  1.00  0.00     0.049 A 
ATOM      4  C   UNL     1      -5.844  83.917  -9.412  1.00  0.00     0.119 A 
ATOM      5  C   UNL     1      -4.567  83.629  -8.875  1.00  0.00    -0.004 A 
ATOM      6  C   UNL     1      -3.739  84.699  -8.489  1.00  0.00     0.008 A 
ATOM      7  C   UNL     1      -4.161  86.022  -8.639  1.00  0.00     0.004 A 
ENDROOT
BRANCH   4   8
ATOM      8  O   UNL     1      -6.703  82.888  -9.798  1.00  0.00    -0.508 OA
ATOM      9  H   UNL     1      -7.371  83.006 -10.551  1.00  0.00     0.293 HD
ENDBRANCH   4   8
BRANCH   5  10
ATOM     10  C   UNL     1      -4.060  82.205  -8.691  1.00  0.00     0.017 C 
ATOM     11  C   UNL     1      -3.294  81.709  -9.923  1.00  0.00     0.012 C 
ATOM     12  C   UNL     1      -3.226  82.058  -7.412  1.00  0.00     0.012 C 
ENDBRANCH   5  10
TORSDOF 2
ENDMDL
MODEL 5
REMARK VINA RESULT:    -3.704      1.888      4.577
REMARK INTER + INTRA:          -4.222
REMARK INTER:                  -4.026
REMARK INTRA:                  -0.197
REMARK UNBOUND:                -0.194
REMARK SMILES Cc1ccc(C(C)C)c(O)c1
REMARK SMILES IDX 1 1 2 2 11 3 9 4 5 5 4 6 3 7 10 8 6 10 7 11 8 12
REMARK H PARENT 10 9
REMARK Flexibility Score: inf
ROOT
ATOM      1  C   UNL     1      -6.921  87.151 -10.164  1.00  0.00     0.044 C 
ATOM      2  C   UNL     1      -6.027  86.027  -9.731  1.00  0.00    -0.047 A 
ATOM      3  C   UNL     1      -4.873  86.292  -8.982  1.00  0.00     0.049 A 
ATOM      4  C   UNL     1      -4.011  85.251  -8.604  1.00  0.00     0.119 A 
ATOM      5  C   UNL     1      -4.296  83.920  -8.990  1.00  0.00    -0.004 A 
ATOM      6  C   UNL     1      -5.448  83.671  -9.760  1.00  0.00     0.008 A 
ATOM      7  C   UNL     1      -6.300  84.714 -10.131  1.00  0.00     0.004 A 
ENDROOT
BRANCH   4   8
ATOM      8  O   UNL     1      -2.875  85.546  -7.850  1.00  0.00    -0.508 OA
ATOM      9  H   UNL     1      -2.900  86.214  -7.088  1.00  0.00     0.293 HD
ENDBRANCH   4   8
BRANCH   5  10
ATOM     10  C   UNL     1      -3.400  82.749  -8.611  1.00  0.00     0.017 C 
ATOM     11  C   UNL     1      -3.869  82.067  -7.320  1.00  0.00     0.012 C 
ATOM     12  C   UNL     1      -3.260  81.743  -9.761  1.00  0.00     0.012 C 
ENDBRANCH   5  10
TORSDOF 2
ENDMDL
MODEL 6
REMARK VINA RESULT:    -3.681      9.213     11.525
REMARK INTER + INTRA:          -4.197
REMARK INTER:                  -4.001
REMARK INTRA:                  -0.196
REMARK UNBOUND:                -0.194
REMARK SMILES Cc1ccc(C(C)C)c(O)c1
REMARK SMILES IDX 1 1 2 2 11 3 9 4 5 5 4 6 3 7 10 8 6 10 7 11 8 12
REMARK H PARENT 10 9
REMARK Flexibility Score: inf
ROOT
ATOM      1  C   UNL     1      -5.821  91.321 -18.294  1.00  0.00     0.044 C 
ATOM      2  C   UNL     1      -5.331  91.493 -16.887  1.00  0.00    -0.047 A 
ATOM      3  C   UNL     1      -4.324  90.659 -16.383  1.00  0.00     0.049 A 
ATOM      4  C   UNL     1      -3.885  90.789 -15.056  1.00  0.00     0.119 A 
ATOM      5  C   UNL     1      -4.467  91.762 -14.210  1.00  0.00    -0.004 A 
ATOM      6  C   UNL     1      -5.491  92.580 -14.724  1.00  0.00     0.008 A 
ATOM      7  C   UNL     1      -5.921  92.443 -16.045  1.00  0.00     0.004 A 
ENDROOT
BRANCH   4   8
ATOM      8  O   UNL     1      -2.875  89.949 -14.587  1.00  0.00    -0.508 OA
ATOM      9  H   UNL     1      -2.037  89.770 -15.128  1.00  0.00     0.293 HD
ENDBRANCH   4   8
BRANCH   5  10
ATOM     10  C   UNL     1      -4.033  91.952 -12.762  1.00  0.00     0.017 C 
ATOM     11  C   UNL     1      -4.044  93.429 -12.353  1.00  0.00     0.012 C 
ATOM     12  C   UNL     1      -4.867  91.094 -11.801  1.00  0.00     0.012 C 
ENDBRANCH   5  10
TORSDOF 2
ENDMDL
MODEL 7
REMARK VINA RESULT:    -3.680      8.806     10.680
REMARK INTER + INTRA:          -4.196
REMARK INTER:                  -4.022
REMARK INTRA:                  -0.174
REMARK UNBOUND:                -0.194
REMARK SMILES Cc1ccc(C(C)C)c(O)c1
REMARK SMILES IDX 1 1 2 2 11 3 9 4 5 5 4 6 3 7 10 8 6 10 7 11 8 12
REMARK H PARENT 10 9
REMARK Flexibility Score: inf
ROOT
ATOM      1  C   UNL     1      -2.875  91.143 -17.837  1.00  0.00     0.044 C 
ATOM      2  C   UNL     1      -3.756  90.888 -16.650  1.00  0.00    -0.047 A 
ATOM      3  C   UNL     1      -3.261  91.066 -15.351  1.00  0.00     0.049 A 
ATOM      4  C   UNL     1      -4.066  90.794 -14.235  1.00  0.00     0.119 A 
ATOM      5  C   UNL     1      -5.389  90.324 -14.413  1.00  0.00    -0.004 A 
ATOM      6  C   UNL     1      -5.867  90.130 -15.723  1.00  0.00     0.008 A 
ATOM      7  C   UNL     1      -5.057  90.403 -16.828  1.00  0.00     0.004 A 
ENDROOT
BRANCH   4   8
ATOM      8  O   UNL     1      -3.547  90.991 -12.955  1.00  0.00    -0.508 OA
ATOM      9  H   UNL     1      -2.801  91.655 -12.778  1.00  0.00     0.293 HD
ENDBRANCH   4   8
BRANCH   5  10
ATOM     10  C   UNL     1      -6.311  90.012 -13.242  1.00  0.00     0.017 C 
ATOM     11  C   UNL     1      -6.978  91.277 -12.689  1.00  0.00     0.012 C 
ATOM     12  C   UNL     1      -7.348  88.940 -13.602  1.00  0.00     0.012 C 
ENDBRANCH   5  10
TORSDOF 2
ENDMDL
MODEL 8
REMARK VINA RESULT:    -3.644      7.923     10.286
REMARK INTER + INTRA:          -4.157
REMARK INTER:                  -3.961
REMARK INTRA:                  -0.196
REMARK UNBOUND:                -0.194
REMARK SMILES Cc1ccc(C(C)C)c(O)c1
REMARK SMILES IDX 1 1 2 2 11 3 9 4 5 5 4 6 3 7 10 8 6 10 7 11 8 12
REMARK H PARENT 10 9
REMARK Flexibility Score: inf
ROOT
ATOM      1  C   UNL     1      -6.990  88.561 -12.302  1.00  0.00     0.044 C 
ATOM      2  C   UNL     1      -6.086  89.392 -13.163  1.00  0.00    -0.047 A 
ATOM      3  C   UNL     1      -5.258  90.364 -12.586  1.00  0.00     0.049 A 
ATOM      4  C   UNL     1      -4.436  91.171 -13.387  1.00  0.00     0.119 A 
ATOM      5  C   UNL     1      -4.446  91.017 -14.793  1.00  0.00    -0.004 A 
ATOM      6  C   UNL     1      -5.297  90.051 -15.361  1.00  0.00     0.008 A 
ATOM      7  C   UNL     1      -6.111  89.252 -14.556  1.00  0.00     0.004 A 
ENDROOT
BRANCH   4   8
ATOM      8  O   UNL     1      -3.616  92.123 -12.780  1.00  0.00    -0.508 OA
ATOM      9  H   UNL     1      -3.975  92.778 -12.096  1.00  0.00     0.293 HD
ENDBRANCH   4   8
BRANCH   5  10
ATOM     10  C   UNL     1      -3.576  91.862 -15.715  1.00  0.00     0.017 C 
ATOM     11  C   UNL     1      -2.875  91.009 -16.778  1.00  0.00     0.012 C 
ATOM     12  C   UNL     1      -4.369  93.013 -16.348  1.00  0.00     0.012 C 
ENDBRANCH   5  10
TORSDOF 2
ENDMDL
MODEL 9
REMARK VINA RESULT:    -3.585      1.758      2.080
REMARK INTER + INTRA:          -4.093
REMARK INTER:                  -3.896
REMARK INTRA:                  -0.196
REMARK UNBOUND:                -0.194
REMARK SMILES Cc1ccc(C(C)C)c(O)c1
REMARK SMILES IDX 1 1 2 2 11 3 9 4 5 5 4 6 3 7 10 8 6 10 7 11 8 12
REMARK H PARENT 10 9
REMARK Flexibility Score: inf
ROOT
ATOM      1  C   UNL     1      -4.097  80.513  -5.570  1.00  0.00     0.044 C 
ATOM      2  C   UNL     1      -4.024  81.775  -6.378  1.00  0.00    -0.047 A 
ATOM      3  C   UNL     1      -3.503  81.751  -7.678  1.00  0.00     0.049 A 
ATOM      4  C   UNL     1      -3.397  82.933  -8.428  1.00  0.00     0.119 A 
ATOM      5  C   UNL     1      -3.807  84.166  -7.867  1.00  0.00    -0.004 A 
ATOM      6  C   UNL     1      -4.310  84.178  -6.553  1.00  0.00     0.008 A 
ATOM      7  C   UNL     1      -4.411  82.996  -5.815  1.00  0.00     0.004 A 
ENDROOT
BRANCH   4   8
ATOM      8  O   UNL     1      -2.883  82.875  -9.723  1.00  0.00    -0.508 OA
ATOM      9  H   UNL     1      -2.545  83.703 -10.200  1.00  0.00     0.293 HD
ENDBRANCH   4   8
BRANCH   5  10
ATOM     10  C   UNL     1      -3.717  85.481  -8.631  1.00  0.00     0.017 C 
ATOM     11  C   UNL     1      -5.025  85.806  -9.362  1.00  0.00     0.012 C 
ATOM     12  C   UNL     1      -3.276  86.637  -7.723  1.00  0.00     0.012 C 
ENDBRANCH   5  10
TORSDOF 2
ENDMDL
