MODEL 1
REMARK VINA RESULT:    -4.421      0.000      0.000
REMARK INTER + INTRA:          -7.151
REMARK INTER:                  -6.746
REMARK INTRA:                  -0.404
REMARK UNBOUND:                -0.404
REMARK SMILES CCCCCCCCCCC(=O)[O-]
REMARK SMILES IDX 7 1 8 2 9 3 10 4 11 5 12 6 13 7 6 8 5 9 4 10 3 11 2 12 1 13
REMARK H PARENT
REMARK Flexibility Score: inf
ROOT
ATOM      1  C   UNL     1       5.136  10.088  81.904  1.00  0.00     0.000 C 
ENDROOT
BRANCH   1   2
ATOM      2  C   UNL     1       5.667   8.640  81.935  1.00  0.00     0.000 C 
BRANCH   2   3
ATOM      3  C   UNL     1       6.976   8.405  81.153  1.00  0.00     0.006 C 
BRANCH   3   4
ATOM      4  C   UNL     1       6.940   7.196  80.207  1.00  0.00     0.053 C 
BRANCH   4   5
ATOM      5  C   UNL     1       8.284   6.910  79.612  1.00  0.00     0.041 C 
ATOM      6  O   UNL     1       9.020   7.855  79.226  1.00  0.00    -0.550 OA
ATOM      7  O   UNL     1       8.738   5.601  79.515  1.00  0.00    -0.550 OA
ENDBRANCH   4   5
ENDBRANCH   3   4
ENDBRANCH   2   3
ENDBRANCH   1   2
BRANCH   1   8
ATOM      8  C   UNL     1       3.909  10.352  82.796  1.00  0.00     0.000 C 
BRANCH   8   9
ATOM      9  C   UNL     1       3.184   9.063  83.210  1.00  0.00    -0.000 C 
BRANCH   9  10
ATOM     10  C   UNL     1       2.635   9.179  84.641  1.00  0.00    -0.000 C 
BRANCH  10  11
ATOM     11  C   UNL     1       2.140   7.834  85.195  1.00  0.00    -0.000 C 
BRANCH  11  12
ATOM     12  C   UNL     1       3.136   6.690  84.949  1.00  0.00    -0.003 C 
ATOM     13  C   UNL     1       2.682   5.409  85.643  1.00  0.00     0.004 C 
ENDBRANCH  11  12
ENDBRANCH  10  11
ENDBRANCH   9  10
ENDBRANCH   8   9
ENDBRANCH   1   8
TORSDOF 9
ENDMDL
MODEL 2
REMARK VINA RESULT:    -4.201      2.763      4.052
REMARK INTER + INTRA:          -6.816
REMARK INTER:                  -6.329
REMARK INTRA:                  -0.487
REMARK UNBOUND:                -0.404
REMARK SMILES CCCCCCCCCCC(=O)[O-]
REMARK SMILES IDX 7 1 8 2 9 3 10 4 11 5 12 6 13 7 6 8 5 9 4 10 3 11 2 12 1 13
REMARK H PARENT
REMARK Flexibility Score: inf
ROOT
ATOM      1  C   UNL     1       5.886   8.458  81.730  1.00  0.00     0.000 C 
ENDROOT
BRANCH   1   2
ATOM      2  C   UNL     1       7.065   8.844  80.814  1.00  0.00     0.000 C 
BRANCH   2   3
ATOM      3  C   UNL     1       7.261   7.938  79.581  1.00  0.00     0.006 C 
BRANCH   3   4
ATOM      4  C   UNL     1       7.433   6.448  79.910  1.00  0.00     0.053 C 
BRANCH   4   5
ATOM      5  C   UNL     1       8.796   5.947  79.543  1.00  0.00     0.041 C 
ATOM      6  O   UNL     1       9.589   6.681  78.898  1.00  0.00    -0.550 OA
ATOM      7  O   UNL     1       9.203   4.680  79.944  1.00  0.00    -0.550 OA
ENDBRANCH   4   5
ENDBRANCH   3   4
ENDBRANCH   2   3
ENDBRANCH   1   2
BRANCH   1   8
ATOM      8  C   UNL     1       5.060   9.642  82.265  1.00  0.00     0.000 C 
BRANCH   8   9
ATOM      9  C   UNL     1       5.161  10.890  81.376  1.00  0.00    -0.000 C 
BRANCH   9  10
ATOM     10  C   UNL     1       4.819  12.159  82.171  1.00  0.00    -0.000 C 
BRANCH  10  11
ATOM     11  C   UNL     1       3.645  12.940  81.561  1.00  0.00    -0.000 C 
BRANCH  11  12
ATOM     12  C   UNL     1       3.125  12.308  80.261  1.00  0.00    -0.003 C 
ATOM     13  C   UNL     1       1.648  11.942  80.382  1.00  0.00     0.004 C 
ENDBRANCH  11  12
ENDBRANCH  10  11
ENDBRANCH   9  10
ENDBRANCH   8   9
ENDBRANCH   1   8
TORSDOF 9
ENDMDL
MODEL 3
REMARK VINA RESULT:    -4.198      3.742      6.838
REMARK INTER + INTRA:          -6.812
REMARK INTER:                  -6.524
REMARK INTRA:                  -0.288
REMARK UNBOUND:                -0.404
REMARK SMILES CCCCCCCCCCC(=O)[O-]
REMARK SMILES IDX 7 1 8 2 9 3 10 4 11 5 12 6 13 7 6 8 5 9 4 10 3 11 2 12 1 13
REMARK H PARENT
REMARK Flexibility Score: inf
ROOT
ATOM      1  C   UNL     1       4.947   9.943  82.115  1.00  0.00     0.000 C 
ENDROOT
BRANCH   1   2
ATOM      2  C   UNL     1       3.573   9.825  82.804  1.00  0.00     0.000 C 
BRANCH   2   3
ATOM      3  C   UNL     1       3.324   8.497  83.548  1.00  0.00     0.006 C 
BRANCH   3   4
ATOM      4  C   UNL     1       2.154   8.537  84.541  1.00  0.00     0.053 C 
BRANCH   4   5
ATOM      5  C   UNL     1       2.342   7.569  85.668  1.00  0.00     0.041 C 
ATOM      6  O   UNL     1       2.144   7.934  86.856  1.00  0.00    -0.550 OA
ATOM      7  O   UNL     1       2.702   6.254  85.404  1.00  0.00    -0.550 OA
ENDBRANCH   4   5
ENDBRANCH   3   4
ENDBRANCH   2   3
ENDBRANCH   1   2
BRANCH   1   8
ATOM      8  C   UNL     1       5.635   8.603  81.797  1.00  0.00     0.000 C 
BRANCH   8   9
ATOM      9  C   UNL     1       7.006   8.780  81.127  1.00  0.00    -0.000 C 
BRANCH   9  10
ATOM     10  C   UNL     1       7.341   7.573  80.237  1.00  0.00    -0.000 C 
BRANCH  10  11
ATOM     11  C   UNL     1       8.614   7.788  79.404  1.00  0.00    -0.000 C 
BRANCH  11  12
ATOM     12  C   UNL     1       9.349   6.475  79.096  1.00  0.00    -0.003 C 
ATOM     13  C   UNL     1       8.601   5.278  79.676  1.00  0.00     0.004 C 
ENDBRANCH  11  12
ENDBRANCH  10  11
ENDBRANCH   9  10
ENDBRANCH   8   9
ENDBRANCH   1   8
TORSDOF 9
ENDMDL
MODEL 4
REMARK VINA RESULT:    -4.194      2.449      4.375
REMARK INTER + INTRA:          -6.806
REMARK INTER:                  -5.913
REMARK INTRA:                  -0.893
REMARK UNBOUND:                -0.404
REMARK SMILES CCCCCCCCCCC(=O)[O-]
REMARK SMILES IDX 7 1 8 2 9 3 10 4 11 5 12 6 13 7 6 8 5 9 4 10 3 11 2 12 1 13
REMARK H PARENT
REMARK Flexibility Score: inf
ROOT
ATOM      1  C   UNL     1       5.172   8.918  81.908  1.00  0.00     0.000 C 
ENDROOT
BRANCH   1   2
ATOM      2  C   UNL     1       6.714   8.922  81.905  1.00  0.00     0.000 C 
BRANCH   2   3
ATOM      3  C   UNL     1       7.368   8.531  80.564  1.00  0.00     0.006 C 
BRANCH   3   4
ATOM      4  C   UNL     1       7.002   7.125  80.067  1.00  0.00     0.053 C 
BRANCH   4   5
ATOM      5  C   UNL     1       8.206   6.362  79.607  1.00  0.00     0.041 C 
ATOM      6  O   UNL     1       9.073   6.921  78.885  1.00  0.00    -0.550 OA
ATOM      7  O   UNL     1       8.387   5.043  80.004  1.00  0.00    -0.550 OA
ENDBRANCH   4   5
ENDBRANCH   3   4
ENDBRANCH   2   3
ENDBRANCH   1   2
BRANCH   1   8
ATOM      8  C   UNL     1       4.519   9.919  82.879  1.00  0.00     0.000 C 
BRANCH   8   9
ATOM      9  C   UNL     1       4.753  11.382  82.474  1.00  0.00    -0.000 C 
BRANCH   9  10
ATOM     10  C   UNL     1       3.728  11.829  81.419  1.00  0.00    -0.000 C 
BRANCH  10  11
ATOM     11  C   UNL     1       4.380  12.167  80.069  1.00  0.00    -0.000 C 
BRANCH  11  12
ATOM     12  C   UNL     1       5.913  12.205  80.145  1.00  0.00    -0.003 C 
ATOM     13  C   UNL     1       6.536  11.961  78.773  1.00  0.00     0.004 C 
ENDBRANCH  11  12
ENDBRANCH  10  11
ENDBRANCH   9  10
ENDBRANCH   8   9
ENDBRANCH   1   8
TORSDOF 9
ENDMDL
MODEL 5
REMARK VINA RESULT:    -4.177      4.004      7.160
REMARK INTER + INTRA:          -6.780
REMARK INTER:                  -6.453
REMARK INTRA:                  -0.327
REMARK UNBOUND:                -0.404
REMARK SMILES CCCCCCCCCCC(=O)[O-]
REMARK SMILES IDX 7 1 8 2 9 3 10 4 11 5 12 6 13 7 6 8 5 9 4 10 3 11 2 12 1 13
REMARK H PARENT
REMARK Flexibility Score: inf
ROOT
ATOM      1  C   UNL     1       5.621   8.593  81.900  1.00  0.00     0.000 C 
ENDROOT
BRANCH   1   2
ATOM      2  C   UNL     1       5.209  10.074  82.028  1.00  0.00     0.000 C 
BRANCH   2   3
ATOM      3  C   UNL     1       3.770  10.313  82.530  1.00  0.00     0.006 C 
BRANCH   3   4
ATOM      4  C   UNL     1       3.093   9.071  83.127  1.00  0.00     0.053 C 
BRANCH   4   5
ATOM      5  C   UNL     1       2.050   9.433  84.139  1.00  0.00     0.041 C 
ATOM      6  O   UNL     1       1.825   8.672  85.116  1.00  0.00    -0.550 OA
ATOM      7  O   UNL     1       1.351  10.628  84.022  1.00  0.00    -0.550 OA
ENDBRANCH   4   5
ENDBRANCH   3   4
ENDBRANCH   2   3
ENDBRANCH   1   2
BRANCH   1   8
ATOM      8  C   UNL     1       6.800   8.324  80.947  1.00  0.00     0.000 C 
BRANCH   8   9
ATOM      9  C   UNL     1       6.727   6.941  80.284  1.00  0.00    -0.000 C 
BRANCH   9  10
ATOM     10  C   UNL     1       8.101   6.523  79.735  1.00  0.00    -0.000 C 
BRANCH  10  11
ATOM     11  C   UNL     1       8.793   7.650  78.953  1.00  0.00    -0.000 C 
BRANCH  11  12
ATOM     12  C   UNL     1      10.105   8.107  79.608  1.00  0.00    -0.003 C 
ATOM     13  C   UNL     1       9.996   9.544  80.109  1.00  0.00     0.004 C 
ENDBRANCH  11  12
ENDBRANCH  10  11
ENDBRANCH   9  10
ENDBRANCH   8   9
ENDBRANCH   1   8
TORSDOF 9
ENDMDL
MODEL 6
REMARK VINA RESULT:    -4.164      6.327      7.839
REMARK INTER + INTRA:          -6.760
REMARK INTER:                  -5.963
REMARK INTRA:                  -0.797
REMARK UNBOUND:                -0.404
REMARK SMILES CCCCCCCCCCC(=O)[O-]
REMARK SMILES IDX 7 1 8 2 9 3 10 4 11 5 12 6 13 7 6 8 5 9 4 10 3 11 2 12 1 13
REMARK H PARENT
REMARK Flexibility Score: inf
ROOT
ATOM      1  C   UNL     1       2.164   5.760  85.868  1.00  0.00     0.000 C 
ENDROOT
BRANCH   1   2
ATOM      2  C   UNL     1       2.744   7.082  85.324  1.00  0.00     0.000 C 
BRANCH   2   3
ATOM      3  C   UNL     1       2.057   8.362  85.842  1.00  0.00     0.006 C 
BRANCH   3   4
ATOM      4  C   UNL     1       2.814   9.074  86.972  1.00  0.00     0.053 C 
BRANCH   4   5
ATOM      5  C   UNL     1       1.966   9.245  88.195  1.00  0.00     0.041 C 
ATOM      6  O   UNL     1       2.468   9.699  89.256  1.00  0.00    -0.550 OA
ATOM      7  O   UNL     1       0.612   8.935  88.152  1.00  0.00    -0.550 OA
ENDBRANCH   4   5
ENDBRANCH   3   4
ENDBRANCH   2   3
ENDBRANCH   1   2
BRANCH   1   8
ATOM      8  C   UNL     1       0.683   5.820  86.285  1.00  0.00     0.000 C 
BRANCH   8   9
ATOM      9  C   UNL     1       0.460   5.421  87.751  1.00  0.00    -0.000 C 
BRANCH   9  10
ATOM     10  C   UNL     1       0.407   3.892  87.902  1.00  0.00    -0.000 C 
BRANCH  10  11
ATOM     11  C   UNL     1       1.523   3.349  88.808  1.00  0.00    -0.000 C 
BRANCH  11  12
ATOM     12  C   UNL     1       2.307   2.199  88.156  1.00  0.00    -0.003 C 
ATOM     13  C   UNL     1       3.414   2.734  87.252  1.00  0.00     0.004 C 
ENDBRANCH  11  12
ENDBRANCH  10  11
ENDBRANCH   9  10
ENDBRANCH   8   9
ENDBRANCH   1   8
TORSDOF 9
ENDMDL
MODEL 7
REMARK VINA RESULT:    -4.114      4.203      6.352
REMARK INTER + INTRA:          -6.683
REMARK INTER:                  -6.143
REMARK INTRA:                  -0.540
REMARK UNBOUND:                -0.404
REMARK SMILES CCCCCCCCCCC(=O)[O-]
REMARK SMILES IDX 7 1 8 2 9 3 10 4 11 5 12 6 13 7 6 8 5 9 4 10 3 11 2 12 1 13
REMARK H PARENT
REMARK Flexibility Score: inf
ROOT
ATOM      1  C   UNL     1       4.199   9.816  82.261  1.00  0.00     0.000 C 
ENDROOT
BRANCH   1   2
ATOM      2  C   UNL     1       4.943  11.070  82.764  1.00  0.00     0.000 C 
BRANCH   2   3
ATOM      3  C   UNL     1       4.859  12.299  81.836  1.00  0.00     0.006 C 
BRANCH   3   4
ATOM      4  C   UNL     1       4.429  11.978  80.397  1.00  0.00     0.053 C 
BRANCH   4   5
ATOM      5  C   UNL     1       3.127  12.628  80.043  1.00  0.00     0.041 C 
ATOM      6  O   UNL     1       3.111  13.788  79.553  1.00  0.00    -0.550 OA
ATOM      7  O   UNL     1       1.934  11.940  80.221  1.00  0.00    -0.550 OA
ENDBRANCH   4   5
ENDBRANCH   3   4
ENDBRANCH   2   3
ENDBRANCH   1   2
BRANCH   1   8
ATOM      8  C   UNL     1       5.072   8.559  82.101  1.00  0.00     0.000 C 
BRANCH   8   9
ATOM      9  C   UNL     1       6.369   8.828  81.324  1.00  0.00    -0.000 C 
BRANCH   9  10
ATOM     10  C   UNL     1       6.817   7.575  80.555  1.00  0.00    -0.000 C 
BRANCH  10  11
ATOM     11  C   UNL     1       7.920   7.874  79.528  1.00  0.00    -0.000 C 
BRANCH  11  12
ATOM     12  C   UNL     1       8.797   6.649  79.227  1.00  0.00    -0.003 C 
ATOM     13  C   UNL     1       8.168   5.374  79.780  1.00  0.00     0.004 C 
ENDBRANCH  11  12
ENDBRANCH  10  11
ENDBRANCH   9  10
ENDBRANCH   8   9
ENDBRANCH   1   8
TORSDOF 9
ENDMDL
MODEL 8
REMARK VINA RESULT:    -4.113      3.874      6.612
REMARK INTER + INTRA:          -6.682
REMARK INTER:                  -6.235
REMARK INTRA:                  -0.447
REMARK UNBOUND:                -0.404
REMARK SMILES CCCCCCCCCCC(=O)[O-]
REMARK SMILES IDX 7 1 8 2 9 3 10 4 11 5 12 6 13 7 6 8 5 9 4 10 3 11 2 12 1 13
REMARK H PARENT
REMARK Flexibility Score: inf
ROOT
ATOM      1  C   UNL     1       3.103   9.878  84.078  1.00  0.00     0.000 C 
ENDROOT
BRANCH   1   2
ATOM      2  C   UNL     1       2.106   8.712  84.239  1.00  0.00     0.000 C 
BRANCH   2   3
ATOM      3  C   UNL     1       2.318   7.836  85.490  1.00  0.00     0.006 C 
BRANCH   3   4
ATOM      4  C   UNL     1       2.993   6.485  85.210  1.00  0.00     0.053 C 
BRANCH   4   5
ATOM      5  C   UNL     1       2.299   5.356  85.909  1.00  0.00     0.041 C 
ATOM      6  O   UNL     1       2.858   4.233  86.006  1.00  0.00    -0.550 OA
ATOM      7  O   UNL     1       1.050   5.555  86.483  1.00  0.00    -0.550 OA
ENDBRANCH   4   5
ENDBRANCH   3   4
ENDBRANCH   2   3
ENDBRANCH   1   2
BRANCH   1   8
ATOM      8  C   UNL     1       3.878   9.895  82.748  1.00  0.00     0.000 C 
BRANCH   8   9
ATOM      9  C   UNL     1       4.504   8.536  82.405  1.00  0.00    -0.000 C 
BRANCH   9  10
ATOM     10  C   UNL     1       5.887   8.716  81.760  1.00  0.00    -0.000 C 
BRANCH  10  11
ATOM     11  C   UNL     1       6.217   7.608  80.748  1.00  0.00    -0.000 C 
BRANCH  11  12
ATOM     12  C   UNL     1       7.666   7.678  80.244  1.00  0.00    -0.003 C 
ATOM     13  C   UNL     1       8.094   9.123  80.003  1.00  0.00     0.004 C 
ENDBRANCH  11  12
ENDBRANCH  10  11
ENDBRANCH   9  10
ENDBRANCH   8   9
ENDBRANCH   1   8
TORSDOF 9
ENDMDL
MODEL 9
REMARK VINA RESULT:    -4.110      2.372      3.219
REMARK INTER + INTRA:          -6.677
REMARK INTER:                  -6.169
REMARK INTRA:                  -0.509
REMARK UNBOUND:                -0.404
REMARK SMILES CCCCCCCCCCC(=O)[O-]
REMARK SMILES IDX 7 1 8 2 9 3 10 4 11 5 12 6 13 7 6 8 5 9 4 10 3 11 2 12 1 13
REMARK H PARENT
REMARK Flexibility Score: inf
ROOT
ATOM      1  C   UNL     1       6.753   9.575  80.472  1.00  0.00     0.000 C 
ENDROOT
BRANCH   1   2
ATOM      2  C   UNL     1       8.027   9.356  79.630  1.00  0.00     0.000 C 
BRANCH   2   3
ATOM      3  C   UNL     1       8.897   8.156  80.057  1.00  0.00     0.006 C 
BRANCH   3   4
ATOM      4  C   UNL     1       9.031   7.060  78.990  1.00  0.00     0.053 C 
BRANCH   4   5
ATOM      5  C   UNL     1       8.625   5.716  79.513  1.00  0.00     0.041 C 
ATOM      6  O   UNL     1       9.496   4.841  79.755  1.00  0.00    -0.550 OA
ATOM      7  O   UNL     1       7.286   5.443  79.766  1.00  0.00    -0.550 OA
ENDBRANCH   4   5
ENDBRANCH   3   4
ENDBRANCH   2   3
ENDBRANCH   1   2
BRANCH   1   8
ATOM      8  C   UNL     1       6.384   8.412  81.411  1.00  0.00     0.000 C 
BRANCH   8   9
ATOM      9  C   UNL     1       5.044   8.628  82.129  1.00  0.00    -0.000 C 
BRANCH   9  10
ATOM     10  C   UNL     1       4.869  10.101  82.533  1.00  0.00    -0.000 C 
BRANCH  10  11
ATOM     11  C   UNL     1       3.470  10.642  82.202  1.00  0.00    -0.000 C 
BRANCH  11  12
ATOM     12  C   UNL     1       2.349   9.838  82.878  1.00  0.00    -0.003 C 
ATOM     13  C   UNL     1       1.440  10.748  83.699  1.00  0.00     0.004 C 
ENDBRANCH  11  12
ENDBRANCH  10  11
ENDBRANCH   9  10
ENDBRANCH   8   9
ENDBRANCH   1   8
TORSDOF 9
ENDMDL
