MODEL 1
REMARK VINA RESULT:    -0.168      0.000      0.000
REMARK INTER + INTRA:          -0.287
REMARK INTER:                  -0.257
REMARK INTRA:                  -0.030
REMARK UNBOUND:                -0.030
REMARK SMILES CCCCCCCCCCC(=O)[O-]
REMARK SMILES IDX 7 1 8 2 9 3 10 4 11 5 12 6 13 7 6 8 5 9 4 10 3 11 2 12 1 13
REMARK H PARENT
REMARK Flexibility Score: inf
ROOT
ATOM      1  C   UNL     1      -4.405  19.133 -10.843  1.00  0.00     0.000 C 
ENDROOT
BRANCH   1   2
ATOM      2  C   UNL     1      -4.007  20.614 -10.729  1.00  0.00     0.000 C 
BRANCH   2   3
ATOM      3  C   UNL     1      -4.961  21.545 -11.492  1.00  0.00     0.006 C 
BRANCH   3   4
ATOM      4  C   UNL     1      -6.389  20.992 -11.482  1.00  0.00     0.053 C 
BRANCH   4   5
ATOM      5  C   UNL     1      -6.792  20.552 -12.854  1.00  0.00     0.041 C 
ATOM      6  O   UNL     1      -6.766  21.367 -13.814  1.00  0.00    -0.550 OA
ATOM      7  O   UNL     1      -7.244  19.255 -13.064  1.00  0.00    -0.550 OA
ENDBRANCH   4   5
ENDBRANCH   3   4
ENDBRANCH   2   3
ENDBRANCH   1   2
BRANCH   1   8
ATOM      8  C   UNL     1      -3.202  18.217 -11.115  1.00  0.00     0.000 C 
BRANCH   8   9
ATOM      9  C   UNL     1      -3.367  16.869 -10.396  1.00  0.00    -0.000 C 
BRANCH   9  10
ATOM     10  C   UNL     1      -4.665  16.145 -10.786  1.00  0.00    -0.000 C 
BRANCH  10  11
ATOM     11  C   UNL     1      -4.442  14.653 -11.094  1.00  0.00    -0.000 C 
BRANCH  11  12
ATOM     12  C   UNL     1      -3.775  13.907  -9.929  1.00  0.00    -0.003 C 
ATOM     13  C   UNL     1      -2.251  13.875 -10.044  1.00  0.00     0.004 C 
ENDBRANCH  11  12
ENDBRANCH  10  11
ENDBRANCH   9  10
ENDBRANCH   8   9
ENDBRANCH   1   8
TORSDOF 9
ENDMDL
MODEL 2
REMARK VINA RESULT:     0.278      3.357      6.441
REMARK INTER + INTRA:           0.395
REMARK INTER:                   0.556
REMARK INTRA:                  -0.161
REMARK UNBOUND:                -0.030
REMARK SMILES CCCCCCCCCCC(=O)[O-]
REMARK SMILES IDX 7 1 8 2 9 3 10 4 11 5 12 6 13 7 6 8 5 9 4 10 3 11 2 12 1 13
REMARK H PARENT
REMARK Flexibility Score: inf
ROOT
ATOM      1  C   UNL     1      -3.237  18.267 -11.063  1.00  0.00     0.000 C 
ENDROOT
BRANCH   1   2
ATOM      2  C   UNL     1      -3.361  16.821 -10.554  1.00  0.00     0.000 C 
BRANCH   2   3
ATOM      3  C   UNL     1      -4.678  16.154 -10.978  1.00  0.00     0.006 C 
BRANCH   3   4
ATOM      4  C   UNL     1      -4.502  14.640 -11.126  1.00  0.00     0.053 C 
BRANCH   4   5
ATOM      5  C   UNL     1      -3.547  14.120 -10.099  1.00  0.00     0.041 C 
ATOM      6  O   UNL     1      -3.945  13.875  -8.930  1.00  0.00    -0.550 OA
ATOM      7  O   UNL     1      -2.205  13.953 -10.418  1.00  0.00    -0.550 OA
ENDBRANCH   4   5
ENDBRANCH   3   4
ENDBRANCH   2   3
ENDBRANCH   1   2
BRANCH   1   8
ATOM      8  C   UNL     1      -4.474  19.117 -10.736  1.00  0.00     0.000 C 
BRANCH   8   9
ATOM      9  C   UNL     1      -4.130  20.615 -10.758  1.00  0.00    -0.000 C 
BRANCH   9  10
ATOM     10  C   UNL     1      -5.220  21.462 -11.434  1.00  0.00    -0.000 C 
BRANCH  10  11
ATOM     11  C   UNL     1      -6.549  20.702 -11.591  1.00  0.00    -0.000 C 
BRANCH  11  12
ATOM     12  C   UNL     1      -6.810  20.270 -13.042  1.00  0.00    -0.003 C 
ATOM     13  C   UNL     1      -6.819  21.449 -14.016  1.00  0.00     0.004 C 
ENDBRANCH  11  12
ENDBRANCH  10  11
ENDBRANCH   9  10
ENDBRANCH   8   9
ENDBRANCH   1   8
TORSDOF 9
ENDMDL
MODEL 3
REMARK VINA RESULT:     1.564      3.396      6.325
REMARK INTER + INTRA:           2.357
REMARK INTER:                   2.205
REMARK INTRA:                   0.152
REMARK UNBOUND:                -0.030
REMARK SMILES CCCCCCCCCCC(=O)[O-]
REMARK SMILES IDX 7 1 8 2 9 3 10 4 11 5 12 6 13 7 6 8 5 9 4 10 3 11 2 12 1 13
REMARK H PARENT
REMARK Flexibility Score: inf
ROOT
ATOM      1  C   UNL     1      -5.510  17.720 -10.993  1.00  0.00     0.000 C 
ENDROOT
BRANCH   1   2
ATOM      2  C   UNL     1      -4.024  18.035 -10.759  1.00  0.00     0.000 C 
BRANCH   2   3
ATOM      3  C   UNL     1      -3.166  16.769 -10.611  1.00  0.00     0.006 C 
BRANCH   3   4
ATOM      4  C   UNL     1      -4.020  15.508 -10.767  1.00  0.00     0.053 C 
BRANCH   4   5
ATOM      5  C   UNL     1      -3.414  14.367 -10.013  1.00  0.00     0.041 C 
ATOM      6  O   UNL     1      -4.010  13.878  -9.017  1.00  0.00    -0.550 OA
ATOM      7  O   UNL     1      -2.167  13.875 -10.378  1.00  0.00    -0.550 OA
ENDBRANCH   4   5
ENDBRANCH   3   4
ENDBRANCH   2   3
ENDBRANCH   1   2
BRANCH   1   8
ATOM      8  C   UNL     1      -6.409  18.955 -10.834  1.00  0.00     0.000 C 
BRANCH   8   9
ATOM      9  C   UNL     1      -7.001  19.380 -12.186  1.00  0.00    -0.000 C 
BRANCH   9  10
ATOM     10  C   UNL     1      -6.417  20.706 -12.697  1.00  0.00    -0.000 C 
BRANCH  10  11
ATOM     11  C   UNL     1      -6.272  21.758 -11.583  1.00  0.00    -0.000 C 
BRANCH  11  12
ATOM     12  C   UNL     1      -4.809  22.167 -11.348  1.00  0.00    -0.003 C 
ATOM     13  C   UNL     1      -3.940  21.001 -10.877  1.00  0.00     0.004 C 
ENDBRANCH  11  12
ENDBRANCH  10  11
ENDBRANCH   9  10
ENDBRANCH   8   9
ENDBRANCH   1   8
TORSDOF 9
ENDMDL
MODEL 4
REMARK VINA RESULT:     2.154      0.602      1.561
REMARK INTER + INTRA:           3.258
REMARK INTER:                   2.724
REMARK INTRA:                   0.534
REMARK UNBOUND:                -0.030
REMARK SMILES CCCCCCCCCCC(=O)[O-]
REMARK SMILES IDX 7 1 8 2 9 3 10 4 11 5 12 6 13 7 6 8 5 9 4 10 3 11 2 12 1 13
REMARK H PARENT
REMARK Flexibility Score: inf
ROOT
ATOM      1  C   UNL     1      -4.326  18.794 -10.786  1.00  0.00     0.000 C 
ENDROOT
BRANCH   1   2
ATOM      2  C   UNL     1      -3.810  20.241 -10.848  1.00  0.00     0.000 C 
BRANCH   2   3
ATOM      3  C   UNL     1      -4.891  21.236 -11.296  1.00  0.00     0.006 C 
BRANCH   3   4
ATOM      4  C   UNL     1      -6.275  20.581 -11.290  1.00  0.00     0.053 C 
BRANCH   4   5
ATOM      5  C   UNL     1      -6.745  20.333 -12.689  1.00  0.00     0.041 C 
ATOM      6  O   UNL     1      -7.165  19.195 -13.024  1.00  0.00    -0.550 OA
ATOM      7  O   UNL     1      -6.670  21.346 -13.637  1.00  0.00    -0.550 OA
ENDBRANCH   4   5
ENDBRANCH   3   4
ENDBRANCH   2   3
ENDBRANCH   1   2
BRANCH   1   8
ATOM      8  C   UNL     1      -3.212  17.759 -11.003  1.00  0.00     0.000 C 
BRANCH   8   9
ATOM      9  C   UNL     1      -3.478  16.487 -10.183  1.00  0.00    -0.000 C 
BRANCH   9  10
ATOM     10  C   UNL     1      -2.277  15.529 -10.171  1.00  0.00    -0.000 C 
BRANCH  10  11
ATOM     11  C   UNL     1      -2.696  14.055 -10.024  1.00  0.00    -0.000 C 
BRANCH  11  12
ATOM     12  C   UNL     1      -4.222  13.875 -10.027  1.00  0.00    -0.003 C 
ATOM     13  C   UNL     1      -4.876  14.410 -11.301  1.00  0.00     0.004 C 
ENDBRANCH  11  12
ENDBRANCH  10  11
ENDBRANCH   9  10
ENDBRANCH   8   9
ENDBRANCH   1   8
TORSDOF 9
ENDMDL
