MODEL 1
REMARK VINA RESULT:    -3.719      0.000      0.000
REMARK INTER + INTRA:          -5.652
REMARK INTER:                  -5.676
REMARK INTRA:                   0.023
REMARK UNBOUND:                 0.023
REMARK SMILES CC1=CCC[C@H](C)C(=O)C[C@H](C(C)C)C(=O)C1
REMARK SMILES IDX 8 1 9 2 6 3 7 4 5 5 4 6 3 7 2 8 1 9 10 11 11 12 15 13 16 14
REMARK SMILES IDX 17 15 12 17 13 18 14 19
REMARK H PARENT
REMARK Flexibility Score: 70.00
ROOT
ATOM      1  C   UNL     1       0.651  26.577  54.735  1.00  0.00     0.136 C 
ATOM      2  O   UNL     1       1.662  27.178  55.068  1.00  0.00    -0.299 OA
ENDROOT
BRANCH   1   3
ATOM      3  C   UNL     1      -0.211  25.940  55.812  1.00  0.00     0.053 C 
ATOM      4  C   UNL     1       0.529  24.768  56.467  1.00  0.00     0.016 C 
BRANCH   3   5
ATOM      5  C   UNL     1      -0.674  26.960  56.871  1.00  0.00     0.015 C 
BRANCH   5   6
ATOM      6  C   UNL     1      -2.076  27.513  56.559  1.00  0.00     0.028 C 
BRANCH   6   7
ATOM      7  C   UNL     1      -2.091  29.004  56.336  1.00  0.00    -0.028 C 
ATOM      8  C   UNL     1      -2.460  29.631  55.189  1.00  0.00    -0.070 CG0
ATOM      9  C   UNL     1      -2.524  31.139  55.182  1.00  0.00     0.039 C 
ATOM     10  G   UNL     1      -2.669  28.928  53.853  1.00  0.00     0.000 G0
ENDBRANCH   6   7
ENDBRANCH   5   6
ENDBRANCH   3   5
ENDBRANCH   1   3
BRANCH   1  11
ATOM     11  C   UNL     1       0.270  26.544  53.271  1.00  0.00     0.087 C 
BRANCH  11  12
ATOM     12  C   UNL     1      -1.222  26.900  53.022  1.00  0.00     0.066 C 
BRANCH  12  13
ATOM     13  C   UNL     1      -1.468  28.399  53.157  1.00  0.00     0.140 C 
ATOM     14  O   UNL     1      -0.587  29.177  52.816  1.00  0.00    -0.299 OA
BRANCH  13  15
ATOM     15  C   UNL     1      -2.703  28.934  53.844  1.00  0.00     0.106 CG0
ATOM     16  G   UNL     1      -2.446  29.630  55.175  1.00  0.00     0.000 G0
ENDBRANCH  13  15
ENDBRANCH  12  13
BRANCH  12  17
ATOM     17  C   UNL     1      -1.738  26.384  51.639  1.00  0.00    -0.006 C 
ATOM     18  C   UNL     1      -1.794  27.524  50.604  1.00  0.00     0.008 C 
ATOM     19  C   UNL     1      -3.132  25.736  51.735  1.00  0.00     0.008 C 
ENDBRANCH  12  17
ENDBRANCH  11  12
ENDBRANCH   1  11
TORSDOF 1
ENDMDL
MODEL 2
REMARK VINA RESULT:    -3.703      1.875      4.210
REMARK INTER + INTRA:          -5.629
REMARK INTER:                  -5.300
REMARK INTRA:                  -0.328
REMARK UNBOUND:                 0.023
REMARK SMILES CC1=CCC[C@H](C)C(=O)C[C@H](C(C)C)C(=O)C1
REMARK SMILES IDX 8 1 9 2 6 3 7 4 5 5 4 6 3 7 2 8 1 9 10 11 11 12 15 13 16 14
REMARK SMILES IDX 17 15 12 17 13 18 14 19
REMARK H PARENT
REMARK Flexibility Score: 70.00
ROOT
ATOM      1  C   UNL     1      -0.951  29.539  51.842  1.00  0.00     0.136 C 
ATOM      2  O   UNL     1       0.105  30.136  51.996  1.00  0.00    -0.299 OA
ENDROOT
BRANCH   1   3
ATOM      3  C   UNL     1      -1.932  30.044  50.796  1.00  0.00     0.053 C 
ATOM      4  C   UNL     1      -2.821  28.900  50.298  1.00  0.00     0.016 C 
BRANCH   3   5
ATOM      5  C   UNL     1      -2.784  31.220  51.312  1.00  0.00     0.015 C 
BRANCH   5   6
ATOM      6  C   UNL     1      -3.818  30.762  52.357  1.00  0.00     0.028 C 
BRANCH   6   7
ATOM      7  C   UNL     1      -3.537  31.290  53.741  1.00  0.00    -0.028 C 
ATOM      8  C   UNL     1      -3.127  30.551  54.804  1.00  0.00    -0.070 CG0
ATOM      9  C   UNL     1      -2.782  31.266  56.088  1.00  0.00     0.039 C 
ATOM     10  G   UNL     1      -3.132  29.028  54.846  1.00  0.00     0.000 G0
ENDBRANCH   6   7
ENDBRANCH   5   6
ENDBRANCH   3   5
ENDBRANCH   1   3
BRANCH   1  11
ATOM     11  C   UNL     1      -1.211  28.292  52.657  1.00  0.00     0.087 C 
BRANCH  11  12
ATOM     12  C   UNL     1      -0.662  28.388  54.107  1.00  0.00     0.066 C 
BRANCH  12  13
ATOM     13  C   UNL     1      -1.790  28.376  55.134  1.00  0.00     0.140 C 
ATOM     14  O   UNL     1      -1.648  27.730  56.163  1.00  0.00    -0.299 OA
BRANCH  13  15
ATOM     15  C   UNL     1      -3.129  29.010  54.837  1.00  0.00     0.106 CG0
ATOM     16  G   UNL     1      -3.124  30.534  54.801  1.00  0.00     0.000 G0
ENDBRANCH  13  15
ENDBRANCH  12  13
BRANCH  12  17
ATOM     17  C   UNL     1       0.381  27.268  54.428  1.00  0.00    -0.006 C 
ATOM     18  C   UNL     1       1.812  27.724  54.084  1.00  0.00     0.008 C 
ATOM     19  C   UNL     1       0.087  25.957  53.676  1.00  0.00     0.008 C 
ENDBRANCH  12  17
ENDBRANCH  11  12
ENDBRANCH   1  11
TORSDOF 1
ENDMDL
MODEL 3
REMARK VINA RESULT:    -3.688      2.088      4.558
REMARK INTER + INTRA:          -5.604
REMARK INTER:                  -5.335
REMARK INTRA:                  -0.270
REMARK UNBOUND:                 0.023
REMARK SMILES CC1=CCC[C@H](C)C(=O)C[C@H](C(C)C)C(=O)C1
REMARK SMILES IDX 8 1 9 2 6 3 7 4 5 5 4 6 3 7 2 8 1 9 10 11 11 12 15 13 16 14
REMARK SMILES IDX 17 15 12 17 13 18 14 19
REMARK H PARENT
REMARK Flexibility Score: 70.00
ROOT
ATOM      1  C   UNL     1      -1.721  29.759  54.375  1.00  0.00     0.136 C 
ATOM      2  O   UNL     1      -2.289  29.269  55.340  1.00  0.00    -0.299 OA
ENDROOT
BRANCH   1   3
ATOM      3  C   UNL     1      -2.099  31.166  53.939  1.00  0.00     0.053 C 
ATOM      4  C   UNL     1      -1.152  31.658  52.840  1.00  0.00     0.016 C 
BRANCH   3   5
ATOM      5  C   UNL     1      -3.569  31.263  53.486  1.00  0.00     0.015 C 
BRANCH   5   6
ATOM      6  C   UNL     1      -3.777  30.656  52.087  1.00  0.00     0.028 C 
BRANCH   6   7
ATOM      7  C   UNL     1      -4.421  29.293  52.120  1.00  0.00    -0.028 C 
ATOM      8  C   UNL     1      -3.775  28.107  51.978  1.00  0.00    -0.070 CG0
ATOM      9  C   UNL     1      -4.565  26.832  52.154  1.00  0.00     0.039 C 
ATOM     10  G   UNL     1      -2.335  27.963  51.501  1.00  0.00     0.000 G0
ENDBRANCH   6   7
ENDBRANCH   5   6
ENDBRANCH   3   5
ENDBRANCH   1   3
BRANCH   1  11
ATOM     11  C   UNL     1      -0.628  28.968  53.692  1.00  0.00     0.087 C 
BRANCH  11  12
ATOM     12  C   UNL     1      -0.907  27.439  53.668  1.00  0.00     0.066 C 
BRANCH  12  13
ATOM     13  C   UNL     1      -1.492  26.999  52.330  1.00  0.00     0.140 C 
ATOM     14  O   UNL     1      -1.164  25.914  51.870  1.00  0.00    -0.299 OA
BRANCH  13  15
ATOM     15  C   UNL     1      -2.334  27.934  51.495  1.00  0.00     0.106 CG0
ATOM     16  G   UNL     1      -3.771  28.103  51.972  1.00  0.00     0.000 G0
ENDBRANCH  13  15
ENDBRANCH  12  13
BRANCH  12  17
ATOM     17  C   UNL     1       0.361  26.594  54.016  1.00  0.00    -0.006 C 
ATOM     18  C   UNL     1       0.271  26.012  55.440  1.00  0.00     0.008 C 
ATOM     19  C   UNL     1       1.663  27.408  53.898  1.00  0.00     0.008 C 
ENDBRANCH  12  17
ENDBRANCH  11  12
ENDBRANCH   1  11
TORSDOF 1
ENDMDL
MODEL 4
REMARK VINA RESULT:    -3.635      2.011      4.208
REMARK INTER + INTRA:          -5.524
REMARK INTER:                  -5.327
REMARK INTRA:                  -0.196
REMARK UNBOUND:                 0.023
REMARK SMILES CC1=CCC[C@H](C)C(=O)C[C@H](C(C)C)C(=O)C1
REMARK SMILES IDX 8 1 9 2 6 3 7 4 5 5 4 6 3 7 2 8 1 9 10 11 11 12 15 13 16 14
REMARK SMILES IDX 17 15 12 17 13 18 14 19
REMARK H PARENT
REMARK Flexibility Score: 70.00
ROOT
ATOM      1  C   UNL     1      -0.776  29.942  52.532  1.00  0.00     0.136 C 
ATOM      2  O   UNL     1       0.113  29.988  51.693  1.00  0.00    -0.299 OA
ENDROOT
BRANCH   1   3
ATOM      3  C   UNL     1      -1.363  31.245  53.050  1.00  0.00     0.053 C 
ATOM      4  C   UNL     1      -0.292  32.340  53.078  1.00  0.00     0.016 C 
BRANCH   3   5
ATOM      5  C   UNL     1      -2.593  31.697  52.238  1.00  0.00     0.015 C 
BRANCH   5   6
ATOM      6  C   UNL     1      -3.869  30.953  52.672  1.00  0.00     0.028 C 
BRANCH   6   7
ATOM      7  C   UNL     1      -4.172  31.099  54.141  1.00  0.00    -0.028 C 
ATOM      8  C   UNL     1      -3.907  30.176  55.101  1.00  0.00    -0.070 CG0
ATOM      9  C   UNL     1      -4.175  30.540  56.543  1.00  0.00     0.039 C 
ATOM     10  G   UNL     1      -3.500  28.735  54.821  1.00  0.00     0.000 G0
ENDBRANCH   6   7
ENDBRANCH   5   6
ENDBRANCH   3   5
ENDBRANCH   1   3
BRANCH   1  11
ATOM     11  C   UNL     1      -1.293  28.590  52.974  1.00  0.00     0.087 C 
BRANCH  11  12
ATOM     12  C   UNL     1      -0.925  28.251  54.445  1.00  0.00     0.066 C 
BRANCH  12  13
ATOM     13  C   UNL     1      -2.148  28.308  55.354  1.00  0.00     0.140 C 
ATOM     14  O   UNL     1      -2.053  27.892  56.501  1.00  0.00    -0.299 OA
BRANCH  13  15
ATOM     15  C   UNL     1      -3.503  28.715  54.823  1.00  0.00     0.106 CG0
ATOM     16  G   UNL     1      -3.891  30.162  55.098  1.00  0.00     0.000 G0
ENDBRANCH  13  15
ENDBRANCH  12  13
BRANCH  12  17
ATOM     17  C   UNL     1      -0.208  26.868  54.578  1.00  0.00    -0.006 C 
ATOM     18  C   UNL     1       1.225  27.032  55.121  1.00  0.00     0.008 C 
ATOM     19  C   UNL     1      -0.144  26.105  53.242  1.00  0.00     0.008 C 
ENDBRANCH  12  17
ENDBRANCH  11  12
ENDBRANCH   1  11
TORSDOF 1
ENDMDL
MODEL 5
REMARK VINA RESULT:    -3.590      2.645      4.230
REMARK INTER + INTRA:          -5.455
REMARK INTER:                  -5.108
REMARK INTRA:                  -0.347
REMARK UNBOUND:                 0.023
REMARK SMILES CC1=CCC[C@H](C)C(=O)C[C@H](C(C)C)C(=O)C1
REMARK SMILES IDX 8 1 9 2 6 3 7 4 5 5 4 6 3 7 2 8 1 9 10 11 11 12 15 13 16 14
REMARK SMILES IDX 17 15 12 17 13 18 14 19
REMARK H PARENT
REMARK Flexibility Score: 70.00
ROOT
ATOM      1  C   UNL     1      -1.975  29.565  50.878  1.00  0.00     0.136 C 
ATOM      2  O   UNL     1      -1.934  30.165  49.813  1.00  0.00    -0.299 OA
ENDROOT
BRANCH   1   3
ATOM      3  C   UNL     1      -1.454  30.255  52.128  1.00  0.00     0.053 C 
ATOM      4  C   UNL     1       0.064  30.446  52.040  1.00  0.00     0.016 C 
BRANCH   3   5
ATOM      5  C   UNL     1      -2.164  31.596  52.396  1.00  0.00     0.015 C 
BRANCH   5   6
ATOM      6  C   UNL     1      -3.598  31.390  52.917  1.00  0.00     0.028 C 
BRANCH   6   7
ATOM      7  C   UNL     1      -3.650  30.675  54.244  1.00  0.00    -0.028 C 
ATOM      8  C   UNL     1      -4.118  29.417  54.448  1.00  0.00    -0.070 CG0
ATOM      9  C   UNL     1      -3.988  28.816  55.827  1.00  0.00     0.039 C 
ATOM     10  G   UNL     1      -4.907  28.614  53.421  1.00  0.00     0.000 G0
ENDBRANCH   6   7
ENDBRANCH   5   6
ENDBRANCH   3   5
ENDBRANCH   1   3
BRANCH   1  11
ATOM     11  C   UNL     1      -2.595  28.185  50.915  1.00  0.00     0.087 C 
BRANCH  11  12
ATOM     12  C   UNL     1      -2.694  27.602  52.352  1.00  0.00     0.066 C 
BRANCH  12  13
ATOM     13  C   UNL     1      -4.146  27.454  52.796  1.00  0.00     0.140 C 
ATOM     14  O   UNL     1      -4.747  26.425  52.520  1.00  0.00    -0.299 OA
BRANCH  13  15
ATOM     15  C   UNL     1      -4.896  28.605  53.425  1.00  0.00     0.106 CG0
ATOM     16  G   UNL     1      -4.101  29.409  54.446  1.00  0.00     0.000 G0
ENDBRANCH  13  15
ENDBRANCH  12  13
BRANCH  12  17
ATOM     17  C   UNL     1      -1.936  26.243  52.500  1.00  0.00    -0.006 C 
ATOM     18  C   UNL     1      -0.554  26.443  53.152  1.00  0.00     0.008 C 
ATOM     19  C   UNL     1      -1.744  25.525  51.150  1.00  0.00     0.008 C 
ENDBRANCH  12  17
ENDBRANCH  11  12
ENDBRANCH   1  11
TORSDOF 1
ENDMDL
MODEL 6
REMARK VINA RESULT:    -3.501      1.771      2.579
REMARK INTER + INTRA:          -5.320
REMARK INTER:                  -5.053
REMARK INTRA:                  -0.267
REMARK UNBOUND:                 0.023
REMARK SMILES CC1=CCC[C@H](C)C(=O)C[C@H](C(C)C)C(=O)C1
REMARK SMILES IDX 8 1 9 2 6 3 7 4 5 5 4 6 3 7 2 8 1 9 10 11 11 12 15 13 16 14
REMARK SMILES IDX 17 15 12 17 13 18 14 19
REMARK H PARENT
REMARK Flexibility Score: 70.00
ROOT
ATOM      1  C   UNL     1      -0.648  26.836  52.824  1.00  0.00     0.136 C 
ATOM      2  O   UNL     1      -1.469  26.051  52.370  1.00  0.00    -0.299 OA
ENDROOT
BRANCH   1   3
ATOM      3  C   UNL     1       0.368  26.329  53.835  1.00  0.00     0.053 C 
ATOM      4  C   UNL     1       1.509  27.339  53.999  1.00  0.00     0.016 C 
BRANCH   3   5
ATOM      5  C   UNL     1      -0.276  25.998  55.196  1.00  0.00     0.015 C 
BRANCH   5   6
ATOM      6  C   UNL     1      -0.421  27.250  56.080  1.00  0.00     0.028 C 
BRANCH   6   7
ATOM      7  C   UNL     1      -1.855  27.666  56.290  1.00  0.00    -0.028 C 
ATOM      8  C   UNL     1      -2.522  28.606  55.571  1.00  0.00    -0.070 CG0
ATOM      9  C   UNL     1      -3.993  28.812  55.845  1.00  0.00     0.039 C 
ATOM     10  G   UNL     1      -1.860  29.581  54.606  1.00  0.00     0.000 G0
ENDBRANCH   6   7
ENDBRANCH   5   6
ENDBRANCH   3   5
ENDBRANCH   1   3
BRANCH   1  11
ATOM     11  C   UNL     1      -0.643  28.261  52.317  1.00  0.00     0.087 C 
BRANCH  11  12
ATOM     12  C   UNL     1      -2.070  28.825  52.074  1.00  0.00     0.066 C 
BRANCH  12  13
ATOM     13  C   UNL     1      -2.538  29.686  53.243  1.00  0.00     0.140 C 
ATOM     14  O   UNL     1      -3.374  30.556  53.040  1.00  0.00    -0.299 OA
BRANCH  13  15
ATOM     15  C   UNL     1      -1.879  29.593  54.600  1.00  0.00     0.106 CG0
ATOM     16  G   UNL     1      -2.530  28.608  55.563  1.00  0.00     0.000 G0
ENDBRANCH  13  15
ENDBRANCH  12  13
BRANCH  12  17
ATOM     17  C   UNL     1      -2.179  29.620  50.732  1.00  0.00    -0.006 C 
ATOM     18  C   UNL     1      -3.428  29.199  49.934  1.00  0.00     0.008 C 
ATOM     19  C   UNL     1      -0.939  29.438  49.837  1.00  0.00     0.008 C 
ENDBRANCH  12  17
ENDBRANCH  11  12
ENDBRANCH   1  11
TORSDOF 1
ENDMDL
MODEL 7
REMARK VINA RESULT:    -3.483      1.663      3.726
REMARK INTER + INTRA:          -5.292
REMARK INTER:                  -5.253
REMARK INTRA:                  -0.039
REMARK UNBOUND:                 0.023
REMARK SMILES CC1=CCC[C@H](C)C(=O)C[C@H](C(C)C)C(=O)C1
REMARK SMILES IDX 8 1 9 2 6 3 7 4 5 5 4 6 3 7 2 8 1 9 10 11 11 12 15 13 16 14
REMARK SMILES IDX 17 15 12 17 13 18 14 19
REMARK H PARENT
REMARK Flexibility Score: 70.00
ROOT
ATOM      1  C   UNL     1      -1.901  27.024  51.952  1.00  0.00     0.136 C 
ATOM      2  O   UNL     1      -1.334  27.659  51.074  1.00  0.00    -0.299 OA
ENDROOT
BRANCH   1   3
ATOM      3  C   UNL     1      -3.376  26.696  51.784  1.00  0.00     0.053 C 
ATOM      4  C   UNL     1      -3.587  25.179  51.755  1.00  0.00     0.016 C 
BRANCH   3   5
ATOM      5  C   UNL     1      -4.249  27.354  52.871  1.00  0.00     0.015 C 
BRANCH   5   6
ATOM      6  C   UNL     1      -4.296  28.885  52.717  1.00  0.00     0.028 C 
BRANCH   6   7
ATOM      7  C   UNL     1      -4.383  29.611  54.036  1.00  0.00    -0.028 C 
ATOM      8  C   UNL     1      -3.334  30.120  54.732  1.00  0.00    -0.070 CG0
ATOM      9  C   UNL     1      -3.619  30.920  55.980  1.00  0.00     0.039 C 
ATOM     10  G   UNL     1      -1.872  29.815  54.430  1.00  0.00     0.000 G0
ENDBRANCH   6   7
ENDBRANCH   5   6
ENDBRANCH   3   5
ENDBRANCH   1   3
BRANCH   1  11
ATOM     11  C   UNL     1      -1.097  26.543  53.140  1.00  0.00     0.087 C 
BRANCH  11  12
ATOM     12  C   UNL     1      -0.391  27.698  53.904  1.00  0.00     0.066 C 
BRANCH  12  13
ATOM     13  C   UNL     1      -1.367  28.454  54.799  1.00  0.00     0.140 C 
ATOM     14  O   UNL     1      -1.862  27.876  55.757  1.00  0.00    -0.299 OA
BRANCH  13  15
ATOM     15  C   UNL     1      -1.852  29.839  54.438  1.00  0.00     0.106 CG0
ATOM     16  G   UNL     1      -3.323  30.102  54.736  1.00  0.00     0.000 G0
ENDBRANCH  13  15
ENDBRANCH  12  13
BRANCH  12  17
ATOM     17  C   UNL     1       0.839  27.202  54.732  1.00  0.00    -0.006 C 
ATOM     18  C   UNL     1       2.150  27.369  53.939  1.00  0.00     0.008 C 
ATOM     19  C   UNL     1       0.707  25.729  55.160  1.00  0.00     0.008 C 
ENDBRANCH  12  17
ENDBRANCH  11  12
ENDBRANCH   1  11
TORSDOF 1
ENDMDL
MODEL 8
REMARK VINA RESULT:    -3.434      1.947      4.277
REMARK INTER + INTRA:          -5.217
REMARK INTER:                  -5.124
REMARK INTRA:                  -0.093
REMARK UNBOUND:                 0.023
REMARK SMILES CC1=CCC[C@H](C)C(=O)C[C@H](C(C)C)C(=O)C1
REMARK SMILES IDX 8 1 9 2 6 3 7 4 5 5 4 6 3 7 2 8 1 9 10 11 11 12 15 13 16 14
REMARK SMILES IDX 17 15 12 17 13 18 14 19
REMARK H PARENT
REMARK Flexibility Score: 70.00
ROOT
ATOM      1  C   UNL     1      -1.347  27.747  55.002  1.00  0.00     0.136 C 
ATOM      2  O   UNL     1      -0.980  27.256  56.060  1.00  0.00    -0.299 OA
ENDROOT
BRANCH   1   3
ATOM      3  C   UNL     1      -0.472  27.574  53.771  1.00  0.00     0.053 C 
ATOM      4  C   UNL     1       1.010  27.635  54.155  1.00  0.00     0.016 C 
BRANCH   3   5
ATOM      5  C   UNL     1      -0.790  26.275  53.005  1.00  0.00     0.015 C 
BRANCH   5   6
ATOM      6  C   UNL     1      -1.954  26.464  52.016  1.00  0.00     0.028 C 
BRANCH   6   7
ATOM      7  C   UNL     1      -1.749  27.621  51.072  1.00  0.00    -0.028 C 
ATOM      8  C   UNL     1      -2.260  28.871  51.225  1.00  0.00    -0.070 CG0
ATOM      9  C   UNL     1      -1.856  29.939  50.238  1.00  0.00     0.039 C 
ATOM     10  G   UNL     1      -3.337  29.243  52.237  1.00  0.00     0.000 G0
ENDBRANCH   6   7
ENDBRANCH   5   6
ENDBRANCH   3   5
ENDBRANCH   1   3
BRANCH   1  11
ATOM     11  C   UNL     1      -2.682  28.456  54.951  1.00  0.00     0.087 C 
BRANCH  11  12
ATOM     12  C   UNL     1      -2.552  29.980  54.675  1.00  0.00     0.066 C 
BRANCH  12  13
ATOM     13  C   UNL     1      -2.930  30.322  53.238  1.00  0.00     0.140 C 
ATOM     14  O   UNL     1      -3.031  31.498  52.916  1.00  0.00    -0.299 OA
BRANCH  13  15
ATOM     15  C   UNL     1      -3.336  29.248  52.255  1.00  0.00     0.106 CG0
ATOM     16  G   UNL     1      -2.269  28.879  51.232  1.00  0.00     0.000 G0
ENDBRANCH  13  15
ENDBRANCH  12  13
BRANCH  12  17
ATOM     17  C   UNL     1      -3.383  30.843  55.680  1.00  0.00    -0.006 C 
ATOM     18  C   UNL     1      -2.463  31.658  56.609  1.00  0.00     0.008 C 
ATOM     19  C   UNL     1      -4.328  29.991  56.547  1.00  0.00     0.008 C 
ENDBRANCH  12  17
ENDBRANCH  11  12
ENDBRANCH   1  11
TORSDOF 1
ENDMDL
MODEL 9
REMARK VINA RESULT:    -3.319      2.136      4.294
REMARK INTER + INTRA:          -5.043
REMARK INTER:                  -4.597
REMARK INTRA:                  -0.446
REMARK UNBOUND:                 0.023
REMARK SMILES CC1=CCC[C@H](C)C(=O)C[C@H](C(C)C)C(=O)C1
REMARK SMILES IDX 8 1 9 2 6 3 7 4 5 5 4 6 3 7 2 8 1 9 10 11 11 12 15 13 16 14
REMARK SMILES IDX 17 15 12 17 13 18 14 19
REMARK H PARENT
REMARK Flexibility Score: 70.00
ROOT
ATOM      1  C   UNL     1      -2.839  31.075  52.805  1.00  0.00     0.136 C 
ATOM      2  O   UNL     1      -1.984  31.849  52.401  1.00  0.00    -0.299 OA
ENDROOT
BRANCH   1   3
ATOM      3  C   UNL     1      -3.495  31.344  54.150  1.00  0.00     0.053 C 
ATOM      4  C   UNL     1      -4.893  30.719  54.198  1.00  0.00     0.016 C 
BRANCH   3   5
ATOM      5  C   UNL     1      -2.632  30.856  55.330  1.00  0.00     0.015 C 
BRANCH   5   6
ATOM      6  C   UNL     1      -2.852  29.361  55.621  1.00  0.00     0.028 C 
BRANCH   6   7
ATOM      7  C   UNL     1      -1.614  28.527  55.415  1.00  0.00    -0.028 C 
ATOM      8  C   UNL     1      -1.353  27.748  54.333  1.00  0.00    -0.070 CG0
ATOM      9  C   UNL     1      -0.007  27.069  54.243  1.00  0.00     0.039 C 
ATOM     10  G   UNL     1      -2.379  27.381  53.269  1.00  0.00     0.000 G0
ENDBRANCH   6   7
ENDBRANCH   5   6
ENDBRANCH   3   5
ENDBRANCH   1   3
BRANCH   1  11
ATOM     11  C   UNL     1      -3.248  29.915  51.924  1.00  0.00     0.087 C 
BRANCH  11  12
ATOM     12  C   UNL     1      -2.036  29.144  51.332  1.00  0.00     0.066 C 
BRANCH  12  13
ATOM     13  C   UNL     1      -1.986  27.707  51.839  1.00  0.00     0.140 C 
ATOM     14  O   UNL     1      -1.742  26.807  51.046  1.00  0.00    -0.299 OA
BRANCH  13  15
ATOM     15  C   UNL     1      -2.386  27.358  53.254  1.00  0.00     0.106 CG0
ATOM     16  G   UNL     1      -1.371  27.746  54.322  1.00  0.00     0.000 G0
ENDBRANCH  13  15
ENDBRANCH  12  13
BRANCH  12  17
ATOM     17  C   UNL     1      -2.014  29.174  49.769  1.00  0.00    -0.006 C 
ATOM     18  C   UNL     1      -0.639  29.625  49.239  1.00  0.00     0.008 C 
ATOM     19  C   UNL     1      -3.096  30.099  49.181  1.00  0.00     0.008 C 
ENDBRANCH  12  17
ENDBRANCH  11  12
ENDBRANCH   1  11
TORSDOF 1
ENDMDL
