MODEL 1
REMARK VINA RESULT:    -4.146      0.000      0.000
REMARK INTER + INTRA:          -4.752
REMARK INTER:                  -4.510
REMARK INTRA:                  -0.242
REMARK UNBOUND:                -0.242
REMARK SMILES O=C([O-])c1ccccc1O
REMARK SMILES IDX 4 1 9 2 5 3 8 4 6 5 7 6 2 7 1 8 3 9 10 10
REMARK H PARENT 10 11
REMARK Flexibility Score: inf
ROOT
ATOM      1  C   UNL     1     -45.019 -52.434  11.233  1.00  0.00     0.039 A 
ATOM      2  C   UNL     1     -45.044 -52.919   9.900  1.00  0.00     0.124 A 
ATOM      3  C   UNL     1     -45.610 -51.189  11.516  1.00  0.00     0.014 A 
ATOM      4  C   UNL     1     -45.706 -52.184   8.908  1.00  0.00     0.047 A 
ATOM      5  C   UNL     1     -46.249 -50.458  10.511  1.00  0.00     0.001 A 
ATOM      6  C   UNL     1     -46.305 -50.960   9.211  1.00  0.00     0.004 A 
ENDROOT
BRANCH   1   7
ATOM      7  C   UNL     1     -44.427 -53.207  12.347  1.00  0.00     0.075 C 
ATOM      8  O   UNL     1     -43.239 -53.616  12.272  1.00  0.00    -0.545 OA
ATOM      9  O   UNL     1     -45.145 -53.434  13.515  1.00  0.00    -0.545 OA
ENDBRANCH   1   7
BRANCH   2  10
ATOM     10  O   UNL     1     -44.397 -54.095   9.516  1.00  0.00    -0.507 OA
ATOM     11  H   UNL     1     -43.418 -54.138   9.272  1.00  0.00     0.293 HD
ENDBRANCH   2  10
TORSDOF 2
ENDMDL
MODEL 2
REMARK VINA RESULT:    -4.034      1.083      2.933
REMARK INTER + INTRA:          -4.630
REMARK INTER:                  -4.390
REMARK INTRA:                  -0.240
REMARK UNBOUND:                -0.242
REMARK SMILES O=C([O-])c1ccccc1O
REMARK SMILES IDX 4 1 9 2 5 3 8 4 6 5 7 6 2 7 1 8 3 9 10 10
REMARK H PARENT 10 11
REMARK Flexibility Score: inf
ROOT
ATOM      1  C   UNL     1     -45.072 -52.796   9.917  1.00  0.00     0.039 A 
ATOM      2  C   UNL     1     -45.031 -53.042  11.313  1.00  0.00     0.124 A 
ATOM      3  C   UNL     1     -45.669 -51.610   9.452  1.00  0.00     0.014 A 
ATOM      4  C   UNL     1     -45.527 -52.079  12.202  1.00  0.00     0.047 A 
ATOM      5  C   UNL     1     -46.177 -50.668  10.350  1.00  0.00     0.001 A 
ATOM      6  C   UNL     1     -46.097 -50.898  11.723  1.00  0.00     0.004 A 
ENDROOT
BRANCH   1   7
ATOM      7  C   UNL     1     -44.474 -53.723   8.930  1.00  0.00     0.075 C 
ATOM      8  O   UNL     1     -43.287 -54.118   9.073  1.00  0.00    -0.545 OA
ATOM      9  O   UNL     1     -45.228 -54.222   7.876  1.00  0.00    -0.545 OA
ENDBRANCH   1   7
BRANCH   2  10
ATOM     10  O   UNL     1     -44.545 -54.236  11.852  1.00  0.00    -0.507 OA
ATOM     11  H   UNL     1     -44.955 -54.690  12.656  1.00  0.00     0.293 HD
ENDBRANCH   2  10
TORSDOF 2
ENDMDL
MODEL 3
REMARK VINA RESULT:    -3.985      2.454      3.424
REMARK INTER + INTRA:          -4.577
REMARK INTER:                  -4.328
REMARK INTRA:                  -0.249
REMARK UNBOUND:                -0.242
REMARK SMILES O=C([O-])c1ccccc1O
REMARK SMILES IDX 4 1 9 2 5 3 8 4 6 5 7 6 2 7 1 8 3 9 10 10
REMARK H PARENT 10 11
REMARK Flexibility Score: inf
ROOT
ATOM      1  C   UNL     1     -45.409 -52.967   9.397  1.00  0.00     0.039 A 
ATOM      2  C   UNL     1     -45.805 -51.625   9.163  1.00  0.00     0.124 A 
ATOM      3  C   UNL     1     -45.134 -53.375  10.715  1.00  0.00     0.014 A 
ATOM      4  C   UNL     1     -45.974 -50.753  10.247  1.00  0.00     0.047 A 
ATOM      5  C   UNL     1     -45.287 -52.488  11.784  1.00  0.00     0.001 A 
ATOM      6  C   UNL     1     -45.716 -51.182  11.550  1.00  0.00     0.004 A 
ENDROOT
BRANCH   1   7
ATOM      7  C   UNL     1     -45.311 -53.966   8.310  1.00  0.00     0.075 C 
ATOM      8  O   UNL     1     -44.758 -53.663   7.221  1.00  0.00    -0.545 OA
ATOM      9  O   UNL     1     -45.764 -55.266   8.497  1.00  0.00    -0.545 OA
ENDBRANCH   1   7
BRANCH   2  10
ATOM     10  O   UNL     1     -46.002 -51.112   7.879  1.00  0.00    -0.507 OA
ATOM     11  H   UNL     1     -46.705 -51.461   7.243  1.00  0.00     0.293 HD
ENDBRANCH   2  10
TORSDOF 2
ENDMDL
MODEL 4
REMARK VINA RESULT:    -3.837      1.476      3.454
REMARK INTER + INTRA:          -4.416
REMARK INTER:                  -4.171
REMARK INTRA:                  -0.245
REMARK UNBOUND:                -0.242
REMARK SMILES O=C([O-])c1ccccc1O
REMARK SMILES IDX 4 1 9 2 5 3 8 4 6 5 7 6 2 7 1 8 3 9 10 10
REMARK H PARENT 10 11
REMARK Flexibility Score: inf
ROOT
ATOM      1  C   UNL     1     -45.428 -52.118   9.142  1.00  0.00     0.039 A 
ATOM      2  C   UNL     1     -45.034 -52.893  10.262  1.00  0.00     0.124 A 
ATOM      3  C   UNL     1     -46.069 -50.884   9.359  1.00  0.00     0.014 A 
ATOM      4  C   UNL     1     -45.231 -52.392  11.556  1.00  0.00     0.047 A 
ATOM      5  C   UNL     1     -46.277 -50.407  10.655  1.00  0.00     0.001 A 
ATOM      6  C   UNL     1     -45.849 -51.156  11.751  1.00  0.00     0.004 A 
ENDROOT
BRANCH   1   7
ATOM      7  C   UNL     1     -45.157 -52.541   7.750  1.00  0.00     0.075 C 
ATOM      8  O   UNL     1     -44.867 -51.683   6.874  1.00  0.00    -0.545 OA
ATOM      9  O   UNL     1     -45.151 -53.886   7.403  1.00  0.00    -0.545 OA
ENDBRANCH   1   7
BRANCH   2  10
ATOM     10  O   UNL     1     -44.482 -54.170  10.137  1.00  0.00    -0.507 OA
ATOM     11  H   UNL     1     -44.492 -54.698   9.275  1.00  0.00     0.293 HD
ENDBRANCH   2  10
TORSDOF 2
ENDMDL
MODEL 5
REMARK VINA RESULT:    -3.767      6.379      7.663
REMARK INTER + INTRA:          -4.339
REMARK INTER:                  -4.108
REMARK INTRA:                  -0.232
REMARK UNBOUND:                -0.242
REMARK SMILES O=C([O-])c1ccccc1O
REMARK SMILES IDX 4 1 9 2 5 3 8 4 6 5 7 6 2 7 1 8 3 9 10 10
REMARK H PARENT 10 11
REMARK Flexibility Score: inf
ROOT
ATOM      1  C   UNL     1     -46.823 -45.731  13.911  1.00  0.00     0.039 A 
ATOM      2  C   UNL     1     -46.306 -47.046  14.040  1.00  0.00     0.124 A 
ATOM      3  C   UNL     1     -46.766 -45.098  12.655  1.00  0.00     0.014 A 
ATOM      4  C   UNL     1     -45.810 -47.710  12.910  1.00  0.00     0.047 A 
ATOM      5  C   UNL     1     -46.249 -45.766  11.542  1.00  0.00     0.001 A 
ATOM      6  C   UNL     1     -45.781 -47.073  11.668  1.00  0.00     0.004 A 
ENDROOT
BRANCH   1   7
ATOM      7  C   UNL     1     -47.455 -45.013  15.039  1.00  0.00     0.075 C 
ATOM      8  O   UNL     1     -47.133 -43.822  15.290  1.00  0.00    -0.545 OA
ATOM      9  O   UNL     1     -48.456 -45.613  15.793  1.00  0.00    -0.545 OA
ENDBRANCH   1   7
BRANCH   2  10
ATOM     10  O   UNL     1     -46.234 -47.709  15.267  1.00  0.00    -0.507 OA
ATOM     11  H   UNL     1     -45.730 -48.573  15.404  1.00  0.00     0.293 HD
ENDBRANCH   2  10
TORSDOF 2
ENDMDL
MODEL 6
REMARK VINA RESULT:    -3.727      2.853      3.890
REMARK INTER + INTRA:          -4.296
REMARK INTER:                  -4.080
REMARK INTRA:                  -0.216
REMARK UNBOUND:                -0.242
REMARK SMILES O=C([O-])c1ccccc1O
REMARK SMILES IDX 4 1 9 2 5 3 8 4 6 5 7 6 2 7 1 8 3 9 10 10
REMARK H PARENT 10 11
REMARK Flexibility Score: inf
ROOT
ATOM      1  C   UNL     1     -45.636 -50.997   9.570  1.00  0.00     0.039 A 
ATOM      2  C   UNL     1     -45.512 -52.236   8.891  1.00  0.00     0.124 A 
ATOM      3  C   UNL     1     -45.544 -50.978  10.975  1.00  0.00     0.014 A 
ATOM      4  C   UNL     1     -45.240 -53.402   9.620  1.00  0.00     0.047 A 
ATOM      5  C   UNL     1     -45.292 -52.153  11.688  1.00  0.00     0.001 A 
ATOM      6  C   UNL     1     -45.131 -53.361  11.010  1.00  0.00     0.004 A 
ENDROOT
BRANCH   1   7
ATOM      7  C   UNL     1     -45.820 -49.715   8.855  1.00  0.00     0.075 C 
ATOM      8  O   UNL     1     -46.044 -48.658   9.501  1.00  0.00    -0.545 OA
ATOM      9  O   UNL     1     -45.683 -49.645   7.474  1.00  0.00    -0.545 OA
ENDBRANCH   1   7
BRANCH   2  10
ATOM     10  O   UNL     1     -45.687 -52.358   7.511  1.00  0.00    -0.507 OA
ATOM     11  H   UNL     1     -44.984 -52.092   6.836  1.00  0.00     0.293 HD
ENDBRANCH   2  10
TORSDOF 2
ENDMDL
MODEL 7
REMARK VINA RESULT:    -3.640      6.983      8.122
REMARK INTER + INTRA:          -4.201
REMARK INTER:                  -3.964
REMARK INTRA:                  -0.237
REMARK UNBOUND:                -0.242
REMARK SMILES O=C([O-])c1ccccc1O
REMARK SMILES IDX 4 1 9 2 5 3 8 4 6 5 7 6 2 7 1 8 3 9 10 10
REMARK H PARENT 10 11
REMARK Flexibility Score: inf
ROOT
ATOM      1  C   UNL     1     -47.066 -45.689  13.872  1.00  0.00     0.039 A 
ATOM      2  C   UNL     1     -46.920 -44.886  12.712  1.00  0.00     0.124 A 
ATOM      3  C   UNL     1     -46.531 -46.990  13.871  1.00  0.00     0.014 A 
ATOM      4  C   UNL     1     -46.197 -45.376  11.617  1.00  0.00     0.047 A 
ATOM      5  C   UNL     1     -45.830 -47.472  12.763  1.00  0.00     0.001 A 
ATOM      6  C   UNL     1     -45.655 -46.661  11.641  1.00  0.00     0.004 A 
ENDROOT
BRANCH   1   7
ATOM      7  C   UNL     1     -47.728 -45.196  15.101  1.00  0.00     0.075 C 
ATOM      8  O   UNL     1     -48.570 -45.916  15.698  1.00  0.00    -0.545 OA
ATOM      9  O   UNL     1     -47.383 -43.967  15.650  1.00  0.00    -0.545 OA
ENDBRANCH   1   7
BRANCH   2  10
ATOM     10  O   UNL     1     -47.504 -43.623  12.594  1.00  0.00    -0.507 OA
ATOM     11  H   UNL     1     -48.286 -43.317  13.156  1.00  0.00     0.293 HD
ENDBRANCH   2  10
TORSDOF 2
ENDMDL
MODEL 8
REMARK VINA RESULT:    -3.629      2.616      3.763
REMARK INTER + INTRA:          -4.189
REMARK INTER:                  -3.943
REMARK INTRA:                  -0.245
REMARK UNBOUND:                -0.242
REMARK SMILES O=C([O-])c1ccccc1O
REMARK SMILES IDX 4 1 9 2 5 3 8 4 6 5 7 6 2 7 1 8 3 9 10 10
REMARK H PARENT 10 11
REMARK Flexibility Score: inf
ROOT
ATOM      1  C   UNL     1     -44.562 -53.074   9.853  1.00  0.00     0.039 A 
ATOM      2  C   UNL     1     -43.143 -53.097   9.839  1.00  0.00     0.124 A 
ATOM      3  C   UNL     1     -45.232 -53.213  11.082  1.00  0.00     0.014 A 
ATOM      4  C   UNL     1     -42.440 -53.196  11.046  1.00  0.00     0.047 A 
ATOM      5  C   UNL     1     -44.516 -53.331  12.276  1.00  0.00     0.001 A 
ATOM      6  C   UNL     1     -43.121 -53.312  12.258  1.00  0.00     0.004 A 
ENDROOT
BRANCH   1   7
ATOM      7  C   UNL     1     -45.365 -52.869   8.627  1.00  0.00     0.075 C 
ATOM      8  O   UNL     1     -45.079 -51.934   7.833  1.00  0.00    -0.545 OA
ATOM      9  O   UNL     1     -46.396 -53.740   8.299  1.00  0.00    -0.545 OA
ENDBRANCH   1   7
BRANCH   2  10
ATOM     10  O   UNL     1     -42.403 -53.063   8.655  1.00  0.00    -0.507 OA
ATOM     11  H   UNL     1     -42.811 -52.875   7.750  1.00  0.00     0.293 HD
ENDBRANCH   2  10
TORSDOF 2
ENDMDL
MODEL 9
REMARK VINA RESULT:    -3.627      2.018      3.385
REMARK INTER + INTRA:          -4.187
REMARK INTER:                  -3.937
REMARK INTRA:                  -0.250
REMARK UNBOUND:                -0.242
REMARK SMILES O=C([O-])c1ccccc1O
REMARK SMILES IDX 4 1 9 2 5 3 8 4 6 5 7 6 2 7 1 8 3 9 10 10
REMARK H PARENT 10 11
REMARK Flexibility Score: inf
ROOT
ATOM      1  C   UNL     1     -43.419 -52.316  10.527  1.00  0.00     0.039 A 
ATOM      2  C   UNL     1     -43.358 -53.375  11.468  1.00  0.00     0.124 A 
ATOM      3  C   UNL     1     -44.516 -51.434  10.564  1.00  0.00     0.014 A 
ATOM      4  C   UNL     1     -44.350 -53.487  12.451  1.00  0.00     0.047 A 
ATOM      5  C   UNL     1     -45.508 -51.572  11.538  1.00  0.00     0.001 A 
ATOM      6  C   UNL     1     -45.419 -52.591  12.486  1.00  0.00     0.004 A 
ENDROOT
BRANCH   1   7
ATOM      7  C   UNL     1     -42.353 -52.079   9.528  1.00  0.00     0.075 C 
ATOM      8  O   UNL     1     -41.143 -52.202   9.855  1.00  0.00    -0.545 OA
ATOM      9  O   UNL     1     -42.668 -51.785   8.208  1.00  0.00    -0.545 OA
ENDBRANCH   1   7
BRANCH   2  10
ATOM     10  O   UNL     1     -42.358 -54.350  11.439  1.00  0.00    -0.507 OA
ATOM     11  H   UNL     1     -42.548 -55.342  11.437  1.00  0.00     0.293 HD
ENDBRANCH   2  10
TORSDOF 2
ENDMDL
