MODEL 1
REMARK VINA RESULT:    -3.430      0.000      0.000
REMARK INTER + INTRA:          -3.531
REMARK INTER:                  -3.531
REMARK INTRA:                   0.000
REMARK UNBOUND:                 0.000
REMARK SMILES Cc1ccccc1O
REMARK SMILES IDX 1 1 2 2 3 3 4 4 5 5 6 6 7 7 8 8
REMARK H PARENT 8 9
REMARK Flexibility Score: inf
ROOT
ATOM      1  C   UNL     1      21.900  17.309  -2.548  1.00  0.00     0.048 C 
ATOM      2  C   UNL     1      22.683  17.279  -1.266  1.00  0.00    -0.009 A 
ATOM      3  C   UNL     1      22.331  18.125  -0.201  1.00  0.00     0.007 A 
ATOM      4  C   UNL     1      23.060  18.098   0.991  1.00  0.00     0.001 A 
ATOM      5  C   UNL     1      24.143  17.228   1.131  1.00  0.00     0.004 A 
ATOM      6  C   UNL     1      24.502  16.383   0.077  1.00  0.00     0.046 A 
ATOM      7  C   UNL     1      23.777  16.404  -1.123  1.00  0.00     0.118 A 
ENDROOT
BRANCH   7   8
ATOM      8  O   UNL     1      24.138  15.559  -2.172  1.00  0.00    -0.508 OA
ATOM      9  H   UNL     1      24.225  14.558  -2.042  1.00  0.00     0.293 HD
ENDBRANCH   7   8
TORSDOF 1
ENDMDL
MODEL 2
REMARK VINA RESULT:    -3.335     16.741     17.556
REMARK INTER + INTRA:          -3.432
REMARK INTER:                  -3.432
REMARK INTRA:                   0.000
REMARK UNBOUND:                 0.000
REMARK SMILES Cc1ccccc1O
REMARK SMILES IDX 1 1 2 2 3 3 4 4 5 5 6 6 7 7 8 8
REMARK H PARENT 8 9
REMARK Flexibility Score: inf
ROOT
ATOM      1  C   UNL     1      10.833   6.028  -0.488  1.00  0.00     0.048 C 
ATOM      2  C   UNL     1      11.505   4.983  -1.333  1.00  0.00    -0.009 A 
ATOM      3  C   UNL     1      12.886   4.753  -1.212  1.00  0.00     0.007 A 
ATOM      4  C   UNL     1      13.512   3.782  -1.997  1.00  0.00     0.001 A 
ATOM      5  C   UNL     1      12.766   3.032  -2.909  1.00  0.00     0.004 A 
ATOM      6  C   UNL     1      11.393   3.253  -3.039  1.00  0.00     0.046 A 
ATOM      7  C   UNL     1      10.756   4.226  -2.255  1.00  0.00     0.118 A 
ENDROOT
BRANCH   7   8
ATOM      8  O   UNL     1       9.385   4.443  -2.387  1.00  0.00    -0.508 OA
ATOM      9  H   UNL     1       8.719   3.681  -2.335  1.00  0.00     0.293 HD
ENDBRANCH   7   8
TORSDOF 1
ENDMDL
MODEL 3
REMARK VINA RESULT:    -3.069     16.527     17.294
REMARK INTER + INTRA:          -3.159
REMARK INTER:                  -3.159
REMARK INTRA:                   0.000
REMARK UNBOUND:                 0.000
REMARK SMILES Cc1ccccc1O
REMARK SMILES IDX 1 1 2 2 3 3 4 4 5 5 6 6 7 7 8 8
REMARK H PARENT 8 9
REMARK Flexibility Score: inf
ROOT
ATOM      1  C   UNL     1      15.460   3.181  -1.062  1.00  0.00     0.048 C 
ATOM      2  C   UNL     1      14.087   3.374  -1.643  1.00  0.00    -0.009 A 
ATOM      3  C   UNL     1      13.296   4.465  -1.247  1.00  0.00     0.007 A 
ATOM      4  C   UNL     1      12.020   4.644  -1.786  1.00  0.00     0.001 A 
ATOM      5  C   UNL     1      11.523   3.738  -2.724  1.00  0.00     0.004 A 
ATOM      6  C   UNL     1      12.300   2.648  -3.125  1.00  0.00     0.046 A 
ATOM      7  C   UNL     1      13.583   2.460  -2.588  1.00  0.00     0.118 A 
ENDROOT
BRANCH   7   8
ATOM      8  O   UNL     1      14.355   1.371  -2.991  1.00  0.00    -0.508 OA
ATOM      9  H   UNL     1      14.510   1.163  -3.970  1.00  0.00     0.293 HD
ENDBRANCH   7   8
TORSDOF 1
ENDMDL
MODEL 4
REMARK VINA RESULT:    -3.068      1.084      2.679
REMARK INTER + INTRA:          -3.158
REMARK INTER:                  -3.158
REMARK INTRA:                   0.000
REMARK UNBOUND:                 0.000
REMARK SMILES Cc1ccccc1O
REMARK SMILES IDX 1 1 2 2 3 3 4 4 5 5 6 6 7 7 8 8
REMARK H PARENT 8 9
REMARK Flexibility Score: inf
ROOT
ATOM      1  C   UNL     1      23.849  17.350   1.799  1.00  0.00     0.048 C 
ATOM      2  C   UNL     1      23.383  17.298   0.371  1.00  0.00    -0.009 A 
ATOM      3  C   UNL     1      22.333  18.125  -0.063  1.00  0.00     0.007 A 
ATOM      4  C   UNL     1      21.899  18.077  -1.390  1.00  0.00     0.001 A 
ATOM      5  C   UNL     1      22.509  17.206  -2.295  1.00  0.00     0.004 A 
ATOM      6  C   UNL     1      23.554  16.379  -1.875  1.00  0.00     0.046 A 
ATOM      7  C   UNL     1      23.995  16.420  -0.544  1.00  0.00     0.118 A 
ENDROOT
BRANCH   7   8
ATOM      8  O   UNL     1      25.038  15.593  -0.128  1.00  0.00    -0.508 OA
ATOM      9  H   UNL     1      25.959  15.648  -0.547  1.00  0.00     0.293 HD
ENDBRANCH   7   8
TORSDOF 1
ENDMDL
MODEL 5
REMARK VINA RESULT:    -3.031     16.401     17.205
REMARK INTER + INTRA:          -3.119
REMARK INTER:                  -3.119
REMARK INTRA:                   0.000
REMARK UNBOUND:                 0.000
REMARK SMILES Cc1ccccc1O
REMARK SMILES IDX 1 1 2 2 3 3 4 4 5 5 6 6 7 7 8 8
REMARK H PARENT 8 9
REMARK Flexibility Score: inf
ROOT
ATOM      1  C   UNL     1      13.356   2.400  -3.125  1.00  0.00     0.048 C 
ATOM      2  C   UNL     1      12.513   3.449  -2.455  1.00  0.00    -0.009 A 
ATOM      3  C   UNL     1      11.156   3.589  -2.791  1.00  0.00     0.007 A 
ATOM      4  C   UNL     1      10.372   4.564  -2.169  1.00  0.00     0.001 A 
ATOM      5  C   UNL     1      10.934   5.406  -1.208  1.00  0.00     0.004 A 
ATOM      6  C   UNL     1      12.283   5.277  -0.867  1.00  0.00     0.046 A 
ATOM      7  C   UNL     1      13.077   4.301  -1.486  1.00  0.00     0.118 A 
ENDROOT
BRANCH   7   8
ATOM      8  O   UNL     1      14.423   4.175  -1.143  1.00  0.00    -0.508 OA
ATOM      9  H   UNL     1      14.820   3.283  -0.871  1.00  0.00     0.293 HD
ENDBRANCH   7   8
TORSDOF 1
ENDMDL
MODEL 6
REMARK VINA RESULT:    -3.004     16.335     17.089
REMARK INTER + INTRA:          -3.092
REMARK INTER:                  -3.092
REMARK INTRA:                   0.000
REMARK UNBOUND:                 0.000
REMARK SMILES Cc1ccccc1O
REMARK SMILES IDX 1 1 2 2 3 3 4 4 5 5 6 6 7 7 8 8
REMARK H PARENT 8 9
REMARK Flexibility Score: inf
ROOT
ATOM      1  C   UNL     1      15.572   1.289  -2.641  1.00  0.00     0.048 C 
ATOM      2  C   UNL     1      14.494   2.310  -2.410  1.00  0.00    -0.009 A 
ATOM      3  C   UNL     1      13.286   2.241  -3.125  1.00  0.00     0.007 A 
ATOM      4  C   UNL     1      12.284   3.190  -2.911  1.00  0.00     0.001 A 
ATOM      5  C   UNL     1      12.477   4.215  -1.982  1.00  0.00     0.004 A 
ATOM      6  C   UNL     1      13.674   4.295  -1.266  1.00  0.00     0.046 A 
ATOM      7  C   UNL     1      14.686   3.346  -1.475  1.00  0.00     0.118 A 
ENDROOT
BRANCH   7   8
ATOM      8  O   UNL     1      15.879   3.428  -0.759  1.00  0.00    -0.508 OA
ATOM      9  H   UNL     1      16.770   3.563  -1.224  1.00  0.00     0.293 HD
ENDBRANCH   7   8
TORSDOF 1
ENDMDL
MODEL 7
REMARK VINA RESULT:    -2.991     15.159     15.961
REMARK INTER + INTRA:          -3.079
REMARK INTER:                  -3.079
REMARK INTRA:                   0.000
REMARK UNBOUND:                 0.000
REMARK SMILES Cc1ccccc1O
REMARK SMILES IDX 1 1 2 2 3 3 4 4 5 5 6 6 7 7 8 8
REMARK H PARENT 8 9
REMARK Flexibility Score: inf
ROOT
ATOM      1  C   UNL     1      13.349   4.250  -1.336  1.00  0.00     0.048 C 
ATOM      2  C   UNL     1      12.359   5.380  -1.365  1.00  0.00    -0.009 A 
ATOM      3  C   UNL     1      11.252   5.375  -0.500  1.00  0.00     0.007 A 
ATOM      4  C   UNL     1      10.331   6.425  -0.526  1.00  0.00     0.001 A 
ATOM      5  C   UNL     1      10.506   7.489  -1.414  1.00  0.00     0.004 A 
ATOM      6  C   UNL     1      11.603   7.504  -2.279  1.00  0.00     0.046 A 
ATOM      7  C   UNL     1      12.533   6.453  -2.260  1.00  0.00     0.118 A 
ENDROOT
BRANCH   7   8
ATOM      8  O   UNL     1      13.626   6.473  -3.125  1.00  0.00    -0.508 OA
ATOM      9  H   UNL     1      13.744   7.205  -3.815  1.00  0.00     0.293 HD
ENDBRANCH   7   8
TORSDOF 1
ENDMDL
MODEL 8
REMARK VINA RESULT:    -2.949     16.670     17.568
REMARK INTER + INTRA:          -3.035
REMARK INTER:                  -3.035
REMARK INTRA:                   0.000
REMARK UNBOUND:                 0.000
REMARK SMILES Cc1ccccc1O
REMARK SMILES IDX 1 1 2 2 3 3 4 4 5 5 6 6 7 7 8 8
REMARK H PARENT 8 9
REMARK Flexibility Score: inf
ROOT
ATOM      1  C   UNL     1      12.499   4.645  -0.874  1.00  0.00     0.048 C 
ATOM      2  C   UNL     1      11.217   5.308  -1.292  1.00  0.00    -0.009 A 
ATOM      3  C   UNL     1      10.896   6.592  -0.820  1.00  0.00     0.007 A 
ATOM      4  C   UNL     1       9.703   7.208  -1.207  1.00  0.00     0.001 A 
ATOM      5  C   UNL     1       8.823   6.551  -2.069  1.00  0.00     0.004 A 
ATOM      6  C   UNL     1       9.132   5.273  -2.544  1.00  0.00     0.046 A 
ATOM      7  C   UNL     1      10.327   4.647  -2.159  1.00  0.00     0.118 A 
ENDROOT
BRANCH   7   8
ATOM      8  O   UNL     1      10.631   3.372  -2.636  1.00  0.00    -0.508 OA
ATOM      9  H   UNL     1      11.246   3.235  -3.429  1.00  0.00     0.293 HD
ENDBRANCH   7   8
TORSDOF 1
ENDMDL
MODEL 9
REMARK VINA RESULT:    -2.900     14.859     15.634
REMARK INTER + INTRA:          -2.985
REMARK INTER:                  -2.985
REMARK INTRA:                   0.000
REMARK UNBOUND:                 0.000
REMARK SMILES Cc1ccccc1O
REMARK SMILES IDX 1 1 2 2 3 3 4 4 5 5 6 6 7 7 8 8
REMARK H PARENT 8 9
REMARK Flexibility Score: inf
ROOT
ATOM      1  C   UNL     1      11.274   8.709  -2.162  1.00  0.00     0.048 C 
ATOM      2  C   UNL     1      11.568   7.300  -1.732  1.00  0.00    -0.009 A 
ATOM      3  C   UNL     1      10.715   6.641  -0.830  1.00  0.00     0.007 A 
ATOM      4  C   UNL     1      10.989   5.331  -0.429  1.00  0.00     0.001 A 
ATOM      5  C   UNL     1      12.113   4.667  -0.925  1.00  0.00     0.004 A 
ATOM      6  C   UNL     1      12.968   5.312  -1.822  1.00  0.00     0.046 A 
ATOM      7  C   UNL     1      12.701   6.628  -2.229  1.00  0.00     0.118 A 
ENDROOT
BRANCH   7   8
ATOM      8  O   UNL     1      13.557   7.269  -3.125  1.00  0.00    -0.508 OA
ATOM      9  H   UNL     1      13.202   7.848  -3.877  1.00  0.00     0.293 HD
ENDBRANCH   7   8
TORSDOF 1
ENDMDL
