MODEL 1
REMARK VINA RESULT:    -4.364      0.000      0.000
REMARK INTER + INTRA:          -7.328
REMARK INTER:                  -6.916
REMARK INTRA:                  -0.412
REMARK UNBOUND:                -0.412
REMARK SMILES CCCCCCCCCCCC(=O)[O-]
REMARK SMILES IDX 7 1 8 2 9 3 10 4 11 5 12 6 13 7 14 8 6 9 5 10 4 11 3 12 2 13
REMARK SMILES IDX 1 14
REMARK H PARENT
REMARK Flexibility Score: inf
ROOT
ATOM      1  C   UNL     1     -32.907 -22.088 -35.036  1.00  0.00     0.000 C 
ENDROOT
BRANCH   1   2
ATOM      2  C   UNL     1     -31.606 -22.416 -34.292  1.00  0.00     0.000 C 
BRANCH   2   3
ATOM      3  C   UNL     1     -31.131 -21.219 -33.461  1.00  0.00     0.000 C 
BRANCH   3   4
ATOM      4  C   UNL     1     -29.631 -21.328 -33.147  1.00  0.00     0.006 C 
BRANCH   4   5
ATOM      5  C   UNL     1     -29.300 -20.858 -31.725  1.00  0.00     0.053 C 
BRANCH   5   6
ATOM      6  C   UNL     1     -30.272 -21.399 -30.722  1.00  0.00     0.041 C 
ATOM      7  O   UNL     1     -30.361 -22.639 -30.529  1.00  0.00    -0.550 OA
ATOM      8  O   UNL     1     -31.057 -20.529 -29.976  1.00  0.00    -0.550 OA
ENDBRANCH   5   6
ENDBRANCH   4   5
ENDBRANCH   3   4
ENDBRANCH   2   3
ENDBRANCH   1   2
BRANCH   1   9
ATOM      9  C   UNL     1     -32.857 -22.596 -36.482  1.00  0.00     0.000 C 
BRANCH   9  10
ATOM     10  C   UNL     1     -32.489 -24.087 -36.528  1.00  0.00    -0.000 C 
BRANCH  10  11
ATOM     11  C   UNL     1     -31.172 -24.355 -37.278  1.00  0.00    -0.000 C 
BRANCH  11  12
ATOM     12  C   UNL     1     -31.223 -25.516 -38.293  1.00  0.00    -0.000 C 
BRANCH  12  13
ATOM     13  C   UNL     1     -32.441 -26.445 -38.156  1.00  0.00    -0.003 C 
ATOM     14  C   UNL     1     -32.186 -27.847 -38.712  1.00  0.00     0.004 C 
ENDBRANCH  12  13
ENDBRANCH  11  12
ENDBRANCH  10  11
ENDBRANCH   9  10
ENDBRANCH   1   9
TORSDOF 10
ENDMDL
MODEL 2
REMARK VINA RESULT:    -4.360      0.673      1.545
REMARK INTER + INTRA:          -7.321
REMARK INTER:                  -6.873
REMARK INTRA:                  -0.448
REMARK UNBOUND:                -0.412
REMARK SMILES CCCCCCCCCCCC(=O)[O-]
REMARK SMILES IDX 7 1 8 2 9 3 10 4 11 5 12 6 13 7 14 8 6 9 5 10 4 11 3 12 2 13
REMARK SMILES IDX 1 14
REMARK H PARENT
REMARK Flexibility Score: inf
ROOT
ATOM      1  C   UNL     1     -32.848 -22.732 -36.196  1.00  0.00     0.000 C 
ENDROOT
BRANCH   1   2
ATOM      2  C   UNL     1     -32.773 -21.944 -34.882  1.00  0.00     0.000 C 
BRANCH   2   3
ATOM      3  C   UNL     1     -31.527 -22.332 -34.077  1.00  0.00     0.000 C 
BRANCH   3   4
ATOM      4  C   UNL     1     -30.979 -21.127 -33.298  1.00  0.00     0.006 C 
BRANCH   4   5
ATOM      5  C   UNL     1     -29.846 -21.522 -32.342  1.00  0.00     0.053 C 
BRANCH   5   6
ATOM      6  C   UNL     1     -30.374 -22.010 -31.028  1.00  0.00     0.041 C 
ATOM      7  O   UNL     1     -30.548 -21.205 -30.076  1.00  0.00    -0.550 OA
ATOM      8  O   UNL     1     -30.705 -23.349 -30.865  1.00  0.00    -0.550 OA
ENDBRANCH   5   6
ENDBRANCH   4   5
ENDBRANCH   3   4
ENDBRANCH   2   3
ENDBRANCH   1   2
BRANCH   1   9
ATOM      9  C   UNL     1     -32.030 -24.026 -36.110  1.00  0.00     0.000 C 
BRANCH   9  10
ATOM     10  C   UNL     1     -31.026 -24.120 -37.268  1.00  0.00    -0.000 C 
BRANCH  10  11
ATOM     11  C   UNL     1     -31.488 -25.073 -38.385  1.00  0.00    -0.000 C 
BRANCH  11  12
ATOM     12  C   UNL     1     -32.446 -26.194 -37.933  1.00  0.00    -0.000 C 
BRANCH  12  13
ATOM     13  C   UNL     1     -32.366 -27.489 -38.760  1.00  0.00    -0.003 C 
ATOM     14  C   UNL     1     -33.651 -28.317 -38.696  1.00  0.00     0.004 C 
ENDBRANCH  12  13
ENDBRANCH  11  12
ENDBRANCH  10  11
ENDBRANCH   9  10
ENDBRANCH   1   9
TORSDOF 10
ENDMDL
MODEL 3
REMARK VINA RESULT:    -4.276      1.112      1.700
REMARK INTER + INTRA:          -7.188
REMARK INTER:                  -6.324
REMARK INTRA:                  -0.864
REMARK UNBOUND:                -0.412
REMARK SMILES CCCCCCCCCCCC(=O)[O-]
REMARK SMILES IDX 7 1 8 2 9 3 10 4 11 5 12 6 13 7 14 8 6 9 5 10 4 11 3 12 2 13
REMARK SMILES IDX 1 14
REMARK H PARENT
REMARK Flexibility Score: inf
ROOT
ATOM      1  C   UNL     1     -31.510 -22.367 -33.990  1.00  0.00     0.000 C 
ENDROOT
BRANCH   1   2
ATOM      2  C   UNL     1     -31.945 -20.898 -34.049  1.00  0.00     0.000 C 
BRANCH   2   3
ATOM      3  C   UNL     1     -31.061 -20.026 -33.149  1.00  0.00     0.000 C 
BRANCH   3   4
ATOM      4  C   UNL     1     -29.683 -20.672 -32.939  1.00  0.00     0.006 C 
BRANCH   4   5
ATOM      5  C   UNL     1     -29.254 -20.655 -31.466  1.00  0.00     0.053 C 
BRANCH   5   6
ATOM      6  C   UNL     1     -30.262 -21.327 -30.586  1.00  0.00     0.041 C 
ATOM      7  O   UNL     1     -30.395 -22.579 -30.615  1.00  0.00    -0.550 OA
ATOM      8  O   UNL     1     -31.033 -20.574 -29.710  1.00  0.00    -0.550 OA
ENDBRANCH   5   6
ENDBRANCH   4   5
ENDBRANCH   3   4
ENDBRANCH   2   3
ENDBRANCH   1   2
BRANCH   1   9
ATOM      9  C   UNL     1     -31.919 -23.113 -35.266  1.00  0.00     0.000 C 
BRANCH   9  10
ATOM     10  C   UNL     1     -33.045 -22.371 -36.001  1.00  0.00    -0.000 C 
BRANCH  10  11
ATOM     11  C   UNL     1     -32.946 -22.497 -37.531  1.00  0.00    -0.000 C 
BRANCH  11  12
ATOM     12  C   UNL     1     -31.567 -22.941 -38.063  1.00  0.00    -0.000 C 
BRANCH  12  13
ATOM     13  C   UNL     1     -31.574 -24.251 -38.870  1.00  0.00    -0.003 C 
ATOM     14  C   UNL     1     -31.259 -25.479 -38.015  1.00  0.00     0.004 C 
ENDBRANCH  12  13
ENDBRANCH  11  12
ENDBRANCH  10  11
ENDBRANCH   9  10
ENDBRANCH   1   9
TORSDOF 10
ENDMDL
MODEL 4
REMARK VINA RESULT:    -4.031      3.558      7.000
REMARK INTER + INTRA:          -6.799
REMARK INTER:                  -6.097
REMARK INTRA:                  -0.702
REMARK UNBOUND:                -0.412
REMARK SMILES CCCCCCCCCCCC(=O)[O-]
REMARK SMILES IDX 7 1 8 2 9 3 10 4 11 5 12 6 13 7 14 8 6 9 5 10 4 11 3 12 2 13
REMARK SMILES IDX 1 14
REMARK H PARENT
REMARK Flexibility Score: inf
ROOT
ATOM      1  C   UNL     1     -31.122 -22.146 -33.867  1.00  0.00     0.000 C 
ENDROOT
BRANCH   1   2
ATOM      2  C   UNL     1     -32.270 -22.831 -34.618  1.00  0.00     0.000 C 
BRANCH   2   3
ATOM      3  C   UNL     1     -32.995 -21.842 -35.538  1.00  0.00     0.000 C 
BRANCH   3   4
ATOM      4  C   UNL     1     -33.408 -22.517 -36.854  1.00  0.00     0.006 C 
BRANCH   4   5
ATOM      5  C   UNL     1     -32.858 -23.944 -36.972  1.00  0.00     0.053 C 
BRANCH   5   6
ATOM      6  C   UNL     1     -31.761 -24.034 -37.988  1.00  0.00     0.041 C 
ATOM      7  O   UNL     1     -31.578 -23.098 -38.808  1.00  0.00    -0.550 OA
ATOM      8  O   UNL     1     -30.921 -25.140 -38.007  1.00  0.00    -0.550 OA
ENDBRANCH   5   6
ENDBRANCH   4   5
ENDBRANCH   3   4
ENDBRANCH   2   3
ENDBRANCH   1   2
BRANCH   1   9
ATOM      9  C   UNL     1     -31.483 -20.699 -33.510  1.00  0.00     0.000 C 
BRANCH   9  10
ATOM     10  C   UNL     1     -30.231 -19.900 -33.121  1.00  0.00    -0.000 C 
BRANCH  10  11
ATOM     11  C   UNL     1     -29.366 -20.617 -32.069  1.00  0.00    -0.000 C 
BRANCH  11  12
ATOM     12  C   UNL     1     -29.717 -20.293 -30.602  1.00  0.00    -0.000 C 
BRANCH  12  13
ATOM     13  C   UNL     1     -30.367 -21.447 -29.819  1.00  0.00    -0.003 C 
ATOM     14  C   UNL     1     -30.378 -22.762 -30.598  1.00  0.00     0.004 C 
ENDBRANCH  12  13
ENDBRANCH  11  12
ENDBRANCH  10  11
ENDBRANCH   9  10
ENDBRANCH   1   9
TORSDOF 10
ENDMDL
MODEL 5
REMARK VINA RESULT:    -4.022      4.095      7.524
REMARK INTER + INTRA:          -6.785
REMARK INTER:                  -6.246
REMARK INTRA:                  -0.538
REMARK UNBOUND:                -0.412
REMARK SMILES CCCCCCCCCCCC(=O)[O-]
REMARK SMILES IDX 7 1 8 2 9 3 10 4 11 5 12 6 13 7 14 8 6 9 5 10 4 11 3 12 2 13
REMARK SMILES IDX 1 14
REMARK H PARENT
REMARK Flexibility Score: inf
ROOT
ATOM      1  C   UNL     1     -32.628 -23.313 -35.039  1.00  0.00     0.000 C 
ENDROOT
BRANCH   1   2
ATOM      2  C   UNL     1     -32.549 -23.446 -36.565  1.00  0.00     0.000 C 
BRANCH   2   3
ATOM      3  C   UNL     1     -31.224 -24.088 -36.994  1.00  0.00     0.000 C 
BRANCH   3   4
ATOM      4  C   UNL     1     -31.464 -25.240 -37.980  1.00  0.00     0.006 C 
BRANCH   4   5
ATOM      5  C   UNL     1     -32.722 -26.047 -37.634  1.00  0.00     0.053 C 
BRANCH   5   6
ATOM      6  C   UNL     1     -32.762 -27.353 -38.365  1.00  0.00     0.041 C 
ATOM      7  O   UNL     1     -31.693 -27.941 -38.673  1.00  0.00    -0.550 OA
ATOM      8  O   UNL     1     -33.983 -27.937 -38.679  1.00  0.00    -0.550 OA
ENDBRANCH   5   6
ENDBRANCH   4   5
ENDBRANCH   3   4
ENDBRANCH   2   3
ENDBRANCH   1   2
BRANCH   1   9
ATOM      9  C   UNL     1     -31.418 -22.549 -34.489  1.00  0.00     0.000 C 
BRANCH   9  10
ATOM     10  C   UNL     1     -31.827 -21.156 -33.991  1.00  0.00    -0.000 C 
BRANCH  10  11
ATOM     11  C   UNL     1     -30.784 -20.525 -33.051  1.00  0.00    -0.000 C 
BRANCH  11  12
ATOM     12  C   UNL     1     -29.870 -21.530 -32.320  1.00  0.00    -0.000 C 
BRANCH  12  13
ATOM     13  C   UNL     1     -30.359 -21.956 -30.925  1.00  0.00    -0.003 C 
ATOM     14  C   UNL     1     -30.711 -20.768 -30.029  1.00  0.00     0.004 C 
ENDBRANCH  12  13
ENDBRANCH  11  12
ENDBRANCH  10  11
ENDBRANCH   9  10
ENDBRANCH   1   9
TORSDOF 10
ENDMDL
MODEL 6
REMARK VINA RESULT:    -3.743      1.648      1.929
REMARK INTER + INTRA:          -6.343
REMARK INTER:                  -5.876
REMARK INTRA:                  -0.468
REMARK UNBOUND:                -0.412
REMARK SMILES CCCCCCCCCCCC(=O)[O-]
REMARK SMILES IDX 7 1 8 2 9 3 10 4 11 5 12 6 13 7 14 8 6 9 5 10 4 11 3 12 2 13
REMARK SMILES IDX 1 14
REMARK H PARENT
REMARK Flexibility Score: inf
ROOT
ATOM      1  C   UNL     1     -32.454 -23.307 -34.906  1.00  0.00     0.000 C 
ENDROOT
BRANCH   1   2
ATOM      2  C   UNL     1     -31.475 -22.221 -34.442  1.00  0.00     0.000 C 
BRANCH   2   3
ATOM      3  C   UNL     1     -32.155 -20.848 -34.400  1.00  0.00     0.000 C 
BRANCH   3   4
ATOM      4  C   UNL     1     -31.687 -20.039 -33.181  1.00  0.00     0.006 C 
BRANCH   4   5
ATOM      5  C   UNL     1     -30.710 -20.830 -32.302  1.00  0.00     0.053 C 
BRANCH   5   6
ATOM      6  C   UNL     1     -29.311 -20.309 -32.420  1.00  0.00     0.041 C 
ATOM      7  O   UNL     1     -28.887 -19.875 -33.523  1.00  0.00    -0.550 OA
ATOM      8  O   UNL     1     -28.485 -20.274 -31.304  1.00  0.00    -0.550 OA
ENDBRANCH   5   6
ENDBRANCH   4   5
ENDBRANCH   3   4
ENDBRANCH   2   3
ENDBRANCH   1   2
BRANCH   1   9
ATOM      9  C   UNL     1     -32.444 -23.442 -36.433  1.00  0.00     0.000 C 
BRANCH   9  10
ATOM     10  C   UNL     1     -31.043 -23.813 -36.943  1.00  0.00    -0.000 C 
BRANCH  10  11
ATOM     11  C   UNL     1     -31.063 -24.964 -37.964  1.00  0.00    -0.000 C 
BRANCH  11  12
ATOM     12  C   UNL     1     -32.359 -25.801 -37.981  1.00  0.00    -0.000 C 
BRANCH  12  13
ATOM     13  C   UNL     1     -32.292 -27.086 -38.824  1.00  0.00    -0.003 C 
ATOM     14  C   UNL     1     -33.269 -28.161 -38.349  1.00  0.00     0.004 C 
ENDBRANCH  12  13
ENDBRANCH  11  12
ENDBRANCH  10  11
ENDBRANCH   9  10
ENDBRANCH   1   9
TORSDOF 10
ENDMDL
MODEL 7
REMARK VINA RESULT:    -3.615      1.172      1.734
REMARK INTER + INTRA:          -6.139
REMARK INTER:                  -5.508
REMARK INTRA:                  -0.631
REMARK UNBOUND:                -0.412
REMARK SMILES CCCCCCCCCCCC(=O)[O-]
REMARK SMILES IDX 7 1 8 2 9 3 10 4 11 5 12 6 13 7 14 8 6 9 5 10 4 11 3 12 2 13
REMARK SMILES IDX 1 14
REMARK H PARENT
REMARK Flexibility Score: inf
ROOT
ATOM      1  C   UNL     1     -33.410 -20.302 -35.838  1.00  0.00     0.000 C 
ENDROOT
BRANCH   1   2
ATOM      2  C   UNL     1     -32.989 -20.075 -34.380  1.00  0.00     0.000 C 
BRANCH   2   3
ATOM      3  C   UNL     1     -31.762 -20.922 -34.023  1.00  0.00     0.000 C 
BRANCH   3   4
ATOM      4  C   UNL     1     -31.121 -20.438 -32.715  1.00  0.00     0.006 C 
BRANCH   4   5
ATOM      5  C   UNL     1     -29.996 -21.367 -32.241  1.00  0.00     0.053 C 
BRANCH   5   6
ATOM      6  C   UNL     1     -30.375 -22.106 -30.995  1.00  0.00     0.041 C 
ATOM      7  O   UNL     1     -30.783 -23.295 -31.061  1.00  0.00    -0.550 OA
ATOM      8  O   UNL     1     -30.246 -21.492 -29.756  1.00  0.00    -0.550 OA
ENDBRANCH   5   6
ENDBRANCH   4   5
ENDBRANCH   3   4
ENDBRANCH   2   3
ENDBRANCH   1   2
BRANCH   1   9
ATOM      9  C   UNL     1     -34.124 -21.648 -36.002  1.00  0.00     0.000 C 
BRANCH   9  10
ATOM     10  C   UNL     1     -33.410 -22.526 -37.040  1.00  0.00    -0.000 C 
BRANCH  10  11
ATOM     11  C   UNL     1     -32.681 -23.726 -36.409  1.00  0.00    -0.000 C 
BRANCH  11  12
ATOM     12  C   UNL     1     -31.225 -23.926 -36.878  1.00  0.00    -0.000 C 
BRANCH  12  13
ATOM     13  C   UNL     1     -31.057 -24.837 -38.107  1.00  0.00    -0.003 C 
ATOM     14  C   UNL     1     -32.045 -26.004 -38.121  1.00  0.00     0.004 C 
ENDBRANCH  12  13
ENDBRANCH  11  12
ENDBRANCH  10  11
ENDBRANCH   9  10
ENDBRANCH   1   9
TORSDOF 10
ENDMDL
MODEL 8
REMARK VINA RESULT:    -3.304      3.335      6.861
REMARK INTER + INTRA:          -5.647
REMARK INTER:                  -5.141
REMARK INTRA:                  -0.506
REMARK UNBOUND:                -0.412
REMARK SMILES CCCCCCCCCCCC(=O)[O-]
REMARK SMILES IDX 7 1 8 2 9 3 10 4 11 5 12 6 13 7 14 8 6 9 5 10 4 11 3 12 2 13
REMARK SMILES IDX 1 14
REMARK H PARENT
REMARK Flexibility Score: inf
ROOT
ATOM      1  C   UNL     1     -33.752 -20.923 -36.104  1.00  0.00     0.000 C 
ENDROOT
BRANCH   1   2
ATOM      2  C   UNL     1     -33.969 -22.189 -36.942  1.00  0.00     0.000 C 
BRANCH   2   3
ATOM      3  C   UNL     1     -33.064 -22.192 -38.180  1.00  0.00     0.000 C 
BRANCH   3   4
ATOM      4  C   UNL     1     -31.742 -22.918 -37.892  1.00  0.00     0.006 C 
BRANCH   4   5
ATOM      5  C   UNL     1     -31.567 -24.171 -38.760  1.00  0.00     0.053 C 
BRANCH   5   6
ATOM      6  C   UNL     1     -32.039 -25.405 -38.054  1.00  0.00     0.041 C 
ATOM      7  O   UNL     1     -31.920 -26.533 -38.600  1.00  0.00    -0.550 OA
ATOM      8  O   UNL     1     -32.583 -25.312 -36.780  1.00  0.00    -0.550 OA
ENDBRANCH   5   6
ENDBRANCH   4   5
ENDBRANCH   3   4
ENDBRANCH   2   3
ENDBRANCH   1   2
BRANCH   1   9
ATOM      9  C   UNL     1     -32.797 -21.193 -34.936  1.00  0.00     0.000 C 
BRANCH   9  10
ATOM     10  C   UNL     1     -32.465 -19.894 -34.185  1.00  0.00    -0.000 C 
BRANCH  10  11
ATOM     11  C   UNL     1     -31.281 -20.049 -33.215  1.00  0.00    -0.000 C 
BRANCH  11  12
ATOM     12  C   UNL     1     -30.771 -21.493 -33.031  1.00  0.00    -0.000 C 
BRANCH  12  13
ATOM     13  C   UNL     1     -30.298 -21.839 -31.608  1.00  0.00    -0.003 C 
ATOM     14  C   UNL     1     -30.646 -20.757 -30.586  1.00  0.00     0.004 C 
ENDBRANCH  12  13
ENDBRANCH  11  12
ENDBRANCH  10  11
ENDBRANCH   9  10
ENDBRANCH   1   9
TORSDOF 10
ENDMDL
MODEL 9
REMARK VINA RESULT:    -2.859      3.927      7.335
REMARK INTER + INTRA:          -4.942
REMARK INTER:                  -4.888
REMARK INTRA:                  -0.054
REMARK UNBOUND:                -0.412
REMARK SMILES CCCCCCCCCCCC(=O)[O-]
REMARK SMILES IDX 7 1 8 2 9 3 10 4 11 5 12 6 13 7 14 8 6 9 5 10 4 11 3 12 2 13
REMARK SMILES IDX 1 14
REMARK H PARENT
REMARK Flexibility Score: inf
ROOT
ATOM      1  C   UNL     1     -30.522 -22.018 -32.716  1.00  0.00     0.000 C 
ENDROOT
BRANCH   1   2
ATOM      2  C   UNL     1     -31.612 -21.926 -33.790  1.00  0.00     0.000 C 
BRANCH   2   3
ATOM      3  C   UNL     1     -31.245 -22.763 -35.021  1.00  0.00     0.000 C 
BRANCH   3   4
ATOM      4  C   UNL     1     -32.506 -23.260 -35.744  1.00  0.00     0.006 C 
BRANCH   4   5
ATOM      5  C   UNL     1     -33.162 -22.160 -36.588  1.00  0.00     0.053 C 
BRANCH   5   6
ATOM      6  C   UNL     1     -32.858 -22.323 -38.045  1.00  0.00     0.041 C 
ATOM      7  O   UNL     1     -33.612 -21.809 -38.912  1.00  0.00    -0.550 OA
ATOM      8  O   UNL     1     -31.722 -23.016 -38.445  1.00  0.00    -0.550 OA
ENDBRANCH   5   6
ENDBRANCH   4   5
ENDBRANCH   3   4
ENDBRANCH   2   3
ENDBRANCH   1   2
BRANCH   1   9
ATOM      9  C   UNL     1     -29.216 -21.376 -33.200  1.00  0.00     0.000 C 
BRANCH   9  10
ATOM     10  C   UNL     1     -28.989 -20.015 -32.527  1.00  0.00    -0.000 C 
BRANCH  10  11
ATOM     11  C   UNL     1     -29.228 -20.051 -31.007  1.00  0.00    -0.000 C 
BRANCH  11  12
ATOM     12  C   UNL     1     -30.699 -19.887 -30.572  1.00  0.00    -0.000 C 
BRANCH  12  13
ATOM     13  C   UNL     1     -31.150 -20.827 -29.441  1.00  0.00    -0.003 C 
ATOM     14  C   UNL     1     -30.309 -22.101 -29.354  1.00  0.00     0.004 C 
ENDBRANCH  12  13
ENDBRANCH  11  12
ENDBRANCH  10  11
ENDBRANCH   9  10
ENDBRANCH   1   9
TORSDOF 10
ENDMDL
