MODEL 1
REMARK VINA RESULT:     9.024      0.000      0.000
REMARK INTER + INTRA:          25.174
REMARK INTER:                  21.421
REMARK INTRA:                   3.752
REMARK UNBOUND:                 3.752
REMARK SMILES O=C(OC[C@@H]1O[C@@H](OC(=O)c2cc(O)c(O)c(O)c2)[C@@H](OC(=O)c2cc(O)c(O)c(O)c2)[C@H](OC(=O)c2cc(O)c(O)c(O)c2)[C@@H]1OC(=O)c1cc(O)c(O)c(O)c1)c1cc(O)c(O)c(O)c1
REMARK SMILES IDX 5 1 46 2 33 3 20 4 7 5 6 6 4 7 3 8 2 9 1 10 59 11 60 12
REMARK SMILES IDX 61 13 67 14 63 15 65 16 62 17 64 19 66 21 47 23 48 24 49 25
REMARK SMILES IDX 50 26 58 27 51 28 56 29 52 30 54 31 57 32 53 34 55 36 34 38
REMARK SMILES IDX 35 39 36 40 37 41 45 42 38 43 43 44 39 45 41 46 44 47 40 49
REMARK SMILES IDX 42 51 8 53 9 54 10 55 11 56 19 57 12 58 17 59 13 60 15 61
REMARK SMILES IDX 18 62 14 64 16 66 21 68 22 69 23 70 24 71 32 72 25 73 30 74
REMARK SMILES IDX 26 75 28 76 31 77 27 79 29 81
REMARK H PARENT 62 18 64 20 66 22 57 33 53 35 55 37 44 48 40 50 42 52 18 63
REMARK H PARENT 14 65 16 67 31 78 27 80 29 82
REMARK Flexibility Score: inf
ROOT
ATOM      1  C   UNL     1      -0.285   3.137   3.842  1.00  0.00     0.205 C 
ATOM      2  C   UNL     1       0.557   4.344   3.373  1.00  0.00     0.254 C 
ATOM      3  C   UNL     1       0.492   5.452   4.444  1.00  0.00     0.267 C 
ATOM      4  C   UNL     1      -0.975   5.768   4.788  1.00  0.00     0.290 C 
ATOM      5  C   UNL     1      -1.734   4.470   5.118  1.00  0.00     0.357 C 
ATOM      6  O   UNL     1      -1.632   3.528   4.062  1.00  0.00    -0.329 OA
ENDROOT
BRANCH   1   7
ATOM      7  C   UNL     1      -0.251   2.003   2.803  1.00  0.00     0.269 C 
BRANCH   7   8
ATOM      8  O   UNL     1      -1.388   2.073   1.944  1.00  0.00    -0.459 OA
BRANCH   8   9
ATOM      9  C   UNL     1      -2.471   1.188   2.000  1.00  0.00     0.338 C 
ATOM     10  O   UNL     1      -3.652   1.628   1.985  1.00  0.00    -0.246 OA
BRANCH   9  11
ATOM     11  C   UNL     1      -2.221  -0.270   2.041  1.00  0.00     0.067 A 
ATOM     12  C   UNL     1      -3.290  -1.164   2.187  1.00  0.00     0.066 A 
ATOM     13  C   UNL     1      -3.067  -2.541   2.245  1.00  0.00     0.162 A 
ATOM     14  C   UNL     1      -0.917  -0.777   1.942  1.00  0.00     0.066 A 
ATOM     15  C   UNL     1      -1.758  -3.049   2.157  1.00  0.00     0.200 A 
ATOM     16  C   UNL     1      -0.672  -2.153   1.995  1.00  0.00     0.162 A 
BRANCH  13  17
ATOM     17  O   UNL     1      -4.161  -3.394   2.409  1.00  0.00    -0.504 OA
ATOM     18  H   UNL     1      -4.128  -4.209   3.010  1.00  0.00     0.293 HD
ENDBRANCH  13  17
BRANCH  15  19
ATOM     19  O   UNL     1      -1.576  -4.433   2.240  1.00  0.00    -0.502 OA
ATOM     20  H   UNL     1      -1.884  -5.087   1.537  1.00  0.00     0.293 HD
ENDBRANCH  15  19
BRANCH  16  21
ATOM     21  O   UNL     1       0.652  -2.584   1.876  1.00  0.00    -0.504 OA
ATOM     22  H   UNL     1       0.992  -3.178   1.137  1.00  0.00     0.293 HD
ENDBRANCH  16  21
ENDBRANCH   9  11
ENDBRANCH   8   9
ENDBRANCH   7   8
ENDBRANCH   1   7
BRANCH   2  23
ATOM     23  O   UNL     1       0.039   4.834   2.137  1.00  0.00    -0.452 OA
BRANCH  23  24
ATOM     24  C   UNL     1      -0.575   6.085   1.986  1.00  0.00     0.338 C 
ATOM     25  O   UNL     1       0.126   7.129   1.875  1.00  0.00    -0.246 OA
BRANCH  24  26
ATOM     26  C   UNL     1      -2.048   6.174   1.953  1.00  0.00     0.067 A 
ATOM     27  C   UNL     1      -2.836   5.011   1.913  1.00  0.00     0.066 A 
ATOM     28  C   UNL     1      -2.679   7.427   1.971  1.00  0.00     0.066 A 
ATOM     29  C   UNL     1      -4.231   5.096   1.892  1.00  0.00     0.162 A 
ATOM     30  C   UNL     1      -4.073   7.523   1.943  1.00  0.00     0.162 A 
ATOM     31  C   UNL     1      -4.856   6.355   1.901  1.00  0.00     0.200 A 
BRANCH  29  32
ATOM     32  O   UNL     1      -4.982   3.919   1.881  1.00  0.00    -0.504 OA
ATOM     33  H   UNL     1      -4.546   3.007   1.822  1.00  0.00     0.293 HD
ENDBRANCH  29  32
BRANCH  30  34
ATOM     34  O   UNL     1      -4.688   8.776   1.950  1.00  0.00    -0.504 OA
ATOM     35  H   UNL     1      -5.699   8.864   1.974  1.00  0.00     0.293 HD
ENDBRANCH  30  34
BRANCH  31  36
ATOM     36  O   UNL     1      -6.249   6.433   1.879  1.00  0.00    -0.502 OA
ATOM     37  H   UNL     1      -6.742   7.321   1.905  1.00  0.00     0.293 HD
ENDBRANCH  31  36
ENDBRANCH  24  26
ENDBRANCH  23  24
ENDBRANCH   2  23
BRANCH   3  38
ATOM     38  O   UNL     1       1.127   6.643   3.980  1.00  0.00    -0.450 OA
BRANCH  38  39
ATOM     39  C   UNL     1       2.443   6.707   3.509  1.00  0.00     0.338 C 
ATOM     40  O   UNL     1       2.967   5.702   2.957  1.00  0.00    -0.246 OA
BRANCH  39  41
ATOM     41  C   UNL     1       3.217   7.960   3.672  1.00  0.00     0.067 A 
ATOM     42  C   UNL     1       2.746   9.180   3.156  1.00  0.00     0.066 A 
ATOM     43  C   UNL     1       4.448   7.939   4.346  1.00  0.00     0.066 A 
ATOM     44  C   UNL     1       3.506  10.352   3.279  1.00  0.00     0.162 A 
ATOM     45  C   UNL     1       5.214   9.100   4.473  1.00  0.00     0.162 A 
ATOM     46  C   UNL     1       4.749  10.311   3.935  1.00  0.00     0.200 A 
BRANCH  44  47
ATOM     47  O   UNL     1       3.033  11.557   2.752  1.00  0.00    -0.504 OA
ATOM     48  H   UNL     1       2.495  12.211   3.311  1.00  0.00     0.293 HD
ENDBRANCH  44  47
BRANCH  45  49
ATOM     49  O   UNL     1       6.437   9.037   5.142  1.00  0.00    -0.504 OA
ATOM     50  H   UNL     1       7.256   8.616   4.724  1.00  0.00     0.293 HD
ENDBRANCH  45  49
BRANCH  46  51
ATOM     51  O   UNL     1       5.526  11.463   4.062  1.00  0.00    -0.502 OA
ATOM     52  H   UNL     1       5.157  12.331   4.433  1.00  0.00     0.293 HD
ENDBRANCH  46  51
ENDBRANCH  39  41
ENDBRANCH  38  39
ENDBRANCH   3  38
BRANCH   5  53
ATOM     53  O   UNL     1      -1.267   3.905   6.345  1.00  0.00    -0.428 OA
BRANCH  53  54
ATOM     54  C   UNL     1      -1.913   2.852   7.004  1.00  0.00     0.340 C 
ATOM     55  O   UNL     1      -1.726   2.666   8.238  1.00  0.00    -0.246 OA
BRANCH  54  56
ATOM     56  C   UNL     1      -2.792   1.942   6.236  1.00  0.00     0.067 A 
ATOM     57  C   UNL     1      -2.535   0.561   6.219  1.00  0.00     0.066 A 
ATOM     58  C   UNL     1      -3.896   2.445   5.528  1.00  0.00     0.066 A 
ATOM     59  C   UNL     1      -3.364  -0.308   5.495  1.00  0.00     0.162 A 
ATOM     60  C   UNL     1      -4.733   1.580   4.810  1.00  0.00     0.162 A 
ATOM     61  C   UNL     1      -4.465   0.202   4.785  1.00  0.00     0.200 A 
BRANCH  59  62
ATOM     62  O   UNL     1      -3.100  -1.675   5.478  1.00  0.00    -0.504 OA
ATOM     63  H   UNL     1      -2.208  -2.049   5.780  1.00  0.00     0.293 HD
ENDBRANCH  59  62
BRANCH  60  64
ATOM     64  O   UNL     1      -5.822   2.103   4.112  1.00  0.00    -0.504 OA
ATOM     65  H   UNL     1      -6.059   3.088   4.149  1.00  0.00     0.293 HD
ENDBRANCH  60  64
BRANCH  61  66
ATOM     66  O   UNL     1      -5.301  -0.646   4.055  1.00  0.00    -0.502 OA
ATOM     67  H   UNL     1      -5.457  -0.518   3.056  1.00  0.00     0.293 HD
ENDBRANCH  61  66
ENDBRANCH  54  56
ENDBRANCH  53  54
ENDBRANCH   5  53
BRANCH   4  68
ATOM     68  O   UNL     1      -1.041   6.654   5.910  1.00  0.00    -0.448 OA
BRANCH  68  69
ATOM     69  C   UNL     1      -1.949   6.499   6.968  1.00  0.00     0.339 C 
ATOM     70  O   UNL     1      -3.080   5.984   6.759  1.00  0.00    -0.246 OA
BRANCH  69  71
ATOM     71  C   UNL     1      -1.566   6.902   8.338  1.00  0.00     0.067 A 
ATOM     72  C   UNL     1      -0.464   7.749   8.553  1.00  0.00     0.066 A 
ATOM     73  C   UNL     1      -2.302   6.447   9.444  1.00  0.00     0.066 A 
ATOM     74  C   UNL     1      -0.124   8.161   9.849  1.00  0.00     0.162 A 
ATOM     75  C   UNL     1      -1.964   6.837  10.746  1.00  0.00     0.162 A 
ATOM     76  C   UNL     1      -0.874   7.721  10.949  1.00  0.00     0.200 A 
BRANCH  74  77
ATOM     77  O   UNL     1       0.953   9.023  10.054  1.00  0.00    -0.504 OA
ATOM     78  H   UNL     1       1.218   9.323  10.980  1.00  0.00     0.293 HD
ENDBRANCH  74  77
BRANCH  75  79
ATOM     79  O   UNL     1      -2.727   6.318  11.796  1.00  0.00    -0.504 OA
ATOM     80  H   UNL     1      -2.369   6.142  12.721  1.00  0.00     0.293 HD
ENDBRANCH  75  79
BRANCH  76  81
ATOM     81  O   UNL     1      -0.518   8.186  12.217  1.00  0.00    -0.502 OA
ATOM     82  H   UNL     1      -0.981   7.900  13.063  1.00  0.00     0.293 HD
ENDBRANCH  76  81
ENDBRANCH  69  71
ENDBRANCH  68  69
ENDBRANCH   4  68
TORSDOF 31
ENDMDL
MODEL 2
REMARK VINA RESULT:     9.134      0.716      2.159
REMARK INTER + INTRA:          25.436
REMARK INTER:                  23.747
REMARK INTRA:                   1.689
REMARK UNBOUND:                 3.752
REMARK SMILES O=C(OC[C@@H]1O[C@@H](OC(=O)c2cc(O)c(O)c(O)c2)[C@@H](OC(=O)c2cc(O)c(O)c(O)c2)[C@H](OC(=O)c2cc(O)c(O)c(O)c2)[C@@H]1OC(=O)c1cc(O)c(O)c(O)c1)c1cc(O)c(O)c(O)c1
REMARK SMILES IDX 5 1 46 2 33 3 20 4 7 5 6 6 4 7 3 8 2 9 1 10 59 11 60 12
REMARK SMILES IDX 61 13 67 14 63 15 65 16 62 17 64 19 66 21 47 23 48 24 49 25
REMARK SMILES IDX 50 26 58 27 51 28 56 29 52 30 54 31 57 32 53 34 55 36 34 38
REMARK SMILES IDX 35 39 36 40 37 41 45 42 38 43 43 44 39 45 41 46 44 47 40 49
REMARK SMILES IDX 42 51 8 53 9 54 10 55 11 56 19 57 12 58 17 59 13 60 15 61
REMARK SMILES IDX 18 62 14 64 16 66 21 68 22 69 23 70 24 71 32 72 25 73 30 74
REMARK SMILES IDX 26 75 28 76 31 77 27 79 29 81
REMARK H PARENT 62 18 64 20 66 22 57 33 53 35 55 37 44 48 40 50 42 52 18 63
REMARK H PARENT 14 65 16 67 31 78 27 80 29 82
REMARK Flexibility Score: inf
ROOT
ATOM      1  C   UNL     1      -0.718   2.741   3.384  1.00  0.00     0.205 C 
ATOM      2  C   UNL     1       0.181   3.910   2.925  1.00  0.00     0.254 C 
ATOM      3  C   UNL     1       0.438   4.850   4.120  1.00  0.00     0.267 C 
ATOM      4  C   UNL     1      -0.897   5.262   4.766  1.00  0.00     0.290 C 
ATOM      5  C   UNL     1      -1.750   4.016   5.063  1.00  0.00     0.357 C 
ATOM      6  O   UNL     1      -1.948   3.233   3.896  1.00  0.00    -0.329 OA
ENDROOT
BRANCH   1   7
ATOM      7  C   UNL     1      -1.005   1.774   2.223  1.00  0.00     0.269 C 
BRANCH   7   8
ATOM      8  O   UNL     1      -2.390   1.794   1.882  1.00  0.00    -0.459 OA
BRANCH   8   9
ATOM      9  C   UNL     1      -3.277   0.741   2.133  1.00  0.00     0.338 C 
ATOM     10  O   UNL     1      -4.503   0.971   2.311  1.00  0.00    -0.246 OA
BRANCH   9  11
ATOM     11  C   UNL     1      -2.771  -0.650   2.154  1.00  0.00     0.067 A 
ATOM     12  C   UNL     1      -3.659  -1.720   2.327  1.00  0.00     0.066 A 
ATOM     13  C   UNL     1      -3.194  -3.036   2.366  1.00  0.00     0.162 A 
ATOM     14  C   UNL     1      -1.402  -0.917   2.008  1.00  0.00     0.066 A 
ATOM     15  C   UNL     1      -1.819  -3.303   2.231  1.00  0.00     0.200 A 
ATOM     16  C   UNL     1      -0.915  -2.228   2.042  1.00  0.00     0.162 A 
BRANCH  13  17
ATOM     17  O   UNL     1      -4.112  -4.070   2.557  1.00  0.00    -0.504 OA
ATOM     18  H   UNL     1      -3.833  -5.042   2.604  1.00  0.00     0.293 HD
ENDBRANCH  13  17
BRANCH  15  19
ATOM     19  O   UNL     1      -1.391  -4.632   2.296  1.00  0.00    -0.502 OA
ATOM     20  H   UNL     1      -1.424  -5.275   1.520  1.00  0.00     0.293 HD
ENDBRANCH  15  19
BRANCH  16  21
ATOM     21  O   UNL     1       0.460  -2.416   1.876  1.00  0.00    -0.504 OA
ATOM     22  H   UNL     1       1.091  -2.672   2.618  1.00  0.00     0.293 HD
ENDBRANCH  16  21
ENDBRANCH   9  11
ENDBRANCH   8   9
ENDBRANCH   7   8
ENDBRANCH   1   7
BRANCH   2  23
ATOM     23  O   UNL     1      -0.471   4.627   1.877  1.00  0.00    -0.452 OA
BRANCH  23  24
ATOM     24  C   UNL     1      -0.865   5.969   1.973  1.00  0.00     0.338 C 
ATOM     25  O   UNL     1      -0.003   6.891   1.936  1.00  0.00    -0.246 OA
BRANCH  24  26
ATOM     26  C   UNL     1      -2.297   6.299   2.114  1.00  0.00     0.067 A 
ATOM     27  C   UNL     1      -2.711   7.628   2.315  1.00  0.00     0.066 A 
ATOM     28  C   UNL     1      -3.264   5.285   2.039  1.00  0.00     0.066 A 
ATOM     29  C   UNL     1      -4.068   7.940   2.439  1.00  0.00     0.162 A 
ATOM     30  C   UNL     1      -4.622   5.587   2.169  1.00  0.00     0.162 A 
ATOM     31  C   UNL     1      -5.030   6.917   2.371  1.00  0.00     0.200 A 
BRANCH  29  32
ATOM     32  O   UNL     1      -4.444   9.273   2.608  1.00  0.00    -0.504 OA
ATOM     33  H   UNL     1      -4.830   9.613   3.481  1.00  0.00     0.293 HD
ENDBRANCH  29  32
BRANCH  30  34
ATOM     34  O   UNL     1      -5.574   4.568   2.104  1.00  0.00    -0.504 OA
ATOM     35  H   UNL     1      -5.607   3.834   2.805  1.00  0.00     0.293 HD
ENDBRANCH  30  34
BRANCH  31  36
ATOM     36  O   UNL     1      -6.383   7.236   2.497  1.00  0.00    -0.502 OA
ATOM     37  H   UNL     1      -7.017   7.231   1.703  1.00  0.00     0.293 HD
ENDBRANCH  31  36
ENDBRANCH  24  26
ENDBRANCH  23  24
ENDBRANCH   2  23
BRANCH   3  38
ATOM     38  O   UNL     1       1.134   6.024   3.701  1.00  0.00    -0.450 OA
BRANCH  38  39
ATOM     39  C   UNL     1       2.454   6.040   3.238  1.00  0.00     0.338 C 
ATOM     40  O   UNL     1       2.927   5.034   2.640  1.00  0.00    -0.246 OA
BRANCH  39  41
ATOM     41  C   UNL     1       3.293   7.240   3.462  1.00  0.00     0.067 A 
ATOM     42  C   UNL     1       4.325   7.239   4.417  1.00  0.00     0.066 A 
ATOM     43  C   UNL     1       3.058   8.407   2.719  1.00  0.00     0.066 A 
ATOM     44  C   UNL     1       5.086   8.393   4.651  1.00  0.00     0.162 A 
ATOM     45  C   UNL     1       3.809   9.563   2.946  1.00  0.00     0.162 A 
ATOM     46  C   UNL     1       4.824   9.562   3.917  1.00  0.00     0.200 A 
BRANCH  44  47
ATOM     47  O   UNL     1       6.102   8.384   5.611  1.00  0.00    -0.504 OA
ATOM     48  H   UNL     1       5.994   8.845   6.509  1.00  0.00     0.293 HD
ENDBRANCH  44  47
BRANCH  45  49
ATOM     49  O   UNL     1       3.539  10.706   2.192  1.00  0.00    -0.504 OA
ATOM     50  H   UNL     1       2.879  11.407   2.500  1.00  0.00     0.293 HD
ENDBRANCH  45  49
BRANCH  46  51
ATOM     51  O   UNL     1       5.562  10.724   4.139  1.00  0.00    -0.502 OA
ATOM     52  H   UNL     1       5.611  11.477   3.461  1.00  0.00     0.293 HD
ENDBRANCH  46  51
ENDBRANCH  39  41
ENDBRANCH  38  39
ENDBRANCH   3  38
BRANCH   5  53
ATOM     53  O   UNL     1      -1.160   3.232   6.102  1.00  0.00    -0.428 OA
BRANCH  53  54
ATOM     54  C   UNL     1      -1.883   2.330   6.893  1.00  0.00     0.340 C 
ATOM     55  O   UNL     1      -1.655   2.250   8.131  1.00  0.00    -0.246 OA
BRANCH  54  56
ATOM     56  C   UNL     1      -2.893   1.454   6.259  1.00  0.00     0.067 A 
ATOM     57  C   UNL     1      -4.019   2.014   5.634  1.00  0.00     0.066 A 
ATOM     58  C   UNL     1      -2.733   0.058   6.265  1.00  0.00     0.066 A 
ATOM     59  C   UNL     1      -4.979   1.191   5.028  1.00  0.00     0.162 A 
ATOM     60  C   UNL     1      -3.685  -0.769   5.655  1.00  0.00     0.162 A 
ATOM     61  C   UNL     1      -4.815  -0.205   5.041  1.00  0.00     0.200 A 
BRANCH  59  62
ATOM     62  O   UNL     1      -6.095   1.753   4.414  1.00  0.00    -0.504 OA
ATOM     63  H   UNL     1      -6.966   1.243   4.324  1.00  0.00     0.293 HD
ENDBRANCH  59  62
BRANCH  60  64
ATOM     64  O   UNL     1      -3.506  -2.152   5.677  1.00  0.00    -0.504 OA
ATOM     65  H   UNL     1      -3.937  -2.736   6.384  1.00  0.00     0.293 HD
ENDBRANCH  60  64
BRANCH  61  66
ATOM     66  O   UNL     1      -5.762  -1.043   4.448  1.00  0.00    -0.502 OA
ATOM     67  H   UNL     1      -6.159  -1.842   4.942  1.00  0.00     0.293 HD
ENDBRANCH  61  66
ENDBRANCH  54  56
ENDBRANCH  53  54
ENDBRANCH   5  53
BRANCH   4  68
ATOM     68  O   UNL     1      -0.659   5.977   5.983  1.00  0.00    -0.448 OA
BRANCH  68  69
ATOM     69  C   UNL     1      -1.549   6.923   6.512  1.00  0.00     0.339 C 
ATOM     70  O   UNL     1      -2.416   7.459   5.770  1.00  0.00    -0.246 OA
BRANCH  69  71
ATOM     71  C   UNL     1      -1.499   7.264   7.950  1.00  0.00     0.067 A 
ATOM     72  C   UNL     1      -2.332   6.604   8.871  1.00  0.00     0.066 A 
ATOM     73  C   UNL     1      -0.614   8.250   8.415  1.00  0.00     0.066 A 
ATOM     74  C   UNL     1      -2.258   6.901  10.239  1.00  0.00     0.162 A 
ATOM     75  C   UNL     1      -0.540   8.568   9.777  1.00  0.00     0.162 A 
ATOM     76  C   UNL     1      -1.358   7.872  10.703  1.00  0.00     0.200 A 
BRANCH  74  77
ATOM     77  O   UNL     1      -3.067   6.225  11.152  1.00  0.00    -0.504 OA
ATOM     78  H   UNL     1      -3.952   5.828  10.877  1.00  0.00     0.293 HD
ENDBRANCH  74  77
BRANCH  75  79
ATOM     79  O   UNL     1       0.344   9.582  10.158  1.00  0.00    -0.504 OA
ATOM     80  H   UNL     1       0.787  10.217   9.514  1.00  0.00     0.293 HD
ENDBRANCH  75  79
BRANCH  76  81
ATOM     81  O   UNL     1      -1.295   8.108  12.078  1.00  0.00    -0.502 OA
ATOM     82  H   UNL     1      -1.668   7.478  12.766  1.00  0.00     0.293 HD
ENDBRANCH  76  81
ENDBRANCH  69  71
ENDBRANCH  68  69
ENDBRANCH   4  68
TORSDOF 31
ENDMDL
MODEL 3
REMARK VINA RESULT:    10.134      1.600      8.750
REMARK INTER + INTRA:          27.808
REMARK INTER:                  28.043
REMARK INTRA:                  -0.235
REMARK UNBOUND:                 3.752
REMARK SMILES O=C(OC[C@@H]1O[C@@H](OC(=O)c2cc(O)c(O)c(O)c2)[C@@H](OC(=O)c2cc(O)c(O)c(O)c2)[C@H](OC(=O)c2cc(O)c(O)c(O)c2)[C@@H]1OC(=O)c1cc(O)c(O)c(O)c1)c1cc(O)c(O)c(O)c1
REMARK SMILES IDX 5 1 46 2 33 3 20 4 7 5 6 6 4 7 3 8 2 9 1 10 59 11 60 12
REMARK SMILES IDX 61 13 67 14 63 15 65 16 62 17 64 19 66 21 47 23 48 24 49 25
REMARK SMILES IDX 50 26 58 27 51 28 56 29 52 30 54 31 57 32 53 34 55 36 34 38
REMARK SMILES IDX 35 39 36 40 37 41 45 42 38 43 43 44 39 45 41 46 44 47 40 49
REMARK SMILES IDX 42 51 8 53 9 54 10 55 11 56 19 57 12 58 17 59 13 60 15 61
REMARK SMILES IDX 18 62 14 64 16 66 21 68 22 69 23 70 24 71 32 72 25 73 30 74
REMARK SMILES IDX 26 75 28 76 31 77 27 79 29 81
REMARK H PARENT 62 18 64 20 66 22 57 33 53 35 55 37 44 48 40 50 42 52 18 63
REMARK H PARENT 14 65 16 67 31 78 27 80 29 82
REMARK Flexibility Score: inf
ROOT
ATOM      1  C   UNL     1      -1.558   6.243   3.216  1.00  0.00     0.205 C 
ATOM      2  C   UNL     1      -1.394   4.871   2.524  1.00  0.00     0.254 C 
ATOM      3  C   UNL     1      -1.773   3.755   3.518  1.00  0.00     0.267 C 
ATOM      4  C   UNL     1      -0.988   3.927   4.831  1.00  0.00     0.290 C 
ATOM      5  C   UNL     1      -1.133   5.368   5.351  1.00  0.00     0.357 C 
ATOM      6  O   UNL     1      -0.737   6.316   4.372  1.00  0.00    -0.329 OA
ENDROOT
BRANCH   1   7
ATOM      7  C   UNL     1      -1.189   7.391   2.261  1.00  0.00     0.269 C 
BRANCH   7   8
ATOM      8  O   UNL     1      -2.353   8.119   1.875  1.00  0.00    -0.459 OA
BRANCH   8   9
ATOM      9  C   UNL     1      -3.448   8.353   2.716  1.00  0.00     0.338 C 
ATOM     10  O   UNL     1      -3.466   9.365   3.467  1.00  0.00    -0.246 OA
BRANCH   9  11
ATOM     11  C   UNL     1      -4.598   7.423   2.693  1.00  0.00     0.067 A 
ATOM     12  C   UNL     1      -4.426   6.079   3.052  1.00  0.00     0.066 A 
ATOM     13  C   UNL     1      -5.500   5.188   3.018  1.00  0.00     0.162 A 
ATOM     14  C   UNL     1      -5.871   7.868   2.308  1.00  0.00     0.066 A 
ATOM     15  C   UNL     1      -6.774   5.631   2.621  1.00  0.00     0.200 A 
ATOM     16  C   UNL     1      -6.961   6.992   2.270  1.00  0.00     0.162 A 
BRANCH  13  17
ATOM     17  O   UNL     1      -5.279   3.854   3.367  1.00  0.00    -0.504 OA
ATOM     18  H   UNL     1      -4.604   3.582   4.073  1.00  0.00     0.293 HD
ENDBRANCH  13  17
BRANCH  15  19
ATOM     19  O   UNL     1      -7.819   4.702   2.581  1.00  0.00    -0.502 OA
ATOM     20  H   UNL     1      -7.871   3.939   1.925  1.00  0.00     0.293 HD
ENDBRANCH  15  19
BRANCH  16  21
ATOM     21  O   UNL     1      -8.201   7.511   1.889  1.00  0.00    -0.504 OA
ATOM     22  H   UNL     1      -9.031   6.958   1.752  1.00  0.00     0.293 HD
ENDBRANCH  16  21
ENDBRANCH   9  11
ENDBRANCH   8   9
ENDBRANCH   7   8
ENDBRANCH   1   7
BRANCH   2  23
ATOM     23  O   UNL     1      -0.039   4.708   2.107  1.00  0.00    -0.452 OA
BRANCH  23  24
ATOM     24  C   UNL     1       0.980   4.208   2.930  1.00  0.00     0.338 C 
ATOM     25  O   UNL     1       0.995   2.989   3.256  1.00  0.00    -0.246 OA
BRANCH  24  26
ATOM     26  C   UNL     1       2.039   5.117   3.413  1.00  0.00     0.067 A 
ATOM     27  C   UNL     1       2.957   4.695   4.390  1.00  0.00     0.066 A 
ATOM     28  C   UNL     1       2.144   6.415   2.890  1.00  0.00     0.066 A 
ATOM     29  C   UNL     1       3.964   5.553   4.839  1.00  0.00     0.162 A 
ATOM     30  C   UNL     1       3.144   7.282   3.338  1.00  0.00     0.162 A 
ATOM     31  C   UNL     1       4.058   6.855   4.317  1.00  0.00     0.200 A 
BRANCH  29  32
ATOM     32  O   UNL     1       4.875   5.090   5.789  1.00  0.00    -0.504 OA
ATOM     33  H   UNL     1       5.545   5.707   6.234  1.00  0.00     0.293 HD
ENDBRANCH  29  32
BRANCH  30  34
ATOM     34  O   UNL     1       3.232   8.576   2.819  1.00  0.00    -0.504 OA
ATOM     35  H   UNL     1       2.403   9.149   2.694  1.00  0.00     0.293 HD
ENDBRANCH  30  34
BRANCH  31  36
ATOM     36  O   UNL     1       5.066   7.707   4.771  1.00  0.00    -0.502 OA
ATOM     37  H   UNL     1       5.939   7.831   4.266  1.00  0.00     0.293 HD
ENDBRANCH  31  36
ENDBRANCH  24  26
ENDBRANCH  23  24
ENDBRANCH   2  23
BRANCH   3  38
ATOM     38  O   UNL     1      -1.486   2.469   2.970  1.00  0.00    -0.450 OA
BRANCH  38  39
ATOM     39  C   UNL     1      -2.428   1.647   2.343  1.00  0.00     0.338 C 
ATOM     40  O   UNL     1      -3.490   2.143   1.875  1.00  0.00    -0.246 OA
BRANCH  39  41
ATOM     41  C   UNL     1      -2.175   0.190   2.241  1.00  0.00     0.067 A 
ATOM     42  C   UNL     1      -3.227  -0.739   2.310  1.00  0.00     0.066 A 
ATOM     43  C   UNL     1      -0.863  -0.281   2.082  1.00  0.00     0.066 A 
ATOM     44  C   UNL     1      -2.972  -2.116   2.254  1.00  0.00     0.162 A 
ATOM     45  C   UNL     1      -0.598  -1.652   2.026  1.00  0.00     0.162 A 
ATOM     46  C   UNL     1      -1.651  -2.576   2.118  1.00  0.00     0.200 A 
BRANCH  44  47
ATOM     47  O   UNL     1      -4.026  -3.032   2.334  1.00  0.00    -0.504 OA
ATOM     48  H   UNL     1      -4.905  -2.798   2.782  1.00  0.00     0.293 HD
ENDBRANCH  44  47
BRANCH  45  49
ATOM     49  O   UNL     1       0.721  -2.082   1.875  1.00  0.00    -0.504 OA
ATOM     50  H   UNL     1       1.070  -2.446   0.998  1.00  0.00     0.293 HD
ENDBRANCH  45  49
BRANCH  46  51
ATOM     51  O   UNL     1      -1.373  -3.942   2.069  1.00  0.00    -0.502 OA
ATOM     52  H   UNL     1      -1.851  -4.617   2.655  1.00  0.00     0.293 HD
ENDBRANCH  46  51
ENDBRANCH  39  41
ENDBRANCH  38  39
ENDBRANCH   3  38
BRANCH   5  53
ATOM     53  O   UNL     1      -2.472   5.620   5.784  1.00  0.00    -0.428 OA
BRANCH  53  54
ATOM     54  C   UNL     1      -2.929   5.344   7.079  1.00  0.00     0.340 C 
ATOM     55  O   UNL     1      -3.954   4.630   7.251  1.00  0.00    -0.246 OA
BRANCH  54  56
ATOM     56  C   UNL     1      -2.216   5.920   8.241  1.00  0.00     0.067 A 
ATOM     57  C   UNL     1      -1.678   5.077   9.228  1.00  0.00     0.066 A 
ATOM     58  C   UNL     1      -2.057   7.310   8.365  1.00  0.00     0.066 A 
ATOM     59  C   UNL     1      -0.999   5.614  10.330  1.00  0.00     0.162 A 
ATOM     60  C   UNL     1      -1.373   7.853   9.460  1.00  0.00     0.162 A 
ATOM     61  C   UNL     1      -0.848   7.007  10.450  1.00  0.00     0.200 A 
BRANCH  59  62
ATOM     62  O   UNL     1      -0.473   4.773  11.307  1.00  0.00    -0.504 OA
ATOM     63  H   UNL     1       0.475   4.880  11.647  1.00  0.00     0.293 HD
ENDBRANCH  59  62
BRANCH  60  64
ATOM     64  O   UNL     1      -1.231   9.237   9.563  1.00  0.00    -0.504 OA
ATOM     65  H   UNL     1      -0.912   9.680  10.416  1.00  0.00     0.293 HD
ENDBRANCH  60  64
BRANCH  61  66
ATOM     66  O   UNL     1      -0.178   7.563  11.543  1.00  0.00    -0.502 OA
ATOM     67  H   UNL     1       0.838   7.538  11.620  1.00  0.00     0.293 HD
ENDBRANCH  61  66
ENDBRANCH  54  56
ENDBRANCH  53  54
ENDBRANCH   5  53
BRANCH   4  68
ATOM     68  O   UNL     1      -1.471   3.014   5.821  1.00  0.00    -0.448 OA
BRANCH  68  69
ATOM     69  C   UNL     1      -1.467   1.621   5.658  1.00  0.00     0.339 C 
ATOM     70  O   UNL     1      -0.378   0.986   5.669  1.00  0.00    -0.246 OA
BRANCH  69  71
ATOM     71  C   UNL     1      -2.744   0.889   5.512  1.00  0.00     0.067 A 
ATOM     72  C   UNL     1      -3.922   1.570   5.156  1.00  0.00     0.066 A 
ATOM     73  C   UNL     1      -2.795  -0.498   5.723  1.00  0.00     0.066 A 
ATOM     74  C   UNL     1      -5.124   0.870   4.981  1.00  0.00     0.162 A 
ATOM     75  C   UNL     1      -3.993  -1.208   5.567  1.00  0.00     0.162 A 
ATOM     76  C   UNL     1      -5.167  -0.518   5.173  1.00  0.00     0.200 A 
BRANCH  74  77
ATOM     77  O   UNL     1      -6.284   1.546   4.602  1.00  0.00    -0.504 OA
ATOM     78  H   UNL     1      -7.089   1.591   5.208  1.00  0.00     0.293 HD
ENDBRANCH  74  77
BRANCH  75  79
ATOM     79  O   UNL     1      -3.969  -2.582   5.824  1.00  0.00    -0.504 OA
ATOM     80  H   UNL     1      -3.418  -3.011   6.550  1.00  0.00     0.293 HD
ENDBRANCH  75  79
BRANCH  76  81
ATOM     81  O   UNL     1      -6.379  -1.176   4.953  1.00  0.00    -0.502 OA
ATOM     82  H   UNL     1      -6.586  -1.693   4.116  1.00  0.00     0.293 HD
ENDBRANCH  76  81
ENDBRANCH  69  71
ENDBRANCH  68  69
ENDBRANCH   4  68
TORSDOF 31
ENDMDL
MODEL 4
REMARK VINA RESULT:    10.150      1.675      9.108
REMARK INTER + INTRA:          27.846
REMARK INTER:                  23.695
REMARK INTRA:                   4.151
REMARK UNBOUND:                 3.752
REMARK SMILES O=C(OC[C@@H]1O[C@@H](OC(=O)c2cc(O)c(O)c(O)c2)[C@@H](OC(=O)c2cc(O)c(O)c(O)c2)[C@H](OC(=O)c2cc(O)c(O)c(O)c2)[C@@H]1OC(=O)c1cc(O)c(O)c(O)c1)c1cc(O)c(O)c(O)c1
REMARK SMILES IDX 5 1 46 2 33 3 20 4 7 5 6 6 4 7 3 8 2 9 1 10 59 11 60 12
REMARK SMILES IDX 61 13 67 14 63 15 65 16 62 17 64 19 66 21 47 23 48 24 49 25
REMARK SMILES IDX 50 26 58 27 51 28 56 29 52 30 54 31 57 32 53 34 55 36 34 38
REMARK SMILES IDX 35 39 36 40 37 41 45 42 38 43 43 44 39 45 41 46 44 47 40 49
REMARK SMILES IDX 42 51 8 53 9 54 10 55 11 56 19 57 12 58 17 59 13 60 15 61
REMARK SMILES IDX 18 62 14 64 16 66 21 68 22 69 23 70 24 71 32 72 25 73 30 74
REMARK SMILES IDX 26 75 28 76 31 77 27 79 29 81
REMARK H PARENT 62 18 64 20 66 22 57 33 53 35 55 37 44 48 40 50 42 52 18 63
REMARK H PARENT 14 65 16 67 31 78 27 80 29 82
REMARK Flexibility Score: inf
ROOT
ATOM      1  C   UNL     1      -1.725   5.455   6.082  1.00  0.00     0.205 C 
ATOM      2  C   UNL     1      -2.410   5.782   4.736  1.00  0.00     0.254 C 
ATOM      3  C   UNL     1      -2.576   4.482   3.924  1.00  0.00     0.267 C 
ATOM      4  C   UNL     1      -1.225   3.751   3.814  1.00  0.00     0.290 C 
ATOM      5  C   UNL     1      -0.591   3.597   5.208  1.00  0.00     0.357 C 
ATOM      6  O   UNL     1      -0.460   4.850   5.861  1.00  0.00    -0.329 OA
ENDROOT
BRANCH   1   7
ATOM      7  C   UNL     1      -1.536   6.725   6.929  1.00  0.00     0.269 C 
BRANCH   7   8
ATOM      8  O   UNL     1      -2.307   6.650   8.128  1.00  0.00    -0.459 OA
BRANCH   8   9
ATOM      9  C   UNL     1      -1.776   6.337   9.384  1.00  0.00     0.338 C 
ATOM     10  O   UNL     1      -2.200   5.335  10.021  1.00  0.00    -0.246 OA
BRANCH   9  11
ATOM     11  C   UNL     1      -0.689   7.169   9.946  1.00  0.00     0.067 A 
ATOM     12  C   UNL     1      -0.849   8.557  10.057  1.00  0.00     0.066 A 
ATOM     13  C   UNL     1       0.174   9.356  10.570  1.00  0.00     0.162 A 
ATOM     14  C   UNL     1       0.514   6.586  10.369  1.00  0.00     0.066 A 
ATOM     15  C   UNL     1       1.386   8.773  10.983  1.00  0.00     0.200 A 
ATOM     16  C   UNL     1       1.552   7.368  10.887  1.00  0.00     0.162 A 
BRANCH  13  17
ATOM     17  O   UNL     1      -0.023  10.736  10.645  1.00  0.00    -0.504 OA
ATOM     18  H   UNL     1      -0.277  11.201  11.509  1.00  0.00     0.293 HD
ENDBRANCH  13  17
BRANCH  15  19
ATOM     19  O   UNL     1       2.394   9.609  11.471  1.00  0.00    -0.502 OA
ATOM     20  H   UNL     1       3.301   9.286  11.770  1.00  0.00     0.293 HD
ENDBRANCH  15  19
BRANCH  16  21
ATOM     21  O   UNL     1       2.716   6.714  11.300  1.00  0.00    -0.504 OA
ATOM     22  H   UNL     1       3.070   5.868  10.884  1.00  0.00     0.293 HD
ENDBRANCH  16  21
ENDBRANCH   9  11
ENDBRANCH   8   9
ENDBRANCH   7   8
ENDBRANCH   1   7
BRANCH   2  23
ATOM     23  O   UNL     1      -1.606   6.709   4.007  1.00  0.00    -0.452 OA
BRANCH  23  24
ATOM     24  C   UNL     1      -0.720   6.342   2.984  1.00  0.00     0.338 C 
ATOM     25  O   UNL     1      -1.162   5.928   1.877  1.00  0.00    -0.246 OA
BRANCH  24  26
ATOM     26  C   UNL     1       0.735   6.448   3.208  1.00  0.00     0.067 A 
ATOM     27  C   UNL     1       1.416   7.650   2.948  1.00  0.00     0.066 A 
ATOM     28  C   UNL     1       1.454   5.346   3.695  1.00  0.00     0.066 A 
ATOM     29  C   UNL     1       2.792   7.751   3.170  1.00  0.00     0.162 A 
ATOM     30  C   UNL     1       2.832   5.436   3.914  1.00  0.00     0.162 A 
ATOM     31  C   UNL     1       3.508   6.640   3.650  1.00  0.00     0.200 A 
BRANCH  29  32
ATOM     32  O   UNL     1       3.430   8.969   2.928  1.00  0.00    -0.504 OA
ATOM     33  H   UNL     1       2.957   9.856   3.059  1.00  0.00     0.293 HD
ENDBRANCH  29  32
BRANCH  30  34
ATOM     34  O   UNL     1       3.538   4.329   4.388  1.00  0.00    -0.504 OA
ATOM     35  H   UNL     1       3.818   4.261   5.361  1.00  0.00     0.293 HD
ENDBRANCH  30  34
BRANCH  31  36
ATOM     36  O   UNL     1       4.882   6.748   3.869  1.00  0.00    -0.502 OA
ATOM     37  H   UNL     1       5.291   7.535   4.363  1.00  0.00     0.293 HD
ENDBRANCH  31  36
ENDBRANCH  24  26
ENDBRANCH  23  24
ENDBRANCH   2  23
BRANCH   3  38
ATOM     38  O   UNL     1      -3.061   4.762   2.611  1.00  0.00    -0.450 OA
BRANCH  38  39
ATOM     39  C   UNL     1      -4.388   4.590   2.203  1.00  0.00     0.338 C 
ATOM     40  O   UNL     1      -4.805   3.445   1.875  1.00  0.00    -0.246 OA
BRANCH  39  41
ATOM     41  C   UNL     1      -5.294   5.760   2.150  1.00  0.00     0.067 A 
ATOM     42  C   UNL     1      -6.689   5.599   2.096  1.00  0.00     0.066 A 
ATOM     43  C   UNL     1      -4.760   7.058   2.146  1.00  0.00     0.066 A 
ATOM     44  C   UNL     1      -7.537   6.713   2.005  1.00  0.00     0.162 A 
ATOM     45  C   UNL     1      -5.595   8.175   2.053  1.00  0.00     0.162 A 
ATOM     46  C   UNL     1      -6.988   8.006   1.976  1.00  0.00     0.200 A 
BRANCH  44  47
ATOM     47  O   UNL     1      -8.922   6.541   1.940  1.00  0.00    -0.504 OA
ATOM     48  H   UNL     1      -9.536   7.266   1.585  1.00  0.00     0.293 HD
ENDBRANCH  44  47
BRANCH  45  49
ATOM     49  O   UNL     1      -5.026   9.449   2.043  1.00  0.00    -0.504 OA
ATOM     50  H   UNL     1      -5.029  10.044   2.860  1.00  0.00     0.293 HD
ENDBRANCH  45  49
BRANCH  46  51
ATOM     51  O   UNL     1      -7.810   9.128   1.877  1.00  0.00    -0.502 OA
ATOM     52  H   UNL     1      -7.887   9.815   2.619  1.00  0.00     0.293 HD
ENDBRANCH  46  51
ENDBRANCH  39  41
ENDBRANCH  38  39
ENDBRANCH   3  38
BRANCH   5  53
ATOM     53  O   UNL     1      -1.344   2.685   6.012  1.00  0.00    -0.428 OA
BRANCH  53  54
ATOM     54  C   UNL     1      -2.741   2.597   5.974  1.00  0.00     0.340 C 
ATOM     55  O   UNL     1      -3.447   3.464   6.558  1.00  0.00    -0.246 OA
BRANCH  54  56
ATOM     56  C   UNL     1      -3.380   1.463   5.269  1.00  0.00     0.067 A 
ATOM     57  C   UNL     1      -3.254   0.159   5.774  1.00  0.00     0.066 A 
ATOM     58  C   UNL     1      -4.128   1.678   4.100  1.00  0.00     0.066 A 
ATOM     59  C   UNL     1      -3.858  -0.921   5.115  1.00  0.00     0.162 A 
ATOM     60  C   UNL     1      -4.741   0.604   3.441  1.00  0.00     0.162 A 
ATOM     61  C   UNL     1      -4.601  -0.700   3.942  1.00  0.00     0.200 A 
BRANCH  59  62
ATOM     62  O   UNL     1      -3.725  -2.213   5.618  1.00  0.00    -0.504 OA
ATOM     63  H   UNL     1      -4.295  -2.978   5.277  1.00  0.00     0.293 HD
ENDBRANCH  59  62
BRANCH  60  64
ATOM     64  O   UNL     1      -5.475   0.842   2.279  1.00  0.00    -0.504 OA
ATOM     65  H   UNL     1      -5.136   0.565   1.365  1.00  0.00     0.293 HD
ENDBRANCH  60  64
BRANCH  61  66
ATOM     66  O   UNL     1      -5.208  -1.762   3.267  1.00  0.00    -0.502 OA
ATOM     67  H   UNL     1      -5.110  -2.726   3.583  1.00  0.00     0.293 HD
ENDBRANCH  61  66
ENDBRANCH  54  56
ENDBRANCH  53  54
ENDBRANCH   5  53
BRANCH   4  68
ATOM     68  O   UNL     1      -1.407   2.458   3.230  1.00  0.00    -0.448 OA
BRANCH  68  69
ATOM     69  C   UNL     1      -0.427   1.809   2.463  1.00  0.00     0.339 C 
ATOM     70  O   UNL     1       0.522   2.470   1.961  1.00  0.00    -0.246 OA
BRANCH  69  71
ATOM     71  C   UNL     1      -0.483   0.344   2.277  1.00  0.00     0.067 A 
ATOM     72  C   UNL     1       0.699  -0.404   2.132  1.00  0.00     0.066 A 
ATOM     73  C   UNL     1      -1.719  -0.321   2.248  1.00  0.00     0.066 A 
ATOM     74  C   UNL     1       0.648  -1.799   1.993  1.00  0.00     0.162 A 
ATOM     75  C   UNL     1      -1.786  -1.712   2.093  1.00  0.00     0.162 A 
ATOM     76  C   UNL     1      -0.588  -2.462   1.984  1.00  0.00     0.200 A 
BRANCH  74  77
ATOM     77  O   UNL     1       1.824  -2.539   1.876  1.00  0.00    -0.504 OA
ATOM     78  H   UNL     1       1.857  -3.393   1.341  1.00  0.00     0.293 HD
ENDBRANCH  74  77
BRANCH  75  79
ATOM     79  O   UNL     1      -3.055  -2.297   2.043  1.00  0.00    -0.504 OA
ATOM     80  H   UNL     1      -3.610  -2.373   1.206  1.00  0.00     0.293 HD
ENDBRANCH  75  79
BRANCH  76  81
ATOM     81  O   UNL     1      -0.588  -3.854   1.878  1.00  0.00    -0.502 OA
ATOM     82  H   UNL     1      -1.012  -4.462   2.556  1.00  0.00     0.293 HD
ENDBRANCH  76  81
ENDBRANCH  69  71
ENDBRANCH  68  69
ENDBRANCH   4  68
TORSDOF 31
ENDMDL
MODEL 5
REMARK VINA RESULT:    10.470      1.613      8.914
REMARK INTER + INTRA:          28.606
REMARK INTER:                  22.786
REMARK INTRA:                   5.820
REMARK UNBOUND:                 3.752
REMARK SMILES O=C(OC[C@@H]1O[C@@H](OC(=O)c2cc(O)c(O)c(O)c2)[C@@H](OC(=O)c2cc(O)c(O)c(O)c2)[C@H](OC(=O)c2cc(O)c(O)c(O)c2)[C@@H]1OC(=O)c1cc(O)c(O)c(O)c1)c1cc(O)c(O)c(O)c1
REMARK SMILES IDX 5 1 46 2 33 3 20 4 7 5 6 6 4 7 3 8 2 9 1 10 59 11 60 12
REMARK SMILES IDX 61 13 67 14 63 15 65 16 62 17 64 19 66 21 47 23 48 24 49 25
REMARK SMILES IDX 50 26 58 27 51 28 56 29 52 30 54 31 57 32 53 34 55 36 34 38
REMARK SMILES IDX 35 39 36 40 37 41 45 42 38 43 43 44 39 45 41 46 44 47 40 49
REMARK SMILES IDX 42 51 8 53 9 54 10 55 11 56 19 57 12 58 17 59 13 60 15 61
REMARK SMILES IDX 18 62 14 64 16 66 21 68 22 69 23 70 24 71 32 72 25 73 30 74
REMARK SMILES IDX 26 75 28 76 31 77 27 79 29 81
REMARK H PARENT 62 18 64 20 66 22 57 33 53 35 55 37 44 48 40 50 42 52 18 63
REMARK H PARENT 14 65 16 67 31 78 27 80 29 82
REMARK Flexibility Score: inf
ROOT
ATOM      1  C   UNL     1      -1.505   5.353   5.867  1.00  0.00     0.205 C 
ATOM      2  C   UNL     1      -2.212   5.568   4.511  1.00  0.00     0.254 C 
ATOM      3  C   UNL     1      -2.424   4.202   3.829  1.00  0.00     0.267 C 
ATOM      4  C   UNL     1      -1.093   3.432   3.760  1.00  0.00     0.290 C 
ATOM      5  C   UNL     1      -0.430   3.394   5.149  1.00  0.00     0.357 C 
ATOM      6  O   UNL     1      -0.258   4.699   5.678  1.00  0.00    -0.329 OA
ENDROOT
BRANCH   1   7
ATOM      7  C   UNL     1      -1.269   6.691   6.587  1.00  0.00     0.269 C 
BRANCH   7   8
ATOM      8  O   UNL     1      -2.087   6.787   7.752  1.00  0.00    -0.459 OA
BRANCH   8   9
ATOM      9  C   UNL     1      -1.662   6.442   9.040  1.00  0.00     0.338 C 
ATOM     10  O   UNL     1      -2.140   5.427   9.615  1.00  0.00    -0.246 OA
BRANCH   9  11
ATOM     11  C   UNL     1      -0.625   7.256   9.710  1.00  0.00     0.067 A 
ATOM     12  C   UNL     1       0.551   6.654  10.177  1.00  0.00     0.066 A 
ATOM     13  C   UNL     1       1.531   7.407  10.826  1.00  0.00     0.162 A 
ATOM     14  C   UNL     1      -0.803   8.635   9.893  1.00  0.00     0.066 A 
ATOM     15  C   UNL     1       1.347   8.788  11.020  1.00  0.00     0.200 A 
ATOM     16  C   UNL     1       0.167   9.409  10.538  1.00  0.00     0.162 A 
BRANCH  13  17
ATOM     17  O   UNL     1       2.679   6.762  11.291  1.00  0.00    -0.504 OA
ATOM     18  H   UNL     1       2.899   5.804  11.046  1.00  0.00     0.293 HD
ENDBRANCH  13  17
BRANCH  15  19
ATOM     19  O   UNL     1       2.342   9.504  11.693  1.00  0.00    -0.502 OA
ATOM     20  H   UNL     1       3.131   9.077  12.153  1.00  0.00     0.293 HD
ENDBRANCH  15  19
BRANCH  16  21
ATOM     21  O   UNL     1      -0.075  10.779  10.672  1.00  0.00    -0.504 OA
ATOM     22  H   UNL     1       0.219  11.334  11.458  1.00  0.00     0.293 HD
ENDBRANCH  16  21
ENDBRANCH   9  11
ENDBRANCH   8   9
ENDBRANCH   7   8
ENDBRANCH   1   7
BRANCH   2  23
ATOM     23  O   UNL     1      -1.405   6.403   3.681  1.00  0.00    -0.452 OA
BRANCH  23  24
ATOM     24  C   UNL     1      -0.357   5.931   2.877  1.00  0.00     0.338 C 
ATOM     25  O   UNL     1      -0.601   5.204   1.875  1.00  0.00    -0.246 OA
BRANCH  24  26
ATOM     26  C   UNL     1       1.035   6.295   3.208  1.00  0.00     0.067 A 
ATOM     27  C   UNL     1       1.916   5.341   3.748  1.00  0.00     0.066 A 
ATOM     28  C   UNL     1       1.497   7.599   2.977  1.00  0.00     0.066 A 
ATOM     29  C   UNL     1       3.236   5.683   4.052  1.00  0.00     0.162 A 
ATOM     30  C   UNL     1       2.813   7.952   3.284  1.00  0.00     0.162 A 
ATOM     31  C   UNL     1       3.689   6.995   3.825  1.00  0.00     0.200 A 
BRANCH  29  32
ATOM     32  O   UNL     1       4.091   4.704   4.560  1.00  0.00    -0.504 OA
ATOM     33  H   UNL     1       4.427   4.730   5.515  1.00  0.00     0.293 HD
ENDBRANCH  29  32
BRANCH  30  34
ATOM     34  O   UNL     1       3.258   9.257   3.060  1.00  0.00    -0.504 OA
ATOM     35  H   UNL     1       2.623  10.046   3.123  1.00  0.00     0.293 HD
ENDBRANCH  30  34
BRANCH  31  36
ATOM     36  O   UNL     1       5.009   7.330   4.133  1.00  0.00    -0.502 OA
ATOM     37  H   UNL     1       5.457   8.163   3.760  1.00  0.00     0.293 HD
ENDBRANCH  31  36
ENDBRANCH  24  26
ENDBRANCH  23  24
ENDBRANCH   2  23
BRANCH   3  38
ATOM     38  O   UNL     1      -2.933   4.369   2.505  1.00  0.00    -0.450 OA
BRANCH  38  39
ATOM     39  C   UNL     1      -4.221   4.823   2.203  1.00  0.00     0.338 C 
ATOM     40  O   UNL     1      -5.157   3.996   2.024  1.00  0.00    -0.246 OA
BRANCH  39  41
ATOM     41  C   UNL     1      -4.475   6.278   2.085  1.00  0.00     0.067 A 
ATOM     42  C   UNL     1      -3.415   7.199   2.020  1.00  0.00     0.066 A 
ATOM     43  C   UNL     1      -5.793   6.756   2.046  1.00  0.00     0.066 A 
ATOM     44  C   UNL     1      -3.666   8.577   1.951  1.00  0.00     0.162 A 
ATOM     45  C   UNL     1      -6.055   8.127   1.978  1.00  0.00     0.162 A 
ATOM     46  C   UNL     1      -4.992   9.044   1.936  1.00  0.00     0.200 A 
BRANCH  44  47
ATOM     47  O   UNL     1      -2.605   9.485   1.897  1.00  0.00    -0.504 OA
ATOM     48  H   UNL     1      -2.450  10.171   2.629  1.00  0.00     0.293 HD
ENDBRANCH  44  47
BRANCH  45  49
ATOM     49  O   UNL     1      -7.379   8.565   1.949  1.00  0.00    -0.504 OA
ATOM     50  H   UNL     1      -7.861   8.759   1.082  1.00  0.00     0.293 HD
ENDBRANCH  45  49
BRANCH  46  51
ATOM     51  O   UNL     1      -5.265  10.410   1.876  1.00  0.00    -0.502 OA
ATOM     52  H   UNL     1      -6.081  10.783   1.402  1.00  0.00     0.293 HD
ENDBRANCH  46  51
ENDBRANCH  39  41
ENDBRANCH  38  39
ENDBRANCH   3  38
BRANCH   5  53
ATOM     53  O   UNL     1      -1.185   2.580   6.050  1.00  0.00    -0.428 OA
BRANCH  53  54
ATOM     54  C   UNL     1      -2.584   2.520   6.048  1.00  0.00     0.340 C 
ATOM     55  O   UNL     1      -3.256   3.383   6.676  1.00  0.00    -0.246 OA
BRANCH  54  56
ATOM     56  C   UNL     1      -3.265   1.421   5.328  1.00  0.00     0.067 A 
ATOM     57  C   UNL     1      -3.227   0.113   5.841  1.00  0.00     0.066 A 
ATOM     58  C   UNL     1      -3.964   1.672   4.136  1.00  0.00     0.066 A 
ATOM     59  C   UNL     1      -3.871  -0.934   5.167  1.00  0.00     0.162 A 
ATOM     60  C   UNL     1      -4.616   0.631   3.462  1.00  0.00     0.162 A 
ATOM     61  C   UNL     1      -4.566  -0.677   3.972  1.00  0.00     0.200 A 
BRANCH  59  62
ATOM     62  O   UNL     1      -3.826  -2.228   5.678  1.00  0.00    -0.504 OA
ATOM     63  H   UNL     1      -2.950  -2.670   5.932  1.00  0.00     0.293 HD
ENDBRANCH  59  62
BRANCH  60  64
ATOM     64  O   UNL     1      -5.301   0.904   2.279  1.00  0.00    -0.504 OA
ATOM     65  H   UNL     1      -5.085   1.714   1.710  1.00  0.00     0.293 HD
ENDBRANCH  60  64
BRANCH  61  66
ATOM     66  O   UNL     1      -5.211  -1.707   3.282  1.00  0.00    -0.502 OA
ATOM     67  H   UNL     1      -4.834  -2.093   2.418  1.00  0.00     0.293 HD
ENDBRANCH  61  66
ENDBRANCH  54  56
ENDBRANCH  53  54
ENDBRANCH   5  53
BRANCH   4  68
ATOM     68  O   UNL     1      -1.316   2.094   3.304  1.00  0.00    -0.448 OA
BRANCH  68  69
ATOM     69  C   UNL     1      -0.358   1.344   2.606  1.00  0.00     0.339 C 
ATOM     70  O   UNL     1       0.642   1.916   2.094  1.00  0.00    -0.246 OA
BRANCH  69  71
ATOM     71  C   UNL     1      -0.498  -0.124   2.504  1.00  0.00     0.067 A 
ATOM     72  C   UNL     1      -1.753  -0.736   2.669  1.00  0.00     0.066 A 
ATOM     73  C   UNL     1       0.622  -0.927   2.236  1.00  0.00     0.066 A 
ATOM     74  C   UNL     1      -1.892  -2.125   2.535  1.00  0.00     0.162 A 
ATOM     75  C   UNL     1       0.501  -2.318   2.115  1.00  0.00     0.162 A 
ATOM     76  C   UNL     1      -0.775  -2.922   2.247  1.00  0.00     0.200 A 
BRANCH  74  77
ATOM     77  O   UNL     1      -3.144  -2.724   2.673  1.00  0.00    -0.504 OA
ATOM     78  H   UNL     1      -3.493  -3.013   3.574  1.00  0.00     0.293 HD
ENDBRANCH  74  77
BRANCH  75  79
ATOM     79  O   UNL     1       1.667  -3.051   1.877  1.00  0.00    -0.504 OA
ATOM     80  H   UNL     1       1.680  -3.992   1.517  1.00  0.00     0.293 HD
ENDBRANCH  75  79
BRANCH  76  81
ATOM     81  O   UNL     1      -0.969  -4.296   2.088  1.00  0.00    -0.502 OA
ATOM     82  H   UNL     1      -1.158  -4.730   1.202  1.00  0.00     0.293 HD
ENDBRANCH  76  81
ENDBRANCH  69  71
ENDBRANCH  68  69
ENDBRANCH   4  68
TORSDOF 31
ENDMDL
MODEL 6
REMARK VINA RESULT:    11.664      1.131      6.753
REMARK INTER + INTRA:          31.440
REMARK INTER:                  28.966
REMARK INTRA:                   2.474
REMARK UNBOUND:                 3.752
REMARK SMILES O=C(OC[C@@H]1O[C@@H](OC(=O)c2cc(O)c(O)c(O)c2)[C@@H](OC(=O)c2cc(O)c(O)c(O)c2)[C@H](OC(=O)c2cc(O)c(O)c(O)c2)[C@@H]1OC(=O)c1cc(O)c(O)c(O)c1)c1cc(O)c(O)c(O)c1
REMARK SMILES IDX 5 1 46 2 33 3 20 4 7 5 6 6 4 7 3 8 2 9 1 10 59 11 60 12
REMARK SMILES IDX 61 13 67 14 63 15 65 16 62 17 64 19 66 21 47 23 48 24 49 25
REMARK SMILES IDX 50 26 58 27 51 28 56 29 52 30 54 31 57 32 53 34 55 36 34 38
REMARK SMILES IDX 35 39 36 40 37 41 45 42 38 43 43 44 39 45 41 46 44 47 40 49
REMARK SMILES IDX 42 51 8 53 9 54 10 55 11 56 19 57 12 58 17 59 13 60 15 61
REMARK SMILES IDX 18 62 14 64 16 66 21 68 22 69 23 70 24 71 32 72 25 73 30 74
REMARK SMILES IDX 26 75 28 76 31 77 27 79 29 81
REMARK H PARENT 62 18 64 20 66 22 57 33 53 35 55 37 44 48 40 50 42 52 18 63
REMARK H PARENT 14 65 16 67 31 78 27 80 29 82
REMARK Flexibility Score: inf
ROOT
ATOM      1  C   UNL     1      -0.662   3.162   2.908  1.00  0.00     0.205 C 
ATOM      2  C   UNL     1      -1.056   3.704   4.299  1.00  0.00     0.254 C 
ATOM      3  C   UNL     1      -0.331   5.043   4.544  1.00  0.00     0.267 C 
ATOM      4  C   UNL     1       1.181   4.876   4.308  1.00  0.00     0.290 C 
ATOM      5  C   UNL     1       1.434   4.215   2.941  1.00  0.00     0.357 C 
ATOM      6  O   UNL     1       0.744   2.981   2.826  1.00  0.00    -0.329 OA
ENDROOT
BRANCH   1   7
ATOM      7  C   UNL     1      -1.361   1.823   2.617  1.00  0.00     0.269 C 
BRANCH   7   8
ATOM      8  O   UNL     1      -0.607   0.735   3.149  1.00  0.00    -0.459 OA
BRANCH   8   9
ATOM      9  C   UNL     1      -0.325  -0.443   2.448  1.00  0.00     0.338 C 
ATOM     10  O   UNL     1       0.789  -0.589   1.876  1.00  0.00    -0.246 OA
BRANCH   9  11
ATOM     11  C   UNL     1      -1.329  -1.529   2.411  1.00  0.00     0.067 A 
ATOM     12  C   UNL     1      -0.928  -2.852   2.180  1.00  0.00     0.066 A 
ATOM     13  C   UNL     1      -1.866  -3.884   2.126  1.00  0.00     0.162 A 
ATOM     14  C   UNL     1      -2.691  -1.253   2.598  1.00  0.00     0.066 A 
ATOM     15  C   UNL     1      -3.233  -3.606   2.302  1.00  0.00     0.200 A 
ATOM     16  C   UNL     1      -3.647  -2.273   2.550  1.00  0.00     0.162 A 
BRANCH  13  17
ATOM     17  O   UNL     1      -1.423  -5.185   1.876  1.00  0.00    -0.504 OA
ATOM     18  H   UNL     1      -1.421  -5.588   0.947  1.00  0.00     0.293 HD
ENDBRANCH  13  17
BRANCH  15  19
ATOM     19  O   UNL     1      -4.143  -4.664   2.220  1.00  0.00    -0.502 OA
ATOM     20  H   UNL     1      -3.886  -5.637   2.287  1.00  0.00     0.293 HD
ENDBRANCH  15  19
BRANCH  16  21
ATOM     21  O   UNL     1      -4.984  -1.922   2.760  1.00  0.00    -0.504 OA
ATOM     22  H   UNL     1      -5.351  -0.992   2.648  1.00  0.00     0.293 HD
ENDBRANCH  16  21
ENDBRANCH   9  11
ENDBRANCH   8   9
ENDBRANCH   7   8
ENDBRANCH   1   7
BRANCH   2  23
ATOM     23  O   UNL     1      -0.680   2.759   5.301  1.00  0.00    -0.452 OA
BRANCH  23  24
ATOM     24  C   UNL     1      -1.558   2.255   6.271  1.00  0.00     0.338 C 
ATOM     25  O   UNL     1      -1.358   2.488   7.495  1.00  0.00    -0.246 OA
BRANCH  24  26
ATOM     26  C   UNL     1      -2.723   1.450   5.851  1.00  0.00     0.067 A 
ATOM     27  C   UNL     1      -3.817   2.053   5.207  1.00  0.00     0.066 A 
ATOM     28  C   UNL     1      -2.743   0.067   6.084  1.00  0.00     0.066 A 
ATOM     29  C   UNL     1      -4.914   1.289   4.801  1.00  0.00     0.162 A 
ATOM     30  C   UNL     1      -3.839  -0.705   5.688  1.00  0.00     0.162 A 
ATOM     31  C   UNL     1      -4.932  -0.095   5.045  1.00  0.00     0.200 A 
BRANCH  29  32
ATOM     32  O   UNL     1      -5.970   1.917   4.138  1.00  0.00    -0.504 OA
ATOM     33  H   UNL     1      -5.871   2.278   3.197  1.00  0.00     0.293 HD
ENDBRANCH  29  32
BRANCH  30  34
ATOM     34  O   UNL     1      -3.854  -2.079   5.936  1.00  0.00    -0.504 OA
ATOM     35  H   UNL     1      -4.704  -2.552   6.224  1.00  0.00     0.293 HD
ENDBRANCH  30  34
BRANCH  31  36
ATOM     36  O   UNL     1      -6.031  -0.853   4.639  1.00  0.00    -0.502 OA
ATOM     37  H   UNL     1      -5.946  -1.622   3.980  1.00  0.00     0.293 HD
ENDBRANCH  31  36
ENDBRANCH  24  26
ENDBRANCH  23  24
ENDBRANCH   2  23
BRANCH   3  38
ATOM     38  O   UNL     1      -0.545   5.498   5.880  1.00  0.00    -0.450 OA
BRANCH  38  39
ATOM     39  C   UNL     1      -1.543   6.403   6.258  1.00  0.00     0.338 C 
ATOM     40  O   UNL     1      -2.409   6.776   5.421  1.00  0.00    -0.246 OA
BRANCH  39  41
ATOM     41  C   UNL     1      -1.568   6.925   7.645  1.00  0.00     0.067 A 
ATOM     42  C   UNL     1      -0.720   7.972   8.044  1.00  0.00     0.066 A 
ATOM     43  C   UNL     1      -2.446   6.366   8.587  1.00  0.00     0.066 A 
ATOM     44  C   UNL     1      -0.723   8.431   9.369  1.00  0.00     0.162 A 
ATOM     45  C   UNL     1      -2.455   6.815   9.910  1.00  0.00     0.162 A 
ATOM     46  C   UNL     1      -1.589   7.846  10.308  1.00  0.00     0.200 A 
BRANCH  44  47
ATOM     47  O   UNL     1       0.133   9.466   9.758  1.00  0.00    -0.504 OA
ATOM     48  H   UNL     1       0.525   9.514  10.693  1.00  0.00     0.293 HD
ENDBRANCH  44  47
BRANCH  45  49
ATOM     49  O   UNL     1      -3.336   6.228  10.819  1.00  0.00    -0.504 OA
ATOM     50  H   UNL     1      -3.098   6.106  11.794  1.00  0.00     0.293 HD
ENDBRANCH  45  49
BRANCH  46  51
ATOM     51  O   UNL     1      -1.603   8.281  11.633  1.00  0.00    -0.502 OA
ATOM     52  H   UNL     1      -2.463   8.423  12.152  1.00  0.00     0.293 HD
ENDBRANCH  46  51
ENDBRANCH  39  41
ENDBRANCH  38  39
ENDBRANCH   3  38
BRANCH   5  53
ATOM     53  O   UNL     1       1.074   5.097   1.875  1.00  0.00    -0.428 OA
BRANCH  53  54
ATOM     54  C   UNL     1       0.526   6.369   2.079  1.00  0.00     0.340 C 
ATOM     55  O   UNL     1       1.278   7.351   2.328  1.00  0.00    -0.246 OA
BRANCH  54  56
ATOM     56  C   UNL     1      -0.943   6.546   2.029  1.00  0.00     0.067 A 
ATOM     57  C   UNL     1      -1.496   7.836   1.974  1.00  0.00     0.066 A 
ATOM     58  C   UNL     1      -1.797   5.431   2.022  1.00  0.00     0.066 A 
ATOM     59  C   UNL     1      -2.886   8.013   1.924  1.00  0.00     0.162 A 
ATOM     60  C   UNL     1      -3.187   5.601   1.963  1.00  0.00     0.162 A 
ATOM     61  C   UNL     1      -3.736   6.893   1.922  1.00  0.00     0.200 A 
BRANCH  59  62
ATOM     62  O   UNL     1      -3.428   9.295   1.875  1.00  0.00    -0.504 OA
ATOM     63  H   UNL     1      -4.289   9.527   2.356  1.00  0.00     0.293 HD
ENDBRANCH  59  62
BRANCH  60  64
ATOM     64  O   UNL     1      -4.015   4.479   1.961  1.00  0.00    -0.504 OA
ATOM     65  H   UNL     1      -3.761   3.627   1.473  1.00  0.00     0.293 HD
ENDBRANCH  60  64
BRANCH  61  66
ATOM     66  O   UNL     1      -5.123   7.046   1.876  1.00  0.00    -0.502 OA
ATOM     67  H   UNL     1      -5.571   7.700   1.234  1.00  0.00     0.293 HD
ENDBRANCH  61  66
ENDBRANCH  54  56
ENDBRANCH  53  54
ENDBRANCH   5  53
BRANCH   4  68
ATOM     68  O   UNL     1       1.832   6.149   4.348  1.00  0.00    -0.448 OA
BRANCH  68  69
ATOM     69  C   UNL     1       3.225   6.306   4.419  1.00  0.00     0.339 C 
ATOM     70  O   UNL     1       3.949   5.349   4.806  1.00  0.00    -0.246 OA
BRANCH  69  71
ATOM     71  C   UNL     1       3.849   7.579   4.001  1.00  0.00     0.067 A 
ATOM     72  C   UNL     1       5.245   7.678   3.857  1.00  0.00     0.066 A 
ATOM     73  C   UNL     1       3.055   8.707   3.739  1.00  0.00     0.066 A 
ATOM     74  C   UNL     1       5.833   8.875   3.425  1.00  0.00     0.162 A 
ATOM     75  C   UNL     1       3.631   9.914   3.322  1.00  0.00     0.162 A 
ATOM     76  C   UNL     1       5.035   9.993   3.144  1.00  0.00     0.200 A 
BRANCH  74  77
ATOM     77  O   UNL     1       7.215   8.960   3.258  1.00  0.00    -0.504 OA
ATOM     78  H   UNL     1       7.812   8.158   3.389  1.00  0.00     0.293 HD
ENDBRANCH  74  77
BRANCH  75  79
ATOM     79  O   UNL     1       2.776  10.999   3.109  1.00  0.00    -0.504 OA
ATOM     80  H   UNL     1       1.775  10.921   3.019  1.00  0.00     0.293 HD
ENDBRANCH  75  79
BRANCH  76  81
ATOM     81  O   UNL     1       5.663  11.152   2.683  1.00  0.00    -0.502 OA
ATOM     82  H   UNL     1       6.508  11.521   3.084  1.00  0.00     0.293 HD
ENDBRANCH  76  81
ENDBRANCH  69  71
ENDBRANCH  68  69
ENDBRANCH   4  68
TORSDOF 31
ENDMDL
