MODEL 1
REMARK VINA RESULT:    -4.626      0.000      0.000
REMARK INTER + INTRA:          -7.271
REMARK INTER:                  -5.708
REMARK INTRA:                  -1.563
REMARK UNBOUND:                -1.563
REMARK SMILES CC(C)=CCC[C@@H](C)[C@H]1C=CC(C)=CC1
REMARK SMILES IDX 6 1 7 2 8 3 9 4 13 5 12 6 14 7 11 8 15 9 10 10 5 11 4 12
REMARK SMILES IDX 2 13 1 14 3 15
REMARK H PARENT
REMARK Flexibility Score: inf
ROOT
ATOM      1  C   UNL     1      14.959  14.686  36.070  1.00  0.00     0.008 C 
ENDROOT
BRANCH   1   2
ATOM      2  C   UNL     1      15.087  16.012  36.872  1.00  0.00    -0.007 C 
ATOM      3  C   UNL     1      16.489  16.123  37.503  1.00  0.00     0.008 C 
BRANCH   2   4
ATOM      4  C   UNL     1      14.716  17.281  36.036  1.00  0.00     0.018 C 
ATOM      5  C   UNL     1      10.839  17.982  37.855  1.00  0.00     0.044 C 
ATOM      6  C   UNL     1      12.144  17.981  37.115  1.00  0.00    -0.055 C 
ATOM      7  C   UNL     1      13.245  18.496  37.683  1.00  0.00    -0.023 C 
ATOM      8  C   UNL     1      12.242  17.334  35.785  1.00  0.00    -0.001 C 
ATOM      9  C   UNL     1      14.539  18.547  36.913  1.00  0.00     0.035 C 
ATOM     10  C   UNL     1      13.438  17.060  35.248  1.00  0.00    -0.023 C 
ENDBRANCH   2   4
ENDBRANCH   1   2
BRANCH   1  11
ATOM     11  C   UNL     1      14.103  13.608  36.759  1.00  0.00     0.027 C 
BRANCH  11  12
ATOM     12  C   UNL     1      13.057  14.233  37.649  1.00  0.00    -0.028 C 
ATOM     13  C   UNL     1      11.748  13.907  37.589  1.00  0.00    -0.080 C 
ATOM     14  C   UNL     1      10.788  14.590  38.528  1.00  0.00     0.039 C 
ATOM     15  C   UNL     1      11.234  12.880  36.608  1.00  0.00     0.039 C 
ENDBRANCH  11  12
ENDBRANCH   1  11
TORSDOF 4
ENDMDL
MODEL 2
REMARK VINA RESULT:    -4.440      1.150      4.230
REMARK INTER + INTRA:          -7.041
REMARK INTER:                  -5.160
REMARK INTRA:                  -1.881
REMARK UNBOUND:                -1.563
REMARK SMILES CC(C)=CCC[C@@H](C)[C@H]1C=CC(C)=CC1
REMARK SMILES IDX 6 1 7 2 8 3 9 4 13 5 12 6 14 7 11 8 15 9 10 10 5 11 4 12
REMARK SMILES IDX 2 13 1 14 3 15
REMARK H PARENT
REMARK Flexibility Score: inf
ROOT
ATOM      1  C   UNL     1      13.269  13.903  37.646  1.00  0.00     0.008 C 
ENDROOT
BRANCH   1   2
ATOM      2  C   UNL     1      11.734  14.092  37.484  1.00  0.00    -0.007 C 
ATOM      3  C   UNL     1      11.121  12.885  36.746  1.00  0.00     0.008 C 
BRANCH   2   4
ATOM      4  C   UNL     1      10.999  14.393  38.831  1.00  0.00     0.018 C 
ATOM      5  C   UNL     1      11.111  18.720  38.527  1.00  0.00     0.044 C 
ATOM      6  C   UNL     1      10.905  17.267  38.837  1.00  0.00    -0.055 C 
ATOM      7  C   UNL     1       9.897  16.589  38.269  1.00  0.00    -0.023 C 
ATOM      8  C   UNL     1      11.866  16.552  39.710  1.00  0.00    -0.001 C 
ATOM      9  C   UNL     1       9.658  15.146  38.630  1.00  0.00     0.035 C 
ATOM     10  C   UNL     1      11.876  15.213  39.759  1.00  0.00    -0.023 C 
ENDBRANCH   2   4
ENDBRANCH   1   2
BRANCH   1  11
ATOM     11  C   UNL     1      14.114  14.644  36.595  1.00  0.00     0.027 C 
BRANCH  11  12
ATOM     12  C   UNL     1      14.524  16.009  37.091  1.00  0.00    -0.028 C 
ATOM     13  C   UNL     1      13.974  17.154  36.635  1.00  0.00    -0.080 C 
ATOM     14  C   UNL     1      14.455  18.465  37.202  1.00  0.00     0.039 C 
ATOM     15  C   UNL     1      12.895  17.147  35.578  1.00  0.00     0.039 C 
ENDBRANCH  11  12
ENDBRANCH   1  11
TORSDOF 4
ENDMDL
MODEL 3
REMARK VINA RESULT:    -4.405     13.238     15.112
REMARK INTER + INTRA:          -6.998
REMARK INTER:                  -6.084
REMARK INTRA:                  -0.914
REMARK UNBOUND:                -1.563
REMARK SMILES CC(C)=CCC[C@@H](C)[C@H]1C=CC(C)=CC1
REMARK SMILES IDX 6 1 7 2 8 3 9 4 13 5 12 6 14 7 11 8 15 9 10 10 5 11 4 12
REMARK SMILES IDX 2 13 1 14 3 15
REMARK H PARENT
REMARK Flexibility Score: inf
ROOT
ATOM      1  C   UNL     1       6.557  18.332  22.891  1.00  0.00     0.008 C 
ENDROOT
BRANCH   1   2
ATOM      2  C   UNL     1       7.943  18.856  23.363  1.00  0.00    -0.007 C 
ATOM      3  C   UNL     1       8.844  19.156  22.148  1.00  0.00     0.008 C 
BRANCH   2   4
ATOM      4  C   UNL     1       7.847  20.075  24.339  1.00  0.00     0.018 C 
ATOM      5  C   UNL     1      10.599  18.559  27.331  1.00  0.00     0.044 C 
ATOM      6  C   UNL     1       9.663  19.313  26.433  1.00  0.00    -0.055 C 
ATOM      7  C   UNL     1      10.139  20.002  25.385  1.00  0.00    -0.023 C 
ATOM      8  C   UNL     1       8.200  19.231  26.651  1.00  0.00    -0.001 C 
ATOM      9  C   UNL     1       9.202  20.806  24.522  1.00  0.00     0.035 C 
ATOM     10  C   UNL     1       7.346  19.641  25.704  1.00  0.00    -0.023 C 
ENDBRANCH   2   4
ENDBRANCH   1   2
BRANCH   1  11
ATOM     11  C   UNL     1       5.814  19.278  21.932  1.00  0.00     0.027 C 
BRANCH  11  12
ATOM     12  C   UNL     1       4.324  19.229  22.165  1.00  0.00    -0.028 C 
ATOM     13  C   UNL     1       3.666  20.135  22.920  1.00  0.00    -0.080 C 
ATOM     14  C   UNL     1       2.175  19.995  23.084  1.00  0.00     0.039 C 
ATOM     15  C   UNL     1       4.390  21.277  23.593  1.00  0.00     0.039 C 
ENDBRANCH  11  12
ENDBRANCH   1  11
TORSDOF 4
ENDMDL
MODEL 4
REMARK VINA RESULT:    -4.344     11.825     13.837
REMARK INTER + INTRA:          -6.923
REMARK INTER:                  -4.989
REMARK INTRA:                  -1.934
REMARK UNBOUND:                -1.563
REMARK SMILES CC(C)=CCC[C@@H](C)[C@H]1C=CC(C)=CC1
REMARK SMILES IDX 6 1 7 2 8 3 9 4 13 5 12 6 14 7 11 8 15 9 10 10 5 11 4 12
REMARK SMILES IDX 2 13 1 14 3 15
REMARK H PARENT
REMARK Flexibility Score: inf
ROOT
ATOM      1  C   UNL     1       7.685  20.679  23.130  1.00  0.00     0.008 C 
ENDROOT
BRANCH   1   2
ATOM      2  C   UNL     1       8.771  19.567  23.130  1.00  0.00    -0.007 C 
ATOM      3  C   UNL     1       8.462  18.517  22.044  1.00  0.00     0.008 C 
BRANCH   2   4
ATOM      4  C   UNL     1      10.229  20.122  23.013  1.00  0.00     0.018 C 
ATOM      5  C   UNL     1      11.239  19.809  27.221  1.00  0.00     0.044 C 
ATOM      6  C   UNL     1      11.150  19.966  25.732  1.00  0.00    -0.055 C 
ATOM      7  C   UNL     1      11.332  18.908  24.927  1.00  0.00    -0.023 C 
ATOM      8  C   UNL     1      10.780  21.276  25.146  1.00  0.00    -0.001 C 
ATOM      9  C   UNL     1      11.302  19.084  23.431  1.00  0.00     0.035 C 
ATOM     10  C   UNL     1      10.407  21.366  23.863  1.00  0.00    -0.023 C 
ENDBRANCH   2   4
ENDBRANCH   1   2
BRANCH   1  11
ATOM     11  C   UNL     1       6.703  20.607  24.313  1.00  0.00     0.027 C 
BRANCH  11  12
ATOM     12  C   UNL     1       7.060  19.476  25.246  1.00  0.00    -0.028 C 
ATOM     13  C   UNL     1       7.504  19.672  26.506  1.00  0.00    -0.080 C 
ATOM     14  C   UNL     1       7.827  18.471  27.356  1.00  0.00     0.039 C 
ATOM     15  C   UNL     1       7.677  21.061  27.075  1.00  0.00     0.039 C 
ENDBRANCH  11  12
ENDBRANCH   1  11
TORSDOF 4
ENDMDL
MODEL 5
REMARK VINA RESULT:    -4.337     11.680     13.893
REMARK INTER + INTRA:          -6.914
REMARK INTER:                  -5.024
REMARK INTRA:                  -1.890
REMARK UNBOUND:                -1.563
REMARK SMILES CC(C)=CCC[C@@H](C)[C@H]1C=CC(C)=CC1
REMARK SMILES IDX 6 1 7 2 8 3 9 4 13 5 12 6 14 7 11 8 15 9 10 10 5 11 4 12
REMARK SMILES IDX 2 13 1 14 3 15
REMARK H PARENT
REMARK Flexibility Score: inf
ROOT
ATOM      1  C   UNL     1       7.339  18.965  23.958  1.00  0.00     0.008 C 
ENDROOT
BRANCH   1   2
ATOM      2  C   UNL     1       7.196  20.326  24.695  1.00  0.00    -0.007 C 
ATOM      3  C   UNL     1       5.987  21.109  24.144  1.00  0.00     0.008 C 
BRANCH   2   4
ATOM      4  C   UNL     1       7.147  20.189  26.252  1.00  0.00     0.018 C 
ATOM      5  C   UNL     1      11.436  20.073  26.897  1.00  0.00     0.044 C 
ATOM      6  C   UNL     1       9.938  20.138  26.940  1.00  0.00    -0.055 C 
ATOM      7  C   UNL     1       9.309  21.322  26.879  1.00  0.00    -0.023 C 
ATOM      8  C   UNL     1       9.142  18.888  26.968  1.00  0.00    -0.001 C 
ATOM      9  C   UNL     1       7.808  21.386  26.983  1.00  0.00     0.035 C 
ATOM     10  C   UNL     1       7.829  18.912  26.708  1.00  0.00    -0.023 C 
ENDBRANCH   2   4
ENDBRANCH   1   2
BRANCH   1  11
ATOM     11  C   UNL     1       8.533  18.889  22.992  1.00  0.00     0.027 C 
BRANCH  11  12
ATOM     12  C   UNL     1       9.387  20.131  23.084  1.00  0.00    -0.028 C 
ATOM     13  C   UNL     1      10.724  20.094  23.269  1.00  0.00    -0.080 C 
ATOM     14  C   UNL     1      11.481  21.394  23.343  1.00  0.00     0.039 C 
ATOM     15  C   UNL     1      11.468  18.785  23.398  1.00  0.00     0.039 C 
ENDBRANCH  11  12
ENDBRANCH   1  11
TORSDOF 4
ENDMDL
MODEL 6
REMARK VINA RESULT:    -4.300     11.742     13.863
REMARK INTER + INTRA:          -6.868
REMARK INTER:                  -4.969
REMARK INTRA:                  -1.899
REMARK UNBOUND:                -1.563
REMARK SMILES CC(C)=CCC[C@@H](C)[C@H]1C=CC(C)=CC1
REMARK SMILES IDX 6 1 7 2 8 3 9 4 13 5 12 6 14 7 11 8 15 9 10 10 5 11 4 12
REMARK SMILES IDX 2 13 1 14 3 15
REMARK H PARENT
REMARK Flexibility Score: inf
ROOT
ATOM      1  C   UNL     1       7.004  20.365  25.140  1.00  0.00     0.008 C 
ENDROOT
BRANCH   1   2
ATOM      2  C   UNL     1       7.854  19.573  24.107  1.00  0.00    -0.007 C 
ATOM      3  C   UNL     1       6.998  18.480  23.435  1.00  0.00     0.008 C 
BRANCH   2   4
ATOM      4  C   UNL     1       8.569  20.487  23.058  1.00  0.00     0.018 C 
ATOM      5  C   UNL     1      12.545  20.232  24.776  1.00  0.00     0.044 C 
ATOM      6  C   UNL     1      11.294  20.436  23.975  1.00  0.00    -0.055 C 
ATOM      7  C   UNL     1      10.889  19.502  23.101  1.00  0.00    -0.023 C 
ATOM      8  C   UNL     1      10.454  21.635  24.205  1.00  0.00    -0.001 C 
ATOM      9  C   UNL     1       9.665  19.739  22.256  1.00  0.00     0.035 C 
ATOM     10  C   UNL     1       9.203  21.692  23.729  1.00  0.00    -0.023 C 
ENDBRANCH   2   4
ENDBRANCH   1   2
BRANCH   1  11
ATOM     11  C   UNL     1       7.371  20.088  26.608  1.00  0.00     0.027 C 
BRANCH  11  12
ATOM     12  C   UNL     1       8.538  19.136  26.706  1.00  0.00    -0.028 C 
ATOM     13  C   UNL     1       9.739  19.493  27.209  1.00  0.00    -0.080 C 
ATOM     14  C   UNL     1      10.836  18.462  27.265  1.00  0.00     0.039 C 
ATOM     15  C   UNL     1      10.000  20.893  27.714  1.00  0.00     0.039 C 
ENDBRANCH  11  12
ENDBRANCH   1  11
TORSDOF 4
ENDMDL
MODEL 7
REMARK VINA RESULT:    -4.292      1.167      3.635
REMARK INTER + INTRA:          -6.859
REMARK INTER:                  -5.291
REMARK INTRA:                  -1.568
REMARK UNBOUND:                -1.563
REMARK SMILES CC(C)=CCC[C@@H](C)[C@H]1C=CC(C)=CC1
REMARK SMILES IDX 6 1 7 2 8 3 9 4 13 5 12 6 14 7 11 8 15 9 10 10 5 11 4 12
REMARK SMILES IDX 2 13 1 14 3 15
REMARK H PARENT
REMARK Flexibility Score: inf
ROOT
ATOM      1  C   UNL     1      12.589  17.795  38.868  1.00  0.00     0.008 C 
ENDROOT
BRANCH   1   2
ATOM      2  C   UNL     1      12.670  17.789  37.315  1.00  0.00    -0.007 C 
ATOM      3  C   UNL     1      11.489  18.576  36.714  1.00  0.00     0.008 C 
BRANCH   2   4
ATOM      4  C   UNL     1      14.048  18.283  36.763  1.00  0.00     0.018 C 
ATOM      5  C   UNL     1      15.842  14.363  36.268  1.00  0.00     0.044 C 
ATOM      6  C   UNL     1      15.434  15.806  36.301  1.00  0.00    -0.055 C 
ATOM      7  C   UNL     1      14.687  16.322  35.313  1.00  0.00    -0.023 C 
ATOM      8  C   UNL     1      15.785  16.649  37.469  1.00  0.00    -0.001 C 
ATOM      9  C   UNL     1      14.331  17.786  35.322  1.00  0.00     0.035 C 
ATOM     10  C   UNL     1      15.187  17.832  37.659  1.00  0.00    -0.023 C 
ENDBRANCH   2   4
ENDBRANCH   1   2
BRANCH   1  11
ATOM     11  C   UNL     1      12.285  16.422  39.492  1.00  0.00     0.027 C 
BRANCH  11  12
ATOM     12  C   UNL     1      12.484  15.312  38.488  1.00  0.00    -0.028 C 
ATOM     13  C   UNL     1      11.478  14.524  38.052  1.00  0.00    -0.080 C 
ATOM     14  C   UNL     1      11.787  13.448  37.045  1.00  0.00     0.039 C 
ATOM     15  C   UNL     1      10.063  14.701  38.549  1.00  0.00     0.039 C 
ENDBRANCH  11  12
ENDBRANCH   1  11
TORSDOF 4
ENDMDL
MODEL 8
REMARK VINA RESULT:    -4.192     11.899     13.768
REMARK INTER + INTRA:          -6.735
REMARK INTER:                  -4.782
REMARK INTRA:                  -1.954
REMARK UNBOUND:                -1.563
REMARK SMILES CC(C)=CCC[C@@H](C)[C@H]1C=CC(C)=CC1
REMARK SMILES IDX 6 1 7 2 8 3 9 4 13 5 12 6 14 7 11 8 15 9 10 10 5 11 4 12
REMARK SMILES IDX 2 13 1 14 3 15
REMARK H PARENT
REMARK Flexibility Score: inf
ROOT
ATOM      1  C   UNL     1      10.651  19.231  23.293  1.00  0.00     0.008 C 
ENDROOT
BRANCH   1   2
ATOM      2  C   UNL     1       9.837  20.553  23.218  1.00  0.00    -0.007 C 
ATOM      3  C   UNL     1      10.492  21.530  22.221  1.00  0.00     0.008 C 
BRANCH   2   4
ATOM      4  C   UNL     1       8.318  20.331  22.913  1.00  0.00     0.018 C 
ATOM      5  C   UNL     1       6.932  20.514  27.020  1.00  0.00     0.044 C 
ATOM      6  C   UNL     1       7.152  20.461  25.537  1.00  0.00    -0.055 C 
ATOM      7  C   UNL     1       7.279  21.594  24.830  1.00  0.00    -0.023 C 
ATOM      8  C   UNL     1       7.312  19.154  24.858  1.00  0.00    -0.001 C 
ATOM      9  C   UNL     1       7.438  21.536  23.333  1.00  0.00     0.035 C 
ATOM     10  C   UNL     1       7.799  19.089  23.612  1.00  0.00    -0.023 C 
ENDBRANCH   2   4
ENDBRANCH   1   2
BRANCH   1  11
ATOM     11  C   UNL     1      11.406  19.026  24.619  1.00  0.00     0.027 C 
BRANCH  11  12
ATOM     12  C   UNL     1      11.173  20.181  25.561  1.00  0.00    -0.028 C 
ATOM     13  C   UNL     1      10.630  20.033  26.788  1.00  0.00    -0.080 C 
ATOM     14  C   UNL     1      10.445  21.254  27.651  1.00  0.00     0.039 C 
ATOM     15  C   UNL     1      10.211  18.678  27.309  1.00  0.00     0.039 C 
ENDBRANCH  11  12
ENDBRANCH   1  11
TORSDOF 4
ENDMDL
MODEL 9
REMARK VINA RESULT:    -4.174     11.434     13.364
REMARK INTER + INTRA:          -6.713
REMARK INTER:                  -4.767
REMARK INTRA:                  -1.946
REMARK UNBOUND:                -1.563
REMARK SMILES CC(C)=CCC[C@@H](C)[C@H]1C=CC(C)=CC1
REMARK SMILES IDX 6 1 7 2 8 3 9 4 13 5 12 6 14 7 11 8 15 9 10 10 5 11 4 12
REMARK SMILES IDX 2 13 1 14 3 15
REMARK H PARENT
REMARK Flexibility Score: inf
ROOT
ATOM      1  C   UNL     1       9.323  18.997  27.231  1.00  0.00     0.008 C 
ENDROOT
BRANCH   1   2
ATOM      2  C   UNL     1      10.115  20.289  26.885  1.00  0.00    -0.007 C 
ATOM      3  C   UNL     1      10.261  21.179  28.136  1.00  0.00     0.008 C 
BRANCH   2   4
ATOM      4  C   UNL     1      11.493  20.009  26.199  1.00  0.00     0.018 C 
ATOM      5  C   UNL     1      10.228  20.848  22.135  1.00  0.00     0.044 C 
ATOM      6  C   UNL     1      10.912  20.555  23.437  1.00  0.00    -0.055 C 
ATOM      7  C   UNL     1      11.340  21.559  24.218  1.00  0.00    -0.023 C 
ATOM      8  C   UNL     1      11.046  19.156  23.907  1.00  0.00    -0.001 C 
ATOM      9  C   UNL     1      12.080  21.259  25.495  1.00  0.00     0.035 C 
ATOM     10  C   UNL     1      11.375  18.893  25.178  1.00  0.00    -0.023 C 
ENDBRANCH   2   4
ENDBRANCH   1   2
BRANCH   1  11
ATOM     11  C   UNL     1       7.896  18.956  26.657  1.00  0.00     0.027 C 
BRANCH  11  12
ATOM     12  C   UNL     1       7.592  20.206  25.867  1.00  0.00    -0.028 C 
ATOM     13  C   UNL     1       7.343  20.196  24.540  1.00  0.00    -0.080 C 
ATOM     14  C   UNL     1       7.046  21.502  23.850  1.00  0.00     0.039 C 
ATOM     15  C   UNL     1       7.355  18.913  23.743  1.00  0.00     0.039 C 
ENDBRANCH  11  12
ENDBRANCH   1  11
TORSDOF 4
ENDMDL
