MODEL 1
REMARK VINA RESULT:     8.640      0.000      0.000
REMARK INTER + INTRA:          14.061
REMARK INTER:                  11.671
REMARK INTRA:                   2.390
REMARK UNBOUND:                 2.390
REMARK SMILES CC[C@H](CC[C@@H](C)[C@H]1CC[C@@H]2[C@@H]3CC(=O)C4=CC(=O)CC[C@]4(C)[C@@H]3CC[C@@]21C)C(C)C
REMARK SMILES IDX 4 1 3 2 2 3 1 4 29 5 30 6 31 7 5 8 6 9 7 10 8 11 9 12 27 13
REMARK SMILES IDX 10 14 11 15 26 16 28 17 12 18 25 19 24 20 13 21 22 22 14 23
REMARK SMILES IDX 16 24 21 25 23 26 15 27 17 28 20 29 18 30 19 31
REMARK H PARENT
REMARK Flexibility Score: inf
ROOT
ATOM      1  C   UNL     1      95.364  39.759  67.251  1.00  0.00     0.004 C 
ENDROOT
BRANCH   1   2
ATOM      2  C   UNL     1      95.446  40.743  68.460  1.00  0.00    -0.009 C 
BRANCH   2   3
ATOM      3  C   UNL     1      96.019  40.063  69.733  1.00  0.00     0.000 C 
ATOM      4  C   UNL     1      97.419  39.476  69.538  1.00  0.00     0.004 C 
ENDBRANCH   2   3
BRANCH   2   5
ATOM      5  C   UNL     1      96.118  42.120  68.128  1.00  0.00    -0.014 C 
ATOM      6  C   UNL     1      97.253  42.039  67.097  1.00  0.00     0.007 C 
ATOM      7  C   UNL     1      95.087  43.176  67.692  1.00  0.00     0.007 C 
ENDBRANCH   2   5
ENDBRANCH   1   2
BRANCH   1   8
ATOM      8  C   UNL     1      94.885  38.328  67.584  1.00  0.00     0.004 C 
BRANCH   8   9
ATOM      9  C   UNL     1      95.833  37.525  68.528  1.00  0.00    -0.011 C 
ATOM     10  C   UNL     1      95.030  37.202  69.805  1.00  0.00     0.008 C 
BRANCH   9  11
ATOM     11  C   UNL     1      96.492  36.285  67.784  1.00  0.00    -0.002 C 
ATOM     12  C   UNL     1      95.880  34.963  68.263  1.00  0.00     0.005 C 
ATOM     13  C   UNL     1      96.529  36.125  66.207  1.00  0.00    -0.026 C 
ATOM     14  C   UNL     1      96.490  33.912  67.368  1.00  0.00     0.005 C 
ATOM     15  C   UNL     1      96.525  34.567  65.988  1.00  0.00    -0.001 C 
ATOM     16  C   UNL     1      97.820  36.767  65.622  1.00  0.00     0.007 C 
ATOM     17  C   UNL     1      95.287  36.722  65.489  1.00  0.00     0.012 C 
ATOM     18  C   UNL     1      97.593  33.991  65.001  1.00  0.00     0.004 C 
ATOM     19  C   UNL     1      98.139  36.355  64.171  1.00  0.00     0.005 C 
ATOM     20  C   UNL     1      97.708  34.913  63.760  1.00  0.00     0.003 C 
ATOM     21  C   UNL     1      98.977  33.668  65.622  1.00  0.00     0.085 C 
ATOM     22  C   UNL     1      98.618  34.287  62.637  1.00  0.00    -0.000 C 
ATOM     23  C   UNL     1     100.079  33.452  64.617  1.00  0.00     0.159 C 
ATOM     24  C   UNL     1      99.988  33.951  63.218  1.00  0.00     0.005 C 
ATOM     25  C   UNL     1      98.746  35.280  61.432  1.00  0.00     0.020 C 
ATOM     26  C   UNL     1      97.986  32.969  62.109  1.00  0.00     0.017 C 
ATOM     27  O   UNL     1     101.130  32.875  65.009  1.00  0.00    -0.295 OA
ATOM     28  C   UNL     1     101.094  33.991  62.450  1.00  0.00     0.055 C 
ATOM     29  C   UNL     1      99.779  34.839  60.389  1.00  0.00     0.081 C 
ATOM     30  C   UNL     1     101.063  34.436  61.046  1.00  0.00     0.156 C 
ATOM     31  O   UNL     1     102.129  34.441  60.377  1.00  0.00    -0.295 OA
ENDBRANCH   9  11
ENDBRANCH   8   9
ENDBRANCH   1   8
TORSDOF 6
ENDMDL
