MODEL 1
REMARK VINA RESULT:    -5.049      0.000      0.000
REMARK INTER + INTRA:         -11.015
REMARK INTER:                  -9.181
REMARK INTRA:                  -1.835
REMARK UNBOUND:                -1.835
REMARK SMILES CCCCCCCCCCCCCCCC(=O)[O-]
REMARK SMILES IDX 9 1 10 2 11 3 12 4 13 5 14 6 15 7 16 8 17 9 18 10 8 11 7 12
REMARK SMILES IDX 6 13 5 14 4 15 3 16 2 17 1 18
REMARK H PARENT
REMARK Flexibility Score: inf
ROOT
ATOM      1  C   UNL     1      -7.713   8.490 -10.075  1.00  0.00     0.000 C 
ENDROOT
BRANCH   1   2
ATOM      2  C   UNL     1      -6.688   7.339 -10.001  1.00  0.00     0.000 C 
BRANCH   2   3
ATOM      3  C   UNL     1      -6.891   6.456  -8.757  1.00  0.00     0.000 C 
BRANCH   3   4
ATOM      4  C   UNL     1      -8.106   6.888  -7.921  1.00  0.00     0.000 C 
BRANCH   4   5
ATOM      5  C   UNL     1      -9.236   5.845  -7.939  1.00  0.00     0.000 C 
BRANCH   5   6
ATOM      6  C   UNL     1      -9.737   5.526  -9.360  1.00  0.00     0.006 C 
BRANCH   6   7
ATOM      7  C   UNL     1     -10.145   4.056  -9.562  1.00  0.00     0.053 C 
BRANCH   7   8
ATOM      8  C   UNL     1      -9.129   3.094  -9.027  1.00  0.00     0.041 C 
ATOM      9  O   UNL     1      -7.932   3.153  -9.412  1.00  0.00    -0.550 OA
ATOM     10  O   UNL     1      -9.511   2.111  -8.122  1.00  0.00    -0.550 OA
ENDBRANCH   7   8
ENDBRANCH   6   7
ENDBRANCH   5   6
ENDBRANCH   4   5
ENDBRANCH   3   4
ENDBRANCH   2   3
ENDBRANCH   1   2
BRANCH   1  11
ATOM     11  C   UNL     1      -7.158   9.758 -10.746  1.00  0.00     0.000 C 
BRANCH  11  12
ATOM     12  C   UNL     1      -5.653   9.952 -10.500  1.00  0.00    -0.000 C 
BRANCH  12  13
ATOM     13  C   UNL     1      -5.348  11.152  -9.587  1.00  0.00    -0.000 C 
BRANCH  13  14
ATOM     14  C   UNL     1      -5.873  11.018  -8.143  1.00  0.00    -0.000 C 
BRANCH  14  15
ATOM     15  C   UNL     1      -5.500   9.704  -7.428  1.00  0.00    -0.000 C 
BRANCH  15  16
ATOM     16  C   UNL     1      -3.990   9.437  -7.304  1.00  0.00    -0.000 C 
BRANCH  16  17
ATOM     17  C   UNL     1      -3.597   8.023  -7.756  1.00  0.00    -0.003 C 
ATOM     18  C   UNL     1      -3.066   7.199  -6.585  1.00  0.00     0.004 C 
ENDBRANCH  16  17
ENDBRANCH  15  16
ENDBRANCH  14  15
ENDBRANCH  13  14
ENDBRANCH  12  13
ENDBRANCH  11  12
ENDBRANCH   1  11
TORSDOF 14
ENDMDL
MODEL 2
REMARK VINA RESULT:    -4.914      1.179      3.237
REMARK INTER + INTRA:         -10.770
REMARK INTER:                  -9.144
REMARK INTRA:                  -1.626
REMARK UNBOUND:                -1.835
REMARK SMILES CCCCCCCCCCCCCCCC(=O)[O-]
REMARK SMILES IDX 9 1 10 2 11 3 12 4 13 5 14 6 15 7 16 8 17 9 18 10 8 11 7 12
REMARK SMILES IDX 6 13 5 14 4 15 3 16 2 17 1 18
REMARK H PARENT
REMARK Flexibility Score: inf
ROOT
ATOM      1  C   UNL     1      -5.119   6.356  -7.203  1.00  0.00     0.000 C 
ENDROOT
BRANCH   1   2
ATOM      2  C   UNL     1      -5.337   5.878  -8.655  1.00  0.00     0.000 C 
BRANCH   2   3
ATOM      3  C   UNL     1      -6.418   6.697  -9.381  1.00  0.00     0.000 C 
BRANCH   3   4
ATOM      4  C   UNL     1      -7.740   6.754  -8.598  1.00  0.00     0.000 C 
BRANCH   4   5
ATOM      5  C   UNL     1      -8.965   6.894  -9.517  1.00  0.00     0.000 C 
BRANCH   5   6
ATOM      6  C   UNL     1      -9.857   5.639  -9.524  1.00  0.00     0.006 C 
BRANCH   6   7
ATOM      7  C   UNL     1      -9.156   4.372  -9.003  1.00  0.00     0.053 C 
BRANCH   7   8
ATOM      8  C   UNL     1      -9.904   3.118  -9.335  1.00  0.00     0.041 C 
ATOM      9  O   UNL     1     -10.812   3.131 -10.208  1.00  0.00    -0.550 OA
ATOM     10  O   UNL     1      -9.620   1.938  -8.660  1.00  0.00    -0.550 OA
ENDBRANCH   7   8
ENDBRANCH   6   7
ENDBRANCH   5   6
ENDBRANCH   4   5
ENDBRANCH   3   4
ENDBRANCH   2   3
ENDBRANCH   1   2
BRANCH   1  11
ATOM     11  C   UNL     1      -3.796   7.114  -7.004  1.00  0.00     0.000 C 
BRANCH  11  12
ATOM     12  C   UNL     1      -3.677   8.352  -7.908  1.00  0.00    -0.000 C 
BRANCH  12  13
ATOM     13  C   UNL     1      -4.251   9.623  -7.259  1.00  0.00    -0.000 C 
BRANCH  13  14
ATOM     14  C   UNL     1      -5.660  10.018  -7.742  1.00  0.00    -0.000 C 
BRANCH  14  15
ATOM     15  C   UNL     1      -5.700  10.873  -9.024  1.00  0.00    -0.000 C 
BRANCH  15  16
ATOM     16  C   UNL     1      -5.601  10.078 -10.338  1.00  0.00    -0.000 C 
BRANCH  16  17
ATOM     17  C   UNL     1      -6.966   9.869 -11.010  1.00  0.00    -0.003 C 
ATOM     18  C   UNL     1      -8.077  10.567 -10.231  1.00  0.00     0.004 C 
ENDBRANCH  16  17
ENDBRANCH  15  16
ENDBRANCH  14  15
ENDBRANCH  13  14
ENDBRANCH  12  13
ENDBRANCH  11  12
ENDBRANCH   1  11
TORSDOF 14
ENDMDL
MODEL 3
REMARK VINA RESULT:    -4.901      2.623      6.246
REMARK INTER + INTRA:         -10.748
REMARK INTER:                  -8.709
REMARK INTRA:                  -2.039
REMARK UNBOUND:                -1.835
REMARK SMILES CCCCCCCCCCCCCCCC(=O)[O-]
REMARK SMILES IDX 9 1 10 2 11 3 12 4 13 5 14 6 15 7 16 8 17 9 18 10 8 11 7 12
REMARK SMILES IDX 6 13 5 14 4 15 3 16 2 17 1 18
REMARK H PARENT
REMARK Flexibility Score: inf
ROOT
ATOM      1  C   UNL     1      -7.493   7.601  -9.883  1.00  0.00     0.000 C 
ENDROOT
BRANCH   1   2
ATOM      2  C   UNL     1      -6.586   8.234 -10.960  1.00  0.00     0.000 C 
BRANCH   2   3
ATOM      3  C   UNL     1      -6.874   9.733 -11.155  1.00  0.00     0.000 C 
BRANCH   3   4
ATOM      4  C   UNL     1      -7.471  10.387  -9.899  1.00  0.00     0.000 C 
BRANCH   4   5
ATOM      5  C   UNL     1      -6.489  11.351  -9.211  1.00  0.00     0.000 C 
BRANCH   5   6
ATOM      6  C   UNL     1      -5.108  10.719  -8.955  1.00  0.00     0.006 C 
BRANCH   6   7
ATOM      7  C   UNL     1      -5.051   9.832  -7.698  1.00  0.00     0.053 C 
BRANCH   7   8
ATOM      8  C   UNL     1      -3.881   8.898  -7.701  1.00  0.00     0.041 C 
ATOM      9  O   UNL     1      -3.002   8.976  -6.803  1.00  0.00    -0.550 OA
ATOM     10  O   UNL     1      -3.743   7.957  -8.714  1.00  0.00    -0.550 OA
ENDBRANCH   7   8
ENDBRANCH   6   7
ENDBRANCH   5   6
ENDBRANCH   4   5
ENDBRANCH   3   4
ENDBRANCH   2   3
ENDBRANCH   1   2
BRANCH   1  11
ATOM     11  C   UNL     1      -6.803   6.482  -9.086  1.00  0.00     0.000 C 
BRANCH  11  12
ATOM     12  C   UNL     1      -6.964   6.648  -7.566  1.00  0.00    -0.000 C 
BRANCH  12  13
ATOM     13  C   UNL     1      -8.363   7.143  -7.165  1.00  0.00    -0.000 C 
BRANCH  13  14
ATOM     14  C   UNL     1      -9.430   6.038  -7.034  1.00  0.00    -0.000 C 
BRANCH  14  15
ATOM     15  C   UNL     1     -10.538   6.064  -8.106  1.00  0.00    -0.000 C 
BRANCH  15  16
ATOM     16  C   UNL     1     -10.233   5.247  -9.375  1.00  0.00    -0.000 C 
BRANCH  16  17
ATOM     17  C   UNL     1     -10.070   3.747  -9.091  1.00  0.00    -0.003 C 
ATOM     18  C   UNL     1      -8.627   3.300  -9.305  1.00  0.00     0.004 C 
ENDBRANCH  16  17
ENDBRANCH  15  16
ENDBRANCH  14  15
ENDBRANCH  13  14
ENDBRANCH  12  13
ENDBRANCH  11  12
ENDBRANCH   1  11
TORSDOF 14
ENDMDL
MODEL 4
REMARK VINA RESULT:    -4.880      2.852      6.115
REMARK INTER + INTRA:         -10.709
REMARK INTER:                  -8.994
REMARK INTRA:                  -1.715
REMARK UNBOUND:                -1.835
REMARK SMILES CCCCCCCCCCCCCCCC(=O)[O-]
REMARK SMILES IDX 9 1 10 2 11 3 12 4 13 5 14 6 15 7 16 8 17 9 18 10 8 11 7 12
REMARK SMILES IDX 6 13 5 14 4 15 3 16 2 17 1 18
REMARK H PARENT
REMARK Flexibility Score: inf
ROOT
ATOM      1  C   UNL     1      -5.201   6.269  -7.683  1.00  0.00     0.000 C 
ENDROOT
BRANCH   1   2
ATOM      2  C   UNL     1      -4.354   7.425  -8.257  1.00  0.00     0.000 C 
BRANCH   2   3
ATOM      3  C   UNL     1      -3.635   8.223  -7.156  1.00  0.00     0.000 C 
BRANCH   3   4
ATOM      4  C   UNL     1      -4.023   9.710  -7.157  1.00  0.00     0.000 C 
BRANCH   4   5
ATOM      5  C   UNL     1      -5.466   9.944  -7.635  1.00  0.00     0.000 C 
BRANCH   5   6
ATOM      6  C   UNL     1      -5.557  10.937  -8.808  1.00  0.00     0.006 C 
BRANCH   6   7
ATOM      7  C   UNL     1      -5.427  10.280 -10.194  1.00  0.00     0.053 C 
BRANCH   7   8
ATOM      8  C   UNL     1      -6.751  10.060 -10.857  1.00  0.00     0.041 C 
ATOM      9  O   UNL     1      -6.815   9.481 -11.974  1.00  0.00    -0.550 OA
ATOM     10  O   UNL     1      -7.916  10.520 -10.256  1.00  0.00    -0.550 OA
ENDBRANCH   7   8
ENDBRANCH   6   7
ENDBRANCH   5   6
ENDBRANCH   4   5
ENDBRANCH   3   4
ENDBRANCH   2   3
ENDBRANCH   1   2
BRANCH   1  11
ATOM     11  C   UNL     1      -6.257   5.739  -8.668  1.00  0.00     0.000 C 
BRANCH  11  12
ATOM     12  C   UNL     1      -6.932   6.860  -9.476  1.00  0.00    -0.000 C 
BRANCH  12  13
ATOM     13  C   UNL     1      -8.461   6.878  -9.308  1.00  0.00    -0.000 C 
BRANCH  13  14
ATOM     14  C   UNL     1      -9.111   5.491  -9.135  1.00  0.00    -0.000 C 
BRANCH  14  15
ATOM     15  C   UNL     1     -10.486   5.492  -8.437  1.00  0.00    -0.000 C 
BRANCH  15  16
ATOM     16  C   UNL     1     -10.534   6.247  -7.098  1.00  0.00    -0.000 C 
BRANCH  16  17
ATOM     17  C   UNL     1      -9.809   5.501  -5.968  1.00  0.00    -0.003 C 
ATOM     18  C   UNL     1      -8.788   6.402  -5.280  1.00  0.00     0.004 C 
ENDBRANCH  16  17
ENDBRANCH  15  16
ENDBRANCH  14  15
ENDBRANCH  13  14
ENDBRANCH  12  13
ENDBRANCH  11  12
ENDBRANCH   1  11
TORSDOF 14
ENDMDL
MODEL 5
REMARK VINA RESULT:    -4.869     12.918     15.462
REMARK INTER + INTRA:         -10.689
REMARK INTER:                  -8.580
REMARK INTRA:                  -2.108
REMARK UNBOUND:                -1.835
REMARK SMILES CCCCCCCCCCCCCCCC(=O)[O-]
REMARK SMILES IDX 9 1 10 2 11 3 12 4 13 5 14 6 15 7 16 8 17 9 18 10 8 11 7 12
REMARK SMILES IDX 6 13 5 14 4 15 3 16 2 17 1 18
REMARK H PARENT
REMARK Flexibility Score: inf
ROOT
ATOM      1  C   UNL     1       5.834  10.925 -15.868  1.00  0.00     0.000 C 
ENDROOT
BRANCH   1   2
ATOM      2  C   UNL     1       6.092  10.734 -14.358  1.00  0.00     0.000 C 
BRANCH   2   3
ATOM      3  C   UNL     1       4.983  11.359 -13.493  1.00  0.00     0.000 C 
BRANCH   3   4
ATOM      4  C   UNL     1       5.322  12.788 -13.043  1.00  0.00     0.000 C 
BRANCH   4   5
ATOM      5  C   UNL     1       6.837  13.031 -12.937  1.00  0.00     0.000 C 
BRANCH   5   6
ATOM      6  C   UNL     1       7.363  12.923 -11.494  1.00  0.00     0.006 C 
BRANCH   6   7
ATOM      7  C   UNL     1       8.596  12.014 -11.345  1.00  0.00     0.053 C 
BRANCH   7   8
ATOM      8  C   UNL     1       8.261  10.676 -10.761  1.00  0.00     0.041 C 
ATOM      9  O   UNL     1       8.275  10.505  -9.513  1.00  0.00    -0.550 OA
ATOM     10  O   UNL     1       7.963   9.606 -11.596  1.00  0.00    -0.550 OA
ENDBRANCH   7   8
ENDBRANCH   6   7
ENDBRANCH   5   6
ENDBRANCH   4   5
ENDBRANCH   3   4
ENDBRANCH   2   3
ENDBRANCH   1   2
BRANCH   1  11
ATOM     11  C   UNL     1       6.697  12.031 -16.499  1.00  0.00     0.000 C 
BRANCH  11  12
ATOM     12  C   UNL     1       5.874  13.028 -17.329  1.00  0.00    -0.000 C 
BRANCH  12  13
ATOM     13  C   UNL     1       5.395  14.237 -16.506  1.00  0.00    -0.000 C 
BRANCH  13  14
ATOM     14  C   UNL     1       3.873  14.299 -16.270  1.00  0.00    -0.000 C 
BRANCH  14  15
ATOM     15  C   UNL     1       3.072  13.104 -16.827  1.00  0.00    -0.000 C 
BRANCH  15  16
ATOM     16  C   UNL     1       2.368  12.243 -15.764  1.00  0.00    -0.000 C 
BRANCH  16  17
ATOM     17  C   UNL     1       1.304  11.311 -16.363  1.00  0.00    -0.003 C 
ATOM     18  C   UNL     1       1.893   9.941 -16.688  1.00  0.00     0.004 C 
ENDBRANCH  16  17
ENDBRANCH  15  16
ENDBRANCH  14  15
ENDBRANCH  13  14
ENDBRANCH  12  13
ENDBRANCH  11  12
ENDBRANCH   1  11
TORSDOF 14
ENDMDL
MODEL 6
REMARK VINA RESULT:    -4.845      1.983      3.743
REMARK INTER + INTRA:         -10.645
REMARK INTER:                  -8.999
REMARK INTRA:                  -1.646
REMARK UNBOUND:                -1.835
REMARK SMILES CCCCCCCCCCCCCCCC(=O)[O-]
REMARK SMILES IDX 9 1 10 2 11 3 12 4 13 5 14 6 15 7 16 8 17 9 18 10 8 11 7 12
REMARK SMILES IDX 6 13 5 14 4 15 3 16 2 17 1 18
REMARK H PARENT
REMARK Flexibility Score: inf
ROOT
ATOM      1  C   UNL     1      -5.259   6.884  -7.415  1.00  0.00     0.000 C 
ENDROOT
BRANCH   1   2
ATOM      2  C   UNL     1      -5.646   6.358  -8.814  1.00  0.00     0.000 C 
BRANCH   2   3
ATOM      3  C   UNL     1      -7.059   5.752  -8.838  1.00  0.00     0.000 C 
BRANCH   3   4
ATOM      4  C   UNL     1      -8.068   6.638  -9.586  1.00  0.00     0.000 C 
BRANCH   4   5
ATOM      5  C   UNL     1      -9.510   6.112  -9.477  1.00  0.00     0.000 C 
BRANCH   5   6
ATOM      6  C   UNL     1      -9.736   5.234  -8.233  1.00  0.00     0.006 C 
BRANCH   6   7
ATOM      7  C   UNL     1     -10.400   5.975  -7.058  1.00  0.00     0.053 C 
BRANCH   7   8
ATOM      8  C   UNL     1      -9.557   5.973  -5.821  1.00  0.00     0.041 C 
ATOM      9  O   UNL     1      -8.553   6.729  -5.734  1.00  0.00    -0.550 OA
ATOM     10  O   UNL     1      -9.859   5.113  -4.773  1.00  0.00    -0.550 OA
ENDBRANCH   7   8
ENDBRANCH   6   7
ENDBRANCH   5   6
ENDBRANCH   4   5
ENDBRANCH   3   4
ENDBRANCH   2   3
ENDBRANCH   1   2
BRANCH   1  11
ATOM     11  C   UNL     1      -3.817   7.414  -7.340  1.00  0.00     0.000 C 
BRANCH  11  12
ATOM     12  C   UNL     1      -3.752   8.946  -7.226  1.00  0.00    -0.000 C 
BRANCH  12  13
ATOM     13  C   UNL     1      -5.041   9.635  -7.705  1.00  0.00    -0.000 C 
BRANCH  13  14
ATOM     14  C   UNL     1      -4.822  10.924  -8.522  1.00  0.00    -0.000 C 
BRANCH  14  15
ATOM     15  C   UNL     1      -5.154  10.814 -10.024  1.00  0.00    -0.000 C 
BRANCH  15  16
ATOM     16  C   UNL     1      -5.828   9.497 -10.446  1.00  0.00    -0.000 C 
BRANCH  16  17
ATOM     17  C   UNL     1      -7.112   9.719 -11.258  1.00  0.00    -0.003 C 
ATOM     18  C   UNL     1      -8.243  10.231 -10.370  1.00  0.00     0.004 C 
ENDBRANCH  16  17
ENDBRANCH  15  16
ENDBRANCH  14  15
ENDBRANCH  13  14
ENDBRANCH  12  13
ENDBRANCH  11  12
ENDBRANCH   1  11
TORSDOF 14
ENDMDL
MODEL 7
REMARK VINA RESULT:    -4.809      2.787      6.467
REMARK INTER + INTRA:         -10.580
REMARK INTER:                  -9.067
REMARK INTRA:                  -1.513
REMARK UNBOUND:                -1.835
REMARK SMILES CCCCCCCCCCCCCCCC(=O)[O-]
REMARK SMILES IDX 9 1 10 2 11 3 12 4 13 5 14 6 15 7 16 8 17 9 18 10 8 11 7 12
REMARK SMILES IDX 6 13 5 14 4 15 3 16 2 17 1 18
REMARK H PARENT
REMARK Flexibility Score: inf
ROOT
ATOM      1  C   UNL     1      -5.682   6.490  -7.460  1.00  0.00     0.000 C 
ENDROOT
BRANCH   1   2
ATOM      2  C   UNL     1      -4.295   6.241  -6.830  1.00  0.00     0.000 C 
BRANCH   2   3
ATOM      3  C   UNL     1      -3.419   7.506  -6.829  1.00  0.00     0.000 C 
BRANCH   3   4
ATOM      4  C   UNL     1      -3.799   8.486  -7.951  1.00  0.00     0.000 C 
BRANCH   4   5
ATOM      5  C   UNL     1      -4.365   9.810  -7.412  1.00  0.00     0.000 C 
BRANCH   5   6
ATOM      6  C   UNL     1      -5.694  10.210  -8.079  1.00  0.00     0.006 C 
BRANCH   6   7
ATOM      7  C   UNL     1      -5.566  10.541  -9.577  1.00  0.00     0.053 C 
BRANCH   7   8
ATOM      8  C   UNL     1      -6.886  10.538 -10.285  1.00  0.00     0.041 C 
ATOM      9  O   UNL     1      -7.873  11.147  -9.795  1.00  0.00    -0.550 OA
ATOM     10  O   UNL     1      -7.035   9.835 -11.474  1.00  0.00    -0.550 OA
ENDBRANCH   7   8
ENDBRANCH   6   7
ENDBRANCH   5   6
ENDBRANCH   4   5
ENDBRANCH   3   4
ENDBRANCH   2   3
ENDBRANCH   1   2
BRANCH   1  11
ATOM     11  C   UNL     1      -5.819   5.915  -8.880  1.00  0.00     0.000 C 
BRANCH  11  12
ATOM     12  C   UNL     1      -6.643   6.819  -9.811  1.00  0.00    -0.000 C 
BRANCH  12  13
ATOM     13  C   UNL     1      -7.956   7.298  -9.169  1.00  0.00    -0.000 C 
BRANCH  13  14
ATOM     14  C   UNL     1      -9.164   6.366  -9.391  1.00  0.00    -0.000 C 
BRANCH  14  15
ATOM     15  C   UNL     1      -9.866   5.882  -8.107  1.00  0.00    -0.000 C 
BRANCH  15  16
ATOM     16  C   UNL     1     -10.124   4.367  -8.040  1.00  0.00    -0.000 C 
BRANCH  16  17
ATOM     17  C   UNL     1      -9.810   3.651  -9.361  1.00  0.00    -0.003 C 
ATOM     18  C   UNL     1     -11.085   3.369 -10.152  1.00  0.00     0.004 C 
ENDBRANCH  16  17
ENDBRANCH  15  16
ENDBRANCH  14  15
ENDBRANCH  13  14
ENDBRANCH  12  13
ENDBRANCH  11  12
ENDBRANCH   1  11
TORSDOF 14
ENDMDL
MODEL 8
REMARK VINA RESULT:    -4.765     12.096     14.421
REMARK INTER + INTRA:         -10.499
REMARK INTER:                  -8.677
REMARK INTRA:                  -1.822
REMARK UNBOUND:                -1.835
REMARK SMILES CCCCCCCCCCCCCCCC(=O)[O-]
REMARK SMILES IDX 9 1 10 2 11 3 12 4 13 5 14 6 15 7 16 8 17 9 18 10 8 11 7 12
REMARK SMILES IDX 6 13 5 14 4 15 3 16 2 17 1 18
REMARK H PARENT
REMARK Flexibility Score: inf
ROOT
ATOM      1  C   UNL     1       5.607  14.502 -16.262  1.00  0.00     0.000 C 
ENDROOT
BRANCH   1   2
ATOM      2  C   UNL     1       4.253  14.990 -16.821  1.00  0.00     0.000 C 
BRANCH   2   3
ATOM      3  C   UNL     1       3.794  14.166 -18.036  1.00  0.00     0.000 C 
BRANCH   3   4
ATOM      4  C   UNL     1       2.514  13.363 -17.754  1.00  0.00     0.000 C 
BRANCH   4   5
ATOM      5  C   UNL     1       2.145  13.345 -16.261  1.00  0.00     0.000 C 
BRANCH   5   6
ATOM      6  C   UNL     1       0.742  12.769 -15.996  1.00  0.00     0.006 C 
BRANCH   6   7
ATOM      7  C   UNL     1       0.663  11.864 -14.754  1.00  0.00     0.053 C 
BRANCH   7   8
ATOM      8  C   UNL     1       1.487  10.621 -14.889  1.00  0.00     0.041 C 
ATOM      9  O   UNL     1       2.598  10.526 -14.302  1.00  0.00    -0.550 OA
ATOM     10  O   UNL     1       1.044   9.576 -15.690  1.00  0.00    -0.550 OA
ENDBRANCH   7   8
ENDBRANCH   6   7
ENDBRANCH   5   6
ENDBRANCH   4   5
ENDBRANCH   3   4
ENDBRANCH   2   3
ENDBRANCH   1   2
BRANCH   1  11
ATOM     11  C   UNL     1       6.484  13.803 -17.315  1.00  0.00     0.000 C 
BRANCH  11  12
ATOM     12  C   UNL     1       6.824  12.352 -16.938  1.00  0.00    -0.000 C 
BRANCH  12  13
ATOM     13  C   UNL     1       5.677  11.645 -16.194  1.00  0.00    -0.000 C 
BRANCH  13  14
ATOM     14  C   UNL     1       6.098  10.404 -15.383  1.00  0.00    -0.000 C 
BRANCH  14  15
ATOM     15  C   UNL     1       6.010  10.559 -13.851  1.00  0.00    -0.000 C 
BRANCH  15  16
ATOM     16  C   UNL     1       5.730  11.989 -13.359  1.00  0.00    -0.000 C 
BRANCH  16  17
ATOM     17  C   UNL     1       6.890  12.574 -12.539  1.00  0.00    -0.003 C 
ATOM     18  C   UNL     1       7.370  13.896 -13.130  1.00  0.00     0.004 C 
ENDBRANCH  16  17
ENDBRANCH  15  16
ENDBRANCH  14  15
ENDBRANCH  13  14
ENDBRANCH  12  13
ENDBRANCH  11  12
ENDBRANCH   1  11
TORSDOF 14
ENDMDL
MODEL 9
REMARK VINA RESULT:    -4.735     11.894     14.559
REMARK INTER + INTRA:         -10.444
REMARK INTER:                  -8.205
REMARK INTRA:                  -2.239
REMARK UNBOUND:                -1.835
REMARK SMILES CCCCCCCCCCCCCCCC(=O)[O-]
REMARK SMILES IDX 9 1 10 2 11 3 12 4 13 5 14 6 15 7 16 8 17 9 18 10 8 11 7 12
REMARK SMILES IDX 6 13 5 14 4 15 3 16 2 17 1 18
REMARK H PARENT
REMARK Flexibility Score: inf
ROOT
ATOM      1  C   UNL     1       3.380  13.847 -16.682  1.00  0.00     0.000 C 
ENDROOT
BRANCH   1   2
ATOM      2  C   UNL     1       4.534  14.813 -17.029  1.00  0.00     0.000 C 
BRANCH   2   3
ATOM      3  C   UNL     1       5.913  14.212 -16.705  1.00  0.00     0.000 C 
BRANCH   3   4
ATOM      4  C   UNL     1       6.088  12.796 -17.277  1.00  0.00     0.000 C 
BRANCH   4   5
ATOM      5  C   UNL     1       6.532  11.780 -16.212  1.00  0.00     0.000 C 
BRANCH   5   6
ATOM      6  C   UNL     1       5.360  10.968 -15.631  1.00  0.00     0.006 C 
BRANCH   6   7
ATOM      7  C   UNL     1       5.355  10.893 -14.093  1.00  0.00     0.053 C 
BRANCH   7   8
ATOM      8  C   UNL     1       5.526  12.233 -13.447  1.00  0.00     0.041 C 
ATOM      9  O   UNL     1       4.615  13.099 -13.528  1.00  0.00    -0.550 OA
ATOM     10  O   UNL     1       6.705  12.539 -12.780  1.00  0.00    -0.550 OA
ENDBRANCH   7   8
ENDBRANCH   6   7
ENDBRANCH   5   6
ENDBRANCH   4   5
ENDBRANCH   3   4
ENDBRANCH   2   3
ENDBRANCH   1   2
BRANCH   1  11
ATOM     11  C   UNL     1       2.590  13.374 -17.914  1.00  0.00     0.000 C 
BRANCH  11  12
ATOM     12  C   UNL     1       1.080  13.267 -17.646  1.00  0.00    -0.000 C 
BRANCH  12  13
ATOM     13  C   UNL     1       0.683  13.781 -16.252  1.00  0.00    -0.000 C 
BRANCH  13  14
ATOM     14  C   UNL     1      -0.179  12.807 -15.423  1.00  0.00    -0.000 C 
BRANCH  14  15
ATOM     15  C   UNL     1       0.538  12.151 -14.226  1.00  0.00    -0.000 C 
BRANCH  15  16
ATOM     16  C   UNL     1       1.697  11.210 -14.600  1.00  0.00    -0.000 C 
BRANCH  16  17
ATOM     17  C   UNL     1       1.219   9.918 -15.280  1.00  0.00    -0.003 C 
ATOM     18  C   UNL     1       1.795   9.792 -16.687  1.00  0.00     0.004 C 
ENDBRANCH  16  17
ENDBRANCH  15  16
ENDBRANCH  14  15
ENDBRANCH  13  14
ENDBRANCH  12  13
ENDBRANCH  11  12
ENDBRANCH   1  11
TORSDOF 14
ENDMDL
