MODEL 1
REMARK VINA RESULT:    -6.114      0.000      0.000
REMARK INTER + INTRA:         -10.970
REMARK INTER:                 -10.403
REMARK INTRA:                  -0.567
REMARK UNBOUND:                -0.567
REMARK SMILES CCCCCCCCCCCCCC(=O)[O-]
REMARK SMILES IDX 8 1 9 2 10 3 11 4 12 5 13 6 14 7 15 8 16 9 7 10 6 11 5 12
REMARK SMILES IDX 4 13 3 14 2 15 1 16
REMARK H PARENT
REMARK Flexibility Score: inf
ROOT
ATOM      1  C   UNL     1      94.031  -7.934  -3.024  1.00  0.00     0.000 C 
ENDROOT
BRANCH   1   2
ATOM      2  C   UNL     1      94.614  -8.088  -4.434  1.00  0.00     0.000 C 
BRANCH   2   3
ATOM      3  C   UNL     1      95.566  -6.930  -4.765  1.00  0.00     0.000 C 
BRANCH   3   4
ATOM      4  C   UNL     1      95.795  -6.765  -6.276  1.00  0.00     0.000 C 
BRANCH   4   5
ATOM      5  C   UNL     1      96.358  -5.384  -6.643  1.00  0.00     0.006 C 
BRANCH   5   6
ATOM      6  C   UNL     1      96.974  -4.701  -5.418  1.00  0.00     0.053 C 
BRANCH   6   7
ATOM      7  C   UNL     1      96.895  -3.213  -5.552  1.00  0.00     0.041 C 
ATOM      8  O   UNL     1      95.962  -2.685  -6.211  1.00  0.00    -0.550 OA
ATOM      9  O   UNL     1      97.881  -2.413  -4.990  1.00  0.00    -0.550 OA
ENDBRANCH   6   7
ENDBRANCH   5   6
ENDBRANCH   4   5
ENDBRANCH   3   4
ENDBRANCH   2   3
ENDBRANCH   1   2
BRANCH   1  10
ATOM     10  C   UNL     1      92.941  -8.979  -2.760  1.00  0.00     0.000 C 
BRANCH  10  11
ATOM     11  C   UNL     1      91.922  -9.015  -3.909  1.00  0.00    -0.000 C 
BRANCH  11  12
ATOM     12  C   UNL     1      90.505  -8.636  -3.455  1.00  0.00    -0.000 C 
BRANCH  12  13
ATOM     13  C   UNL     1      89.483  -8.683  -4.605  1.00  0.00    -0.000 C 
BRANCH  13  14
ATOM     14  C   UNL     1      89.571  -7.453  -5.523  1.00  0.00    -0.000 C 
BRANCH  14  15
ATOM     15  C   UNL     1      88.739  -6.270  -5.006  1.00  0.00    -0.003 C 
ATOM     16  C   UNL     1      88.670  -5.153  -6.042  1.00  0.00     0.004 C 
ENDBRANCH  14  15
ENDBRANCH  13  14
ENDBRANCH  12  13
ENDBRANCH  11  12
ENDBRANCH  10  11
ENDBRANCH   1  10
TORSDOF 12
ENDMDL
MODEL 2
REMARK VINA RESULT:    -6.037     12.467     13.827
REMARK INTER + INTRA:         -10.839
REMARK INTER:                  -9.585
REMARK INTRA:                  -1.254
REMARK UNBOUND:                -0.567
REMARK SMILES CCCCCCCCCCCCCC(=O)[O-]
REMARK SMILES IDX 8 1 9 2 10 3 11 4 12 5 13 6 14 7 15 8 16 9 7 10 6 11 5 12
REMARK SMILES IDX 4 13 3 14 2 15 1 16
REMARK H PARENT
REMARK Flexibility Score: inf
ROOT
ATOM      1  C   UNL     1      92.265  -2.282   7.511  1.00  0.00     0.000 C 
ENDROOT
BRANCH   1   2
ATOM      2  C   UNL     1      93.569  -2.999   7.882  1.00  0.00     0.000 C 
BRANCH   2   3
ATOM      3  C   UNL     1      93.310  -4.120   8.899  1.00  0.00     0.000 C 
BRANCH   3   4
ATOM      4  C   UNL     1      94.119  -3.944  10.193  1.00  0.00     0.000 C 
BRANCH   4   5
ATOM      5  C   UNL     1      95.261  -4.963  10.321  1.00  0.00     0.006 C 
BRANCH   5   6
ATOM      6  C   UNL     1      96.488  -4.330  10.984  1.00  0.00     0.053 C 
BRANCH   6   7
ATOM      7  C   UNL     1      96.908  -3.100  10.244  1.00  0.00     0.041 C 
ATOM      8  O   UNL     1      96.920  -1.984  10.826  1.00  0.00    -0.550 OA
ATOM      9  O   UNL     1      97.239  -3.178   8.897  1.00  0.00    -0.550 OA
ENDBRANCH   6   7
ENDBRANCH   5   6
ENDBRANCH   4   5
ENDBRANCH   3   4
ENDBRANCH   2   3
ENDBRANCH   1   2
BRANCH   1  10
ATOM     10  C   UNL     1      92.453  -1.400   6.271  1.00  0.00     0.000 C 
BRANCH  10  11
ATOM     11  C   UNL     1      91.286  -1.576   5.287  1.00  0.00    -0.000 C 
BRANCH  11  12
ATOM     12  C   UNL     1      89.940  -1.784   5.998  1.00  0.00    -0.000 C 
BRANCH  12  13
ATOM     13  C   UNL     1      89.290  -3.135   5.649  1.00  0.00    -0.000 C 
BRANCH  13  14
ATOM     14  C   UNL     1      90.213  -4.035   4.813  1.00  0.00    -0.000 C 
BRANCH  14  15
ATOM     15  C   UNL     1      90.681  -5.278   5.584  1.00  0.00    -0.003 C 
ATOM     16  C   UNL     1      90.045  -5.337   6.970  1.00  0.00     0.004 C 
ENDBRANCH  14  15
ENDBRANCH  13  14
ENDBRANCH  12  13
ENDBRANCH  11  12
ENDBRANCH  10  11
ENDBRANCH   1  10
TORSDOF 12
ENDMDL
MODEL 3
REMARK VINA RESULT:    -5.985     13.782     15.640
REMARK INTER + INTRA:         -10.750
REMARK INTER:                  -9.455
REMARK INTRA:                  -1.295
REMARK UNBOUND:                -0.567
REMARK SMILES CCCCCCCCCCCCCC(=O)[O-]
REMARK SMILES IDX 8 1 9 2 10 3 11 4 12 5 13 6 14 7 15 8 16 9 7 10 6 11 5 12
REMARK SMILES IDX 4 13 3 14 2 15 1 16
REMARK H PARENT
REMARK Flexibility Score: inf
ROOT
ATOM      1  C   UNL     1      82.990  -0.188   0.692  1.00  0.00     0.000 C 
ENDROOT
BRANCH   1   2
ATOM      2  C   UNL     1      82.890   0.947  -0.335  1.00  0.00     0.000 C 
BRANCH   2   3
ATOM      3  C   UNL     1      81.660   1.826  -0.063  1.00  0.00     0.000 C 
BRANCH   3   4
ATOM      4  C   UNL     1      81.940   2.934   0.965  1.00  0.00     0.000 C 
BRANCH   4   5
ATOM      5  C   UNL     1      81.028   2.843   2.198  1.00  0.00     0.006 C 
BRANCH   5   6
ATOM      6  C   UNL     1      81.780   2.249   3.393  1.00  0.00     0.053 C 
BRANCH   6   7
ATOM      7  C   UNL     1      81.905   3.260   4.488  1.00  0.00     0.041 C 
ATOM      8  O   UNL     1      82.723   4.211   4.383  1.00  0.00    -0.550 OA
ATOM      9  O   UNL     1      81.154   3.123   5.649  1.00  0.00    -0.550 OA
ENDBRANCH   6   7
ENDBRANCH   5   6
ENDBRANCH   4   5
ENDBRANCH   3   4
ENDBRANCH   2   3
ENDBRANCH   1   2
BRANCH   1  10
ATOM     10  C   UNL     1      81.688  -0.996   0.749  1.00  0.00     0.000 C 
BRANCH  10  11
ATOM     11  C   UNL     1      81.788  -2.262  -0.116  1.00  0.00    -0.000 C 
BRANCH  11  12
ATOM     12  C   UNL     1      81.668  -3.553   0.709  1.00  0.00    -0.000 C 
BRANCH  12  13
ATOM     13  C   UNL     1      81.016  -3.318   2.084  1.00  0.00    -0.000 C 
BRANCH  13  14
ATOM     14  C   UNL     1      82.005  -3.509   3.245  1.00  0.00    -0.000 C 
BRANCH  14  15
ATOM     15  C   UNL     1      83.448  -3.721   2.762  1.00  0.00    -0.003 C 
ATOM     16  C   UNL     1      84.362  -2.604   3.255  1.00  0.00     0.004 C 
ENDBRANCH  14  15
ENDBRANCH  13  14
ENDBRANCH  12  13
ENDBRANCH  11  12
ENDBRANCH  10  11
ENDBRANCH   1  10
TORSDOF 12
ENDMDL
MODEL 4
REMARK VINA RESULT:    -5.968     12.838     14.739
REMARK INTER + INTRA:         -10.722
REMARK INTER:                  -9.091
REMARK INTRA:                  -1.631
REMARK UNBOUND:                -0.567
REMARK SMILES CCCCCCCCCCCCCC(=O)[O-]
REMARK SMILES IDX 8 1 9 2 10 3 11 4 12 5 13 6 14 7 15 8 16 9 7 10 6 11 5 12
REMARK SMILES IDX 4 13 3 14 2 15 1 16
REMARK H PARENT
REMARK Flexibility Score: inf
ROOT
ATOM      1  C   UNL     1      94.075  -4.935   9.950  1.00  0.00     0.000 C 
ENDROOT
BRANCH   1   2
ATOM      2  C   UNL     1      93.548  -3.567   9.501  1.00  0.00     0.000 C 
BRANCH   2   3
ATOM      3  C   UNL     1      93.307  -3.542   7.985  1.00  0.00     0.000 C 
BRANCH   3   4
ATOM      4  C   UNL     1      93.820  -2.252   7.325  1.00  0.00     0.000 C 
BRANCH   4   5
ATOM      5  C   UNL     1      92.709  -1.473   6.604  1.00  0.00     0.006 C 
BRANCH   5   6
ATOM      6  C   UNL     1      91.406  -2.278   6.576  1.00  0.00     0.053 C 
BRANCH   6   7
ATOM      7  C   UNL     1      90.400  -1.617   5.687  1.00  0.00     0.041 C 
ATOM      8  O   UNL     1      90.779  -0.941   4.695  1.00  0.00    -0.550 OA
ATOM      9  O   UNL     1      89.047  -1.707   5.983  1.00  0.00    -0.550 OA
ENDBRANCH   6   7
ENDBRANCH   5   6
ENDBRANCH   4   5
ENDBRANCH   3   4
ENDBRANCH   2   3
ENDBRANCH   1   2
BRANCH   1  10
ATOM     10  C   UNL     1      95.284  -4.782  10.881  1.00  0.00     0.000 C 
BRANCH  10  11
ATOM     11  C   UNL     1      95.517  -3.307  11.242  1.00  0.00    -0.000 C 
BRANCH  11  12
ATOM     12  C   UNL     1      96.886  -2.792  10.773  1.00  0.00    -0.000 C 
BRANCH  12  13
ATOM     13  C   UNL     1      97.416  -3.556   9.545  1.00  0.00    -0.000 C 
BRANCH  13  14
ATOM     14  C   UNL     1      97.411  -2.697   8.270  1.00  0.00    -0.000 C 
BRANCH  14  15
ATOM     15  C   UNL     1      97.500  -3.542   6.991  1.00  0.00    -0.003 C 
ATOM     16  C   UNL     1      96.676  -4.821   7.118  1.00  0.00     0.004 C 
ENDBRANCH  14  15
ENDBRANCH  13  14
ENDBRANCH  12  13
ENDBRANCH  11  12
ENDBRANCH  10  11
ENDBRANCH   1  10
TORSDOF 12
ENDMDL
MODEL 5
REMARK VINA RESULT:    -5.962     12.397     14.200
REMARK INTER + INTRA:         -10.712
REMARK INTER:                  -9.218
REMARK INTRA:                  -1.493
REMARK UNBOUND:                -0.567
REMARK SMILES CCCCCCCCCCCCCC(=O)[O-]
REMARK SMILES IDX 8 1 9 2 10 3 11 4 12 5 13 6 14 7 15 8 16 9 7 10 6 11 5 12
REMARK SMILES IDX 4 13 3 14 2 15 1 16
REMARK H PARENT
REMARK Flexibility Score: inf
ROOT
ATOM      1  C   UNL     1      95.974  -2.603   7.126  1.00  0.00     0.000 C 
ENDROOT
BRANCH   1   2
ATOM      2  C   UNL     1      96.822  -3.871   7.284  1.00  0.00     0.000 C 
BRANCH   2   3
ATOM      3  C   UNL     1      98.262  -3.631   6.808  1.00  0.00     0.000 C 
BRANCH   3   4
ATOM      4  C   UNL     1      99.130  -4.897   6.885  1.00  0.00     0.000 C 
BRANCH   4   5
ATOM      5  C   UNL     1      99.018  -5.770   5.626  1.00  0.00     0.006 C 
BRANCH   5   6
ATOM      6  C   UNL     1      98.925  -7.253   5.994  1.00  0.00     0.053 C 
BRANCH   6   7
ATOM      7  C   UNL     1      97.610  -7.821   5.560  1.00  0.00     0.041 C 
ATOM      8  O   UNL     1      96.648  -7.056   5.291  1.00  0.00    -0.550 OA
ATOM      9  O   UNL     1      97.434  -9.197   5.502  1.00  0.00    -0.550 OA
ENDBRANCH   6   7
ENDBRANCH   5   6
ENDBRANCH   4   5
ENDBRANCH   3   4
ENDBRANCH   2   3
ENDBRANCH   1   2
BRANCH   1  10
ATOM     10  C   UNL     1      94.671  -2.708   7.928  1.00  0.00     0.000 C 
BRANCH  10  11
ATOM     11  C   UNL     1      94.416  -4.155   8.377  1.00  0.00    -0.000 C 
BRANCH  11  12
ATOM     12  C   UNL     1      93.960  -4.249   9.841  1.00  0.00    -0.000 C 
BRANCH  12  13
ATOM     13  C   UNL     1      94.902  -5.112  10.700  1.00  0.00    -0.000 C 
BRANCH  13  14
ATOM     14  C   UNL     1      96.298  -4.488  10.853  1.00  0.00    -0.000 C 
BRANCH  14  15
ATOM     15  C   UNL     1      96.246  -3.057  11.411  1.00  0.00    -0.003 C 
ATOM     16  C   UNL     1      97.177  -2.131  10.634  1.00  0.00     0.004 C 
ENDBRANCH  14  15
ENDBRANCH  13  14
ENDBRANCH  12  13
ENDBRANCH  11  12
ENDBRANCH  10  11
ENDBRANCH   1  10
TORSDOF 12
ENDMDL
MODEL 6
REMARK VINA RESULT:    -5.959     12.671     14.834
REMARK INTER + INTRA:         -10.706
REMARK INTER:                  -9.506
REMARK INTRA:                  -1.199
REMARK UNBOUND:                -0.567
REMARK SMILES CCCCCCCCCCCCCC(=O)[O-]
REMARK SMILES IDX 8 1 9 2 10 3 11 4 12 5 13 6 14 7 15 8 16 9 7 10 6 11 5 12
REMARK SMILES IDX 4 13 3 14 2 15 1 16
REMARK H PARENT
REMARK Flexibility Score: inf
ROOT
ATOM      1  C   UNL     1      95.919  -3.449  11.020  1.00  0.00     0.000 C 
ENDROOT
BRANCH   1   2
ATOM      2  C   UNL     1      95.580  -4.820  10.422  1.00  0.00     0.000 C 
BRANCH   2   3
ATOM      3  C   UNL     1      94.077  -4.937  10.133  1.00  0.00     0.000 C 
BRANCH   3   4
ATOM      4  C   UNL     1      93.486  -3.647   9.540  1.00  0.00     0.000 C 
BRANCH   4   5
ATOM      5  C   UNL     1      93.584  -3.601   8.007  1.00  0.00     0.006 C 
BRANCH   5   6
ATOM      6  C   UNL     1      92.704  -2.486   7.436  1.00  0.00     0.053 C 
BRANCH   6   7
ATOM      7  C   UNL     1      91.502  -3.062   6.755  1.00  0.00     0.041 C 
ATOM      8  O   UNL     1      91.306  -4.305   6.762  1.00  0.00    -0.550 OA
ATOM      9  O   UNL     1      90.626  -2.229   6.071  1.00  0.00    -0.550 OA
ENDBRANCH   6   7
ENDBRANCH   5   6
ENDBRANCH   4   5
ENDBRANCH   3   4
ENDBRANCH   2   3
ENDBRANCH   1   2
BRANCH   1  10
ATOM     10  C   UNL     1      96.936  -2.703  10.147  1.00  0.00     0.000 C 
BRANCH  10  11
ATOM     11  C   UNL     1      97.315  -3.534   8.912  1.00  0.00    -0.000 C 
BRANCH  11  12
ATOM     12  C   UNL     1      97.006  -2.808   7.594  1.00  0.00    -0.000 C 
BRANCH  12  13
ATOM     13  C   UNL     1      98.269  -2.548   6.752  1.00  0.00    -0.000 C 
BRANCH  13  14
ATOM     14  C   UNL     1      99.283  -3.699   6.839  1.00  0.00    -0.000 C 
BRANCH  14  15
ATOM     15  C   UNL     1      99.375  -4.504   5.534  1.00  0.00    -0.003 C 
ATOM     16  C   UNL     1      98.625  -5.827   5.650  1.00  0.00     0.004 C 
ENDBRANCH  14  15
ENDBRANCH  13  14
ENDBRANCH  12  13
ENDBRANCH  11  12
ENDBRANCH  10  11
ENDBRANCH   1  10
TORSDOF 12
ENDMDL
MODEL 7
REMARK VINA RESULT:    -5.943     11.851     13.127
REMARK INTER + INTRA:         -10.680
REMARK INTER:                  -9.390
REMARK INTRA:                  -1.289
REMARK UNBOUND:                -0.567
REMARK SMILES CCCCCCCCCCCCCC(=O)[O-]
REMARK SMILES IDX 8 1 9 2 10 3 11 4 12 5 13 6 14 7 15 8 16 9 7 10 6 11 5 12
REMARK SMILES IDX 4 13 3 14 2 15 1 16
REMARK H PARENT
REMARK Flexibility Score: inf
ROOT
ATOM      1  C   UNL     1      83.971  -3.332   2.610  1.00  0.00     0.000 C 
ENDROOT
BRANCH   1   2
ATOM      2  C   UNL     1      85.161  -2.624   3.270  1.00  0.00     0.000 C 
BRANCH   2   3
ATOM      3  C   UNL     1      86.358  -2.551   2.311  1.00  0.00     0.000 C 
BRANCH   3   4
ATOM      4  C   UNL     1      87.659  -2.139   3.017  1.00  0.00     0.000 C 
BRANCH   4   5
ATOM      5  C   UNL     1      87.896  -2.915   4.321  1.00  0.00     0.006 C 
BRANCH   5   6
ATOM      6  C   UNL     1      88.187  -1.960   5.482  1.00  0.00     0.053 C 
BRANCH   6   7
ATOM      7  C   UNL     1      86.951  -1.725   6.291  1.00  0.00     0.041 C 
ATOM      8  O   UNL     1      86.600  -0.553   6.585  1.00  0.00    -0.550 OA
ATOM      9  O   UNL     1      86.214  -2.804   6.762  1.00  0.00    -0.550 OA
ENDBRANCH   6   7
ENDBRANCH   5   6
ENDBRANCH   4   5
ENDBRANCH   3   4
ENDBRANCH   2   3
ENDBRANCH   1   2
BRANCH   1  10
ATOM     10  C   UNL     1      82.774  -3.404   3.565  1.00  0.00     0.000 C 
BRANCH  10  11
ATOM     11  C   UNL     1      81.470  -3.664   2.795  1.00  0.00    -0.000 C 
BRANCH  11  12
ATOM     12  C   UNL     1      81.715  -4.018   1.320  1.00  0.00    -0.000 C 
BRANCH  12  13
ATOM     13  C   UNL     1      81.003  -3.053   0.354  1.00  0.00    -0.000 C 
BRANCH  13  14
ATOM     14  C   UNL     1      81.966  -2.038  -0.282  1.00  0.00    -0.000 C 
BRANCH  14  15
ATOM     15  C   UNL     1      82.042  -0.723   0.507  1.00  0.00    -0.003 C 
ATOM     16  C   UNL     1      83.488  -0.272   0.686  1.00  0.00     0.004 C 
ENDBRANCH  14  15
ENDBRANCH  13  14
ENDBRANCH  12  13
ENDBRANCH  11  12
ENDBRANCH  10  11
ENDBRANCH   1  10
TORSDOF 12
ENDMDL
MODEL 8
REMARK VINA RESULT:    -5.936     12.234     14.042
REMARK INTER + INTRA:         -10.667
REMARK INTER:                  -9.518
REMARK INTRA:                  -1.150
REMARK UNBOUND:                -0.567
REMARK SMILES CCCCCCCCCCCCCC(=O)[O-]
REMARK SMILES IDX 8 1 9 2 10 3 11 4 12 5 13 6 14 7 15 8 16 9 7 10 6 11 5 12
REMARK SMILES IDX 4 13 3 14 2 15 1 16
REMARK H PARENT
REMARK Flexibility Score: inf
ROOT
ATOM      1  C   UNL     1      97.510  -3.042   6.770  1.00  0.00     0.000 C 
ENDROOT
BRANCH   1   2
ATOM      2  C   UNL     1      98.996  -2.930   7.133  1.00  0.00     0.000 C 
BRANCH   2   3
ATOM      3  C   UNL     1      99.761  -4.193   6.712  1.00  0.00     0.000 C 
BRANCH   3   4
ATOM      4  C   UNL     1      99.094  -4.924   5.536  1.00  0.00     0.000 C 
BRANCH   4   5
ATOM      5  C   UNL     1      98.836  -6.409   5.832  1.00  0.00     0.006 C 
BRANCH   5   6
ATOM      6  C   UNL     1      97.354  -6.752   5.659  1.00  0.00     0.053 C 
BRANCH   6   7
ATOM      7  C   UNL     1      97.193  -7.977   4.815  1.00  0.00     0.041 C 
ATOM      8  O   UNL     1      97.063  -9.106   5.356  1.00  0.00    -0.550 OA
ATOM      9  O   UNL     1      97.238  -7.877   3.431  1.00  0.00    -0.550 OA
ENDBRANCH   6   7
ENDBRANCH   5   6
ENDBRANCH   4   5
ENDBRANCH   3   4
ENDBRANCH   2   3
ENDBRANCH   1   2
BRANCH   1  10
ATOM     10  C   UNL     1      96.631  -3.007   8.026  1.00  0.00     0.000 C 
BRANCH  10  11
ATOM     11  C   UNL     1      97.437  -2.539   9.248  1.00  0.00    -0.000 C 
BRANCH  11  12
ATOM     12  C   UNL     1      96.753  -2.891  10.578  1.00  0.00    -0.000 C 
BRANCH  12  13
ATOM     13  C   UNL     1      96.751  -4.405  10.859  1.00  0.00    -0.000 C 
BRANCH  13  14
ATOM     14  C   UNL     1      95.335  -5.002  10.863  1.00  0.00    -0.000 C 
BRANCH  14  15
ATOM     15  C   UNL     1      94.254  -3.958  10.550  1.00  0.00    -0.003 C 
ATOM     16  C   UNL     1      93.454  -4.349   9.310  1.00  0.00     0.004 C 
ENDBRANCH  14  15
ENDBRANCH  13  14
ENDBRANCH  12  13
ENDBRANCH  11  12
ENDBRANCH  10  11
ENDBRANCH   1  10
TORSDOF 12
ENDMDL
MODEL 9
REMARK VINA RESULT:    -5.887     12.533     14.533
REMARK INTER + INTRA:         -10.584
REMARK INTER:                  -9.121
REMARK INTRA:                  -1.463
REMARK UNBOUND:                -0.567
REMARK SMILES CCCCCCCCCCCCCC(=O)[O-]
REMARK SMILES IDX 8 1 9 2 10 3 11 4 12 5 13 6 14 7 15 8 16 9 7 10 6 11 5 12
REMARK SMILES IDX 4 13 3 14 2 15 1 16
REMARK H PARENT
REMARK Flexibility Score: inf
ROOT
ATOM      1  C   UNL     1      93.133  -4.566   9.387  1.00  0.00     0.000 C 
ENDROOT
BRANCH   1   2
ATOM      2  C   UNL     1      93.116  -4.107   7.924  1.00  0.00     0.000 C 
BRANCH   2   3
ATOM      3  C   UNL     1      93.204  -2.576   7.828  1.00  0.00     0.000 C 
BRANCH   3   4
ATOM      4  C   UNL     1      92.207  -1.988   6.817  1.00  0.00     0.000 C 
BRANCH   4   5
ATOM      5  C   UNL     1      91.099  -2.980   6.433  1.00  0.00     0.006 C 
BRANCH   5   6
ATOM      6  C   UNL     1      89.947  -2.265   5.721  1.00  0.00     0.053 C 
BRANCH   6   7
ATOM      7  C   UNL     1      89.295  -3.177   4.730  1.00  0.00     0.041 C 
ATOM      8  O   UNL     1      89.961  -4.090   4.175  1.00  0.00    -0.550 OA
ATOM      9  O   UNL     1      87.964  -2.987   4.382  1.00  0.00    -0.550 OA
ENDBRANCH   6   7
ENDBRANCH   5   6
ENDBRANCH   4   5
ENDBRANCH   3   4
ENDBRANCH   2   3
ENDBRANCH   1   2
BRANCH   1  10
ATOM     10  C   UNL     1      94.139  -3.753  10.209  1.00  0.00     0.000 C 
BRANCH  10  11
ATOM     11  C   UNL     1      95.259  -4.652  10.755  1.00  0.00    -0.000 C 
BRANCH  11  12
ATOM     12  C   UNL     1      96.601  -3.916  10.881  1.00  0.00    -0.000 C 
BRANCH  12  13
ATOM     13  C   UNL     1      96.654  -2.633  10.032  1.00  0.00    -0.000 C 
BRANCH  13  14
ATOM     14  C   UNL     1      97.563  -2.778   8.801  1.00  0.00    -0.000 C 
BRANCH  14  15
ATOM     15  C   UNL     1      96.771  -3.052   7.513  1.00  0.00    -0.003 C 
ATOM     16  C   UNL     1      96.724  -4.545   7.204  1.00  0.00     0.004 C 
ENDBRANCH  14  15
ENDBRANCH  13  14
ENDBRANCH  12  13
ENDBRANCH  11  12
ENDBRANCH  10  11
ENDBRANCH   1  10
TORSDOF 12
ENDMDL
