MODEL 1
REMARK VINA RESULT:    -4.662      0.000      0.000
REMARK INTER + INTRA:          -5.781
REMARK INTER:                  -5.480
REMARK INTRA:                  -0.301
REMARK UNBOUND:                -0.301
REMARK SMILES O=c1cc(-c2ccc(O)c(O)c2)oc2cc(O)cc(O)c12
REMARK SMILES IDX 4 1 3 2 2 3 1 4 21 5 19 6 18 7 16 8 15 9 14 10 13 11 5 12
REMARK SMILES IDX 6 13 7 14 8 15 12 16 10 17 9 18 11 20 20 22 17 24
REMARK H PARENT 9 19 11 21 20 23 17 25
REMARK Flexibility Score: inf
ROOT
ATOM      1  C   UNL     1      24.175  45.749  86.252  1.00  0.00     0.138 A 
ATOM      2  C   UNL     1      25.230  46.265  87.017  1.00  0.00     0.100 A 
ATOM      3  C   UNL     1      25.080  47.496  87.658  1.00  0.00     0.197 A 
ATOM      4  O   UNL     1      26.066  47.963  88.286  1.00  0.00    -0.289 OA
ATOM      5  C   UNL     1      23.855  48.197  87.557  1.00  0.00     0.107 A 
ATOM      6  C   UNL     1      23.574  49.439  88.201  1.00  0.00     0.134 A 
ATOM      7  C   UNL     1      22.367  50.097  87.936  1.00  0.00     0.093 A 
ATOM      8  C   UNL     1      21.407  49.531  87.097  1.00  0.00     0.123 A 
ATOM      9  C   UNL     1      21.648  48.290  86.504  1.00  0.00     0.094 A 
ATOM     10  C   UNL     1      22.857  47.625  86.723  1.00  0.00     0.146 A 
ATOM     11  O   UNL     1      23.054  46.453  86.129  1.00  0.00    -0.456 OA
ENDROOT
BRANCH   1  12
ATOM     12  C   UNL     1      24.280  44.445  85.550  1.00  0.00     0.021 A 
ATOM     13  C   UNL     1      25.497  43.996  85.001  1.00  0.00     0.016 A 
ATOM     14  C   UNL     1      25.569  42.760  84.354  1.00  0.00     0.051 A 
ATOM     15  C   UNL     1      24.433  41.949  84.250  1.00  0.00     0.157 A 
ATOM     16  C   UNL     1      23.147  43.617  85.452  1.00  0.00     0.062 A 
ATOM     17  C   UNL     1      23.220  42.378  84.802  1.00  0.00     0.158 A 
BRANCH  15  18
ATOM     18  O   UNL     1      24.502  40.715  83.604  1.00  0.00    -0.504 OA
ATOM     19  H   UNL     1      25.016  39.938  84.002  1.00  0.00     0.293 HD
ENDBRANCH  15  18
BRANCH  17  20
ATOM     20  O   UNL     1      22.091  41.566  84.701  1.00  0.00    -0.504 OA
ATOM     21  H   UNL     1      21.889  40.851  85.389  1.00  0.00     0.293 HD
ENDBRANCH  17  20
ENDBRANCH   1  12
BRANCH   6  22
ATOM     22  O   UNL     1      24.428  50.051  89.124  1.00  0.00    -0.507 OA
ATOM     23  H   UNL     1      24.225  50.907  89.617  1.00  0.00     0.293 HD
ENDBRANCH   6  22
BRANCH   8  24
ATOM     24  O   UNL     1      20.211  50.207  86.867  1.00  0.00    -0.508 OA
ATOM     25  H   UNL     1      19.646  50.020  86.047  1.00  0.00     0.293 HD
ENDBRANCH   8  24
TORSDOF 5
ENDMDL
MODEL 2
REMARK VINA RESULT:    -4.641      2.231      2.860
REMARK INTER + INTRA:          -5.756
REMARK INTER:                  -5.488
REMARK INTRA:                  -0.268
REMARK UNBOUND:                -0.301
REMARK SMILES O=c1cc(-c2ccc(O)c(O)c2)oc2cc(O)cc(O)c12
REMARK SMILES IDX 4 1 3 2 2 3 1 4 21 5 19 6 18 7 16 8 15 9 14 10 13 11 5 12
REMARK SMILES IDX 6 13 7 14 8 15 12 16 10 17 9 18 11 20 20 22 17 24
REMARK H PARENT 9 19 11 21 20 23 17 25
REMARK Flexibility Score: inf
ROOT
ATOM      1  C   UNL     1      25.258  44.515  86.102  1.00  0.00     0.138 A 
ATOM      2  C   UNL     1      26.375  44.233  86.900  1.00  0.00     0.100 A 
ATOM      3  C   UNL     1      27.031  45.272  87.563  1.00  0.00     0.197 A 
ATOM      4  O   UNL     1      28.067  44.997  88.221  1.00  0.00    -0.289 OA
ATOM      5  C   UNL     1      26.542  46.596  87.451  1.00  0.00     0.107 A 
ATOM      6  C   UNL     1      27.104  47.727  88.114  1.00  0.00     0.134 A 
ATOM      7  C   UNL     1      26.608  49.007  87.838  1.00  0.00     0.093 A 
ATOM      8  C   UNL     1      25.533  49.191  86.968  1.00  0.00     0.123 A 
ATOM      9  C   UNL     1      24.941  48.085  86.354  1.00  0.00     0.094 A 
ATOM     10  C   UNL     1      25.435  46.799  86.584  1.00  0.00     0.146 A 
ATOM     11  O   UNL     1      24.853  45.774  85.970  1.00  0.00    -0.456 OA
ENDROOT
BRANCH   1  12
ATOM     12  C   UNL     1      24.524  43.449  85.375  1.00  0.00     0.021 A 
ATOM     13  C   UNL     1      25.087  42.784  84.269  1.00  0.00     0.016 A 
ATOM     14  C   UNL     1      24.377  41.778  83.610  1.00  0.00     0.051 A 
ATOM     15  C   UNL     1      23.098  41.413  84.047  1.00  0.00     0.157 A 
ATOM     16  C   UNL     1      23.243  43.066  85.815  1.00  0.00     0.062 A 
ATOM     17  C   UNL     1      22.531  42.057  85.153  1.00  0.00     0.158 A 
BRANCH  15  18
ATOM     18  O   UNL     1      22.387  40.409  83.391  1.00  0.00    -0.504 OA
ATOM     19  H   UNL     1      22.331  40.375  82.380  1.00  0.00     0.293 HD
ENDBRANCH  15  18
BRANCH  17  20
ATOM     20  O   UNL     1      21.259  41.688  85.588  1.00  0.00    -0.504 OA
ATOM     21  H   UNL     1      20.952  41.865  86.537  1.00  0.00     0.293 HD
ENDBRANCH  17  20
ENDBRANCH   1  12
BRANCH   6  22
ATOM     22  O   UNL     1      28.124  47.648  89.067  1.00  0.00    -0.507 OA
ATOM     23  H   UNL     1      28.989  48.166  89.031  1.00  0.00     0.293 HD
ENDBRANCH   6  22
BRANCH   8  24
ATOM     24  O   UNL     1      25.056  50.477  86.726  1.00  0.00    -0.508 OA
ATOM     25  H   UNL     1      25.265  50.967  85.865  1.00  0.00     0.293 HD
ENDBRANCH   8  24
TORSDOF 5
ENDMDL
MODEL 3
REMARK VINA RESULT:    -4.554      1.800      6.696
REMARK INTER + INTRA:          -5.654
REMARK INTER:                  -5.385
REMARK INTRA:                  -0.269
REMARK UNBOUND:                -0.301
REMARK SMILES O=c1cc(-c2ccc(O)c(O)c2)oc2cc(O)cc(O)c12
REMARK SMILES IDX 4 1 3 2 2 3 1 4 21 5 19 6 18 7 16 8 15 9 14 10 13 11 5 12
REMARK SMILES IDX 6 13 7 14 8 15 12 16 10 17 9 18 11 20 20 22 17 24
REMARK H PARENT 9 19 11 21 20 23 17 25
REMARK Flexibility Score: inf
ROOT
ATOM      1  C   UNL     1      23.416  47.210  86.683  1.00  0.00     0.138 A 
ATOM      2  C   UNL     1      24.632  47.882  86.503  1.00  0.00     0.100 A 
ATOM      3  C   UNL     1      25.714  47.213  85.928  1.00  0.00     0.197 A 
ATOM      4  O   UNL     1      26.810  47.822  85.836  1.00  0.00    -0.289 OA
ATOM      5  C   UNL     1      25.563  45.871  85.502  1.00  0.00     0.107 A 
ATOM      6  C   UNL     1      26.582  45.102  84.866  1.00  0.00     0.134 A 
ATOM      7  C   UNL     1      26.356  43.747  84.592  1.00  0.00     0.093 A 
ATOM      8  C   UNL     1      25.129  43.149  84.878  1.00  0.00     0.123 A 
ATOM      9  C   UNL     1      24.106  43.907  85.451  1.00  0.00     0.094 A 
ATOM     10  C   UNL     1      24.312  45.252  85.766  1.00  0.00     0.146 A 
ATOM     11  O   UNL     1      23.318  45.934  86.324  1.00  0.00    -0.456 OA
ENDROOT
BRANCH   1  12
ATOM     12  C   UNL     1      22.234  47.874  87.288  1.00  0.00     0.021 A 
ATOM     13  C   UNL     1      21.583  47.341  88.418  1.00  0.00     0.016 A 
ATOM     14  C   UNL     1      20.478  47.992  88.972  1.00  0.00     0.051 A 
ATOM     15  C   UNL     1      20.011  49.189  88.417  1.00  0.00     0.157 A 
ATOM     16  C   UNL     1      21.766  49.084  86.745  1.00  0.00     0.062 A 
ATOM     17  C   UNL     1      20.657  49.737  87.302  1.00  0.00     0.158 A 
BRANCH  15  18
ATOM     18  O   UNL     1      18.909  49.842  88.968  1.00  0.00    -0.504 OA
ATOM     19  H   UNL     1      18.610  49.663  89.919  1.00  0.00     0.293 HD
ENDBRANCH  15  18
BRANCH  17  20
ATOM     20  O   UNL     1      20.192  50.931  86.754  1.00  0.00    -0.504 OA
ATOM     21  H   UNL     1      20.683  51.394  85.998  1.00  0.00     0.293 HD
ENDBRANCH  17  20
ENDBRANCH   1  12
BRANCH   6  22
ATOM     22  O   UNL     1      27.816  45.622  84.460  1.00  0.00    -0.507 OA
ATOM     23  H   UNL     1      27.967  46.568  84.144  1.00  0.00     0.293 HD
ENDBRANCH   6  22
BRANCH   8  24
ATOM     24  O   UNL     1      24.934  41.803  84.579  1.00  0.00    -0.508 OA
ATOM     25  H   UNL     1      25.497  41.078  85.007  1.00  0.00     0.293 HD
ENDBRANCH   8  24
TORSDOF 5
ENDMDL
MODEL 4
REMARK VINA RESULT:    -4.507      1.447      2.178
REMARK INTER + INTRA:          -5.598
REMARK INTER:                  -5.327
REMARK INTRA:                  -0.272
REMARK UNBOUND:                -0.301
REMARK SMILES O=c1cc(-c2ccc(O)c(O)c2)oc2cc(O)cc(O)c12
REMARK SMILES IDX 4 1 3 2 2 3 1 4 21 5 19 6 18 7 16 8 15 9 14 10 13 11 5 12
REMARK SMILES IDX 6 13 7 14 8 15 12 16 10 17 9 18 11 20 20 22 17 24
REMARK H PARENT 9 19 11 21 20 23 17 25
REMARK Flexibility Score: inf
ROOT
ATOM      1  C   UNL     1      23.920  47.171  86.729  1.00  0.00     0.138 A 
ATOM      2  C   UNL     1      24.937  47.942  87.309  1.00  0.00     0.100 A 
ATOM      3  C   UNL     1      24.647  49.222  87.785  1.00  0.00     0.197 A 
ATOM      4  O   UNL     1      25.592  49.914  88.243  1.00  0.00    -0.289 OA
ATOM      5  C   UNL     1      23.323  49.717  87.707  1.00  0.00     0.107 A 
ATOM      6  C   UNL     1      22.902  50.990  88.197  1.00  0.00     0.134 A 
ATOM      7  C   UNL     1      21.591  51.422  87.961  1.00  0.00     0.093 A 
ATOM      8  C   UNL     1      20.670  50.604  87.307  1.00  0.00     0.123 A 
ATOM      9  C   UNL     1      21.056  49.335  86.871  1.00  0.00     0.094 A 
ATOM     10  C   UNL     1      22.366  48.890  87.061  1.00  0.00     0.146 A 
ATOM     11  O   UNL     1      22.698  47.681  86.619  1.00  0.00    -0.456 OA
ENDROOT
BRANCH   1  12
ATOM     12  C   UNL     1      24.173  45.804  86.208  1.00  0.00     0.021 A 
ATOM     13  C   UNL     1      23.339  44.719  86.541  1.00  0.00     0.016 A 
ATOM     14  C   UNL     1      23.596  43.445  86.029  1.00  0.00     0.051 A 
ATOM     15  C   UNL     1      24.680  43.233  85.170  1.00  0.00     0.157 A 
ATOM     16  C   UNL     1      25.253  45.584  85.334  1.00  0.00     0.062 A 
ATOM     17  C   UNL     1      25.510  44.305  84.820  1.00  0.00     0.158 A 
BRANCH  15  18
ATOM     18  O   UNL     1      24.939  41.963  84.658  1.00  0.00    -0.504 OA
ATOM     19  H   UNL     1      24.222  41.247  84.632  1.00  0.00     0.293 HD
ENDBRANCH  15  18
BRANCH  17  20
ATOM     20  O   UNL     1      26.587  44.093  83.962  1.00  0.00    -0.504 OA
ATOM     21  H   UNL     1      27.524  44.395  84.201  1.00  0.00     0.293 HD
ENDBRANCH  17  20
ENDBRANCH   1  12
BRANCH   6  22
ATOM     22  O   UNL     1      23.718  51.851  88.938  1.00  0.00    -0.507 OA
ATOM     23  H   UNL     1      23.471  52.254  89.829  1.00  0.00     0.293 HD
ENDBRANCH   6  22
BRANCH   8  24
ATOM     24  O   UNL     1      19.370  51.060  87.102  1.00  0.00    -0.508 OA
ATOM     25  H   UNL     1      19.138  52.044  87.156  1.00  0.00     0.293 HD
ENDBRANCH   8  24
TORSDOF 5
ENDMDL
MODEL 5
REMARK VINA RESULT:    -4.456      2.320      3.472
REMARK INTER + INTRA:          -5.539
REMARK INTER:                  -5.267
REMARK INTRA:                  -0.272
REMARK UNBOUND:                -0.301
REMARK SMILES O=c1cc(-c2ccc(O)c(O)c2)oc2cc(O)cc(O)c12
REMARK SMILES IDX 4 1 3 2 2 3 1 4 21 5 19 6 18 7 16 8 15 9 14 10 13 11 5 12
REMARK SMILES IDX 6 13 7 14 8 15 12 16 10 17 9 18 11 20 20 22 17 24
REMARK H PARENT 9 19 11 21 20 23 17 25
REMARK Flexibility Score: inf
ROOT
ATOM      1  C   UNL     1      24.365  45.230  86.379  1.00  0.00     0.138 A 
ATOM      2  C   UNL     1      25.531  45.032  85.626  1.00  0.00     0.100 A 
ATOM      3  C   UNL     1      26.369  46.115  85.353  1.00  0.00     0.197 A 
ATOM      4  O   UNL     1      27.375  45.918  84.623  1.00  0.00    -0.289 OA
ATOM      5  C   UNL     1      26.052  47.396  85.866  1.00  0.00     0.107 A 
ATOM      6  C   UNL     1      26.854  48.563  85.686  1.00  0.00     0.134 A 
ATOM      7  C   UNL     1      26.382  49.800  86.141  1.00  0.00     0.093 A 
ATOM      8  C   UNL     1      25.168  49.904  86.819  1.00  0.00     0.123 A 
ATOM      9  C   UNL     1      24.401  48.760  87.047  1.00  0.00     0.094 A 
ATOM     10  C   UNL     1      24.829  47.516  86.577  1.00  0.00     0.146 A 
ATOM     11  O   UNL     1      24.063  46.454  86.802  1.00  0.00    -0.456 OA
ENDROOT
BRANCH   1  12
ATOM     12  C   UNL     1      23.440  44.115  86.699  1.00  0.00     0.021 A 
ATOM     13  C   UNL     1      22.962  43.902  88.007  1.00  0.00     0.016 A 
ATOM     14  C   UNL     1      22.084  42.849  88.278  1.00  0.00     0.051 A 
ATOM     15  C   UNL     1      21.661  41.999  87.250  1.00  0.00     0.157 A 
ATOM     16  C   UNL     1      22.999  43.263  85.670  1.00  0.00     0.062 A 
ATOM     17  C   UNL     1      22.118  42.207  85.944  1.00  0.00     0.158 A 
BRANCH  15  18
ATOM     18  O   UNL     1      20.786  40.948  87.518  1.00  0.00    -0.504 OA
ATOM     19  H   UNL     1      20.599  40.227  86.831  1.00  0.00     0.293 HD
ENDBRANCH  15  18
BRANCH  17  20
ATOM     20  O   UNL     1      21.692  41.361  84.921  1.00  0.00    -0.504 OA
ATOM     21  H   UNL     1      22.292  40.635  84.549  1.00  0.00     0.293 HD
ENDBRANCH  17  20
ENDBRANCH   1  12
BRANCH   6  22
ATOM     22  O   UNL     1      28.122  48.557  85.097  1.00  0.00    -0.507 OA
ATOM     23  H   UNL     1      28.734  47.757  85.054  1.00  0.00     0.293 HD
ENDBRANCH   6  22
BRANCH   8  24
ATOM     24  O   UNL     1      24.736  51.150  87.270  1.00  0.00    -0.508 OA
ATOM     25  H   UNL     1      24.146  51.744  86.701  1.00  0.00     0.293 HD
ENDBRANCH   8  24
TORSDOF 5
ENDMDL
MODEL 6
REMARK VINA RESULT:    -4.424      2.036      3.007
REMARK INTER + INTRA:          -5.502
REMARK INTER:                  -5.209
REMARK INTRA:                  -0.293
REMARK UNBOUND:                -0.301
REMARK SMILES O=c1cc(-c2ccc(O)c(O)c2)oc2cc(O)cc(O)c12
REMARK SMILES IDX 4 1 3 2 2 3 1 4 21 5 19 6 18 7 16 8 15 9 14 10 13 11 5 12
REMARK SMILES IDX 6 13 7 14 8 15 12 16 10 17 9 18 11 20 20 22 17 24
REMARK H PARENT 9 19 11 21 20 23 17 25
REMARK Flexibility Score: inf
ROOT
ATOM      1  C   UNL     1      24.042  44.805  86.114  1.00  0.00     0.138 A 
ATOM      2  C   UNL     1      23.227  45.180  87.191  1.00  0.00     0.100 A 
ATOM      3  C   UNL     1      23.513  46.347  87.902  1.00  0.00     0.197 A 
ATOM      4  O   UNL     1      22.802  46.624  88.901  1.00  0.00    -0.289 OA
ATOM      5  C   UNL     1      24.605  47.158  87.510  1.00  0.00     0.107 A 
ATOM      6  C   UNL     1      24.967  48.389  88.133  1.00  0.00     0.134 A 
ATOM      7  C   UNL     1      26.136  49.048  87.734  1.00  0.00     0.093 A 
ATOM      8  C   UNL     1      26.923  48.553  86.695  1.00  0.00     0.123 A 
ATOM      9  C   UNL     1      26.549  47.377  86.041  1.00  0.00     0.094 A 
ATOM     10  C   UNL     1      25.407  46.679  86.439  1.00  0.00     0.146 A 
ATOM     11  O   UNL     1      25.093  45.557  85.801  1.00  0.00    -0.456 OA
ENDROOT
BRANCH   1  12
ATOM     12  C   UNL     1      23.782  43.576  85.324  1.00  0.00     0.021 A 
ATOM     13  C   UNL     1      24.748  43.040  84.451  1.00  0.00     0.016 A 
ATOM     14  C   UNL     1      24.480  41.876  83.726  1.00  0.00     0.051 A 
ATOM     15  C   UNL     1      23.249  41.224  83.866  1.00  0.00     0.157 A 
ATOM     16  C   UNL     1      22.553  42.907  85.468  1.00  0.00     0.062 A 
ATOM     17  C   UNL     1      22.284  41.739  84.739  1.00  0.00     0.158 A 
BRANCH  15  18
ATOM     18  O   UNL     1      22.978  40.062  83.144  1.00  0.00    -0.504 OA
ATOM     19  H   UNL     1      22.969  39.152  83.589  1.00  0.00     0.293 HD
ENDBRANCH  15  18
BRANCH  17  20
ATOM     20  O   UNL     1      21.061  41.086  84.880  1.00  0.00    -0.504 OA
ATOM     21  H   UNL     1      20.618  40.979  85.784  1.00  0.00     0.293 HD
ENDBRANCH  17  20
ENDBRANCH   1  12
BRANCH   6  22
ATOM     22  O   UNL     1      24.205  49.017  89.124  1.00  0.00    -0.507 OA
ATOM     23  H   UNL     1      23.231  49.262  89.034  1.00  0.00     0.293 HD
ENDBRANCH   6  22
BRANCH   8  24
ATOM     24  O   UNL     1      28.072  49.242  86.314  1.00  0.00    -0.508 OA
ATOM     25  H   UNL     1      28.997  48.881  86.511  1.00  0.00     0.293 HD
ENDBRANCH   8  24
TORSDOF 5
ENDMDL
MODEL 7
REMARK VINA RESULT:    -4.375      2.185      3.036
REMARK INTER + INTRA:          -5.444
REMARK INTER:                  -5.126
REMARK INTRA:                  -0.318
REMARK UNBOUND:                -0.301
REMARK SMILES O=c1cc(-c2ccc(O)c(O)c2)oc2cc(O)cc(O)c12
REMARK SMILES IDX 4 1 3 2 2 3 1 4 21 5 19 6 18 7 16 8 15 9 14 10 13 11 5 12
REMARK SMILES IDX 6 13 7 14 8 15 12 16 10 17 9 18 11 20 20 22 17 24
REMARK H PARENT 9 19 11 21 20 23 17 25
REMARK Flexibility Score: inf
ROOT
ATOM      1  C   UNL     1      24.448  48.552  86.684  1.00  0.00     0.138 A 
ATOM      2  C   UNL     1      25.146  49.635  87.234  1.00  0.00     0.100 A 
ATOM      3  C   UNL     1      24.439  50.711  87.774  1.00  0.00     0.197 A 
ATOM      4  O   UNL     1      25.093  51.696  88.204  1.00  0.00    -0.289 OA
ATOM      5  C   UNL     1      23.024  50.685  87.790  1.00  0.00     0.107 A 
ATOM      6  C   UNL     1      22.199  51.705  88.351  1.00  0.00     0.134 A 
ATOM      7  C   UNL     1      20.809  51.627  88.206  1.00  0.00     0.093 A 
ATOM      8  C   UNL     1      20.211  50.537  87.574  1.00  0.00     0.123 A 
ATOM      9  C   UNL     1      21.005  49.506  87.069  1.00  0.00     0.094 A 
ATOM     10  C   UNL     1      22.397  49.572  87.168  1.00  0.00     0.146 A 
ATOM     11  O   UNL     1      23.119  48.577  86.663  1.00  0.00    -0.456 OA
ENDROOT
BRANCH   1  12
ATOM     12  C   UNL     1      25.149  47.382  86.098  1.00  0.00     0.021 A 
ATOM     13  C   UNL     1      26.555  47.309  86.052  1.00  0.00     0.016 A 
ATOM     14  C   UNL     1      27.189  46.192  85.503  1.00  0.00     0.051 A 
ATOM     15  C   UNL     1      26.433  45.127  84.999  1.00  0.00     0.157 A 
ATOM     16  C   UNL     1      24.398  46.301  85.601  1.00  0.00     0.062 A 
ATOM     17  C   UNL     1      25.035  45.180  85.050  1.00  0.00     0.158 A 
BRANCH  15  18
ATOM     18  O   UNL     1      27.063  44.010  84.450  1.00  0.00    -0.504 OA
ATOM     19  H   UNL     1      28.033  44.040  84.159  1.00  0.00     0.293 HD
ENDBRANCH  15  18
BRANCH  17  20
ATOM     20  O   UNL     1      24.285  44.117  84.552  1.00  0.00    -0.504 OA
ATOM     21  H   UNL     1      24.726  43.308  84.131  1.00  0.00     0.293 HD
ENDBRANCH  17  20
ENDBRANCH   1  12
BRANCH   6  22
ATOM     22  O   UNL     1      22.690  52.795  89.077  1.00  0.00    -0.507 OA
ATOM     23  H   UNL     1      22.489  53.762  88.871  1.00  0.00     0.293 HD
ENDBRANCH   6  22
BRANCH   8  24
ATOM     24  O   UNL     1      18.823  50.484  87.460  1.00  0.00    -0.508 OA
ATOM     25  H   UNL     1      18.230  51.187  87.883  1.00  0.00     0.293 HD
ENDBRANCH   8  24
TORSDOF 5
ENDMDL
MODEL 8
REMARK VINA RESULT:    -4.320      1.513      2.301
REMARK INTER + INTRA:          -5.378
REMARK INTER:                  -5.095
REMARK INTRA:                  -0.283
REMARK UNBOUND:                -0.301
REMARK SMILES O=c1cc(-c2ccc(O)c(O)c2)oc2cc(O)cc(O)c12
REMARK SMILES IDX 4 1 3 2 2 3 1 4 21 5 19 6 18 7 16 8 15 9 14 10 13 11 5 12
REMARK SMILES IDX 6 13 7 14 8 15 12 16 10 17 9 18 11 20 20 22 17 24
REMARK H PARENT 9 19 11 21 20 23 17 25
REMARK Flexibility Score: inf
ROOT
ATOM      1  C   UNL     1      23.856  45.447  86.280  1.00  0.00     0.138 A 
ATOM      2  C   UNL     1      22.973  45.587  87.359  1.00  0.00     0.100 A 
ATOM      3  C   UNL     1      22.878  46.813  88.019  1.00  0.00     0.197 A 
ATOM      4  O   UNL     1      22.125  46.892  89.023  1.00  0.00    -0.289 OA
ATOM      5  C   UNL     1      23.650  47.913  87.573  1.00  0.00     0.107 A 
ATOM      6  C   UNL     1      23.605  49.221  88.142  1.00  0.00     0.134 A 
ATOM      7  C   UNL     1      24.498  50.201  87.692  1.00  0.00     0.093 A 
ATOM      8  C   UNL     1      25.393  49.939  86.655  1.00  0.00     0.123 A 
ATOM      9  C   UNL     1      25.408  48.678  86.054  1.00  0.00     0.094 A 
ATOM     10  C   UNL     1      24.553  47.670  86.503  1.00  0.00     0.146 A 
ATOM     11  O   UNL     1      24.608  46.480  85.915  1.00  0.00    -0.456 OA
ENDROOT
BRANCH   1  12
ATOM     12  C   UNL     1      23.995  44.166  85.542  1.00  0.00     0.021 A 
ATOM     13  C   UNL     1      25.234  43.743  85.021  1.00  0.00     0.016 A 
ATOM     14  C   UNL     1      25.338  42.529  84.338  1.00  0.00     0.051 A 
ATOM     15  C   UNL     1      24.213  41.712  84.173  1.00  0.00     0.157 A 
ATOM     16  C   UNL     1      22.873  43.333  85.382  1.00  0.00     0.062 A 
ATOM     17  C   UNL     1      22.979  42.114  84.696  1.00  0.00     0.158 A 
BRANCH  15  18
ATOM     18  O   UNL     1      24.314  40.500  83.492  1.00  0.00    -0.504 OA
ATOM     19  H   UNL     1      24.183  39.614  83.967  1.00  0.00     0.293 HD
ENDBRANCH  15  18
BRANCH  17  20
ATOM     20  O   UNL     1      21.861  41.297  84.533  1.00  0.00    -0.504 OA
ATOM     21  H   UNL     1      21.702  40.780  83.677  1.00  0.00     0.293 HD
ENDBRANCH  17  20
ENDBRANCH   1  12
BRANCH   6  22
ATOM     22  O   UNL     1      22.691  49.615  89.125  1.00  0.00    -0.507 OA
ATOM     23  H   UNL     1      22.880  50.290  89.849  1.00  0.00     0.293 HD
ENDBRANCH   6  22
BRANCH   8  24
ATOM     24  O   UNL     1      26.257  50.942  86.222  1.00  0.00    -0.508 OA
ATOM     25  H   UNL     1      26.564  51.681  86.842  1.00  0.00     0.293 HD
ENDBRANCH   8  24
TORSDOF 5
ENDMDL
MODEL 9
REMARK VINA RESULT:    -4.208      2.678      7.002
REMARK INTER + INTRA:          -5.247
REMARK INTER:                  -4.983
REMARK INTRA:                  -0.264
REMARK UNBOUND:                -0.301
REMARK SMILES O=c1cc(-c2ccc(O)c(O)c2)oc2cc(O)cc(O)c12
REMARK SMILES IDX 4 1 3 2 2 3 1 4 21 5 19 6 18 7 16 8 15 9 14 10 13 11 5 12
REMARK SMILES IDX 6 13 7 14 8 15 12 16 10 17 9 18 11 20 20 22 17 24
REMARK H PARENT 9 19 11 21 20 23 17 25
REMARK Flexibility Score: inf
ROOT
ATOM      1  C   UNL     1      26.054  46.497  86.373  1.00  0.00     0.138 A 
ATOM      2  C   UNL     1      26.840  45.959  85.346  1.00  0.00     0.100 A 
ATOM      3  C   UNL     1      26.436  44.784  84.709  1.00  0.00     0.197 A 
ATOM      4  O   UNL     1      27.193  44.291  83.834  1.00  0.00    -0.289 OA
ATOM      5  C   UNL     1      25.220  44.164  85.085  1.00  0.00     0.107 A 
ATOM      6  C   UNL     1      24.687  42.988  84.479  1.00  0.00     0.134 A 
ATOM      7  C   UNL     1      23.533  42.399  85.011  1.00  0.00     0.093 A 
ATOM      8  C   UNL     1      22.860  42.976  86.088  1.00  0.00     0.123 A 
ATOM      9  C   UNL     1      23.343  44.157  86.655  1.00  0.00     0.094 A 
ATOM     10  C   UNL     1      24.510  44.750  86.168  1.00  0.00     0.146 A 
ATOM     11  O   UNL     1      24.944  45.866  86.743  1.00  0.00    -0.456 OA
ENDROOT
BRANCH   1  12
ATOM     12  C   UNL     1      26.437  47.744  87.082  1.00  0.00     0.021 A 
ATOM     13  C   UNL     1      27.315  47.730  88.183  1.00  0.00     0.016 A 
ATOM     14  C   UNL     1      27.666  48.920  88.826  1.00  0.00     0.051 A 
ATOM     15  C   UNL     1      27.154  50.143  88.377  1.00  0.00     0.157 A 
ATOM     16  C   UNL     1      25.938  48.979  86.630  1.00  0.00     0.062 A 
ATOM     17  C   UNL     1      26.289  50.173  87.276  1.00  0.00     0.158 A 
BRANCH  15  18
ATOM     18  O   UNL     1      27.501  51.332  89.017  1.00  0.00    -0.504 OA
ATOM     19  H   UNL     1      26.834  52.085  89.132  1.00  0.00     0.293 HD
ENDBRANCH  15  18
BRANCH  17  20
ATOM     20  O   UNL     1      25.784  51.392  86.829  1.00  0.00    -0.504 OA
ATOM     21  H   UNL     1      26.391  52.114  86.459  1.00  0.00     0.293 HD
ENDBRANCH  17  20
ENDBRANCH   1  12
BRANCH   6  22
ATOM     22  O   UNL     1      25.232  42.377  83.346  1.00  0.00    -0.507 OA
ATOM     23  H   UNL     1      26.192  42.079  83.256  1.00  0.00     0.293 HD
ENDBRANCH   6  22
BRANCH   8  24
ATOM     24  O   UNL     1      21.707  42.371  86.583  1.00  0.00    -0.508 OA
ATOM     25  H   UNL     1      21.481  42.389  87.570  1.00  0.00     0.293 HD
ENDBRANCH   8  24
TORSDOF 5
ENDMDL
