MODEL 1
REMARK VINA RESULT:    -4.456      0.000      0.000
REMARK INTER + INTRA:          -5.710
REMARK INTER:                  -5.498
REMARK INTRA:                  -0.212
REMARK UNBOUND:                -0.212
REMARK SMILES C=CC[C@H](C)C(=O)CC
REMARK SMILES IDX 4 1 5 2 6 3 7 4 8 5 9 6 3 7 2 8 1 9
REMARK H PARENT
REMARK Flexibility Score: inf
ROOT
ATOM      1  C   UNL     1     -27.769  20.936 -34.168  1.00  0.00     0.057 C 
ATOM      2  C   UNL     1     -27.830  22.179 -33.274  1.00  0.00     0.016 C 
ENDROOT
BRANCH   1   3
ATOM      3  C   UNL     1     -28.393  19.755 -33.451  1.00  0.00     0.135 C 
ATOM      4  O   UNL     1     -27.821  18.673 -33.455  1.00  0.00    -0.299 OA
BRANCH   3   5
ATOM      5  C   UNL     1     -29.697  19.894 -32.711  1.00  0.00     0.072 C 
ATOM      6  C   UNL     1     -30.828  19.197 -33.462  1.00  0.00     0.012 C 
ENDBRANCH   3   5
ENDBRANCH   1   3
BRANCH   1   7
ATOM      7  C   UNL     1     -26.314  20.639 -34.580  1.00  0.00     0.038 C 
BRANCH   7   8
ATOM      8  C   UNL     1     -25.352  20.967 -33.468  1.00  0.00    -0.034 C 
ATOM      9  C   UNL     1     -24.271  20.221 -33.227  1.00  0.00     0.004 C 
ENDBRANCH   7   8
ENDBRANCH   1   7
TORSDOF 4
ENDMDL
MODEL 2
REMARK VINA RESULT:    -4.248      7.531      8.917
REMARK INTER + INTRA:          -5.454
REMARK INTER:                  -5.121
REMARK INTRA:                  -0.333
REMARK UNBOUND:                -0.212
REMARK SMILES C=CC[C@H](C)C(=O)CC
REMARK SMILES IDX 4 1 5 2 6 3 7 4 8 5 9 6 3 7 2 8 1 9
REMARK H PARENT
REMARK Flexibility Score: inf
ROOT
ATOM      1  C   UNL     1     -26.936  12.379 -30.148  1.00  0.00     0.057 C 
ATOM      2  C   UNL     1     -25.840  11.311 -30.062  1.00  0.00     0.016 C 
ENDROOT
BRANCH   1   3
ATOM      3  C   UNL     1     -26.423  13.581 -30.917  1.00  0.00     0.135 C 
ATOM      4  O   UNL     1     -26.428  13.564 -32.141  1.00  0.00    -0.299 OA
BRANCH   3   5
ATOM      5  C   UNL     1     -25.926  14.809 -30.202  1.00  0.00     0.072 C 
ATOM      6  C   UNL     1     -24.481  15.114 -30.579  1.00  0.00     0.012 C 
ENDBRANCH   3   5
ENDBRANCH   1   3
BRANCH   1   7
ATOM      7  C   UNL     1     -27.415  12.777 -28.739  1.00  0.00     0.038 C 
BRANCH   7   8
ATOM      8  C   UNL     1     -28.919  12.796 -28.655  1.00  0.00    -0.034 C 
ATOM      9  C   UNL     1     -29.687  12.382 -29.666  1.00  0.00     0.004 C 
ENDBRANCH   7   8
ENDBRANCH   1   7
TORSDOF 4
ENDMDL
MODEL 3
REMARK VINA RESULT:    -4.248      1.274      4.182
REMARK INTER + INTRA:          -5.454
REMARK INTER:                  -5.231
REMARK INTRA:                  -0.223
REMARK UNBOUND:                -0.212
REMARK SMILES C=CC[C@H](C)C(=O)CC
REMARK SMILES IDX 4 1 5 2 6 3 7 4 8 5 9 6 3 7 2 8 1 9
REMARK H PARENT
REMARK Flexibility Score: inf
ROOT
ATOM      1  C   UNL     1     -27.038  20.669 -33.205  1.00  0.00     0.057 C 
ATOM      2  C   UNL     1     -27.790  21.907 -33.706  1.00  0.00     0.016 C 
ENDROOT
BRANCH   1   3
ATOM      3  C   UNL     1     -25.759  20.488 -34.000  1.00  0.00     0.135 C 
ATOM      4  O   UNL     1     -25.819  20.160 -35.177  1.00  0.00    -0.299 OA
BRANCH   3   5
ATOM      5  C   UNL     1     -24.411  20.726 -33.371  1.00  0.00     0.072 C 
ATOM      6  C   UNL     1     -24.001  19.547 -32.495  1.00  0.00     0.012 C 
ENDBRANCH   3   5
ENDBRANCH   1   3
BRANCH   1   7
ATOM      7  C   UNL     1     -27.936  19.420 -33.293  1.00  0.00     0.038 C 
BRANCH   7   8
ATOM      8  C   UNL     1     -29.346  19.785 -33.679  1.00  0.00    -0.034 C 
ATOM      9  C   UNL     1     -30.405  19.182 -33.133  1.00  0.00     0.004 C 
ENDBRANCH   7   8
ENDBRANCH   1   7
TORSDOF 4
ENDMDL
MODEL 4
REMARK VINA RESULT:    -4.039      8.606      9.496
REMARK INTER + INTRA:          -5.195
REMARK INTER:                  -4.823
REMARK INTRA:                  -0.372
REMARK UNBOUND:                -0.212
REMARK SMILES C=CC[C@H](C)C(=O)CC
REMARK SMILES IDX 4 1 5 2 6 3 7 4 8 5 9 6 3 7 2 8 1 9
REMARK H PARENT
REMARK Flexibility Score: inf
ROOT
ATOM      1  C   UNL     1     -27.526  12.672 -28.670  1.00  0.00     0.057 C 
ATOM      2  C   UNL     1     -29.044  12.755 -28.483  1.00  0.00     0.016 C 
ENDROOT
BRANCH   1   3
ATOM      3  C   UNL     1     -27.142  13.244 -30.021  1.00  0.00     0.135 C 
ATOM      4  O   UNL     1     -27.610  12.756 -31.040  1.00  0.00    -0.299 OA
BRANCH   3   5
ATOM      5  C   UNL     1     -26.208  14.420 -30.132  1.00  0.00     0.072 C 
ATOM      6  C   UNL     1     -24.764  13.996 -29.887  1.00  0.00     0.012 C 
ENDBRANCH   3   5
ENDBRANCH   1   3
BRANCH   1   7
ATOM      7  C   UNL     1     -27.043  11.216 -28.518  1.00  0.00     0.038 C 
BRANCH   7   8
ATOM      8  C   UNL     1     -26.034  11.086 -27.406  1.00  0.00    -0.034 C 
ATOM      9  C   UNL     1     -24.726  10.974 -27.649  1.00  0.00     0.004 C 
ENDBRANCH   7   8
ENDBRANCH   1   7
TORSDOF 4
ENDMDL
MODEL 5
REMARK VINA RESULT:    -3.930      8.542      9.517
REMARK INTER + INTRA:          -5.061
REMARK INTER:                  -4.579
REMARK INTRA:                  -0.482
REMARK UNBOUND:                -0.212
REMARK SMILES C=CC[C@H](C)C(=O)CC
REMARK SMILES IDX 4 1 5 2 6 3 7 4 8 5 9 6 3 7 2 8 1 9
REMARK H PARENT
REMARK Flexibility Score: inf
ROOT
ATOM      1  C   UNL     1     -26.448  13.289 -29.617  1.00  0.00     0.057 C 
ATOM      2  C   UNL     1     -26.103  14.650 -30.232  1.00  0.00     0.016 C 
ENDROOT
BRANCH   1   3
ATOM      3  C   UNL     1     -25.196  12.441 -29.510  1.00  0.00     0.135 C 
ATOM      4  O   UNL     1     -24.116  12.911 -29.842  1.00  0.00    -0.299 OA
BRANCH   3   5
ATOM      5  C   UNL     1     -25.252  11.033 -28.979  1.00  0.00     0.072 C 
ATOM      6  C   UNL     1     -25.695  11.016 -27.520  1.00  0.00     0.012 C 
ENDBRANCH   3   5
ENDBRANCH   1   3
BRANCH   1   7
ATOM      7  C   UNL     1     -27.536  12.582 -30.447  1.00  0.00     0.038 C 
BRANCH   7   8
ATOM      8  C   UNL     1     -28.750  12.272 -29.610  1.00  0.00    -0.034 C 
ATOM      9  C   UNL     1     -28.939  12.826 -28.409  1.00  0.00     0.004 C 
ENDBRANCH   7   8
ENDBRANCH   1   7
TORSDOF 4
ENDMDL
MODEL 6
REMARK VINA RESULT:    -3.904      7.928      8.975
REMARK INTER + INTRA:          -5.028
REMARK INTER:                  -4.660
REMARK INTRA:                  -0.368
REMARK UNBOUND:                -0.212
REMARK SMILES C=CC[C@H](C)C(=O)CC
REMARK SMILES IDX 4 1 5 2 6 3 7 4 8 5 9 6 3 7 2 8 1 9
REMARK H PARENT
REMARK Flexibility Score: inf
ROOT
ATOM      1  C   UNL     1     -26.028  12.853 -29.913  1.00  0.00     0.057 C 
ATOM      2  C   UNL     1     -24.921  13.910 -29.818  1.00  0.00     0.016 C 
ENDROOT
BRANCH   1   3
ATOM      3  C   UNL     1     -26.345  12.570 -31.368  1.00  0.00     0.135 C 
ATOM      4  O   UNL     1     -26.623  13.496 -32.119  1.00  0.00    -0.299 OA
BRANCH   3   5
ATOM      5  C   UNL     1     -26.304  11.168 -31.916  1.00  0.00     0.072 C 
ATOM      6  C   UNL     1     -27.538  10.876 -32.763  1.00  0.00     0.012 C 
ENDBRANCH   3   5
ENDBRANCH   1   3
BRANCH   1   7
ATOM      7  C   UNL     1     -27.281  13.314 -29.144  1.00  0.00     0.038 C 
BRANCH   7   8
ATOM      8  C   UNL     1     -28.333  12.236 -29.114  1.00  0.00    -0.034 C 
ATOM      9  C   UNL     1     -29.598  12.474 -29.471  1.00  0.00     0.004 C 
ENDBRANCH   7   8
ENDBRANCH   1   7
TORSDOF 4
ENDMDL
MODEL 7
REMARK VINA RESULT:    -3.897      8.755      9.374
REMARK INTER + INTRA:          -5.020
REMARK INTER:                  -4.547
REMARK INTRA:                  -0.473
REMARK UNBOUND:                -0.212
REMARK SMILES C=CC[C@H](C)C(=O)CC
REMARK SMILES IDX 4 1 5 2 6 3 7 4 8 5 9 6 3 7 2 8 1 9
REMARK H PARENT
REMARK Flexibility Score: inf
ROOT
ATOM      1  C   UNL     1     -25.752  11.392 -29.295  1.00  0.00     0.057 C 
ATOM      2  C   UNL     1     -26.212  10.932 -30.682  1.00  0.00     0.016 C 
ENDROOT
BRANCH   1   3
ATOM      3  C   UNL     1     -26.945  11.500 -28.366  1.00  0.00     0.135 C 
ATOM      4  O   UNL     1     -26.768  11.567 -27.158  1.00  0.00    -0.299 OA
BRANCH   3   5
ATOM      5  C   UNL     1     -28.350  11.549 -28.907  1.00  0.00     0.072 C 
ATOM      6  C   UNL     1     -29.050  12.839 -28.493  1.00  0.00     0.012 C 
ENDBRANCH   3   5
ENDBRANCH   1   3
BRANCH   1   7
ATOM      7  C   UNL     1     -24.994  12.730 -29.394  1.00  0.00     0.038 C 
BRANCH   7   8
ATOM      8  C   UNL     1     -25.666  13.671 -30.361  1.00  0.00    -0.034 C 
ATOM      9  C   UNL     1     -25.879  14.955 -30.063  1.00  0.00     0.004 C 
ENDBRANCH   7   8
ENDBRANCH   1   7
TORSDOF 4
ENDMDL
MODEL 8
REMARK VINA RESULT:    -3.890      9.148     10.421
REMARK INTER + INTRA:          -5.011
REMARK INTER:                  -4.728
REMARK INTRA:                  -0.283
REMARK UNBOUND:                -0.212
REMARK SMILES C=CC[C@H](C)C(=O)CC
REMARK SMILES IDX 4 1 5 2 6 3 7 4 8 5 9 6 3 7 2 8 1 9
REMARK H PARENT
REMARK Flexibility Score: inf
ROOT
ATOM      1  C   UNL     1     -27.755  12.756 -28.443  1.00  0.00     0.057 C 
ATOM      2  C   UNL     1     -27.041  13.428 -29.621  1.00  0.00     0.016 C 
ENDROOT
BRANCH   1   3
ATOM      3  C   UNL     1     -26.977  11.533 -27.999  1.00  0.00     0.135 C 
ATOM      4  O   UNL     1     -27.373  10.876 -27.046  1.00  0.00    -0.299 OA
BRANCH   3   5
ATOM      5  C   UNL     1     -25.731  11.097 -28.725  1.00  0.00     0.072 C 
ATOM      6  C   UNL     1     -24.524  11.106 -27.794  1.00  0.00     0.012 C 
ENDBRANCH   3   5
ENDBRANCH   1   3
BRANCH   1   7
ATOM      7  C   UNL     1     -29.203  12.392 -28.826  1.00  0.00     0.038 C 
BRANCH   7   8
ATOM      8  C   UNL     1     -29.255  11.672 -30.149  1.00  0.00    -0.034 C 
ATOM      9  C   UNL     1     -30.379  11.594 -30.866  1.00  0.00     0.004 C 
ENDBRANCH   7   8
ENDBRANCH   1   7
TORSDOF 4
ENDMDL
MODEL 9
REMARK VINA RESULT:    -3.879     13.778     15.115
REMARK INTER + INTRA:          -4.998
REMARK INTER:                  -4.593
REMARK INTRA:                  -0.405
REMARK UNBOUND:                -0.212
REMARK SMILES C=CC[C@H](C)C(=O)CC
REMARK SMILES IDX 4 1 5 2 6 3 7 4 8 5 9 6 3 7 2 8 1 9
REMARK H PARENT
REMARK Flexibility Score: inf
ROOT
ATOM      1  C   UNL     1     -13.311  14.564 -32.309  1.00  0.00     0.057 C 
ATOM      2  C   UNL     1     -12.295  14.531 -33.456  1.00  0.00     0.016 C 
ENDROOT
BRANCH   1   3
ATOM      3  C   UNL     1     -14.681  14.169 -32.823  1.00  0.00     0.135 C 
ATOM      4  O   UNL     1     -14.876  14.090 -34.028  1.00  0.00    -0.299 OA
BRANCH   3   5
ATOM      5  C   UNL     1     -15.806  13.848 -31.874  1.00  0.00     0.072 C 
ATOM      6  C   UNL     1     -15.332  12.926 -30.756  1.00  0.00     0.012 C 
ENDBRANCH   3   5
ENDBRANCH   1   3
BRANCH   1   7
ATOM      7  C   UNL     1     -13.338  15.958 -31.652  1.00  0.00     0.038 C 
BRANCH   7   8
ATOM      8  C   UNL     1     -13.007  15.880 -30.184  1.00  0.00    -0.034 C 
ATOM      9  C   UNL     1     -11.839  15.401 -29.748  1.00  0.00     0.004 C 
ENDBRANCH   7   8
ENDBRANCH   1   7
TORSDOF 4
ENDMDL
