MODEL 1
REMARK VINA RESULT:    38.747      0.000      0.000
REMARK INTER + INTRA:          73.585
REMARK INTER:                  63.664
REMARK INTRA:                   9.920
REMARK UNBOUND:                 9.920
REMARK SMILES C[C@H]1O[C@H](OC[C@H]2O[C@H](Oc3c(-c4ccc(O)c(O)c4)oc4cc(O)cc(O)c4c3=O)[C@H](O)[C@H](O)[C@@H]2O)[C@H](O)[C@H](O)[C@H]1O
REMARK SMILES IDX 7 1 36 2 34 3 32 4 9 5 8 6 6 7 5 8 4 9 1 10 2 11 42 12 3 13
REMARK SMILES IDX 40 14 38 15 43 16 41 18 39 20 37 22 35 24 10 26 11 27 12 28
REMARK SMILES IDX 30 29 21 30 29 31 31 32 22 33 27 34 23 35 26 36 24 37 13 38
REMARK SMILES IDX 20 39 14 40 18 41 15 42 16 43 19 44 17 46 28 48 25 50 33 52
REMARK H PARENT 43 17 41 19 39 21 37 23 35 25 19 45 17 47 28 49 25 51 33 53
REMARK Flexibility Score: inf
ROOT
ATOM      1  C   UNL     1       4.509   8.935  11.537  1.00  0.00     0.180 C 
ATOM      2  C   UNL     1       4.753   7.531  10.909  1.00  0.00     0.177 C 
ATOM      3  C   UNL     1       3.801   6.427  11.442  1.00  0.00     0.180 C 
ATOM      4  C   UNL     1       2.985   6.900  12.662  1.00  0.00     0.214 C 
ATOM      5  C   UNL     1       3.781   7.854  13.590  1.00  0.00     0.339 C 
ATOM      6  O   UNL     1       4.428   8.954  12.956  1.00  0.00    -0.332 OA
ENDROOT
BRANCH   1   7
ATOM      7  C   UNL     1       3.340   9.717  10.914  1.00  0.00     0.198 C 
BRANCH   7   8
ATOM      8  O   UNL     1       3.679  11.087  10.875  1.00  0.00    -0.347 OA
BRANCH   8   9
ATOM      9  C   UNL     1       2.577  11.885  11.274  1.00  0.00     0.281 C 
ATOM     10  C   UNL     1      -0.110   9.393  10.886  1.00  0.00     0.041 C 
ATOM     11  C   UNL     1       1.137  10.040  11.488  1.00  0.00     0.150 C 
ATOM     12  C   UNL     1       1.000  10.197  13.016  1.00  0.00     0.174 C 
ATOM     13  O   UNL     1       1.341  11.304  10.875  1.00  0.00    -0.344 OA
ATOM     14  C   UNL     1       2.282  10.836  13.580  1.00  0.00     0.179 C 
ATOM     15  C   UNL     1       2.610  12.126  12.800  1.00  0.00     0.202 C 
BRANCH  12  16
ATOM     16  O   UNL     1      -0.112  11.006  13.316  1.00  0.00    -0.388 OA
ATOM     17  H   UNL     1       0.102  11.487  14.156  1.00  0.00     0.211 HD
ENDBRANCH  12  16
BRANCH  14  18
ATOM     18  O   UNL     1       3.336   9.911  13.479  1.00  0.00    -0.387 OA
ATOM     19  H   UNL     1       3.225   9.433  12.616  1.00  0.00     0.211 HD
ENDBRANCH  14  18
BRANCH  15  20
ATOM     20  O   UNL     1       3.866  12.619  13.194  1.00  0.00    -0.385 OA
ATOM     21  H   UNL     1       4.327  11.885  13.676  1.00  0.00     0.211 HD
ENDBRANCH  15  20
ENDBRANCH   8   9
ENDBRANCH   7   8
ENDBRANCH   1   7
BRANCH   2  22
ATOM     22  O   UNL     1       6.106   7.159  11.044  1.00  0.00    -0.387 OA
ATOM     23  H   UNL     1       6.484   7.640  11.828  1.00  0.00     0.211 HD
ENDBRANCH   2  22
BRANCH   3  24
ATOM     24  O   UNL     1       4.485   5.220  11.688  1.00  0.00    -0.387 OA
ATOM     25  H   UNL     1       5.333   5.436  12.154  1.00  0.00     0.211 HD
ENDBRANCH   3  24
BRANCH   5  26
ATOM     26  O   UNL     1       4.754   7.142  14.364  1.00  0.00    -0.454 OA
BRANCH  26  27
ATOM     27  C   UNL     1       5.994   7.676  14.763  1.00  0.00     0.214 A 
ATOM     28  C   UNL     1       6.182   8.325  16.003  1.00  0.00     0.180 A 
ATOM     29  C   UNL     1       7.087   7.565  13.893  1.00  0.00     0.239 A 
ATOM     30  O   UNL     1       7.402   8.701  16.370  1.00  0.00    -0.452 OA
ATOM     31  C   UNL     1       8.378   7.948  14.323  1.00  0.00     0.111 A 
ATOM     32  O   UNL     1       6.884   7.124  12.732  1.00  0.00    -0.285 OA
ATOM     33  C   UNL     1       8.477   8.538  15.610  1.00  0.00     0.146 A 
ATOM     34  C   UNL     1       9.569   7.782  13.555  1.00  0.00     0.134 A 
ATOM     35  C   UNL     1       9.713   8.972  16.097  1.00  0.00     0.094 A 
ATOM     36  C   UNL     1      10.787   8.257  14.057  1.00  0.00     0.093 A 
ATOM     37  C   UNL     1      10.864   8.836  15.327  1.00  0.00     0.123 A 
BRANCH  28  38
ATOM     38  C   UNL     1       5.061   8.652  16.913  1.00  0.00     0.025 A 
ATOM     39  C   UNL     1       5.234   8.538  18.301  1.00  0.00     0.062 A 
ATOM     40  C   UNL     1       3.829   9.094  16.411  1.00  0.00     0.016 A 
ATOM     41  C   UNL     1       4.183   8.822  19.181  1.00  0.00     0.158 A 
ATOM     42  C   UNL     1       2.775   9.375  17.281  1.00  0.00     0.051 A 
ATOM     43  C   UNL     1       2.936   9.247  18.664  1.00  0.00     0.157 A 
BRANCH  41  44
ATOM     44  O   UNL     1       4.416   8.667  20.549  1.00  0.00    -0.504 OA
ATOM     45  H   UNL     1       5.232   8.216  20.935  1.00  0.00     0.293 HD
ENDBRANCH  41  44
BRANCH  43  46
ATOM     46  O   UNL     1       1.844   9.554  19.478  1.00  0.00    -0.504 OA
ATOM     47  H   UNL     1       1.086   8.918  19.669  1.00  0.00     0.293 HD
ENDBRANCH  43  46
ENDBRANCH  28  38
BRANCH  34  48
ATOM     48  O   UNL     1       9.616   7.134  12.315  1.00  0.00    -0.507 OA
ATOM     49  H   UNL     1       9.059   6.335  12.063  1.00  0.00     0.293 HD
ENDBRANCH  34  48
BRANCH  37  50
ATOM     50  O   UNL     1      12.086   9.270  15.835  1.00  0.00    -0.508 OA
ATOM     51  H   UNL     1      12.360   9.072  16.789  1.00  0.00     0.293 HD
ENDBRANCH  37  50
ENDBRANCH  26  27
ENDBRANCH   5  26
BRANCH   4  52
ATOM     52  O   UNL     1       2.403   5.834  13.371  1.00  0.00    -0.384 OA
ATOM     53  H   UNL     1       3.061   5.100  13.446  1.00  0.00     0.211 HD
ENDBRANCH   4  52
TORSDOF 16
ENDMDL
MODEL 2
REMARK VINA RESULT:    39.259      1.927      8.243
REMARK INTER + INTRA:          74.425
REMARK INTER:                  75.090
REMARK INTRA:                  -0.665
REMARK UNBOUND:                 9.920
REMARK SMILES C[C@H]1O[C@H](OC[C@H]2O[C@H](Oc3c(-c4ccc(O)c(O)c4)oc4cc(O)cc(O)c4c3=O)[C@H](O)[C@H](O)[C@@H]2O)[C@H](O)[C@H](O)[C@H]1O
REMARK SMILES IDX 7 1 36 2 34 3 32 4 9 5 8 6 6 7 5 8 4 9 1 10 2 11 42 12 3 13
REMARK SMILES IDX 40 14 38 15 43 16 41 18 39 20 37 22 35 24 10 26 11 27 12 28
REMARK SMILES IDX 30 29 21 30 29 31 31 32 22 33 27 34 23 35 26 36 24 37 13 38
REMARK SMILES IDX 20 39 14 40 18 41 15 42 16 43 19 44 17 46 28 48 25 50 33 52
REMARK H PARENT 43 17 41 19 39 21 37 23 35 25 19 45 17 47 28 49 25 51 33 53
REMARK Flexibility Score: inf
ROOT
ATOM      1  C   UNL     1       7.932   7.429  14.932  1.00  0.00     0.180 C 
ATOM      2  C   UNL     1       7.367   6.231  14.114  1.00  0.00     0.177 C 
ATOM      3  C   UNL     1       6.401   6.645  12.971  1.00  0.00     0.180 C 
ATOM      4  C   UNL     1       6.011   8.136  13.050  1.00  0.00     0.214 C 
ATOM      5  C   UNL     1       5.872   8.649  14.507  1.00  0.00     0.339 C 
ATOM      6  O   UNL     1       6.959   8.363  15.382  1.00  0.00    -0.332 OA
ENDROOT
BRANCH   1   7
ATOM      7  C   UNL     1       9.115   8.153  14.267  1.00  0.00     0.198 C 
BRANCH   7   8
ATOM      8  O   UNL     1      10.227   8.098  15.134  1.00  0.00    -0.347 OA
BRANCH   8   9
ATOM      9  C   UNL     1      11.196   9.066  14.765  1.00  0.00     0.281 C 
ATOM     10  C   UNL     1      12.924   9.416  18.001  1.00  0.00     0.041 C 
ATOM     11  C   UNL     1      12.474   8.735  16.709  1.00  0.00     0.150 C 
ATOM     12  C   UNL     1      13.677   8.153  15.939  1.00  0.00     0.174 C 
ATOM     13  O   UNL     1      11.782   9.680  15.907  1.00  0.00    -0.344 OA
ATOM     14  C   UNL     1      13.177   7.464  14.657  1.00  0.00     0.179 C 
ATOM     15  C   UNL     1      12.276   8.431  13.861  1.00  0.00     0.202 C 
BRANCH  12  16
ATOM     16  O   UNL     1      14.578   9.183  15.611  1.00  0.00    -0.388 OA
ATOM     17  H   UNL     1      14.040  10.007  15.490  1.00  0.00     0.211 HD
ENDBRANCH  12  16
BRANCH  14  18
ATOM     18  O   UNL     1      12.471   6.300  15.009  1.00  0.00    -0.387 OA
ATOM     19  H   UNL     1      12.575   5.656  14.261  1.00  0.00     0.211 HD
ENDBRANCH  14  18
BRANCH  15  20
ATOM     20  O   UNL     1      11.680   7.754  12.782  1.00  0.00    -0.385 OA
ATOM     21  H   UNL     1      10.802   8.184  12.620  1.00  0.00     0.211 HD
ENDBRANCH  15  20
ENDBRANCH   8   9
ENDBRANCH   7   8
ENDBRANCH   1   7
BRANCH   2  22
ATOM     22  O   UNL     1       6.776   5.282  14.974  1.00  0.00    -0.387 OA
ATOM     23  H   UNL     1       5.874   5.060  14.619  1.00  0.00     0.211 HD
ENDBRANCH   2  22
BRANCH   3  24
ATOM     24  O   UNL     1       5.278   5.798  12.903  1.00  0.00    -0.387 OA
ATOM     25  H   UNL     1       5.194   5.327  13.771  1.00  0.00     0.211 HD
ENDBRANCH   3  24
BRANCH   5  26
ATOM     26  O   UNL     1       4.664   8.175  15.117  1.00  0.00    -0.454 OA
BRANCH  26  27
ATOM     27  C   UNL     1       3.921   8.898  16.069  1.00  0.00     0.214 A 
ATOM     28  C   UNL     1       3.297  10.130  15.773  1.00  0.00     0.180 A 
ATOM     29  C   UNL     1       3.799   8.380  17.365  1.00  0.00     0.239 A 
ATOM     30  O   UNL     1       2.512  10.703  16.679  1.00  0.00    -0.452 OA
ATOM     31  C   UNL     1       2.933   8.996  18.297  1.00  0.00     0.111 A 
ATOM     32  O   UNL     1       4.476   7.364  17.668  1.00  0.00    -0.285 OA
ATOM     33  C   UNL     1       2.303  10.201  17.889  1.00  0.00     0.146 A 
ATOM     34  C   UNL     1       2.661   8.492  19.603  1.00  0.00     0.134 A 
ATOM     35  C   UNL     1       1.458  10.889  18.763  1.00  0.00     0.094 A 
ATOM     36  C   UNL     1       1.835   9.222  20.467  1.00  0.00     0.093 A 
ATOM     37  C   UNL     1       1.224  10.407  20.048  1.00  0.00     0.123 A 
BRANCH  28  38
ATOM     38  C   UNL     1       3.511  10.850  14.497  1.00  0.00     0.025 A 
ATOM     39  C   UNL     1       2.940  10.356  13.314  1.00  0.00     0.062 A 
ATOM     40  C   UNL     1       4.262  12.033  14.453  1.00  0.00     0.016 A 
ATOM     41  C   UNL     1       3.145  11.007  12.092  1.00  0.00     0.158 A 
ATOM     42  C   UNL     1       4.474  12.687  13.238  1.00  0.00     0.051 A 
ATOM     43  C   UNL     1       3.922  12.190  12.053  1.00  0.00     0.157 A 
BRANCH  41  44
ATOM     44  O   UNL     1       2.566  10.450  10.950  1.00  0.00    -0.504 OA
ATOM     45  H   UNL     1       3.051  10.331  10.072  1.00  0.00     0.293 HD
ENDBRANCH  41  44
BRANCH  43  46
ATOM     46  O   UNL     1       4.164  12.898  10.875  1.00  0.00    -0.504 OA
ATOM     47  H   UNL     1       4.140  12.486   9.955  1.00  0.00     0.293 HD
ENDBRANCH  43  46
ENDBRANCH  28  38
BRANCH  34  48
ATOM     48  O   UNL     1       3.147   7.272  20.088  1.00  0.00    -0.507 OA
ATOM     49  H   UNL     1       4.036   7.147  20.542  1.00  0.00     0.293 HD
ENDBRANCH  34  48
BRANCH  37  50
ATOM     50  O   UNL     1       0.372  11.106  20.899  1.00  0.00    -0.508 OA
ATOM     51  H   UNL     1       0.103  12.063  20.706  1.00  0.00     0.293 HD
ENDBRANCH  37  50
ENDBRANCH  26  27
ENDBRANCH   5  26
BRANCH   4  52
ATOM     52  O   UNL     1       4.882   8.441  12.269  1.00  0.00    -0.384 OA
ATOM     53  H   UNL     1       4.253   7.679  12.301  1.00  0.00     0.211 HD
ENDBRANCH   4  52
TORSDOF 16
ENDMDL
MODEL 3
REMARK VINA RESULT:    41.489      0.988      1.421
REMARK INTER + INTRA:          78.089
REMARK INTER:                  71.513
REMARK INTRA:                   6.576
REMARK UNBOUND:                 9.920
REMARK SMILES C[C@H]1O[C@H](OC[C@H]2O[C@H](Oc3c(-c4ccc(O)c(O)c4)oc4cc(O)cc(O)c4c3=O)[C@H](O)[C@H](O)[C@@H]2O)[C@H](O)[C@H](O)[C@H]1O
REMARK SMILES IDX 7 1 36 2 34 3 32 4 9 5 8 6 6 7 5 8 4 9 1 10 2 11 42 12 3 13
REMARK SMILES IDX 40 14 38 15 43 16 41 18 39 20 37 22 35 24 10 26 11 27 12 28
REMARK SMILES IDX 30 29 21 30 29 31 31 32 22 33 27 34 23 35 26 36 24 37 13 38
REMARK SMILES IDX 20 39 14 40 18 41 15 42 16 43 19 44 17 46 28 48 25 50 33 52
REMARK H PARENT 43 17 41 19 39 21 37 23 35 25 19 45 17 47 28 49 25 51 33 53
REMARK Flexibility Score: inf
ROOT
ATOM      1  C   UNL     1       4.947   8.731  11.709  1.00  0.00     0.180 C 
ATOM      2  C   UNL     1       5.597   7.441  11.129  1.00  0.00     0.177 C 
ATOM      3  C   UNL     1       4.817   6.139  11.454  1.00  0.00     0.180 C 
ATOM      4  C   UNL     1       3.702   6.373  12.494  1.00  0.00     0.214 C 
ATOM      5  C   UNL     1       4.087   7.422  13.569  1.00  0.00     0.339 C 
ATOM      6  O   UNL     1       4.595   8.662  13.085  1.00  0.00    -0.332 OA
ENDROOT
BRANCH   1   7
ATOM      7  C   UNL     1       3.780   9.286  10.876  1.00  0.00     0.198 C 
BRANCH   7   8
ATOM      8  O   UNL     1       2.599   9.219  11.647  1.00  0.00    -0.347 OA
BRANCH   8   9
ATOM      9  C   UNL     1       2.598  10.227  12.646  1.00  0.00     0.281 C 
ATOM     10  C   UNL     1       0.598  12.776  10.889  1.00  0.00     0.041 C 
ATOM     11  C   UNL     1       0.887  11.455  11.603  1.00  0.00     0.150 C 
ATOM     12  C   UNL     1      -0.123  11.206  12.741  1.00  0.00     0.174 C 
ATOM     13  O   UNL     1       2.212  11.488  12.113  1.00  0.00    -0.344 OA
ATOM     14  C   UNL     1       0.196   9.861  13.419  1.00  0.00     0.179 C 
ATOM     15  C   UNL     1       1.684   9.818  13.823  1.00  0.00     0.202 C 
BRANCH  12  16
ATOM     16  O   UNL     1      -0.049  12.248  13.683  1.00  0.00    -0.388 OA
ATOM     17  H   UNL     1       0.568  11.946  14.398  1.00  0.00     0.211 HD
ENDBRANCH  12  16
BRANCH  14  18
ATOM     18  O   UNL     1      -0.111   8.817  12.529  1.00  0.00    -0.387 OA
ATOM     19  H   UNL     1      -0.552   9.225  11.739  1.00  0.00     0.211 HD
ENDBRANCH  14  18
BRANCH  15  20
ATOM     20  O   UNL     1       2.020   8.533  14.284  1.00  0.00    -0.385 OA
ATOM     21  H   UNL     1       1.288   7.925  14.006  1.00  0.00     0.211 HD
ENDBRANCH  15  20
ENDBRANCH   8   9
ENDBRANCH   7   8
ENDBRANCH   1   7
BRANCH   2  22
ATOM     22  O   UNL     1       6.948   7.349  11.525  1.00  0.00    -0.387 OA
ATOM     23  H   UNL     1       6.974   7.185  12.505  1.00  0.00     0.211 HD
ENDBRANCH   2  22
BRANCH   3  24
ATOM     24  O   UNL     1       5.682   5.088  11.819  1.00  0.00    -0.387 OA
ATOM     25  H   UNL     1       6.365   5.452  12.438  1.00  0.00     0.211 HD
ENDBRANCH   3  24
BRANCH   5  26
ATOM     26  O   UNL     1       5.023   6.887  14.513  1.00  0.00    -0.454 OA
BRANCH  26  27
ATOM     27  C   UNL     1       6.230   7.515  14.875  1.00  0.00     0.214 A 
ATOM     28  C   UNL     1       6.371   8.271  16.059  1.00  0.00     0.180 A 
ATOM     29  C   UNL     1       7.336   7.390  14.024  1.00  0.00     0.239 A 
ATOM     30  O   UNL     1       7.567   8.738  16.402  1.00  0.00    -0.452 OA
ATOM     31  C   UNL     1       8.601   7.873  14.429  1.00  0.00     0.111 A 
ATOM     32  O   UNL     1       7.168   6.846  12.902  1.00  0.00    -0.285 OA
ATOM     33  C   UNL     1       8.657   8.570  15.664  1.00  0.00     0.146 A 
ATOM     34  C   UNL     1       9.807   7.707  13.685  1.00  0.00     0.134 A 
ATOM     35  C   UNL     1       9.863   9.106  16.122  1.00  0.00     0.094 A 
ATOM     36  C   UNL     1      10.994   8.283  14.154  1.00  0.00     0.093 A 
ATOM     37  C   UNL     1      11.028   8.967  15.372  1.00  0.00     0.123 A 
BRANCH  28  38
ATOM     38  C   UNL     1       5.225   8.613  16.932  1.00  0.00     0.025 A 
ATOM     39  C   UNL     1       5.336   8.453  18.321  1.00  0.00     0.062 A 
ATOM     40  C   UNL     1       4.032   9.115  16.393  1.00  0.00     0.016 A 
ATOM     41  C   UNL     1       4.260   8.750  19.166  1.00  0.00     0.158 A 
ATOM     42  C   UNL     1       2.953   9.409  17.228  1.00  0.00     0.051 A 
ATOM     43  C   UNL     1       3.051   9.235  18.612  1.00  0.00     0.157 A 
BRANCH  41  44
ATOM     44  O   UNL     1       4.430   8.547  20.537  1.00  0.00    -0.504 OA
ATOM     45  H   UNL     1       5.224   8.882  21.063  1.00  0.00     0.293 HD
ENDBRANCH  41  44
BRANCH  43  46
ATOM     46  O   UNL     1       1.939   9.559  19.390  1.00  0.00    -0.504 OA
ATOM     47  H   UNL     1       1.095   9.008  19.424  1.00  0.00     0.293 HD
ENDBRANCH  43  46
ENDBRANCH  28  38
BRANCH  34  48
ATOM     48  O   UNL     1       9.900   6.963  12.503  1.00  0.00    -0.507 OA
ATOM     49  H   UNL     1       9.973   7.357  11.580  1.00  0.00     0.293 HD
ENDBRANCH  34  48
BRANCH  37  50
ATOM     50  O   UNL     1      12.221   9.504  15.851  1.00  0.00    -0.508 OA
ATOM     51  H   UNL     1      12.442   9.499  16.839  1.00  0.00     0.293 HD
ENDBRANCH  37  50
ENDBRANCH  26  27
ENDBRANCH   5  26
BRANCH   4  52
ATOM     52  O   UNL     1       3.235   5.174  13.065  1.00  0.00    -0.384 OA
ATOM     53  H   UNL     1       2.730   4.668  12.381  1.00  0.00     0.211 HD
ENDBRANCH   4  52
TORSDOF 16
ENDMDL
