MODEL 1
REMARK VINA RESULT:    -2.897      0.000      0.000
REMARK INTER + INTRA:          -4.350
REMARK INTER:                  -3.913
REMARK INTRA:                  -0.436
REMARK UNBOUND:                -0.436
REMARK SMILES CCCCCCCC=O
REMARK SMILES IDX 5 1 4 2 3 3 2 4 1 5 6 6 7 7 8 8 9 9
REMARK H PARENT
REMARK Flexibility Score: inf
ROOT
ATOM      1  C   UNL     1     116.710 113.977 114.923  1.00  0.00     0.000 C 
ENDROOT
BRANCH   1   2
ATOM      2  C   UNL     1     118.126 114.233 114.383  1.00  0.00     0.000 C 
BRANCH   2   3
ATOM      3  C   UNL     1     118.521 113.254 113.267  1.00  0.00    -0.000 C 
BRANCH   3   4
ATOM      4  C   UNL     1     118.369 113.904 111.888  1.00  0.00    -0.003 C 
ATOM      5  C   UNL     1     118.605 115.410 111.958  1.00  0.00     0.004 C 
ENDBRANCH   3   4
ENDBRANCH   2   3
ENDBRANCH   1   2
BRANCH   1   6
ATOM      6  C   UNL     1     115.700 115.046 114.469  1.00  0.00     0.008 C 
BRANCH   6   7
ATOM      7  C   UNL     1     115.018 114.668 113.148  1.00  0.00     0.072 C 
BRANCH   7   8
ATOM      8  C   UNL     1     113.519 114.701 113.249  1.00  0.00     0.224 C 
ATOM      9  O   UNL     1     112.853 115.068 112.294  1.00  0.00    -0.303 OA
ENDBRANCH   7   8
ENDBRANCH   6   7
ENDBRANCH   1   6
TORSDOF 6
ENDMDL
MODEL 2
REMARK VINA RESULT:    -2.855      4.868      6.411
REMARK INTER + INTRA:          -4.292
REMARK INTER:                  -4.124
REMARK INTRA:                  -0.168
REMARK UNBOUND:                -0.436
REMARK SMILES CCCCCCCC=O
REMARK SMILES IDX 5 1 4 2 3 3 2 4 1 5 6 6 7 7 8 8 9 9
REMARK H PARENT
REMARK Flexibility Score: inf
ROOT
ATOM      1  C   UNL     1     117.488 118.324 112.786  1.00  0.00     0.000 C 
ENDROOT
BRANCH   1   2
ATOM      2  C   UNL     1     116.437 119.042 111.923  1.00  0.00     0.000 C 
BRANCH   2   3
ATOM      3  C   UNL     1     115.015 118.911 112.490  1.00  0.00    -0.000 C 
BRANCH   3   4
ATOM      4  C   UNL     1     114.675 120.099 113.395  1.00  0.00    -0.003 C 
ATOM      5  C   UNL     1     114.934 119.768 114.862  1.00  0.00     0.004 C 
ENDBRANCH   3   4
ENDBRANCH   2   3
ENDBRANCH   1   2
BRANCH   1   6
ATOM      6  C   UNL     1     118.923 118.546 112.278  1.00  0.00     0.008 C 
BRANCH   6   7
ATOM      7  C   UNL     1     119.947 118.537 113.422  1.00  0.00     0.072 C 
BRANCH   7   8
ATOM      8  C   UNL     1     119.338 118.116 114.729  1.00  0.00     0.224 C 
ATOM      9  O   UNL     1     119.675 117.063 115.246  1.00  0.00    -0.303 OA
ENDBRANCH   7   8
ENDBRANCH   6   7
ENDBRANCH   1   6
TORSDOF 6
ENDMDL
MODEL 3
REMARK VINA RESULT:    -2.839      2.910      4.190
REMARK INTER + INTRA:          -4.271
REMARK INTER:                  -3.710
REMARK INTRA:                  -0.561
REMARK UNBOUND:                -0.436
REMARK SMILES CCCCCCCC=O
REMARK SMILES IDX 5 1 4 2 3 3 2 4 1 5 6 6 7 7 8 8 9 9
REMARK H PARENT
REMARK Flexibility Score: inf
ROOT
ATOM      1  C   UNL     1     119.067 118.128 114.422  1.00  0.00     0.000 C 
ENDROOT
BRANCH   1   2
ATOM      2  C   UNL     1     119.197 116.705 114.990  1.00  0.00     0.000 C 
BRANCH   2   3
ATOM      3  C   UNL     1     118.006 115.808 114.620  1.00  0.00    -0.000 C 
BRANCH   3   4
ATOM      4  C   UNL     1     118.484 114.472 114.042  1.00  0.00    -0.003 C 
ATOM      5  C   UNL     1     118.511 114.508 112.517  1.00  0.00     0.004 C 
ENDBRANCH   3   4
ENDBRANCH   2   3
ENDBRANCH   1   2
BRANCH   1   6
ATOM      6  C   UNL     1     119.866 118.322 113.122  1.00  0.00     0.008 C 
BRANCH   6   7
ATOM      7  C   UNL     1     118.984 118.162 111.876  1.00  0.00     0.072 C 
BRANCH   7   8
ATOM      8  C   UNL     1     117.542 118.478 112.152  1.00  0.00     0.224 C 
ATOM      9  O   UNL     1     116.677 117.662 111.875  1.00  0.00    -0.303 OA
ENDBRANCH   7   8
ENDBRANCH   6   7
ENDBRANCH   1   6
TORSDOF 6
ENDMDL
MODEL 4
REMARK VINA RESULT:    -2.830      2.966      4.087
REMARK INTER + INTRA:          -4.259
REMARK INTER:                  -3.787
REMARK INTRA:                  -0.472
REMARK UNBOUND:                -0.436
REMARK SMILES CCCCCCCC=O
REMARK SMILES IDX 5 1 4 2 3 3 2 4 1 5 6 6 7 7 8 8 9 9
REMARK H PARENT
REMARK Flexibility Score: inf
ROOT
ATOM      1  C   UNL     1     118.867 116.084 115.138  1.00  0.00     0.000 C 
ENDROOT
BRANCH   1   2
ATOM      2  C   UNL     1     119.238 117.443 114.521  1.00  0.00     0.000 C 
BRANCH   2   3
ATOM      3  C   UNL     1     118.123 118.015 113.633  1.00  0.00    -0.000 C 
BRANCH   3   4
ATOM      4  C   UNL     1     118.686 118.506 112.295  1.00  0.00    -0.003 C 
ATOM      5  C   UNL     1     120.027 117.847 111.985  1.00  0.00     0.004 C 
ENDBRANCH   3   4
ENDBRANCH   2   3
ENDBRANCH   1   2
BRANCH   1   6
ATOM      6  C   UNL     1     117.766 115.356 114.347  1.00  0.00     0.008 C 
BRANCH   6   7
ATOM      7  C   UNL     1     118.132 113.891 114.068  1.00  0.00     0.072 C 
BRANCH   7   8
ATOM      8  C   UNL     1     118.677 113.693 112.682  1.00  0.00     0.224 C 
ATOM      9  O   UNL     1     118.638 114.609 111.876  1.00  0.00    -0.303 OA
ENDBRANCH   7   8
ENDBRANCH   6   7
ENDBRANCH   1   6
TORSDOF 6
ENDMDL
MODEL 5
REMARK VINA RESULT:    -2.829      4.520      5.079
REMARK INTER + INTRA:          -4.258
REMARK INTER:                  -4.067
REMARK INTRA:                  -0.190
REMARK UNBOUND:                -0.436
REMARK SMILES CCCCCCCC=O
REMARK SMILES IDX 5 1 4 2 3 3 2 4 1 5 6 6 7 7 8 8 9 9
REMARK H PARENT
REMARK Flexibility Score: inf
ROOT
ATOM      1  C   UNL     1     117.477 118.518 112.864  1.00  0.00     0.000 C 
ENDROOT
BRANCH   1   2
ATOM      2  C   UNL     1     118.903 118.534 112.288  1.00  0.00     0.000 C 
BRANCH   2   3
ATOM      3  C   UNL     1     119.984 118.457 113.376  1.00  0.00    -0.000 C 
BRANCH   3   4
ATOM      4  C   UNL     1     119.398 117.938 114.694  1.00  0.00    -0.003 C 
ATOM      5  C   UNL     1     120.391 118.100 115.841  1.00  0.00     0.004 C 
ENDBRANCH   3   4
ENDBRANCH   2   3
ENDBRANCH   1   2
BRANCH   1   6
ATOM      6  C   UNL     1     116.432 119.064 111.875  1.00  0.00     0.008 C 
BRANCH   6   7
ATOM      7  C   UNL     1     115.006 118.964 112.433  1.00  0.00     0.072 C 
BRANCH   7   8
ATOM      8  C   UNL     1     114.714 120.028 113.453  1.00  0.00     0.224 C 
ATOM      9  O   UNL     1     114.749 119.756 114.642  1.00  0.00    -0.303 OA
ENDBRANCH   7   8
ENDBRANCH   6   7
ENDBRANCH   1   6
TORSDOF 6
ENDMDL
MODEL 6
REMARK VINA RESULT:    -2.804      1.576      2.427
REMARK INTER + INTRA:          -4.224
REMARK INTER:                  -3.929
REMARK INTRA:                  -0.295
REMARK UNBOUND:                -0.436
REMARK SMILES CCCCCCCC=O
REMARK SMILES IDX 5 1 4 2 3 3 2 4 1 5 6 6 7 7 8 8 9 9
REMARK H PARENT
REMARK Flexibility Score: inf
ROOT
ATOM      1  C   UNL     1     116.022 114.341 111.973  1.00  0.00     0.000 C 
ENDROOT
BRANCH   1   2
ATOM      2  C   UNL     1     117.231 115.161 112.453  1.00  0.00     0.000 C 
BRANCH   2   3
ATOM      3  C   UNL     1     118.549 114.376 112.373  1.00  0.00    -0.000 C 
BRANCH   3   4
ATOM      4  C   UNL     1     118.487 113.111 113.236  1.00  0.00    -0.003 C 
ATOM      5  C   UNL     1     118.222 113.453 114.699  1.00  0.00     0.004 C 
ENDBRANCH   3   4
ENDBRANCH   2   3
ENDBRANCH   1   2
BRANCH   1   6
ATOM      6  C   UNL     1     114.696 115.112 112.098  1.00  0.00     0.008 C 
BRANCH   6   7
ATOM      7  C   UNL     1     113.738 114.452 113.099  1.00  0.00     0.072 C 
BRANCH   7   8
ATOM      8  C   UNL     1     113.838 115.058 114.470  1.00  0.00     0.224 C 
ATOM      9  O   UNL     1     114.728 114.705 115.228  1.00  0.00    -0.303 OA
ENDBRANCH   7   8
ENDBRANCH   6   7
ENDBRANCH   1   6
TORSDOF 6
ENDMDL
MODEL 7
REMARK VINA RESULT:    -2.800      3.916      5.326
REMARK INTER + INTRA:          -4.218
REMARK INTER:                  -3.917
REMARK INTRA:                  -0.302
REMARK UNBOUND:                -0.436
REMARK SMILES CCCCCCCC=O
REMARK SMILES IDX 5 1 4 2 3 3 2 4 1 5 6 6 7 7 8 8 9 9
REMARK H PARENT
REMARK Flexibility Score: inf
ROOT
ATOM      1  C   UNL     1     119.522 117.350 112.143  1.00  0.00     0.000 C 
ENDROOT
BRANCH   1   2
ATOM      2  C   UNL     1     118.583 116.267 112.701  1.00  0.00     0.000 C 
BRANCH   2   3
ATOM      3  C   UNL     1     118.616 114.972 111.876  1.00  0.00    -0.000 C 
BRANCH   3   4
ATOM      4  C   UNL     1     118.624 113.741 112.790  1.00  0.00    -0.003 C 
ATOM      5  C   UNL     1     118.319 114.123 114.235  1.00  0.00     0.004 C 
ENDBRANCH   3   4
ENDBRANCH   2   3
ENDBRANCH   1   2
BRANCH   1   6
ATOM      6  C   UNL     1     119.797 118.474 113.157  1.00  0.00     0.008 C 
BRANCH   6   7
ATOM      7  C   UNL     1     119.236 118.145 114.547  1.00  0.00     0.072 C 
BRANCH   7   8
ATOM      8  C   UNL     1     120.290 118.201 115.617  1.00  0.00     0.224 C 
ATOM      9  O   UNL     1     119.983 118.506 116.758  1.00  0.00    -0.303 OA
ENDBRANCH   7   8
ENDBRANCH   6   7
ENDBRANCH   1   6
TORSDOF 6
ENDMDL
MODEL 8
REMARK VINA RESULT:    -2.796      2.904      4.258
REMARK INTER + INTRA:          -4.213
REMARK INTER:                  -3.923
REMARK INTRA:                  -0.290
REMARK UNBOUND:                -0.436
REMARK SMILES CCCCCCCC=O
REMARK SMILES IDX 5 1 4 2 3 3 2 4 1 5 6 6 7 7 8 8 9 9
REMARK H PARENT
REMARK Flexibility Score: inf
ROOT
ATOM      1  C   UNL     1     117.329 115.241 112.439  1.00  0.00     0.000 C 
ENDROOT
BRANCH   1   2
ATOM      2  C   UNL     1     117.749 116.647 111.978  1.00  0.00     0.000 C 
BRANCH   2   3
ATOM      3  C   UNL     1     119.273 116.807 111.875  1.00  0.00    -0.000 C 
BRANCH   3   4
ATOM      4  C   UNL     1     119.696 118.244 112.201  1.00  0.00    -0.003 C 
ATOM      5  C   UNL     1     119.971 118.414 113.692  1.00  0.00     0.004 C 
ENDBRANCH   3   4
ENDBRANCH   2   3
ENDBRANCH   1   2
BRANCH   1   6
ATOM      6  C   UNL     1     118.447 114.200 112.255  1.00  0.00     0.008 C 
BRANCH   6   7
ATOM      7  C   UNL     1     118.506 113.207 113.424  1.00  0.00     0.072 C 
BRANCH   7   8
ATOM      8  C   UNL     1     117.871 113.754 114.671  1.00  0.00     0.224 C 
ATOM      9  O   UNL     1     118.571 114.199 115.566  1.00  0.00    -0.303 OA
ENDBRANCH   7   8
ENDBRANCH   6   7
ENDBRANCH   1   6
TORSDOF 6
ENDMDL
MODEL 9
REMARK VINA RESULT:    -2.787      3.299      4.269
REMARK INTER + INTRA:          -4.201
REMARK INTER:                  -3.766
REMARK INTRA:                  -0.434
REMARK UNBOUND:                -0.436
REMARK SMILES CCCCCCCC=O
REMARK SMILES IDX 5 1 4 2 3 3 2 4 1 5 6 6 7 7 8 8 9 9
REMARK H PARENT
REMARK Flexibility Score: inf
ROOT
ATOM      1  C   UNL     1     116.847 116.770 112.773  1.00  0.00     0.000 C 
ENDROOT
BRANCH   1   2
ATOM      2  C   UNL     1     116.871 118.273 113.099  1.00  0.00     0.000 C 
BRANCH   2   3
ATOM      3  C   UNL     1     116.548 119.149 111.879  1.00  0.00    -0.000 C 
BRANCH   3   4
ATOM      4  C   UNL     1     115.155 119.774 112.008  1.00  0.00    -0.003 C 
ATOM      5  C   UNL     1     114.750 119.926 113.471  1.00  0.00     0.004 C 
ENDBRANCH   3   4
ENDBRANCH   2   3
ENDBRANCH   1   2
BRANCH   1   6
ATOM      6  C   UNL     1     115.511 116.104 113.149  1.00  0.00     0.008 C 
BRANCH   6   7
ATOM      7  C   UNL     1     114.548 116.034 111.957  1.00  0.00     0.072 C 
BRANCH   7   8
ATOM      8  C   UNL     1     113.321 115.222 112.260  1.00  0.00     0.224 C 
ATOM      9  O   UNL     1     113.344 114.399 113.162  1.00  0.00    -0.303 OA
ENDBRANCH   7   8
ENDBRANCH   6   7
ENDBRANCH   1   6
TORSDOF 6
ENDMDL
