MODEL 1
REMARK VINA RESULT:     1.520      0.000      0.000
REMARK INTER + INTRA:           2.152
REMARK INTER:                   1.787
REMARK INTRA:                   0.365
REMARK UNBOUND:                 0.365
REMARK SMILES CC1(C)CC[C@@]2(C(=O)[O-])CC[C@@]3(C)C(=CC[C@@H]4[C@]5(C)CC[C@@H](O)[C@](C)(CO)[C@@H]5CC[C@@]43C)[C@@H]2C1
REMARK SMILES IDX 6 1 5 2 10 3 33 4 4 5 11 6 14 7 34 8 2 9 12 10 15 11 1 12
REMARK SMILES IDX 3 13 13 14 31 15 16 16 17 17 30 18 32 19 18 20 29 21 28 22
REMARK SMILES IDX 20 23 19 24 24 25 21 26 22 27 25 28 7 29 8 30 9 31 26 32
REMARK SMILES IDX 27 33 23 35
REMARK H PARENT 27 34 23 36
REMARK Flexibility Score: inf
ROOT
ATOM      1  C   UNL     1      16.737  -3.421 -19.044  1.00  0.00     0.017 C 
ATOM      2  C   UNL     1      16.058  -2.419 -20.050  1.00  0.00     0.014 C 
ATOM      3  C   UNL     1      18.307  -3.446 -19.213  1.00  0.00     0.014 C 
ATOM      4  C   UNL     1      16.433  -2.996 -17.575  1.00  0.00     0.028 C 
ATOM      5  C   UNL     1      15.625  -1.090 -19.408  1.00  0.00     0.007 C 
ATOM      6  C   UNL     1      19.153  -3.415 -17.898  1.00  0.00     0.013 C 
ATOM      7  C   UNL     1      17.038  -4.010 -16.619  1.00  0.00    -0.064 C 
ATOM      8  C   UNL     1      14.970  -2.555 -17.356  1.00  0.00     0.015 C 
ATOM      9  C   UNL     1      14.629  -1.285 -18.211  1.00  0.00    -0.035 C 
ATOM     10  C   UNL     1      18.562  -4.137 -16.613  1.00  0.00    -0.006 C 
ATOM     11  C   UNL     1      16.300  -4.743 -15.771  1.00  0.00    -0.027 C 
ATOM     12  C   UNL     1      13.188  -1.403 -18.750  1.00  0.00     0.011 C 
ATOM     13  C   UNL     1      14.705  -0.033 -17.313  1.00  0.00     0.011 C 
ATOM     14  C   UNL     1      19.037  -3.255 -15.413  1.00  0.00     0.017 C 
ATOM     15  C   UNL     1      19.023  -5.698 -16.470  1.00  0.00    -0.020 C 
ATOM     16  C   UNL     1      16.951  -5.720 -14.837  1.00  0.00     0.032 C 
ATOM     17  C   UNL     1      18.011  -6.577 -15.580  1.00  0.00     0.006 C 
ATOM     18  C   UNL     1      20.469  -5.767 -15.904  1.00  0.00     0.008 C 
ATOM     19  C   UNL     1      19.062  -6.349 -17.888  1.00  0.00     0.012 C 
ATOM     20  C   UNL     1      18.587  -7.867 -14.764  1.00  0.00    -0.025 C 
ATOM     21  C   UNL     1      20.969  -7.168 -15.580  1.00  0.00     0.005 C 
ATOM     22  C   UNL     1      20.159  -7.873 -14.467  1.00  0.00     0.006 C 
ATOM     23  C   UNL     1      17.803  -8.103 -13.430  1.00  0.00     0.010 C 
ATOM     24  C   UNL     1      18.281  -9.128 -15.648  1.00  0.00     0.012 C 
ATOM     25  C   UNL     1      20.675  -7.654 -12.958  1.00  0.00     0.020 C 
ATOM     26  C   UNL     1      18.520  -9.060 -12.480  1.00  0.00     0.033 C 
ATOM     27  C   UNL     1      19.748  -8.377 -11.882  1.00  0.00     0.123 C 
ATOM     28  C   UNL     1      22.125  -8.228 -12.829  1.00  0.00     0.017 C 
ENDROOT
BRANCH   1  29
ATOM     29  C   UNL     1      16.164  -4.805 -19.374  1.00  0.00     0.048 C 
ATOM     30  O   UNL     1      14.972  -4.941 -19.757  1.00  0.00    -0.550 OA
ATOM     31  O   UNL     1      16.995  -5.923 -19.423  1.00  0.00    -0.550 OA
ENDBRANCH   1  29
BRANCH  25  32
ATOM     32  C   UNL     1      20.790  -6.154 -12.565  1.00  0.00     0.165 C 
BRANCH  32  33
ATOM     33  O   UNL     1      22.124  -5.785 -12.355  1.00  0.00    -0.396 OA
ATOM     34  H   UNL     1      22.519  -5.560 -13.236  1.00  0.00     0.210 HD
ENDBRANCH  32  33
ENDBRANCH  25  32
BRANCH  27  35
ATOM     35  O   UNL     1      20.451  -9.332 -11.120  1.00  0.00    -0.392 OA
ATOM     36  H   UNL     1      20.604 -10.125 -11.701  1.00  0.00     0.210 HD
ENDBRANCH  27  35
TORSDOF 4
ENDMDL
MODEL 2
REMARK VINA RESULT:     1.581      1.354      8.117
REMARK INTER + INTRA:           2.223
REMARK INTER:                   1.786
REMARK INTRA:                   0.437
REMARK UNBOUND:                 0.365
REMARK SMILES CC1(C)CC[C@@]2(C(=O)[O-])CC[C@@]3(C)C(=CC[C@@H]4[C@]5(C)CC[C@@H](O)[C@](C)(CO)[C@@H]5CC[C@@]43C)[C@@H]2C1
REMARK SMILES IDX 6 1 5 2 10 3 33 4 4 5 11 6 14 7 34 8 2 9 12 10 15 11 1 12
REMARK SMILES IDX 3 13 13 14 31 15 16 16 17 17 30 18 32 19 18 20 29 21 28 22
REMARK SMILES IDX 20 23 19 24 24 25 21 26 22 27 25 28 7 29 8 30 9 31 26 32
REMARK SMILES IDX 27 33 23 35
REMARK H PARENT 27 34 23 36
REMARK Flexibility Score: inf
ROOT
ATOM      1  C   UNL     1      21.265  -7.475 -13.672  1.00  0.00     0.017 C 
ATOM      2  C   UNL     1      22.125  -8.474 -12.812  1.00  0.00     0.014 C 
ATOM      3  C   UNL     1      21.687  -7.499 -15.193  1.00  0.00     0.014 C 
ATOM      4  C   UNL     1      19.757  -7.864 -13.599  1.00  0.00     0.028 C 
ATOM      5  C   UNL     1      21.391  -9.778 -12.454  1.00  0.00     0.007 C 
ATOM      6  C   UNL     1      20.526  -7.531 -16.241  1.00  0.00     0.013 C 
ATOM      7  C   UNL     1      18.934  -6.852 -14.378  1.00  0.00    -0.064 C 
ATOM      8  C   UNL     1      19.293  -8.258 -12.181  1.00  0.00     0.015 C 
ATOM      9  C   UNL     1      20.054  -9.532 -11.672  1.00  0.00    -0.035 C 
ATOM     10  C   UNL     1      19.179  -6.769 -15.886  1.00  0.00    -0.006 C 
ATOM     11  C   UNL     1      17.995  -6.082 -13.808  1.00  0.00    -0.027 C 
ATOM     12  C   UNL     1      20.354  -9.382 -10.166  1.00  0.00     0.011 C 
ATOM     13  C   UNL     1      19.152 -10.770 -11.860  1.00  0.00     0.011 C 
ATOM     14  C   UNL     1      18.053  -7.644 -16.527  1.00  0.00     0.017 C 
ATOM     15  C   UNL     1      19.147  -5.220 -16.405  1.00  0.00    -0.020 C 
ATOM     16  C   UNL     1      17.201  -5.108 -14.628  1.00  0.00     0.032 C 
ATOM     17  C   UNL     1      18.125  -4.296 -15.575  1.00  0.00     0.006 C 
ATOM     18  C   UNL     1      18.826  -5.184 -17.924  1.00  0.00     0.008 C 
ATOM     19  C   UNL     1      20.567  -4.597 -16.229  1.00  0.00     0.012 C 
ATOM     20  C   UNL     1      17.442  -3.010 -16.309  1.00  0.00    -0.025 C 
ATOM     21  C   UNL     1      18.619  -3.793 -18.507  1.00  0.00     0.005 C 
ATOM     22  C   UNL     1      17.405  -3.044 -17.908  1.00  0.00     0.006 C 
ATOM     23  C   UNL     1      16.005  -2.726 -15.760  1.00  0.00     0.010 C 
ATOM     24  C   UNL     1      18.294  -1.755 -15.897  1.00  0.00     0.012 C 
ATOM     25  C   UNL     1      15.995  -3.251 -18.657  1.00  0.00     0.020 C 
ATOM     26  C   UNL     1      15.205  -1.774 -16.646  1.00  0.00     0.033 C 
ATOM     27  C   UNL     1      14.800  -2.483 -17.937  1.00  0.00     0.123 C 
ATOM     28  C   UNL     1      16.115  -2.719 -20.123  1.00  0.00     0.017 C 
ENDROOT
BRANCH   1  29
ATOM     29  C   UNL     1      21.529  -6.080 -13.089  1.00  0.00     0.048 C 
ATOM     30  O   UNL     1      21.773  -5.923 -11.863  1.00  0.00    -0.550 OA
ATOM     31  O   UNL     1      21.673  -4.977 -13.928  1.00  0.00    -0.550 OA
ENDBRANCH   1  29
BRANCH  25  32
ATOM     32  C   UNL     1      15.592  -4.747 -18.795  1.00  0.00     0.165 C 
BRANCH  32  33
ATOM     33  O   UNL     1      14.947  -4.989 -20.015  1.00  0.00    -0.396 OA
ATOM     34  H   UNL     1      14.021  -4.642 -19.943  1.00  0.00     0.210 HD
ENDBRANCH  32  33
ENDBRANCH  25  32
BRANCH  27  35
ATOM     35  O   UNL     1      14.183  -1.535 -18.779  1.00  0.00    -0.392 OA
ATOM     36  H   UNL     1      13.471  -2.007 -19.289  1.00  0.00     0.210 HD
ENDBRANCH  27  35
TORSDOF 4
ENDMDL
MODEL 3
REMARK VINA RESULT:     1.952      1.569      8.306
REMARK INTER + INTRA:           2.659
REMARK INTER:                   2.060
REMARK INTRA:                   0.599
REMARK UNBOUND:                 0.365
REMARK SMILES CC1(C)CC[C@@]2(C(=O)[O-])CC[C@@]3(C)C(=CC[C@@H]4[C@]5(C)CC[C@@H](O)[C@](C)(CO)[C@@H]5CC[C@@]43C)[C@@H]2C1
REMARK SMILES IDX 6 1 5 2 10 3 33 4 4 5 11 6 14 7 34 8 2 9 12 10 15 11 1 12
REMARK SMILES IDX 3 13 13 14 31 15 16 16 17 17 30 18 32 19 18 20 29 21 28 22
REMARK SMILES IDX 20 23 19 24 24 25 21 26 22 27 25 28 7 29 8 30 9 31 26 32
REMARK SMILES IDX 27 33 23 35
REMARK H PARENT 27 34 23 36
REMARK Flexibility Score: inf
ROOT
ATOM      1  C   UNL     1      21.372  -8.200 -12.372  1.00  0.00     0.017 C 
ATOM      2  C   UNL     1      22.125  -9.159 -11.377  1.00  0.00     0.014 C 
ATOM      3  C   UNL     1      22.124  -8.084 -13.755  1.00  0.00     0.014 C 
ATOM      4  C   UNL     1      19.940  -8.745 -12.663  1.00  0.00     0.028 C 
ATOM      5  C   UNL     1      21.483 -10.551 -11.248  1.00  0.00     0.007 C 
ATOM      6  C   UNL     1      21.239  -8.167 -15.042  1.00  0.00     0.013 C 
ATOM      7  C   UNL     1      19.203  -7.774 -13.570  1.00  0.00    -0.064 C 
ATOM      8  C   UNL     1      19.218  -9.273 -11.405  1.00  0.00     0.015 C 
ATOM      9  C   UNL     1      19.985 -10.494 -10.786  1.00  0.00    -0.035 C 
ATOM     10  C   UNL     1      19.768  -7.571 -14.977  1.00  0.00    -0.006 C 
ATOM     11  C   UNL     1      18.078  -7.142 -13.201  1.00  0.00    -0.027 C 
ATOM     12  C   UNL     1      19.921 -10.409  -9.246  1.00  0.00     0.011 C 
ATOM     13  C   UNL     1      19.296 -11.802 -11.223  1.00  0.00     0.011 C 
ATOM     14  C   UNL     1      18.922  -8.513 -15.893  1.00  0.00     0.017 C 
ATOM     15  C   UNL     1      19.678  -6.004 -15.429  1.00  0.00    -0.020 C 
ATOM     16  C   UNL     1      17.383  -6.204 -14.144  1.00  0.00     0.032 C 
ATOM     17  C   UNL     1      18.397  -5.243 -14.820  1.00  0.00     0.006 C 
ATOM     18  C   UNL     1      19.703  -5.904 -16.979  1.00  0.00     0.008 C 
ATOM     19  C   UNL     1      20.941  -5.251 -14.907  1.00  0.00     0.012 C 
ATOM     20  C   UNL     1      17.754  -3.989 -15.642  1.00  0.00    -0.025 C 
ATOM     21  C   UNL     1      19.475  -4.507 -17.539  1.00  0.00     0.005 C 
ATOM     22  C   UNL     1      18.080  -3.925 -17.207  1.00  0.00     0.006 C 
ATOM     23  C   UNL     1      16.208  -3.890 -15.427  1.00  0.00     0.010 C 
ATOM     24  C   UNL     1      18.343  -2.684 -14.996  1.00  0.00     0.012 C 
ATOM     25  C   UNL     1      16.908  -4.227 -18.267  1.00  0.00     0.020 C 
ATOM     26  C   UNL     1      15.524  -2.970 -16.436  1.00  0.00     0.033 C 
ATOM     27  C   UNL     1      15.501  -3.632 -17.811  1.00  0.00     0.123 C 
ATOM     28  C   UNL     1      17.292  -3.592 -19.644  1.00  0.00     0.017 C 
ENDROOT
BRANCH   1  29
ATOM     29  C   UNL     1      21.338  -6.826 -11.690  1.00  0.00     0.048 C 
ATOM     30  O   UNL     1      21.089  -6.716 -10.460  1.00  0.00    -0.550 OA
ATOM     31  O   UNL     1      21.747  -5.684 -12.376  1.00  0.00    -0.550 OA
ENDBRANCH   1  29
BRANCH  25  32
ATOM     32  C   UNL     1      16.719  -5.744 -18.552  1.00  0.00     0.165 C 
BRANCH  32  33
ATOM     33  O   UNL     1      17.690  -6.219 -19.443  1.00  0.00    -0.396 OA
ATOM     34  H   UNL     1      17.269  -6.917 -20.006  1.00  0.00     0.210 HD
ENDBRANCH  32  33
ENDBRANCH  25  32
BRANCH  27  35
ATOM     35  O   UNL     1      14.985  -2.701 -18.736  1.00  0.00    -0.392 OA
ATOM     36  H   UNL     1      15.474  -2.828 -19.592  1.00  0.00     0.210 HD
ENDBRANCH  27  35
TORSDOF 4
ENDMDL
