MODEL 1
REMARK VINA RESULT:    -3.535      0.000      0.000
REMARK INTER + INTRA:          -6.120
REMARK INTER:                  -5.602
REMARK INTRA:                  -0.518
REMARK UNBOUND:                -0.518
REMARK SMILES CCCCCCCCCCCC(=O)[O-]
REMARK SMILES IDX 7 1 8 2 9 3 10 4 11 5 12 6 13 7 14 8 6 9 5 10 4 11 3 12 2 13
REMARK SMILES IDX 1 14
REMARK H PARENT
REMARK Flexibility Score: inf
ROOT
ATOM      1  C   UNL     1       4.791  69.268  21.427  1.00  0.00     0.000 C 
ENDROOT
BRANCH   1   2
ATOM      2  C   UNL     1       3.274  69.046  21.452  1.00  0.00     0.000 C 
BRANCH   2   3
ATOM      3  C   UNL     1       2.599  69.718  20.251  1.00  0.00     0.000 C 
BRANCH   3   4
ATOM      4  C   UNL     1       3.546  70.722  19.577  1.00  0.00     0.006 C 
BRANCH   4   5
ATOM      5  C   UNL     1       2.934  71.339  18.313  1.00  0.00     0.053 C 
BRANCH   5   6
ATOM      6  C   UNL     1       2.464  72.741  18.550  1.00  0.00     0.041 C 
ATOM      7  O   UNL     1       3.006  73.703  17.945  1.00  0.00    -0.550 OA
ATOM      8  O   UNL     1       1.402  72.983  19.413  1.00  0.00    -0.550 OA
ENDBRANCH   5   6
ENDBRANCH   4   5
ENDBRANCH   3   4
ENDBRANCH   2   3
ENDBRANCH   1   2
BRANCH   1   9
ATOM      9  C   UNL     1       5.370  69.273  22.850  1.00  0.00     0.000 C 
BRANCH   9  10
ATOM     10  C   UNL     1       6.585  68.342  22.997  1.00  0.00    -0.000 C 
BRANCH  10  11
ATOM     11  C   UNL     1       6.811  67.464  21.755  1.00  0.00    -0.000 C 
BRANCH  11  12
ATOM     12  C   UNL     1       7.509  66.132  22.084  1.00  0.00    -0.000 C 
BRANCH  12  13
ATOM     13  C   UNL     1       8.928  65.988  21.507  1.00  0.00    -0.003 C 
ATOM     14  C   UNL     1       9.870  67.107  21.951  1.00  0.00     0.004 C 
ENDBRANCH  12  13
ENDBRANCH  11  12
ENDBRANCH  10  11
ENDBRANCH   9  10
ENDBRANCH   1   9
TORSDOF 10
ENDMDL
MODEL 2
REMARK VINA RESULT:    -3.505      3.457      6.652
REMARK INTER + INTRA:          -6.072
REMARK INTER:                  -4.709
REMARK INTRA:                  -1.363
REMARK UNBOUND:                -0.518
REMARK SMILES CCCCCCCCCCCC(=O)[O-]
REMARK SMILES IDX 7 1 8 2 9 3 10 4 11 5 12 6 13 7 14 8 6 9 5 10 4 11 3 12 2 13
REMARK SMILES IDX 1 14
REMARK H PARENT
REMARK Flexibility Score: inf
ROOT
ATOM      1  C   UNL     1       3.518  68.989  19.455  1.00  0.00     0.000 C 
ENDROOT
BRANCH   1   2
ATOM      2  C   UNL     1       2.829  68.108  20.503  1.00  0.00     0.000 C 
BRANCH   2   3
ATOM      3  C   UNL     1       2.686  68.849  21.838  1.00  0.00     0.000 C 
BRANCH   3   4
ATOM      4  C   UNL     1       3.571  68.212  22.919  1.00  0.00     0.006 C 
BRANCH   4   5
ATOM      5  C   UNL     1       4.651  69.176  23.428  1.00  0.00     0.053 C 
BRANCH   5   6
ATOM      6  C   UNL     1       5.988  68.886  22.816  1.00  0.00     0.041 C 
ATOM      7  O   UNL     1       6.070  68.180  21.777  1.00  0.00    -0.550 OA
ATOM      8  O   UNL     1       7.140  69.426  23.375  1.00  0.00    -0.550 OA
ENDBRANCH   5   6
ENDBRANCH   4   5
ENDBRANCH   3   4
ENDBRANCH   2   3
ENDBRANCH   1   2
BRANCH   1   9
ATOM      9  C   UNL     1       3.747  70.409  19.994  1.00  0.00     0.000 C 
BRANCH   9  10
ATOM     10  C   UNL     1       3.485  71.493  18.936  1.00  0.00    -0.000 C 
BRANCH  10  11
ATOM     11  C   UNL     1       2.094  71.367  18.292  1.00  0.00    -0.000 C 
BRANCH  11  12
ATOM     12  C   UNL     1       0.948  71.568  19.300  1.00  0.00    -0.000 C 
BRANCH  12  13
ATOM     13  C   UNL     1      -0.065  70.412  19.363  1.00  0.00    -0.003 C 
ATOM     14  C   UNL     1       0.156  69.363  18.274  1.00  0.00     0.004 C 
ENDBRANCH  12  13
ENDBRANCH  11  12
ENDBRANCH  10  11
ENDBRANCH   9  10
ENDBRANCH   1   9
TORSDOF 10
ENDMDL
MODEL 3
REMARK VINA RESULT:    -3.409     12.958     15.341
REMARK INTER + INTRA:          -5.921
REMARK INTER:                  -4.569
REMARK INTRA:                  -1.352
REMARK UNBOUND:                -0.518
REMARK SMILES CCCCCCCCCCCC(=O)[O-]
REMARK SMILES IDX 7 1 8 2 9 3 10 4 11 5 12 6 13 7 14 8 6 9 5 10 4 11 3 12 2 13
REMARK SMILES IDX 1 14
REMARK H PARENT
REMARK Flexibility Score: inf
ROOT
ATOM      1  C   UNL     1       4.470  66.245   5.425  1.00  0.00     0.000 C 
ENDROOT
BRANCH   1   2
ATOM      2  C   UNL     1       3.002  66.660   5.266  1.00  0.00     0.000 C 
BRANCH   2   3
ATOM      3  C   UNL     1       2.159  66.166   6.447  1.00  0.00     0.000 C 
BRANCH   3   4
ATOM      4  C   UNL     1       3.010  65.342   7.425  1.00  0.00     0.006 C 
BRANCH   4   5
ATOM      5  C   UNL     1       2.160  64.675   8.514  1.00  0.00     0.053 C 
BRANCH   5   6
ATOM      6  C   UNL     1       1.976  63.210   8.256  1.00  0.00     0.041 C 
ATOM      7  O   UNL     1       2.758  62.371   8.776  1.00  0.00    -0.550 OA
ATOM      8  O   UNL     1       0.919  62.770   7.469  1.00  0.00    -0.550 OA
ENDBRANCH   5   6
ENDBRANCH   4   5
ENDBRANCH   3   4
ENDBRANCH   2   3
ENDBRANCH   1   2
BRANCH   1   9
ATOM      9  C   UNL     1       5.411  67.414   5.097  1.00  0.00     0.000 C 
BRANCH   9  10
ATOM     10  C   UNL     1       4.657  68.734   4.868  1.00  0.00    -0.000 C 
BRANCH  10  11
ATOM     11  C   UNL     1       5.144  69.861   5.795  1.00  0.00    -0.000 C 
BRANCH  11  12
ATOM     12  C   UNL     1       5.045  69.492   7.286  1.00  0.00    -0.000 C 
BRANCH  12  13
ATOM     13  C   UNL     1       3.610  69.360   7.823  1.00  0.00    -0.003 C 
ATOM     14  C   UNL     1       3.535  68.605   9.150  1.00  0.00     0.004 C 
ENDBRANCH  12  13
ENDBRANCH  11  12
ENDBRANCH  10  11
ENDBRANCH   9  10
ENDBRANCH   1   9
TORSDOF 10
ENDMDL
MODEL 4
REMARK VINA RESULT:    -3.403     10.360     12.163
REMARK INTER + INTRA:          -5.910
REMARK INTER:                  -5.356
REMARK INTRA:                  -0.554
REMARK UNBOUND:                -0.518
REMARK SMILES CCCCCCCCCCCC(=O)[O-]
REMARK SMILES IDX 7 1 8 2 9 3 10 4 11 5 12 6 13 7 14 8 6 9 5 10 4 11 3 12 2 13
REMARK SMILES IDX 1 14
REMARK H PARENT
REMARK Flexibility Score: inf
ROOT
ATOM      1  C   UNL     1       2.165  66.679  12.430  1.00  0.00     0.000 C 
ENDROOT
BRANCH   1   2
ATOM      2  C   UNL     1       2.590  65.668  13.501  1.00  0.00     0.000 C 
BRANCH   2   3
ATOM      3  C   UNL     1       1.369  65.001  14.145  1.00  0.00     0.000 C 
BRANCH   3   4
ATOM      4  C   UNL     1       1.726  63.611  14.693  1.00  0.00     0.006 C 
BRANCH   4   5
ATOM      5  C   UNL     1       3.240  63.363  14.705  1.00  0.00     0.053 C 
BRANCH   5   6
ATOM      6  C   UNL     1       3.612  62.242  15.627  1.00  0.00     0.041 C 
ATOM      7  O   UNL     1       3.211  62.242  16.820  1.00  0.00    -0.550 OA
ATOM      8  O   UNL     1       4.375  61.179  15.158  1.00  0.00    -0.550 OA
ENDBRANCH   5   6
ENDBRANCH   4   5
ENDBRANCH   3   4
ENDBRANCH   2   3
ENDBRANCH   1   2
BRANCH   1   9
ATOM      9  C   UNL     1       2.856  66.387  11.091  1.00  0.00     0.000 C 
BRANCH   9  10
ATOM     10  C   UNL     1       2.341  65.099  10.427  1.00  0.00    -0.000 C 
BRANCH  10  11
ATOM     11  C   UNL     1       2.667  65.036   8.925  1.00  0.00    -0.000 C 
BRANCH  11  12
ATOM     12  C   UNL     1       3.260  63.681   8.500  1.00  0.00    -0.000 C 
BRANCH  12  13
ATOM     13  C   UNL     1       2.233  62.544   8.358  1.00  0.00    -0.003 C 
ATOM     14  C   UNL     1       0.965  62.972   7.619  1.00  0.00     0.004 C 
ENDBRANCH  12  13
ENDBRANCH  11  12
ENDBRANCH  10  11
ENDBRANCH   9  10
ENDBRANCH   1   9
TORSDOF 10
ENDMDL
MODEL 5
REMARK VINA RESULT:    -3.390     14.191     15.655
REMARK INTER + INTRA:          -5.890
REMARK INTER:                  -5.306
REMARK INTRA:                  -0.584
REMARK UNBOUND:                -0.518
REMARK SMILES CCCCCCCCCCCC(=O)[O-]
REMARK SMILES IDX 7 1 8 2 9 3 10 4 11 5 12 6 13 7 14 8 6 9 5 10 4 11 3 12 2 13
REMARK SMILES IDX 1 14
REMARK H PARENT
REMARK Flexibility Score: inf
ROOT
ATOM      1  C   UNL     1       4.657  66.945   5.503  1.00  0.00     0.000 C 
ENDROOT
BRANCH   1   2
ATOM      2  C   UNL     1       3.909  65.915   6.359  1.00  0.00     0.000 C 
BRANCH   2   3
ATOM      3  C   UNL     1       2.706  66.552   7.063  1.00  0.00     0.000 C 
BRANCH   3   4
ATOM      4  C   UNL     1       1.573  65.532   7.250  1.00  0.00     0.006 C 
BRANCH   4   5
ATOM      5  C   UNL     1       1.753  64.691   8.520  1.00  0.00     0.053 C 
BRANCH   5   6
ATOM      6  C   UNL     1       1.766  63.224   8.218  1.00  0.00     0.041 C 
ATOM      7  O   UNL     1       0.909  62.728   7.439  1.00  0.00    -0.550 OA
ATOM      8  O   UNL     1       2.748  62.408   8.769  1.00  0.00    -0.550 OA
ENDBRANCH   5   6
ENDBRANCH   4   5
ENDBRANCH   3   4
ENDBRANCH   2   3
ENDBRANCH   1   2
BRANCH   1   9
ATOM      9  C   UNL     1       5.511  66.254   4.430  1.00  0.00     0.000 C 
BRANCH   9  10
ATOM     10  C   UNL     1       6.751  67.074   4.042  1.00  0.00    -0.000 C 
BRANCH  10  11
ATOM     11  C   UNL     1       6.742  68.485   4.654  1.00  0.00    -0.000 C 
BRANCH  11  12
ATOM     12  C   UNL     1       7.999  68.780   5.493  1.00  0.00    -0.000 C 
BRANCH  12  13
ATOM     13  C   UNL     1       7.818  69.870   6.564  1.00  0.00    -0.003 C 
ATOM     14  C   UNL     1       6.389  69.951   7.099  1.00  0.00     0.004 C 
ENDBRANCH  12  13
ENDBRANCH  11  12
ENDBRANCH  10  11
ENDBRANCH   9  10
ENDBRANCH   1   9
TORSDOF 10
ENDMDL
MODEL 6
REMARK VINA RESULT:    -3.390      1.959      2.585
REMARK INTER + INTRA:          -5.889
REMARK INTER:                  -5.182
REMARK INTRA:                  -0.707
REMARK UNBOUND:                -0.518
REMARK SMILES CCCCCCCCCCCC(=O)[O-]
REMARK SMILES IDX 7 1 8 2 9 3 10 4 11 5 12 6 13 7 14 8 6 9 5 10 4 11 3 12 2 13
REMARK SMILES IDX 1 14
REMARK H PARENT
REMARK Flexibility Score: inf
ROOT
ATOM      1  C   UNL     1       4.569  69.291  21.443  1.00  0.00     0.000 C 
ENDROOT
BRANCH   1   2
ATOM      2  C   UNL     1       3.398  69.699  20.542  1.00  0.00     0.000 C 
BRANCH   2   3
ATOM      3  C   UNL     1       3.811  70.810  19.570  1.00  0.00     0.000 C 
BRANCH   3   4
ATOM      4  C   UNL     1       2.696  71.095  18.553  1.00  0.00     0.006 C 
BRANCH   4   5
ATOM      5  C   UNL     1       1.366  71.447  19.232  1.00  0.00     0.053 C 
BRANCH   5   6
ATOM      6  C   UNL     1       0.304  70.432  18.936  1.00  0.00     0.041 C 
ATOM      7  O   UNL     1       0.433  69.645  17.962  1.00  0.00    -0.550 OA
ATOM      8  O   UNL     1      -0.811  70.332  19.759  1.00  0.00    -0.550 OA
ENDBRANCH   5   6
ENDBRANCH   4   5
ENDBRANCH   3   4
ENDBRANCH   2   3
ENDBRANCH   1   2
BRANCH   1   9
ATOM      9  C   UNL     1       4.077  68.905  22.845  1.00  0.00     0.000 C 
BRANCH   9  10
ATOM     10  C   UNL     1       5.055  69.326  23.953  1.00  0.00    -0.000 C 
BRANCH  10  11
ATOM     11  C   UNL     1       6.405  69.812  23.397  1.00  0.00    -0.000 C 
BRANCH  11  12
ATOM     12  C   UNL     1       7.590  68.954  23.873  1.00  0.00    -0.000 C 
BRANCH  12  13
ATOM     13  C   UNL     1       7.509  67.468  23.480  1.00  0.00    -0.003 C 
ATOM     14  C   UNL     1       7.661  67.239  21.976  1.00  0.00     0.004 C 
ENDBRANCH  12  13
ENDBRANCH  11  12
ENDBRANCH  10  11
ENDBRANCH   9  10
ENDBRANCH   1   9
TORSDOF 10
ENDMDL
MODEL 7
REMARK VINA RESULT:    -3.373      4.009      7.331
REMARK INTER + INTRA:          -5.863
REMARK INTER:                  -5.113
REMARK INTRA:                  -0.750
REMARK UNBOUND:                -0.518
REMARK SMILES CCCCCCCCCCCC(=O)[O-]
REMARK SMILES IDX 7 1 8 2 9 3 10 4 11 5 12 6 13 7 14 8 6 9 5 10 4 11 3 12 2 13
REMARK SMILES IDX 1 14
REMARK H PARENT
REMARK Flexibility Score: inf
ROOT
ATOM      1  C   UNL     1       3.729  69.055  19.993  1.00  0.00     0.000 C 
ENDROOT
BRANCH   1   2
ATOM      2  C   UNL     1       4.523  69.609  21.181  1.00  0.00     0.000 C 
BRANCH   2   3
ATOM      3  C   UNL     1       4.851  68.501  22.189  1.00  0.00     0.000 C 
BRANCH   3   4
ATOM      4  C   UNL     1       6.266  67.948  21.959  1.00  0.00     0.006 C 
BRANCH   4   5
ATOM      5  C   UNL     1       7.231  68.337  23.087  1.00  0.00     0.053 C 
BRANCH   5   6
ATOM      6  C   UNL     1       8.589  67.737  22.887  1.00  0.00     0.041 C 
ATOM      7  O   UNL     1       8.769  66.850  22.011  1.00  0.00    -0.550 OA
ATOM      8  O   UNL     1       9.665  68.183  23.645  1.00  0.00    -0.550 OA
ENDBRANCH   5   6
ENDBRANCH   4   5
ENDBRANCH   3   4
ENDBRANCH   2   3
ENDBRANCH   1   2
BRANCH   1   9
ATOM      9  C   UNL     1       2.218  69.121  20.261  1.00  0.00     0.000 C 
BRANCH   9  10
ATOM     10  C   UNL     1       1.383  69.002  18.976  1.00  0.00    -0.000 C 
BRANCH  10  11
ATOM     11  C   UNL     1       1.166  70.358  18.284  1.00  0.00    -0.000 C 
BRANCH  11  12
ATOM     12  C   UNL     1       0.955  71.511  19.282  1.00  0.00    -0.000 C 
BRANCH  12  13
ATOM     13  C   UNL     1       1.942  72.682  19.132  1.00  0.00    -0.003 C 
ATOM     14  C   UNL     1       3.125  72.354  18.222  1.00  0.00     0.004 C 
ENDBRANCH  12  13
ENDBRANCH  11  12
ENDBRANCH  10  11
ENDBRANCH   9  10
ENDBRANCH   1   9
TORSDOF 10
ENDMDL
MODEL 8
REMARK VINA RESULT:    -3.336      1.928      2.676
REMARK INTER + INTRA:          -5.805
REMARK INTER:                  -5.006
REMARK INTRA:                  -0.799
REMARK UNBOUND:                -0.518
REMARK SMILES CCCCCCCCCCCC(=O)[O-]
REMARK SMILES IDX 7 1 8 2 9 3 10 4 11 5 12 6 13 7 14 8 6 9 5 10 4 11 3 12 2 13
REMARK SMILES IDX 1 14
REMARK H PARENT
REMARK Flexibility Score: inf
ROOT
ATOM      1  C   UNL     1       2.161  67.480  21.029  1.00  0.00     0.000 C 
ENDROOT
BRANCH   1   2
ATOM      2  C   UNL     1       1.442  68.133  19.843  1.00  0.00     0.000 C 
BRANCH   2   3
ATOM      3  C   UNL     1       1.629  69.655  19.855  1.00  0.00     0.000 C 
BRANCH   3   4
ATOM      4  C   UNL     1       2.638  70.094  18.784  1.00  0.00     0.006 C 
BRANCH   4   5
ATOM      5  C   UNL     1       3.405  71.359  19.193  1.00  0.00     0.053 C 
BRANCH   5   6
ATOM      6  C   UNL     1       2.754  72.600  18.662  1.00  0.00     0.041 C 
ATOM      7  O   UNL     1       3.300  73.257  17.738  1.00  0.00    -0.550 OA
ATOM      8  O   UNL     1       1.525  73.011  19.165  1.00  0.00    -0.550 OA
ENDBRANCH   5   6
ENDBRANCH   4   5
ENDBRANCH   3   4
ENDBRANCH   2   3
ENDBRANCH   1   2
BRANCH   1   9
ATOM      9  C   UNL     1       2.238  68.442  22.223  1.00  0.00     0.000 C 
BRANCH   9  10
ATOM     10  C   UNL     1       3.338  68.055  23.225  1.00  0.00    -0.000 C 
BRANCH  10  11
ATOM     11  C   UNL     1       4.719  67.916  22.562  1.00  0.00    -0.000 C 
BRANCH  11  12
ATOM     12  C   UNL     1       5.409  69.273  22.331  1.00  0.00    -0.000 C 
BRANCH  12  13
ATOM     13  C   UNL     1       6.261  69.772  23.510  1.00  0.00    -0.003 C 
ATOM     14  C   UNL     1       7.502  68.915  23.757  1.00  0.00     0.004 C 
ENDBRANCH  12  13
ENDBRANCH  11  12
ENDBRANCH  10  11
ENDBRANCH   9  10
ENDBRANCH   1   9
TORSDOF 10
ENDMDL
MODEL 9
REMARK VINA RESULT:    -3.300     13.277     15.236
REMARK INTER + INTRA:          -5.748
REMARK INTER:                  -4.734
REMARK INTRA:                  -1.014
REMARK UNBOUND:                -0.518
REMARK SMILES CCCCCCCCCCCC(=O)[O-]
REMARK SMILES IDX 7 1 8 2 9 3 10 4 11 5 12 6 13 7 14 8 6 9 5 10 4 11 3 12 2 13
REMARK SMILES IDX 1 14
REMARK H PARENT
REMARK Flexibility Score: inf
ROOT
ATOM      1  C   UNL     1       2.541  68.392   7.284  1.00  0.00     0.000 C 
ENDROOT
BRANCH   1   2
ATOM      2  C   UNL     1       1.732  67.399   8.127  1.00  0.00     0.000 C 
BRANCH   2   3
ATOM      3  C   UNL     1       2.636  66.647   9.111  1.00  0.00     0.000 C 
BRANCH   3   4
ATOM      4  C   UNL     1       2.122  65.219   9.350  1.00  0.00     0.006 C 
BRANCH   4   5
ATOM      5  C   UNL     1       2.915  64.176   8.551  1.00  0.00     0.053 C 
BRANCH   5   6
ATOM      6  C   UNL     1       2.151  62.897   8.394  1.00  0.00     0.041 C 
ATOM      7  O   UNL     1       1.139  62.851   7.647  1.00  0.00    -0.550 OA
ATOM      8  O   UNL     1       2.578  61.747   9.046  1.00  0.00    -0.550 OA
ENDBRANCH   5   6
ENDBRANCH   4   5
ENDBRANCH   3   4
ENDBRANCH   2   3
ENDBRANCH   1   2
BRANCH   1   9
ATOM      9  C   UNL     1       2.454  68.045   5.791  1.00  0.00     0.000 C 
BRANCH   9  10
ATOM     10  C   UNL     1       2.756  66.565   5.508  1.00  0.00    -0.000 C 
BRANCH  10  11
ATOM     11  C   UNL     1       4.257  66.240   5.595  1.00  0.00    -0.000 C 
BRANCH  11  12
ATOM     12  C   UNL     1       5.060  66.807   4.410  1.00  0.00    -0.000 C 
BRANCH  12  13
ATOM     13  C   UNL     1       6.348  67.553   4.802  1.00  0.00    -0.003 C 
ATOM     14  C   UNL     1       6.089  68.759   5.705  1.00  0.00     0.004 C 
ENDBRANCH  12  13
ENDBRANCH  11  12
ENDBRANCH  10  11
ENDBRANCH   9  10
ENDBRANCH   1   9
TORSDOF 10
ENDMDL
