MODEL 1
REMARK VINA RESULT:    -4.621      0.000      0.000
REMARK INTER + INTRA:          -7.263
REMARK INTER:                  -6.783
REMARK INTRA:                  -0.480
REMARK UNBOUND:                -0.480
REMARK SMILES O=C([O-])CCCCCCCC(=O)[O-]
REMARK SMILES IDX 7 1 6 2 5 3 4 4 2 5 1 6 3 7 8 8 9 9 10 10 11 11 12 12 13 13
REMARK H PARENT
REMARK Flexibility Score: inf
ROOT
ATOM      1  C   UNL     1     -10.135 -13.609  14.889  1.00  0.00     0.000 C 
ENDROOT
BRANCH   1   2
ATOM      2  C   UNL     1     -10.942 -12.804  15.921  1.00  0.00     0.000 C 
BRANCH   2   3
ATOM      3  C   UNL     1     -12.450 -12.816  15.631  1.00  0.00     0.006 C 
BRANCH   3   4
ATOM      4  C   UNL     1     -12.833 -14.030  14.780  1.00  0.00     0.053 C 
BRANCH   4   5
ATOM      5  C   UNL     1     -13.927 -13.676  13.823  1.00  0.00     0.041 C 
ATOM      6  O   UNL     1     -14.295 -12.478  13.697  1.00  0.00    -0.550 OA
ATOM      7  O   UNL     1     -14.507 -14.662  13.034  1.00  0.00    -0.550 OA
ENDBRANCH   4   5
ENDBRANCH   3   4
ENDBRANCH   2   3
ENDBRANCH   1   2
BRANCH   1   8
ATOM      8  C   UNL     1      -9.305 -12.713  13.957  1.00  0.00     0.000 C 
BRANCH   8   9
ATOM      9  C   UNL     1      -9.384 -11.245  14.392  1.00  0.00     0.006 C 
BRANCH   9  10
ATOM     10  C   UNL     1      -8.136 -10.473  13.953  1.00  0.00     0.053 C 
BRANCH  10  11
ATOM     11  C   UNL     1      -6.922 -11.000  14.650  1.00  0.00     0.041 C 
ATOM     12  O   UNL     1      -6.826 -10.923  15.903  1.00  0.00    -0.550 OA
ATOM     13  O   UNL     1      -5.871 -11.530  13.911  1.00  0.00    -0.550 OA
ENDBRANCH  10  11
ENDBRANCH   9  10
ENDBRANCH   8   9
ENDBRANCH   1   8
TORSDOF 8
ENDMDL
MODEL 2
REMARK VINA RESULT:    -4.588      0.556      6.412
REMARK INTER + INTRA:          -7.214
REMARK INTER:                  -6.775
REMARK INTRA:                  -0.439
REMARK UNBOUND:                -0.480
REMARK SMILES O=C([O-])CCCCCCCC(=O)[O-]
REMARK SMILES IDX 7 1 6 2 5 3 4 4 2 5 1 6 3 7 8 8 9 9 10 10 11 11 12 12 13 13
REMARK H PARENT
REMARK Flexibility Score: inf
ROOT
ATOM      1  C   UNL     1     -10.391 -13.651  14.831  1.00  0.00     0.000 C 
ENDROOT
BRANCH   1   2
ATOM      2  C   UNL     1      -9.372 -12.794  14.062  1.00  0.00     0.000 C 
BRANCH   2   3
ATOM      3  C   UNL     1      -9.370 -11.327  14.518  1.00  0.00     0.006 C 
BRANCH   3   4
ATOM      4  C   UNL     1      -8.373 -10.502  13.699  1.00  0.00     0.053 C 
BRANCH   4   5
ATOM      5  C   UNL     1      -7.034 -10.482  14.368  1.00  0.00     0.041 C 
ATOM      6  O   UNL     1      -6.919 -10.856  15.565  1.00  0.00    -0.550 OA
ATOM      7  O   UNL     1      -5.906 -10.098  13.654  1.00  0.00    -0.550 OA
ENDBRANCH   4   5
ENDBRANCH   3   4
ENDBRANCH   2   3
ENDBRANCH   1   2
BRANCH   1   8
ATOM      8  C   UNL     1     -11.184 -12.841  15.867  1.00  0.00     0.000 C 
BRANCH   8   9
ATOM      9  C   UNL     1     -12.677 -13.185  15.806  1.00  0.00     0.006 C 
BRANCH   9  10
ATOM     10  C   UNL     1     -12.972 -14.152  14.656  1.00  0.00     0.053 C 
BRANCH  10  11
ATOM     11  C   UNL     1     -13.962 -13.553  13.707  1.00  0.00     0.041 C 
ATOM     12  O   UNL     1     -13.844 -12.353  13.342  1.00  0.00    -0.550 OA
ATOM     13  O   UNL     1     -15.045 -14.303  13.266  1.00  0.00    -0.550 OA
ENDBRANCH  10  11
ENDBRANCH   9  10
ENDBRANCH   8   9
ENDBRANCH   1   8
TORSDOF 8
ENDMDL
MODEL 3
REMARK VINA RESULT:    -4.547      1.307      6.235
REMARK INTER + INTRA:          -7.154
REMARK INTER:                  -6.734
REMARK INTRA:                  -0.420
REMARK UNBOUND:                -0.480
REMARK SMILES O=C([O-])CCCCCCCC(=O)[O-]
REMARK SMILES IDX 7 1 6 2 5 3 4 4 2 5 1 6 3 7 8 8 9 9 10 10 11 11 12 12 13 13
REMARK H PARENT
REMARK Flexibility Score: inf
ROOT
ATOM      1  C   UNL     1     -11.304 -12.773  15.943  1.00  0.00     0.000 C 
ENDROOT
BRANCH   1   2
ATOM      2  C   UNL     1      -9.817 -12.395  16.046  1.00  0.00     0.000 C 
BRANCH   2   3
ATOM      3  C   UNL     1      -9.119 -12.367  14.678  1.00  0.00     0.006 C 
BRANCH   3   4
ATOM      4  C   UNL     1      -8.723 -10.937  14.296  1.00  0.00     0.053 C 
BRANCH   4   5
ATOM      5  C   UNL     1      -7.285 -10.686  14.625  1.00  0.00     0.041 C 
ATOM      6  O   UNL     1      -6.750 -11.263  15.608  1.00  0.00    -0.550 OA
ATOM      7  O   UNL     1      -6.522  -9.854  13.815  1.00  0.00    -0.550 OA
ENDBRANCH   4   5
ENDBRANCH   3   4
ENDBRANCH   2   3
ENDBRANCH   1   2
BRANCH   1   8
ATOM      8  C   UNL     1     -11.554 -13.937  14.973  1.00  0.00     0.000 C 
BRANCH   8   9
ATOM      9  C   UNL     1     -12.783 -13.667  14.097  1.00  0.00     0.006 C 
BRANCH   9  10
ATOM     10  C   UNL     1     -12.898 -12.178  13.754  1.00  0.00     0.053 C 
BRANCH  10  11
ATOM     11  C   UNL     1     -14.158 -11.911  12.994  1.00  0.00     0.041 C 
ATOM     12  O   UNL     1     -15.251 -12.395  13.388  1.00  0.00    -0.550 OA
ATOM     13  O   UNL     1     -14.118 -11.168  11.821  1.00  0.00    -0.550 OA
ENDBRANCH  10  11
ENDBRANCH   9  10
ENDBRANCH   8   9
ENDBRANCH   1   8
TORSDOF 8
ENDMDL
MODEL 4
REMARK VINA RESULT:    -4.543      2.257      6.887
REMARK INTER + INTRA:          -7.148
REMARK INTER:                  -6.567
REMARK INTRA:                  -0.582
REMARK UNBOUND:                -0.480
REMARK SMILES O=C([O-])CCCCCCCC(=O)[O-]
REMARK SMILES IDX 7 1 6 2 5 3 4 4 2 5 1 6 3 7 8 8 9 9 10 10 11 11 12 12 13 13
REMARK H PARENT
REMARK Flexibility Score: inf
ROOT
ATOM      1  C   UNL     1     -13.123 -14.308  14.406  1.00  0.00     0.000 C 
ENDROOT
BRANCH   1   2
ATOM      2  C   UNL     1     -13.105 -13.426  15.665  1.00  0.00     0.000 C 
BRANCH   2   3
ATOM      3  C   UNL     1     -11.710 -12.860  15.971  1.00  0.00     0.006 C 
BRANCH   3   4
ATOM      4  C   UNL     1     -10.959 -12.530  14.677  1.00  0.00     0.053 C 
BRANCH   4   5
ATOM      5  C   UNL     1      -9.480 -12.567  14.905  1.00  0.00     0.041 C 
ATOM      6  O   UNL     1      -8.715 -11.845  14.213  1.00  0.00    -0.550 OA
ATOM      7  O   UNL     1      -8.952 -13.361  15.915  1.00  0.00    -0.550 OA
ENDBRANCH   4   5
ENDBRANCH   3   4
ENDBRANCH   2   3
ENDBRANCH   1   2
BRANCH   1   8
ATOM      8  C   UNL     1     -14.290 -13.975  13.465  1.00  0.00     0.000 C 
BRANCH   8   9
ATOM      9  C   UNL     1     -14.969 -12.663  13.875  1.00  0.00     0.006 C 
BRANCH   9  10
ATOM     10  C   UNL     1     -16.494 -12.795  13.833  1.00  0.00     0.053 C 
BRANCH  10  11
ATOM     11  C   UNL     1     -16.953 -13.873  14.763  1.00  0.00     0.041 C 
ATOM     12  O   UNL     1     -16.621 -13.846  15.977  1.00  0.00    -0.550 OA
ATOM     13  O   UNL     1     -17.705 -14.936  14.279  1.00  0.00    -0.550 OA
ENDBRANCH  10  11
ENDBRANCH   9  10
ENDBRANCH   8   9
ENDBRANCH   1   8
TORSDOF 8
ENDMDL
MODEL 5
REMARK VINA RESULT:    -4.540      1.437      1.935
REMARK INTER + INTRA:          -7.143
REMARK INTER:                  -6.728
REMARK INTRA:                  -0.415
REMARK UNBOUND:                -0.480
REMARK SMILES O=C([O-])CCCCCCCC(=O)[O-]
REMARK SMILES IDX 7 1 6 2 5 3 4 4 2 5 1 6 3 7 8 8 9 9 10 10 11 11 12 12 13 13
REMARK H PARENT
REMARK Flexibility Score: inf
ROOT
ATOM      1  C   UNL     1     -11.168 -12.947  15.614  1.00  0.00     0.000 C 
ENDROOT
BRANCH   1   2
ATOM      2  C   UNL     1     -11.385 -12.826  14.097  1.00  0.00     0.000 C 
BRANCH   2   3
ATOM      3  C   UNL     1     -12.584 -11.934  13.741  1.00  0.00     0.006 C 
BRANCH   3   4
ATOM      4  C   UNL     1     -13.785 -12.250  14.638  1.00  0.00     0.053 C 
BRANCH   4   5
ATOM      5  C   UNL     1     -14.904 -12.831  13.832  1.00  0.00     0.041 C 
ATOM      6  O   UNL     1     -14.668 -13.714  12.965  1.00  0.00    -0.550 OA
ATOM      7  O   UNL     1     -16.213 -12.433  14.072  1.00  0.00    -0.550 OA
ENDBRANCH   4   5
ENDBRANCH   3   4
ENDBRANCH   2   3
ENDBRANCH   1   2
BRANCH   1   8
ATOM      8  C   UNL     1      -9.766 -12.498  16.050  1.00  0.00     0.000 C 
BRANCH   8   9
ATOM      9  C   UNL     1      -9.112 -11.620  14.976  1.00  0.00     0.006 C 
BRANCH   9  10
ATOM     10  C   UNL     1      -7.588 -11.606  15.131  1.00  0.00     0.053 C 
BRANCH  10  11
ATOM     11  C   UNL     1      -6.926 -11.919  13.826  1.00  0.00     0.041 C 
ATOM     12  O   UNL     1      -7.570 -12.493  12.910  1.00  0.00    -0.550 OA
ATOM     13  O   UNL     1      -5.581 -11.623  13.640  1.00  0.00    -0.550 OA
ENDBRANCH  10  11
ENDBRANCH   9  10
ENDBRANCH   8   9
ENDBRANCH   1   8
TORSDOF 8
ENDMDL
MODEL 6
REMARK VINA RESULT:    -4.517      1.513      6.111
REMARK INTER + INTRA:          -7.110
REMARK INTER:                  -6.696
REMARK INTRA:                  -0.414
REMARK UNBOUND:                -0.480
REMARK SMILES O=C([O-])CCCCCCCC(=O)[O-]
REMARK SMILES IDX 7 1 6 2 5 3 4 4 2 5 1 6 3 7 8 8 9 9 10 10 11 11 12 12 13 13
REMARK H PARENT
REMARK Flexibility Score: inf
ROOT
ATOM      1  C   UNL     1     -11.213 -13.556  15.112  1.00  0.00     0.000 C 
ENDROOT
BRANCH   1   2
ATOM      2  C   UNL     1      -9.797 -13.197  15.592  1.00  0.00     0.000 C 
BRANCH   2   3
ATOM      3  C   UNL     1      -9.264 -11.908  14.949  1.00  0.00     0.006 C 
BRANCH   3   4
ATOM      4  C   UNL     1      -7.738 -11.833  15.059  1.00  0.00     0.053 C 
BRANCH   4   5
ATOM      5  C   UNL     1      -7.102 -12.076  13.726  1.00  0.00     0.041 C 
ATOM      6  O   UNL     1      -5.885 -11.806  13.547  1.00  0.00    -0.550 OA
ATOM      7  O   UNL     1      -7.841 -12.647  12.698  1.00  0.00    -0.550 OA
ENDBRANCH   4   5
ENDBRANCH   3   4
ENDBRANCH   2   3
ENDBRANCH   1   2
BRANCH   1   8
ATOM      8  C   UNL     1     -12.310 -12.986  16.024  1.00  0.00     0.000 C 
BRANCH   8   9
ATOM      9  C   UNL     1     -13.451 -12.382  15.197  1.00  0.00     0.006 C 
BRANCH   9  10
ATOM     10  C   UNL     1     -13.037 -12.207  13.733  1.00  0.00     0.053 C 
BRANCH  10  11
ATOM     11  C   UNL     1     -14.231 -11.907  12.883  1.00  0.00     0.041 C 
ATOM     12  O   UNL     1     -15.341 -12.445  13.136  1.00  0.00    -0.550 OA
ATOM     13  O   UNL     1     -14.107 -11.072  11.780  1.00  0.00    -0.550 OA
ENDBRANCH  10  11
ENDBRANCH   9  10
ENDBRANCH   8   9
ENDBRANCH   1   8
TORSDOF 8
ENDMDL
MODEL 7
REMARK VINA RESULT:    -4.491      1.853      6.843
REMARK INTER + INTRA:          -7.072
REMARK INTER:                  -6.701
REMARK INTRA:                  -0.371
REMARK UNBOUND:                -0.480
REMARK SMILES O=C([O-])CCCCCCCC(=O)[O-]
REMARK SMILES IDX 7 1 6 2 5 3 4 4 2 5 1 6 3 7 8 8 9 9 10 10 11 11 12 12 13 13
REMARK H PARENT
REMARK Flexibility Score: inf
ROOT
ATOM      1  C   UNL     1     -11.580 -13.007  15.929  1.00  0.00     0.000 C 
ENDROOT
BRANCH   1   2
ATOM      2  C   UNL     1     -10.130 -12.516  15.790  1.00  0.00     0.000 C 
BRANCH   2   3
ATOM      3  C   UNL     1      -9.790 -12.075  14.358  1.00  0.00     0.006 C 
BRANCH   3   4
ATOM      4  C   UNL     1      -8.830 -10.882  14.367  1.00  0.00     0.053 C 
BRANCH   4   5
ATOM      5  C   UNL     1      -7.444 -11.327  14.715  1.00  0.00     0.041 C 
ATOM      6  O   UNL     1      -6.894 -10.916  15.770  1.00  0.00    -0.550 OA
ATOM      7  O   UNL     1      -6.780 -12.234  13.899  1.00  0.00    -0.550 OA
ENDBRANCH   4   5
ENDBRANCH   3   4
ENDBRANCH   2   3
ENDBRANCH   1   2
BRANCH   1   8
ATOM      8  C   UNL     1     -12.159 -13.526  14.604  1.00  0.00     0.000 C 
BRANCH   8   9
ATOM      9  C   UNL     1     -13.666 -13.786  14.727  1.00  0.00     0.006 C 
BRANCH   9  10
ATOM     10  C   UNL     1     -14.182 -13.380  16.111  1.00  0.00     0.053 C 
BRANCH  10  11
ATOM     11  C   UNL     1     -15.665 -13.555  16.190  1.00  0.00     0.041 C 
ATOM     12  O   UNL     1     -16.359 -13.563  15.139  1.00  0.00    -0.550 OA
ATOM     13  O   UNL     1     -16.289 -13.659  17.427  1.00  0.00    -0.550 OA
ENDBRANCH  10  11
ENDBRANCH   9  10
ENDBRANCH   8   9
ENDBRANCH   1   8
TORSDOF 8
ENDMDL
MODEL 8
REMARK VINA RESULT:    -4.464      1.585      6.514
REMARK INTER + INTRA:          -7.032
REMARK INTER:                  -6.687
REMARK INTRA:                  -0.345
REMARK UNBOUND:                -0.480
REMARK SMILES O=C([O-])CCCCCCCC(=O)[O-]
REMARK SMILES IDX 7 1 6 2 5 3 4 4 2 5 1 6 3 7 8 8 9 9 10 10 11 11 12 12 13 13
REMARK H PARENT
REMARK Flexibility Score: inf
ROOT
ATOM      1  C   UNL     1     -11.385 -12.853  15.569  1.00  0.00     0.000 C 
ENDROOT
BRANCH   1   2
ATOM      2  C   UNL     1      -9.850 -12.804  15.637  1.00  0.00     0.000 C 
BRANCH   2   3
ATOM      3  C   UNL     1      -9.251 -11.735  14.711  1.00  0.00     0.006 C 
BRANCH   3   4
ATOM      4  C   UNL     1      -7.753 -11.558  14.978  1.00  0.00     0.053 C 
BRANCH   4   5
ATOM      5  C   UNL     1      -6.957 -11.926  13.765  1.00  0.00     0.041 C 
ATOM      6  O   UNL     1      -7.513 -12.508  12.796  1.00  0.00    -0.550 OA
ATOM      7  O   UNL     1      -5.614 -11.581  13.684  1.00  0.00    -0.550 OA
ENDBRANCH   4   5
ENDBRANCH   3   4
ENDBRANCH   2   3
ENDBRANCH   1   2
BRANCH   1   8
ATOM      8  C   UNL     1     -11.910 -12.996  14.133  1.00  0.00     0.000 C 
BRANCH   8   9
ATOM      9  C   UNL     1     -12.895 -11.870  13.794  1.00  0.00     0.006 C 
BRANCH   9  10
ATOM     10  C   UNL     1     -14.231 -12.438  13.304  1.00  0.00     0.053 C 
BRANCH  10  11
ATOM     11  C   UNL     1     -15.263 -12.354  14.383  1.00  0.00     0.041 C 
ATOM     12  O   UNL     1     -14.936 -12.004  15.548  1.00  0.00    -0.550 OA
ATOM     13  O   UNL     1     -16.579 -12.711  14.116  1.00  0.00    -0.550 OA
ENDBRANCH  10  11
ENDBRANCH   9  10
ENDBRANCH   8   9
ENDBRANCH   1   8
TORSDOF 8
ENDMDL
MODEL 9
REMARK VINA RESULT:    -4.415      1.724      2.633
REMARK INTER + INTRA:          -6.959
REMARK INTER:                  -6.560
REMARK INTRA:                  -0.399
REMARK UNBOUND:                -0.480
REMARK SMILES O=C([O-])CCCCCCCC(=O)[O-]
REMARK SMILES IDX 7 1 6 2 5 3 4 4 2 5 1 6 3 7 8 8 9 9 10 10 11 11 12 12 13 13
REMARK H PARENT
REMARK Flexibility Score: inf
ROOT
ATOM      1  C   UNL     1     -12.429 -13.758  14.620  1.00  0.00     0.000 C 
ENDROOT
BRANCH   1   2
ATOM      2  C   UNL     1     -12.636 -12.420  13.892  1.00  0.00     0.000 C 
BRANCH   2   3
ATOM      3  C   UNL     1     -14.043 -12.285  13.290  1.00  0.00     0.006 C 
BRANCH   3   4
ATOM      4  C   UNL     1     -14.670 -13.663  13.055  1.00  0.00     0.053 C 
BRANCH   4   5
ATOM      5  C   UNL     1     -16.111 -13.659  13.459  1.00  0.00     0.041 C 
ATOM      6  O   UNL     1     -16.835 -14.663  13.228  1.00  0.00    -0.550 OA
ATOM      7  O   UNL     1     -16.640 -12.568  14.136  1.00  0.00    -0.550 OA
ENDBRANCH   4   5
ENDBRANCH   3   4
ENDBRANCH   2   3
ENDBRANCH   1   2
BRANCH   1   8
ATOM      8  C   UNL     1     -10.984 -13.954  15.101  1.00  0.00     0.000 C 
BRANCH   8   9
ATOM      9  C   UNL     1     -10.487 -12.720  15.863  1.00  0.00     0.006 C 
BRANCH   9  10
ATOM     10  C   UNL     1      -8.956 -12.665  15.881  1.00  0.00     0.053 C 
BRANCH  10  11
ATOM     11  C   UNL     1      -8.463 -11.521  15.052  1.00  0.00     0.041 C 
ATOM     12  O   UNL     1      -7.285 -11.101  15.189  1.00  0.00    -0.550 OA
ATOM     13  O   UNL     1      -9.321 -10.886  14.163  1.00  0.00    -0.550 OA
ENDBRANCH  10  11
ENDBRANCH   9  10
ENDBRANCH   8   9
ENDBRANCH   1   8
TORSDOF 8
ENDMDL
