MODEL 1
REMARK VINA RESULT:    -5.160      0.000      0.000
REMARK INTER + INTRA:          -5.555
REMARK INTER:                  -5.462
REMARK INTRA:                  -0.093
REMARK UNBOUND:                -0.093
REMARK SMILES C=C(C)[C@H]1CC=C(C)C(=O)C1
REMARK SMILES IDX 8 1 7 2 6 3 5 4 4 5 11 6 9 7 10 8 2 9 1 10 3 11
REMARK H PARENT
REMARK Flexibility Score: inf
ROOT
ATOM      1  C   UNL     1     -44.270  18.251  19.052  1.00  0.00     0.048 C 
ATOM      2  C   UNL     1     -43.464  17.917  17.828  1.00  0.00    -0.012 C 
ATOM      3  C   UNL     1     -44.030  17.974  16.610  1.00  0.00    -0.019 C 
ATOM      4  C   UNL     1     -43.286  17.571  15.364  1.00  0.00     0.036 C 
ATOM      5  C   UNL     1     -41.775  17.838  15.506  1.00  0.00     0.025 C 
ATOM      6  C   UNL     1     -41.226  17.142  16.765  1.00  0.00     0.089 C 
ATOM      7  C   UNL     1     -42.047  17.501  17.973  1.00  0.00     0.158 C 
ATOM      8  O   UNL     1     -41.531  17.401  19.117  1.00  0.00    -0.295 OA
ENDROOT
BRANCH   5   9
ATOM      9  C   UNL     1     -41.011  17.424  14.256  1.00  0.00    -0.077 C 
ATOM     10  C   UNL     1     -41.296  17.952  13.054  1.00  0.00     0.008 C 
ATOM     11  C   UNL     1     -39.907  16.401  14.350  1.00  0.00     0.039 C 
ENDBRANCH   5   9
TORSDOF 1
ENDMDL
MODEL 2
REMARK VINA RESULT:    -5.145      0.099      1.050
REMARK INTER + INTRA:          -5.539
REMARK INTER:                  -5.442
REMARK INTRA:                  -0.096
REMARK UNBOUND:                -0.093
REMARK SMILES C=C(C)[C@H]1CC=C(C)C(=O)C1
REMARK SMILES IDX 8 1 7 2 6 3 5 4 4 5 11 6 9 7 10 8 2 9 1 10 3 11
REMARK H PARENT
REMARK Flexibility Score: inf
ROOT
ATOM      1  C   UNL     1     -44.234  18.225  19.089  1.00  0.00     0.048 C 
ATOM      2  C   UNL     1     -43.442  17.908  17.850  1.00  0.00    -0.012 C 
ATOM      3  C   UNL     1     -44.022  17.978  16.640  1.00  0.00    -0.019 C 
ATOM      4  C   UNL     1     -43.293  17.592  15.380  1.00  0.00     0.036 C 
ATOM      5  C   UNL     1     -41.781  17.862  15.507  1.00  0.00     0.025 C 
ATOM      6  C   UNL     1     -41.215  17.151  16.750  1.00  0.00     0.089 C 
ATOM      7  C   UNL     1     -42.022  17.494  17.972  1.00  0.00     0.158 C 
ATOM      8  O   UNL     1     -41.491  17.381  19.109  1.00  0.00    -0.295 OA
ENDROOT
BRANCH   5   9
ATOM      9  C   UNL     1     -41.031  17.465  14.243  1.00  0.00    -0.077 C 
ATOM     10  C   UNL     1     -40.027  16.572  14.275  1.00  0.00     0.008 C 
ATOM     11  C   UNL     1     -41.411  18.075  12.917  1.00  0.00     0.039 C 
ENDBRANCH   5   9
TORSDOF 1
ENDMDL
MODEL 3
REMARK VINA RESULT:    -4.941      1.589      4.401
REMARK INTER + INTRA:          -5.323
REMARK INTER:                  -5.227
REMARK INTRA:                  -0.097
REMARK UNBOUND:                -0.093
REMARK SMILES C=C(C)[C@H]1CC=C(C)C(=O)C1
REMARK SMILES IDX 8 1 7 2 6 3 5 4 4 5 11 6 9 7 10 8 2 9 1 10 3 11
REMARK H PARENT
REMARK Flexibility Score: inf
ROOT
ATOM      1  C   UNL     1     -39.504  16.141  13.354  1.00  0.00     0.048 C 
ATOM      2  C   UNL     1     -40.341  16.685  14.479  1.00  0.00    -0.012 C 
ATOM      3  C   UNL     1     -41.365  17.516  14.219  1.00  0.00    -0.019 C 
ATOM      4  C   UNL     1     -42.180  18.148  15.317  1.00  0.00     0.036 C 
ATOM      5  C   UNL     1     -42.246  17.235  16.557  1.00  0.00     0.025 C 
ATOM      6  C   UNL     1     -40.826  16.864  17.023  1.00  0.00     0.089 C 
ATOM      7  C   UNL     1     -40.017  16.318  15.879  1.00  0.00     0.158 C 
ATOM      8  O   UNL     1     -39.028  15.577  16.126  1.00  0.00    -0.295 OA
ENDROOT
BRANCH   5   9
ATOM      9  C   UNL     1     -43.058  17.869  17.678  1.00  0.00    -0.077 C 
ATOM     10  C   UNL     1     -42.542  18.037  18.908  1.00  0.00     0.008 C 
ATOM     11  C   UNL     1     -44.472  18.326  17.421  1.00  0.00     0.039 C 
ENDBRANCH   5   9
TORSDOF 1
ENDMDL
MODEL 4
REMARK VINA RESULT:    -4.939      1.618      4.313
REMARK INTER + INTRA:          -5.321
REMARK INTER:                  -5.228
REMARK INTRA:                  -0.093
REMARK UNBOUND:                -0.093
REMARK SMILES C=C(C)[C@H]1CC=C(C)C(=O)C1
REMARK SMILES IDX 8 1 7 2 6 3 5 4 4 5 11 6 9 7 10 8 2 9 1 10 3 11
REMARK H PARENT
REMARK Flexibility Score: inf
ROOT
ATOM      1  C   UNL     1     -39.464  16.279  13.138  1.00  0.00     0.048 C 
ATOM      2  C   UNL     1     -40.332  16.793  14.253  1.00  0.00    -0.012 C 
ATOM      3  C   UNL     1     -41.291  17.700  14.000  1.00  0.00    -0.019 C 
ATOM      4  C   UNL     1     -42.130  18.304  15.096  1.00  0.00     0.036 C 
ATOM      5  C   UNL     1     -42.318  17.314  16.262  1.00  0.00     0.025 C 
ATOM      6  C   UNL     1     -40.950  16.827  16.774  1.00  0.00     0.089 C 
ATOM      7  C   UNL     1     -40.109  16.312  15.639  1.00  0.00     0.158 C 
ATOM      8  O   UNL     1     -39.179  15.498  15.884  1.00  0.00    -0.295 OA
ENDROOT
BRANCH   5   9
ATOM      9  C   UNL     1     -43.155  17.918  17.381  1.00  0.00    -0.077 C 
ATOM     10  C   UNL     1     -44.434  18.280  17.182  1.00  0.00     0.008 C 
ATOM     11  C   UNL     1     -42.554  18.119  18.749  1.00  0.00     0.039 C 
ENDBRANCH   5   9
TORSDOF 1
ENDMDL
MODEL 5
REMARK VINA RESULT:    -4.921      2.035      4.802
REMARK INTER + INTRA:          -5.302
REMARK INTER:                  -5.207
REMARK INTRA:                  -0.095
REMARK UNBOUND:                -0.093
REMARK SMILES C=C(C)[C@H]1CC=C(C)C(=O)C1
REMARK SMILES IDX 8 1 7 2 6 3 5 4 4 5 11 6 9 7 10 8 2 9 1 10 3 11
REMARK H PARENT
REMARK Flexibility Score: inf
ROOT
ATOM      1  C   UNL     1     -39.182  16.503  13.571  1.00  0.00     0.048 C 
ATOM      2  C   UNL     1     -40.217  16.753  14.633  1.00  0.00    -0.012 C 
ATOM      3  C   UNL     1     -39.994  16.361  15.899  1.00  0.00    -0.019 C 
ATOM      4  C   UNL     1     -41.033  16.517  16.979  1.00  0.00     0.036 C 
ATOM      5  C   UNL     1     -41.930  17.743  16.716  1.00  0.00     0.025 C 
ATOM      6  C   UNL     1     -42.555  17.656  15.312  1.00  0.00     0.089 C 
ATOM      7  C   UNL     1     -41.495  17.413  14.272  1.00  0.00     0.158 C 
ATOM      8  O   UNL     1     -41.724  17.738  13.076  1.00  0.00    -0.295 OA
ENDROOT
BRANCH   5   9
ATOM      9  C   UNL     1     -42.991  17.904  17.795  1.00  0.00    -0.077 C 
ATOM     10  C   UNL     1     -42.680  17.828  19.100  1.00  0.00     0.008 C 
ATOM     11  C   UNL     1     -44.427  18.156  17.410  1.00  0.00     0.039 C 
ENDBRANCH   5   9
TORSDOF 1
ENDMDL
MODEL 6
REMARK VINA RESULT:    -4.910      1.577      2.354
REMARK INTER + INTRA:          -5.290
REMARK INTER:                  -5.193
REMARK INTRA:                  -0.097
REMARK UNBOUND:                -0.093
REMARK SMILES C=C(C)[C@H]1CC=C(C)C(=O)C1
REMARK SMILES IDX 8 1 7 2 6 3 5 4 4 5 11 6 9 7 10 8 2 9 1 10 3 11
REMARK H PARENT
REMARK Flexibility Score: inf
ROOT
ATOM      1  C   UNL     1     -43.861  18.287  19.125  1.00  0.00     0.048 C 
ATOM      2  C   UNL     1     -42.807  17.863  18.140  1.00  0.00    -0.012 C 
ATOM      3  C   UNL     1     -41.588  17.498  18.570  1.00  0.00    -0.019 C 
ATOM      4  C   UNL     1     -40.476  17.143  17.617  1.00  0.00     0.036 C 
ATOM      5  C   UNL     1     -41.032  16.529  16.316  1.00  0.00     0.025 C 
ATOM      6  C   UNL     1     -42.069  17.475  15.681  1.00  0.00     0.089 C 
ATOM      7  C   UNL     1     -43.112  17.874  16.688  1.00  0.00     0.158 C 
ATOM      8  O   UNL     1     -44.240  18.262  16.281  1.00  0.00    -0.295 OA
ENDROOT
BRANCH   5   9
ATOM      9  C   UNL     1     -39.919  16.178  15.340  1.00  0.00    -0.077 C 
ATOM     10  C   UNL     1     -39.880  16.704  14.104  1.00  0.00     0.008 C 
ATOM     11  C   UNL     1     -38.827  15.223  15.752  1.00  0.00     0.039 C 
ENDBRANCH   5   9
TORSDOF 1
ENDMDL
MODEL 7
REMARK VINA RESULT:    -4.654      2.685      4.660
REMARK INTER + INTRA:          -5.019
REMARK INTER:                  -4.921
REMARK INTRA:                  -0.098
REMARK UNBOUND:                -0.093
REMARK SMILES C=C(C)[C@H]1CC=C(C)C(=O)C1
REMARK SMILES IDX 8 1 7 2 6 3 5 4 4 5 11 6 9 7 10 8 2 9 1 10 3 11
REMARK H PARENT
REMARK Flexibility Score: inf
ROOT
ATOM      1  C   UNL     1     -37.470  14.880  15.743  1.00  0.00     0.048 C 
ATOM      2  C   UNL     1     -38.763  15.574  15.416  1.00  0.00    -0.012 C 
ATOM      3  C   UNL     1     -39.805  15.495  16.261  1.00  0.00    -0.019 C 
ATOM      4  C   UNL     1     -41.144  16.106  15.939  1.00  0.00     0.036 C 
ATOM      5  C   UNL     1     -40.986  17.357  15.053  1.00  0.00     0.025 C 
ATOM      6  C   UNL     1     -40.180  17.015  13.786  1.00  0.00     0.089 C 
ATOM      7  C   UNL     1     -38.890  16.329  14.145  1.00  0.00     0.158 C 
ATOM      8  O   UNL     1     -37.929  16.364  13.331  1.00  0.00    -0.295 OA
ENDROOT
BRANCH   5   9
ATOM      9  C   UNL     1     -42.334  17.977  14.711  1.00  0.00    -0.077 C 
ATOM     10  C   UNL     1     -42.517  18.671  13.575  1.00  0.00     0.008 C 
ATOM     11  C   UNL     1     -43.499  17.818  15.654  1.00  0.00     0.039 C 
ENDBRANCH   5   9
TORSDOF 1
ENDMDL
MODEL 8
REMARK VINA RESULT:    -4.519      2.926      4.363
REMARK INTER + INTRA:          -4.876
REMARK INTER:                  -4.782
REMARK INTRA:                  -0.094
REMARK UNBOUND:                -0.093
REMARK SMILES C=C(C)[C@H]1CC=C(C)C(=O)C1
REMARK SMILES IDX 8 1 7 2 6 3 5 4 4 5 11 6 9 7 10 8 2 9 1 10 3 11
REMARK H PARENT
REMARK Flexibility Score: inf
ROOT
ATOM      1  C   UNL     1     -42.393  18.935  14.062  1.00  0.00     0.048 C 
ATOM      2  C   UNL     1     -41.424  17.873  14.500  1.00  0.00    -0.012 C 
ATOM      3  C   UNL     1     -41.574  17.271  15.692  1.00  0.00    -0.019 C 
ATOM      4  C   UNL     1     -40.583  16.260  16.208  1.00  0.00     0.036 C 
ATOM      5  C   UNL     1     -39.925  15.484  15.050  1.00  0.00     0.025 C 
ATOM      6  C   UNL     1     -39.292  16.463  14.044  1.00  0.00     0.089 C 
ATOM      7  C   UNL     1     -40.287  17.508  13.620  1.00  0.00     0.158 C 
ATOM      8  O   UNL     1     -40.118  18.105  12.523  1.00  0.00    -0.295 OA
ENDROOT
BRANCH   5   9
ATOM      9  C   UNL     1     -38.913  14.467  15.559  1.00  0.00    -0.077 C 
ATOM     10  C   UNL     1     -37.634  14.808  15.789  1.00  0.00     0.008 C 
ATOM     11  C   UNL     1     -39.338  13.044  15.817  1.00  0.00     0.039 C 
ENDBRANCH   5   9
TORSDOF 1
ENDMDL
MODEL 9
REMARK VINA RESULT:    -4.344      1.593      2.192
REMARK INTER + INTRA:          -4.691
REMARK INTER:                  -4.596
REMARK INTRA:                  -0.094
REMARK UNBOUND:                -0.093
REMARK SMILES C=C(C)[C@H]1CC=C(C)C(=O)C1
REMARK SMILES IDX 8 1 7 2 6 3 5 4 4 5 11 6 9 7 10 8 2 9 1 10 3 11
REMARK H PARENT
REMARK Flexibility Score: inf
ROOT
ATOM      1  C   UNL     1     -41.379  17.135  18.720  1.00  0.00     0.048 C 
ATOM      2  C   UNL     1     -41.555  17.311  17.237  1.00  0.00    -0.012 C 
ATOM      3  C   UNL     1     -42.634  17.952  16.756  1.00  0.00    -0.019 C 
ATOM      4  C   UNL     1     -42.893  18.082  15.278  1.00  0.00     0.036 C 
ATOM      5  C   UNL     1     -41.574  18.125  14.482  1.00  0.00     0.025 C 
ATOM      6  C   UNL     1     -40.708  16.897  14.818  1.00  0.00     0.089 C 
ATOM      7  C   UNL     1     -40.544  16.752  16.306  1.00  0.00     0.158 C 
ATOM      8  O   UNL     1     -39.557  16.109  16.755  1.00  0.00    -0.295 OA
ENDROOT
BRANCH   5   9
ATOM      9  C   UNL     1     -41.824  18.245  12.985  1.00  0.00    -0.077 C 
ATOM     10  C   UNL     1     -42.670  19.162  12.488  1.00  0.00     0.008 C 
ATOM     11  C   UNL     1     -41.115  17.323  12.026  1.00  0.00     0.039 C 
ENDBRANCH   5   9
TORSDOF 1
ENDMDL
