MODEL 1
REMARK VINA RESULT:    -2.932      0.000      0.000
REMARK INTER + INTRA:          -3.466
REMARK INTER:                  -3.446
REMARK INTRA:                  -0.020
REMARK UNBOUND:                -0.020
REMARK SMILES CCCCC(=O)[O-]
REMARK SMILES IDX 4 1 5 2 6 3 7 4 3 5 2 6 1 7
REMARK H PARENT
REMARK Flexibility Score: inf
ROOT
ATOM      1  C   UNL     1      25.115  10.088  29.194  1.00  0.00     0.053 C 
ENDROOT
BRANCH   1   2
ATOM      2  C   UNL     1      24.806   9.270  30.410  1.00  0.00     0.041 C 
ATOM      3  O   UNL     1      25.183   8.071  30.482  1.00  0.00    -0.550 OA
ATOM      4  O   UNL     1      24.128   9.843  31.479  1.00  0.00    -0.550 OA
ENDBRANCH   1   2
BRANCH   1   5
ATOM      5  C   UNL     1      25.199   9.220  27.932  1.00  0.00     0.006 C 
BRANCH   5   6
ATOM      6  C   UNL     1      24.656   9.945  26.692  1.00  0.00    -0.003 C 
ATOM      7  C   UNL     1      25.277   9.388  25.414  1.00  0.00     0.004 C 
ENDBRANCH   5   6
ENDBRANCH   1   5
TORSDOF 3
ENDMDL
MODEL 2
REMARK VINA RESULT:    -2.838      1.766      2.106
REMARK INTER + INTRA:          -3.356
REMARK INTER:                  -3.239
REMARK INTRA:                  -0.117
REMARK UNBOUND:                -0.020
REMARK SMILES CCCCC(=O)[O-]
REMARK SMILES IDX 4 1 5 2 6 3 7 4 3 5 2 6 1 7
REMARK H PARENT
REMARK Flexibility Score: inf
ROOT
ATOM      1  C   UNL     1      24.637   8.970  29.914  1.00  0.00     0.053 C 
ENDROOT
BRANCH   1   2
ATOM      2  C   UNL     1      24.932   7.582  29.432  1.00  0.00     0.041 C 
ATOM      3  O   UNL     1      23.995   6.822  29.074  1.00  0.00    -0.550 OA
ATOM      4  O   UNL     1      26.246   7.140  29.350  1.00  0.00    -0.550 OA
ENDBRANCH   1   2
BRANCH   1   5
ATOM      5  C   UNL     1      25.182  10.033  28.951  1.00  0.00     0.006 C 
BRANCH   5   6
ATOM      6  C   UNL     1      24.356  10.125  27.660  1.00  0.00    -0.003 C 
ATOM      7  C   UNL     1      25.190   9.729  26.444  1.00  0.00     0.004 C 
ENDBRANCH   5   6
ENDBRANCH   1   5
TORSDOF 3
ENDMDL
MODEL 3
REMARK VINA RESULT:    -2.777      2.969      3.832
REMARK INTER + INTRA:          -3.284
REMARK INTER:                  -3.251
REMARK INTRA:                  -0.034
REMARK UNBOUND:                -0.020
REMARK SMILES CCCCC(=O)[O-]
REMARK SMILES IDX 4 1 5 2 6 3 7 4 3 5 2 6 1 7
REMARK H PARENT
REMARK Flexibility Score: inf
ROOT
ATOM      1  C   UNL     1      25.428   7.767  29.235  1.00  0.00     0.053 C 
ENDROOT
BRANCH   1   2
ATOM      2  C   UNL     1      25.226   9.176  28.768  1.00  0.00     0.041 C 
ATOM      3  O   UNL     1      25.219  10.124  29.596  1.00  0.00    -0.550 OA
ATOM      4  O   UNL     1      25.077   9.444  27.413  1.00  0.00    -0.550 OA
ENDBRANCH   1   2
BRANCH   1   5
ATOM      5  C   UNL     1      24.130   7.158  29.781  1.00  0.00     0.006 C 
BRANCH   5   6
ATOM      6  C   UNL     1      23.583   6.046  28.873  1.00  0.00    -0.003 C 
ATOM      7  C   UNL     1      22.440   5.296  29.551  1.00  0.00     0.004 C 
ENDBRANCH   5   6
ENDBRANCH   1   5
TORSDOF 3
ENDMDL
MODEL 4
REMARK VINA RESULT:    -2.777      2.779      3.910
REMARK INTER + INTRA:          -3.284
REMARK INTER:                  -3.203
REMARK INTRA:                  -0.081
REMARK UNBOUND:                -0.020
REMARK SMILES CCCCC(=O)[O-]
REMARK SMILES IDX 4 1 5 2 6 3 7 4 3 5 2 6 1 7
REMARK H PARENT
REMARK Flexibility Score: inf
ROOT
ATOM      1  C   UNL     1      24.237  10.125  27.942  1.00  0.00     0.053 C 
ENDROOT
BRANCH   1   2
ATOM      2  C   UNL     1      24.635   9.352  26.723  1.00  0.00     0.041 C 
ATOM      3  O   UNL     1      25.637   9.704  26.047  1.00  0.00    -0.550 OA
ATOM      4  O   UNL     1      23.917   8.223  26.351  1.00  0.00    -0.550 OA
ENDBRANCH   1   2
BRANCH   1   5
ATOM      5  C   UNL     1      25.174   9.845  29.124  1.00  0.00     0.006 C 
BRANCH   5   6
ATOM      6  C   UNL     1      25.302   8.343  29.420  1.00  0.00    -0.003 C 
ATOM      7  C   UNL     1      24.136   7.848  30.270  1.00  0.00     0.004 C 
ENDBRANCH   5   6
ENDBRANCH   1   5
TORSDOF 3
ENDMDL
MODEL 5
REMARK VINA RESULT:    -2.747      2.293      3.177
REMARK INTER + INTRA:          -3.250
REMARK INTER:                  -3.141
REMARK INTRA:                  -0.109
REMARK UNBOUND:                -0.020
REMARK SMILES CCCCC(=O)[O-]
REMARK SMILES IDX 4 1 5 2 6 3 7 4 3 5 2 6 1 7
REMARK H PARENT
REMARK Flexibility Score: inf
ROOT
ATOM      1  C   UNL     1      23.982   6.798  29.554  1.00  0.00     0.053 C 
ENDROOT
BRANCH   1   2
ATOM      2  C   UNL     1      23.254   6.923  30.857  1.00  0.00     0.041 C 
ATOM      3  O   UNL     1      22.998   8.059  31.335  1.00  0.00    -0.550 OA
ATOM      4  O   UNL     1      22.832   5.783  31.529  1.00  0.00    -0.550 OA
ENDBRANCH   1   2
BRANCH   1   5
ATOM      5  C   UNL     1      25.338   7.515  29.589  1.00  0.00     0.006 C 
BRANCH   5   6
ATOM      6  C   UNL     1      25.412   8.668  28.579  1.00  0.00    -0.003 C 
ATOM      7  C   UNL     1      25.171  10.013  29.259  1.00  0.00     0.004 C 
ENDBRANCH   5   6
ENDBRANCH   1   5
TORSDOF 3
ENDMDL
MODEL 6
REMARK VINA RESULT:    -2.706      2.889      3.625
REMARK INTER + INTRA:          -3.201
REMARK INTER:                  -3.176
REMARK INTRA:                  -0.025
REMARK UNBOUND:                -0.020
REMARK SMILES CCCCC(=O)[O-]
REMARK SMILES IDX 4 1 5 2 6 3 7 4 3 5 2 6 1 7
REMARK H PARENT
REMARK Flexibility Score: inf
ROOT
ATOM      1  C   UNL     1      25.324   7.811  29.329  1.00  0.00     0.053 C 
ENDROOT
BRANCH   1   2
ATOM      2  C   UNL     1      25.120   9.279  29.114  1.00  0.00     0.041 C 
ATOM      3  O   UNL     1      25.065   9.748  27.947  1.00  0.00    -0.550 OA
ATOM      4  O   UNL     1      24.959  10.125  30.205  1.00  0.00    -0.550 OA
ENDBRANCH   1   2
BRANCH   1   5
ATOM      5  C   UNL     1      24.041   7.124  29.814  1.00  0.00     0.006 C 
BRANCH   5   6
ATOM      6  C   UNL     1      23.599   5.990  28.877  1.00  0.00    -0.003 C 
ATOM      7  C   UNL     1      22.497   5.148  29.514  1.00  0.00     0.004 C 
ENDBRANCH   5   6
ENDBRANCH   1   5
TORSDOF 3
ENDMDL
MODEL 7
REMARK VINA RESULT:    -2.643      2.735      3.852
REMARK INTER + INTRA:          -3.127
REMARK INTER:                  -3.067
REMARK INTRA:                  -0.059
REMARK UNBOUND:                -0.020
REMARK SMILES CCCCC(=O)[O-]
REMARK SMILES IDX 4 1 5 2 6 3 7 4 3 5 2 6 1 7
REMARK H PARENT
REMARK Flexibility Score: inf
ROOT
ATOM      1  C   UNL     1      25.014   7.494  29.911  1.00  0.00     0.053 C 
ENDROOT
BRANCH   1   2
ATOM      2  C   UNL     1      25.209   8.796  29.196  1.00  0.00     0.041 C 
ATOM      3  O   UNL     1      25.135   9.884  29.826  1.00  0.00    -0.550 OA
ATOM      4  O   UNL     1      25.503   8.806  27.838  1.00  0.00    -0.550 OA
ENDBRANCH   1   2
BRANCH   1   5
ATOM      5  C   UNL     1      23.673   7.450  30.655  1.00  0.00     0.006 C 
BRANCH   5   6
ATOM      6  C   UNL     1      22.893   6.158  30.370  1.00  0.00    -0.003 C 
ATOM      7  C   UNL     1      23.163   5.653  28.956  1.00  0.00     0.004 C 
ENDBRANCH   5   6
ENDBRANCH   1   5
TORSDOF 3
ENDMDL
MODEL 8
REMARK VINA RESULT:    -2.592      2.975      3.507
REMARK INTER + INTRA:          -3.067
REMARK INTER:                  -3.045
REMARK INTRA:                  -0.022
REMARK UNBOUND:                -0.020
REMARK SMILES CCCCC(=O)[O-]
REMARK SMILES IDX 4 1 5 2 6 3 7 4 3 5 2 6 1 7
REMARK H PARENT
REMARK Flexibility Score: inf
ROOT
ATOM      1  C   UNL     1      24.189   7.492  30.332  1.00  0.00     0.053 C 
ENDROOT
BRANCH   1   2
ATOM      2  C   UNL     1      24.807   8.834  30.082  1.00  0.00     0.041 C 
ATOM      3  O   UNL     1      25.349   9.087  28.975  1.00  0.00    -0.550 OA
ATOM      4  O   UNL     1      24.754   9.816  31.063  1.00  0.00    -0.550 OA
ENDBRANCH   1   2
BRANCH   1   5
ATOM      5  C   UNL     1      24.091   6.663  29.046  1.00  0.00     0.006 C 
BRANCH   5   6
ATOM      6  C   UNL     1      22.989   5.596  29.124  1.00  0.00    -0.003 C 
ATOM      7  C   UNL     1      23.295   4.419  28.203  1.00  0.00     0.004 C 
ENDBRANCH   5   6
ENDBRANCH   1   5
TORSDOF 3
ENDMDL
MODEL 9
REMARK VINA RESULT:    -2.500     15.842     16.335
REMARK INTER + INTRA:          -2.959
REMARK INTER:                  -2.861
REMARK INTRA:                  -0.098
REMARK UNBOUND:                -0.020
REMARK SMILES CCCCC(=O)[O-]
REMARK SMILES IDX 4 1 5 2 6 3 7 4 3 5 2 6 1 7
REMARK H PARENT
REMARK Flexibility Score: inf
ROOT
ATOM      1  C   UNL     1       9.635   6.510  31.698  1.00  0.00     0.053 C 
ENDROOT
BRANCH   1   2
ATOM      2  C   UNL     1       9.661   7.967  32.045  1.00  0.00     0.041 C 
ATOM      3  O   UNL     1       8.621   8.666  31.928  1.00  0.00    -0.550 OA
ATOM      4  O   UNL     1      10.829   8.545  32.527  1.00  0.00    -0.550 OA
ENDBRANCH   1   2
BRANCH   1   5
ATOM      5  C   UNL     1       8.272   6.083  31.139  1.00  0.00     0.006 C 
BRANCH   5   6
ATOM      6  C   UNL     1       8.309   5.871  29.618  1.00  0.00    -0.003 C 
ATOM      7  C   UNL     1       7.875   7.132  28.875  1.00  0.00     0.004 C 
ENDBRANCH   5   6
ENDBRANCH   1   5
TORSDOF 3
ENDMDL
