MODEL 1
REMARK VINA RESULT:    -3.565      0.000      0.000
REMARK INTER + INTRA:          -5.887
REMARK INTER:                  -5.232
REMARK INTRA:                  -0.655
REMARK UNBOUND:                -0.655
REMARK SMILES O=C([O-])CCCCCCCC(=O)[O-]
REMARK SMILES IDX 7 1 6 2 5 3 4 4 2 5 1 6 3 7 8 8 9 9 10 10 11 11 12 12 13 13
REMARK H PARENT
REMARK Flexibility Score: inf
ROOT
ATOM      1  C   UNL     1      -5.351  15.237  21.314  1.00  0.00     0.000 C 
ENDROOT
BRANCH   1   2
ATOM      2  C   UNL     1      -6.829  14.831  21.213  1.00  0.00     0.000 C 
BRANCH   2   3
ATOM      3  C   UNL     1      -7.718  15.552  22.243  1.00  0.00     0.006 C 
BRANCH   3   4
ATOM      4  C   UNL     1      -8.770  16.488  21.628  1.00  0.00     0.053 C 
BRANCH   4   5
ATOM      5  C   UNL     1      -8.145  17.651  20.922  1.00  0.00     0.041 C 
ATOM      6  O   UNL     1      -7.435  18.472  21.561  1.00  0.00    -0.550 OA
ATOM      7  O   UNL     1      -8.318  17.811  19.553  1.00  0.00    -0.550 OA
ENDBRANCH   4   5
ENDBRANCH   3   4
ENDBRANCH   2   3
ENDBRANCH   1   2
BRANCH   1   8
ATOM      8  C   UNL     1      -5.071  15.964  22.637  1.00  0.00     0.000 C 
BRANCH   8   9
ATOM      9  C   UNL     1      -4.225  17.233  22.449  1.00  0.00     0.006 C 
BRANCH   9  10
ATOM     10  C   UNL     1      -2.752  17.021  22.822  1.00  0.00     0.053 C 
BRANCH  10  11
ATOM     11  C   UNL     1      -1.914  16.893  21.589  1.00  0.00     0.041 C 
ATOM     12  O   UNL     1      -1.524  17.922  20.978  1.00  0.00    -0.550 OA
ATOM     13  O   UNL     1      -1.607  15.636  21.085  1.00  0.00    -0.550 OA
ENDBRANCH  10  11
ENDBRANCH   9  10
ENDBRANCH   8   9
ENDBRANCH   1   8
TORSDOF 8
ENDMDL
MODEL 2
REMARK VINA RESULT:    -3.547      0.167      5.447
REMARK INTER + INTRA:          -5.861
REMARK INTER:                  -5.273
REMARK INTRA:                  -0.588
REMARK UNBOUND:                -0.655
REMARK SMILES O=C([O-])CCCCCCCC(=O)[O-]
REMARK SMILES IDX 7 1 6 2 5 3 4 4 2 5 1 6 3 7 8 8 9 9 10 10 11 11 12 12 13 13
REMARK H PARENT
REMARK Flexibility Score: inf
ROOT
ATOM      1  C   UNL     1      -5.415  15.230  21.265  1.00  0.00     0.000 C 
ENDROOT
BRANCH   1   2
ATOM      2  C   UNL     1      -5.114  15.885  22.621  1.00  0.00     0.000 C 
BRANCH   2   3
ATOM      3  C   UNL     1      -4.142  17.073  22.508  1.00  0.00     0.006 C 
BRANCH   3   4
ATOM      4  C   UNL     1      -2.686  16.739  22.871  1.00  0.00     0.053 C 
BRANCH   4   5
ATOM      5  C   UNL     1      -1.795  16.726  21.667  1.00  0.00     0.041 C 
ATOM      6  O   UNL     1      -1.313  15.640  21.248  1.00  0.00    -0.550 OA
ATOM      7  O   UNL     1      -1.524  17.906  20.988  1.00  0.00    -0.550 OA
ENDBRANCH   4   5
ENDBRANCH   3   4
ENDBRANCH   2   3
ENDBRANCH   1   2
BRANCH   1   8
ATOM      8  C   UNL     1      -6.885  14.793  21.182  1.00  0.00     0.000 C 
BRANCH   8   9
ATOM      9  C   UNL     1      -7.774  15.502  22.216  1.00  0.00     0.006 C 
BRANCH   9  10
ATOM     10  C   UNL     1      -8.826  16.411  21.567  1.00  0.00     0.053 C 
BRANCH  10  11
ATOM     11  C   UNL     1      -8.165  17.553  20.861  1.00  0.00     0.041 C 
ATOM     12  O   UNL     1      -8.308  17.697  19.618  1.00  0.00    -0.550 OA
ATOM     13  O   UNL     1      -7.351  18.429  21.567  1.00  0.00    -0.550 OA
ENDBRANCH  10  11
ENDBRANCH   9  10
ENDBRANCH   8   9
ENDBRANCH   1   8
TORSDOF 8
ENDMDL
MODEL 3
REMARK VINA RESULT:    -3.426     10.674     14.049
REMARK INTER + INTRA:          -5.683
REMARK INTER:                  -5.264
REMARK INTRA:                  -0.419
REMARK UNBOUND:                -0.655
REMARK SMILES O=C([O-])CCCCCCCC(=O)[O-]
REMARK SMILES IDX 7 1 6 2 5 3 4 4 2 5 1 6 3 7 8 8 9 9 10 10 11 11 12 12 13 13
REMARK H PARENT
REMARK Flexibility Score: inf
ROOT
ATOM      1  C   UNL     1       8.768  17.134  20.878  1.00  0.00     0.000 C 
ENDROOT
BRANCH   1   2
ATOM      2  C   UNL     1       8.543  16.050  21.942  1.00  0.00     0.000 C 
BRANCH   2   3
ATOM      3  C   UNL     1       7.276  16.291  22.782  1.00  0.00     0.006 C 
BRANCH   3   4
ATOM      4  C   UNL     1       6.112  15.339  22.462  1.00  0.00     0.053 C 
BRANCH   4   5
ATOM      5  C   UNL     1       4.945  16.060  21.861  1.00  0.00     0.041 C 
ATOM      6  O   UNL     1       5.108  16.805  20.859  1.00  0.00    -0.550 OA
ATOM      7  O   UNL     1       3.671  15.882  22.385  1.00  0.00    -0.550 OA
ENDBRANCH   4   5
ENDBRANCH   3   4
ENDBRANCH   2   3
ENDBRANCH   1   2
BRANCH   1   8
ATOM      8  C   UNL     1      10.100  16.915  20.145  1.00  0.00     0.000 C 
BRANCH   8   9
ATOM      9  C   UNL     1      10.680  15.510  20.376  1.00  0.00     0.006 C 
BRANCH   9  10
ATOM     10  C   UNL     1      11.059  14.805  19.067  1.00  0.00     0.053 C 
BRANCH  10  11
ATOM     11  C   UNL     1      10.593  13.383  19.086  1.00  0.00     0.041 C 
ATOM     12  O   UNL     1      10.090  12.895  20.132  1.00  0.00    -0.550 OA
ATOM     13  O   UNL     1      10.762  12.582  17.965  1.00  0.00    -0.550 OA
ENDBRANCH  10  11
ENDBRANCH   9  10
ENDBRANCH   8   9
ENDBRANCH   1   8
TORSDOF 8
ENDMDL
MODEL 4
REMARK VINA RESULT:    -3.396     10.595     14.796
REMARK INTER + INTRA:          -5.638
REMARK INTER:                  -5.217
REMARK INTRA:                  -0.422
REMARK UNBOUND:                -0.655
REMARK SMILES O=C([O-])CCCCCCCC(=O)[O-]
REMARK SMILES IDX 7 1 6 2 5 3 4 4 2 5 1 6 3 7 8 8 9 9 10 10 11 11 12 12 13 13
REMARK H PARENT
REMARK Flexibility Score: inf
ROOT
ATOM      1  C   UNL     1       8.639  17.151  20.872  1.00  0.00     0.000 C 
ENDROOT
BRANCH   1   2
ATOM      2  C   UNL     1       9.995  17.025  20.163  1.00  0.00     0.000 C 
BRANCH   2   3
ATOM      3  C   UNL     1      10.724  15.710  20.497  1.00  0.00     0.006 C 
BRANCH   3   4
ATOM      4  C   UNL     1      11.037  14.831  19.275  1.00  0.00     0.053 C 
BRANCH   4   5
ATOM      5  C   UNL     1      10.473  13.451  19.416  1.00  0.00     0.041 C 
ATOM      6  O   UNL     1      10.062  13.045  20.535  1.00  0.00    -0.550 OA
ATOM      7  O   UNL     1      10.370  12.625  18.304  1.00  0.00    -0.550 OA
ENDBRANCH   4   5
ENDBRANCH   3   4
ENDBRANCH   2   3
ENDBRANCH   1   2
BRANCH   1   8
ATOM      8  C   UNL     1       8.455  16.032  21.908  1.00  0.00     0.000 C 
BRANCH   8   9
ATOM      9  C   UNL     1       7.160  16.184  22.722  1.00  0.00     0.006 C 
BRANCH   9  10
ATOM     10  C   UNL     1       5.901  16.122  21.846  1.00  0.00     0.053 C 
BRANCH  10  11
ATOM     11  C   UNL     1       4.938  15.113  22.388  1.00  0.00     0.041 C 
ATOM     12  O   UNL     1       3.763  15.454  22.684  1.00  0.00    -0.550 OA
ATOM     13  O   UNL     1       5.354  13.807  22.614  1.00  0.00    -0.550 OA
ENDBRANCH  10  11
ENDBRANCH   9  10
ENDBRANCH   8   9
ENDBRANCH   1   8
TORSDOF 8
ENDMDL
MODEL 5
REMARK VINA RESULT:    -3.313      1.295      2.378
REMARK INTER + INTRA:          -5.517
REMARK INTER:                  -5.028
REMARK INTRA:                  -0.489
REMARK UNBOUND:                -0.655
REMARK SMILES O=C([O-])CCCCCCCC(=O)[O-]
REMARK SMILES IDX 7 1 6 2 5 3 4 4 2 5 1 6 3 7 8 8 9 9 10 10 11 11 12 12 13 13
REMARK H PARENT
REMARK Flexibility Score: inf
ROOT
ATOM      1  C   UNL     1      -4.540  17.441  22.006  1.00  0.00     0.000 C 
ENDROOT
BRANCH   1   2
ATOM      2  C   UNL     1      -5.150  16.100  22.440  1.00  0.00     0.000 C 
BRANCH   2   3
ATOM      3  C   UNL     1      -5.599  15.234  21.249  1.00  0.00     0.006 C 
BRANCH   3   4
ATOM      4  C   UNL     1      -7.057  14.755  21.326  1.00  0.00     0.053 C 
BRANCH   4   5
ATOM      5  C   UNL     1      -7.992  15.858  21.715  1.00  0.00     0.041 C 
ATOM      6  O   UNL     1      -8.351  16.713  20.863  1.00  0.00    -0.550 OA
ATOM      7  O   UNL     1      -8.494  15.923  23.009  1.00  0.00    -0.550 OA
ENDBRANCH   4   5
ENDBRANCH   3   4
ENDBRANCH   2   3
ENDBRANCH   1   2
BRANCH   1   8
ATOM      8  C   UNL     1      -3.674  18.037  23.125  1.00  0.00     0.000 C 
BRANCH   8   9
ATOM      9  C   UNL     1      -2.170  17.945  22.823  1.00  0.00     0.006 C 
BRANCH   9  10
ATOM     10  C   UNL     1      -1.881  17.579  21.361  1.00  0.00     0.053 C 
BRANCH  10  11
ATOM     11  C   UNL     1      -1.274  16.214  21.275  1.00  0.00     0.041 C 
ATOM     12  O   UNL     1      -1.971  15.234  20.902  1.00  0.00    -0.550 OA
ATOM     13  O   UNL     1       0.046  16.016  21.655  1.00  0.00    -0.550 OA
ENDBRANCH  10  11
ENDBRANCH   9  10
ENDBRANCH   8   9
ENDBRANCH   1   8
TORSDOF 8
ENDMDL
MODEL 6
REMARK VINA RESULT:    -3.236      1.237      5.837
REMARK INTER + INTRA:          -5.405
REMARK INTER:                  -5.117
REMARK INTRA:                  -0.287
REMARK UNBOUND:                -0.655
REMARK SMILES O=C([O-])CCCCCCCC(=O)[O-]
REMARK SMILES IDX 7 1 6 2 5 3 4 4 2 5 1 6 3 7 8 8 9 9 10 10 11 11 12 12 13 13
REMARK H PARENT
REMARK Flexibility Score: inf
ROOT
ATOM      1  C   UNL     1      -5.621  15.700  21.281  1.00  0.00     0.000 C 
ENDROOT
BRANCH   1   2
ATOM      2  C   UNL     1      -5.216  15.933  22.744  1.00  0.00     0.000 C 
BRANCH   2   3
ATOM      3  C   UNL     1      -3.693  16.061  22.929  1.00  0.00     0.006 C 
BRANCH   3   4
ATOM      4  C   UNL     1      -2.883  15.943  21.628  1.00  0.00     0.053 C 
BRANCH   4   5
ATOM      5  C   UNL     1      -1.642  16.780  21.659  1.00  0.00     0.041 C 
ATOM      6  O   UNL     1      -0.617  16.370  22.264  1.00  0.00    -0.550 OA
ATOM      7  O   UNL     1      -1.606  17.997  20.992  1.00  0.00    -0.550 OA
ENDBRANCH   4   5
ENDBRANCH   3   4
ENDBRANCH   2   3
ENDBRANCH   1   2
BRANCH   1   8
ATOM      8  C   UNL     1      -7.146  15.585  21.145  1.00  0.00     0.000 C 
BRANCH   8   9
ATOM      9  C   UNL     1      -7.857  16.941  21.279  1.00  0.00     0.006 C 
BRANCH   9  10
ATOM     10  C   UNL     1      -8.343  17.489  19.930  1.00  0.00     0.053 C 
BRANCH  10  11
ATOM     11  C   UNL     1      -8.658  18.947  20.042  1.00  0.00     0.041 C 
ATOM     12  O   UNL     1      -8.959  19.447  21.158  1.00  0.00    -0.550 OA
ATOM     13  O   UNL     1      -8.670  19.745  18.905  1.00  0.00    -0.550 OA
ENDBRANCH  10  11
ENDBRANCH   9  10
ENDBRANCH   8   9
ENDBRANCH   1   8
TORSDOF 8
ENDMDL
MODEL 7
REMARK VINA RESULT:    -3.115      1.651      2.216
REMARK INTER + INTRA:          -5.226
REMARK INTER:                  -4.630
REMARK INTRA:                  -0.597
REMARK UNBOUND:                -0.655
REMARK SMILES O=C([O-])CCCCCCCC(=O)[O-]
REMARK SMILES IDX 7 1 6 2 5 3 4 4 2 5 1 6 3 7 8 8 9 9 10 10 11 11 12 12 13 13
REMARK H PARENT
REMARK Flexibility Score: inf
ROOT
ATOM      1  C   UNL     1      -7.298  14.875  21.265  1.00  0.00     0.000 C 
ENDROOT
BRANCH   1   2
ATOM      2  C   UNL     1      -7.952  15.593  22.454  1.00  0.00     0.000 C 
BRANCH   2   3
ATOM      3  C   UNL     1      -9.076  16.554  22.027  1.00  0.00     0.006 C 
BRANCH   3   4
ATOM      4  C   UNL     1      -8.674  18.038  22.018  1.00  0.00     0.053 C 
BRANCH   4   5
ATOM      5  C   UNL     1      -8.642  18.604  20.632  1.00  0.00     0.041 C 
ATOM      6  O   UNL     1      -8.858  19.830  20.444  1.00  0.00    -0.550 OA
ATOM      7  O   UNL     1      -8.339  17.785  19.552  1.00  0.00    -0.550 OA
ENDBRANCH   4   5
ENDBRANCH   3   4
ENDBRANCH   2   3
ENDBRANCH   1   2
BRANCH   1   8
ATOM      8  C   UNL     1      -5.782  15.122  21.241  1.00  0.00     0.000 C 
BRANCH   8   9
ATOM      9  C   UNL     1      -5.253  15.689  22.567  1.00  0.00     0.006 C 
BRANCH   9  10
ATOM     10  C   UNL     1      -3.892  16.381  22.413  1.00  0.00     0.053 C 
BRANCH  10  11
ATOM     11  C   UNL     1      -4.026  17.853  22.646  1.00  0.00     0.041 C 
ATOM     12  O   UNL     1      -5.127  18.429  22.440  1.00  0.00    -0.550 OA
ATOM     13  O   UNL     1      -2.922  18.598  23.041  1.00  0.00    -0.550 OA
ENDBRANCH  10  11
ENDBRANCH   9  10
ENDBRANCH   8   9
ENDBRANCH   1   8
TORSDOF 8
ENDMDL
MODEL 8
REMARK VINA RESULT:    -2.997     11.786     15.617
REMARK INTER + INTRA:          -5.054
REMARK INTER:                  -4.753
REMARK INTRA:                  -0.301
REMARK UNBOUND:                -0.655
REMARK SMILES O=C([O-])CCCCCCCC(=O)[O-]
REMARK SMILES IDX 7 1 6 2 5 3 4 4 2 5 1 6 3 7 8 8 9 9 10 10 11 11 12 12 13 13
REMARK H PARENT
REMARK Flexibility Score: inf
ROOT
ATOM      1  C   UNL     1       9.694  15.530  20.248  1.00  0.00     0.000 C 
ENDROOT
BRANCH   1   2
ATOM      2  C   UNL     1      10.997  15.333  19.459  1.00  0.00     0.000 C 
BRANCH   2   3
ATOM      3  C   UNL     1      10.998  14.041  18.621  1.00  0.00     0.006 C 
BRANCH   3   4
ATOM      4  C   UNL     1      10.973  12.747  19.451  1.00  0.00     0.053 C 
BRANCH   4   5
ATOM      5  C   UNL     1      10.606  11.554  18.623  1.00  0.00     0.041 C 
ATOM      6  O   UNL     1       9.852  11.686  17.623  1.00  0.00    -0.550 OA
ATOM      7  O   UNL     1      11.125  10.304  18.934  1.00  0.00    -0.550 OA
ENDBRANCH   4   5
ENDBRANCH   3   4
ENDBRANCH   2   3
ENDBRANCH   1   2
BRANCH   1   8
ATOM      8  C   UNL     1       9.465  17.015  20.565  1.00  0.00     0.000 C 
BRANCH   8   9
ATOM      9  C   UNL     1       8.189  17.256  21.387  1.00  0.00     0.006 C 
BRANCH   9  10
ATOM     10  C   UNL     1       7.728  16.002  22.144  1.00  0.00     0.053 C 
BRANCH  10  11
ATOM     11  C   UNL     1       6.246  15.838  22.028  1.00  0.00     0.041 C 
ATOM     12  O   UNL     1       5.563  16.680  21.387  1.00  0.00    -0.550 OA
ATOM     13  O   UNL     1       5.611  14.784  22.672  1.00  0.00    -0.550 OA
ENDBRANCH  10  11
ENDBRANCH   9  10
ENDBRANCH   8   9
ENDBRANCH   1   8
TORSDOF 8
ENDMDL
MODEL 9
REMARK VINA RESULT:    -2.973      1.854      5.844
REMARK INTER + INTRA:          -5.019
REMARK INTER:                  -4.544
REMARK INTRA:                  -0.475
REMARK UNBOUND:                -0.655
REMARK SMILES O=C([O-])CCCCCCCC(=O)[O-]
REMARK SMILES IDX 7 1 6 2 5 3 4 4 2 5 1 6 3 7 8 8 9 9 10 10 11 11 12 12 13 13
REMARK H PARENT
REMARK Flexibility Score: inf
ROOT
ATOM      1  C   UNL     1      -5.103  18.107  22.674  1.00  0.00     0.000 C 
ENDROOT
BRANCH   1   2
ATOM      2  C   UNL     1      -4.479  16.750  23.033  1.00  0.00     0.000 C 
BRANCH   2   3
ATOM      3  C   UNL     1      -3.443  16.276  21.998  1.00  0.00     0.006 C 
BRANCH   3   4
ATOM      4  C   UNL     1      -2.011  16.766  22.264  1.00  0.00     0.053 C 
BRANCH   4   5
ATOM      5  C   UNL     1      -0.988  15.915  21.577  1.00  0.00     0.041 C 
ATOM      6  O   UNL     1      -1.350  14.970  20.827  1.00  0.00    -0.550 OA
ATOM      7  O   UNL     1       0.365  16.185  21.737  1.00  0.00    -0.550 OA
ENDBRANCH   4   5
ENDBRANCH   3   4
ENDBRANCH   2   3
ENDBRANCH   1   2
BRANCH   1   8
ATOM      8  C   UNL     1      -6.632  18.001  22.583  1.00  0.00     0.000 C 
BRANCH   8   9
ATOM      9  C   UNL     1      -7.144  18.037  21.134  1.00  0.00     0.006 C 
BRANCH   9  10
ATOM     10  C   UNL     1      -8.185  16.947  20.848  1.00  0.00     0.053 C 
BRANCH  10  11
ATOM     11  C   UNL     1      -7.700  15.620  21.341  1.00  0.00     0.041 C 
ATOM     12  O   UNL     1      -6.694  15.077  20.813  1.00  0.00    -0.550 OA
ATOM     13  O   UNL     1      -8.390  14.958  22.348  1.00  0.00    -0.550 OA
ENDBRANCH  10  11
ENDBRANCH   9  10
ENDBRANCH   8   9
ENDBRANCH   1   8
TORSDOF 8
ENDMDL
