MODEL 1
REMARK VINA RESULT:    -1.136      0.000      0.000
REMARK INTER + INTRA:          -2.055
REMARK INTER:                  -1.369
REMARK INTRA:                  -0.687
REMARK UNBOUND:                -0.687
REMARK SMILES O=c1ccn([C@H]2O[C@H](CO)[C@@H](O)[C@@H]2O)c(=O)[nH]1
REMARK SMILES IDX 6 1 13 2 11 3 8 4 7 5 5 6 3 7 4 8 2 9 17 10 1 11 15 12 16 14
REMARK SMILES IDX 14 15 12 17 9 19 10 20
REMARK H PARENT 17 13 14 16 12 18 10 21
REMARK Flexibility Score: inf
ROOT
ATOM      1  C   UNL     1     171.403 177.172 173.044  1.00  0.00     0.255 C 
ATOM      2  C   UNL     1     170.390 178.224 172.594  1.00  0.00     0.196 C 
ATOM      3  C   UNL     1     169.272 177.386 172.036  1.00  0.00     0.179 C 
ATOM      4  C   UNL     1     169.383 176.111 172.874  1.00  0.00     0.178 C 
ATOM      5  O   UNL     1     170.714 175.970 173.329  1.00  0.00    -0.347 OA
ENDROOT
BRANCH   1   6
ATOM      6  N   UNL     1     172.153 177.639 174.229  1.00  0.00    -0.271 N 
ATOM      7  C   UNL     1     172.352 177.819 176.613  1.00  0.00     0.090 A 
ATOM      8  C   UNL     1     171.678 177.365 175.483  1.00  0.00     0.099 A 
ATOM      9  C   UNL     1     173.509 178.570 176.441  1.00  0.00     0.253 A 
ATOM     10  N   UNL     1     173.954 178.850 175.189  1.00  0.00    -0.274 N 
ATOM     11  O   UNL     1     174.141 178.992 177.446  1.00  0.00    -0.269 OA
ATOM     12  C   UNL     1     173.286 178.403 174.089  1.00  0.00     0.330 A 
ATOM     13  H   UNL     1     174.819 179.424 175.067  1.00  0.00     0.175 HD
ATOM     14  O   UNL     1     173.721 178.703 172.943  1.00  0.00    -0.248 OA
ENDBRANCH   1   6
BRANCH   2  15
ATOM     15  O   UNL     1     170.920 179.124 171.649  1.00  0.00    -0.386 OA
ATOM     16  H   UNL     1     170.182 179.428 171.059  1.00  0.00     0.211 HD
ENDBRANCH   2  15
BRANCH   3  17
ATOM     17  O   UNL     1     168.034 178.022 172.225  1.00  0.00    -0.387 OA
ATOM     18  H   UNL     1     167.636 177.625 173.043  1.00  0.00     0.211 HD
ENDBRANCH   3  17
BRANCH   4  19
ATOM     19  C   UNL     1     168.972 174.868 172.079  1.00  0.00     0.191 C 
BRANCH  19  20
ATOM     20  O   UNL     1     168.069 175.231 171.072  1.00  0.00    -0.394 OA
ATOM     21  H   UNL     1     168.605 175.691 170.375  1.00  0.00     0.210 HD
ENDBRANCH  19  20
ENDBRANCH   4  19
TORSDOF 5
ENDMDL
MODEL 2
REMARK VINA RESULT:    -1.127      1.788      2.487
REMARK INTER + INTRA:          -2.044
REMARK INTER:                  -1.359
REMARK INTRA:                  -0.685
REMARK UNBOUND:                -0.687
REMARK SMILES O=c1ccn([C@H]2O[C@H](CO)[C@@H](O)[C@@H]2O)c(=O)[nH]1
REMARK SMILES IDX 6 1 13 2 11 3 8 4 7 5 5 6 3 7 4 8 2 9 17 10 1 11 15 12 16 14
REMARK SMILES IDX 14 15 12 17 9 19 10 20
REMARK H PARENT 17 13 14 16 12 18 10 21
REMARK Flexibility Score: inf
ROOT
ATOM      1  C   UNL     1     172.625 177.094 174.727  1.00  0.00     0.255 C 
ATOM      2  C   UNL     1     172.461 178.027 173.529  1.00  0.00     0.196 C 
ATOM      3  C   UNL     1     171.007 177.857 173.177  1.00  0.00     0.179 C 
ATOM      4  C   UNL     1     170.388 177.534 174.538  1.00  0.00     0.178 C 
ATOM      5  O   UNL     1     171.373 176.952 175.369  1.00  0.00    -0.347 OA
ENDROOT
BRANCH   1   6
ATOM      6  N   UNL     1     173.638 177.619 175.667  1.00  0.00    -0.271 N 
ATOM      7  C   UNL     1     174.198 179.009 177.540  1.00  0.00     0.090 A 
ATOM      8  C   UNL     1     173.258 178.478 176.662  1.00  0.00     0.099 A 
ATOM      9  C   UNL     1     175.534 178.661 177.376  1.00  0.00     0.253 A 
ATOM     10  N   UNL     1     175.896 177.824 176.369  1.00  0.00    -0.274 N 
ATOM     11  O   UNL     1     176.407 179.125 178.157  1.00  0.00    -0.269 OA
ATOM     12  C   UNL     1     174.968 177.312 175.513  1.00  0.00     0.330 A 
ATOM     13  H   UNL     1     176.903 177.575 176.245  1.00  0.00     0.175 HD
ATOM     14  O   UNL     1     175.348 176.554 174.578  1.00  0.00    -0.248 OA
ENDBRANCH   1   6
BRANCH   2  15
ATOM     15  O   UNL     1     173.321 177.702 172.461  1.00  0.00    -0.386 OA
ATOM     16  H   UNL     1     174.086 177.182 172.822  1.00  0.00     0.211 HD
ENDBRANCH   2  15
BRANCH   3  17
ATOM     17  O   UNL     1     170.485 179.044 172.640  1.00  0.00    -0.387 OA
ATOM     18  H   UNL     1     170.026 179.512 173.386  1.00  0.00     0.211 HD
ENDBRANCH   3  17
BRANCH   4  19
ATOM     19  C   UNL     1     169.192 176.587 174.410  1.00  0.00     0.191 C 
BRANCH  19  20
ATOM     20  O   UNL     1     168.463 176.903 173.257  1.00  0.00    -0.394 OA
ATOM     21  H   UNL     1     169.106 176.853 172.502  1.00  0.00     0.210 HD
ENDBRANCH  19  20
ENDBRANCH   4  19
TORSDOF 5
ENDMDL
MODEL 3
REMARK VINA RESULT:    -1.099     10.632     13.201
REMARK INTER + INTRA:          -2.010
REMARK INTER:                  -1.328
REMARK INTRA:                  -0.683
REMARK UNBOUND:                -0.687
REMARK SMILES O=c1ccn([C@H]2O[C@H](CO)[C@@H](O)[C@@H]2O)c(=O)[nH]1
REMARK SMILES IDX 6 1 13 2 11 3 8 4 7 5 5 6 3 7 4 8 2 9 17 10 1 11 15 12 16 14
REMARK SMILES IDX 14 15 12 17 9 19 10 20
REMARK H PARENT 17 13 14 16 12 18 10 21
REMARK Flexibility Score: inf
ROOT
ATOM      1  C   UNL     1     166.466 177.231 163.360  1.00  0.00     0.255 C 
ATOM      2  C   UNL     1     167.454 178.328 163.751  1.00  0.00     0.196 C 
ATOM      3  C   UNL     1     168.698 177.548 164.082  1.00  0.00     0.179 C 
ATOM      4  C   UNL     1     168.559 176.330 163.167  1.00  0.00     0.178 C 
ATOM      5  O   UNL     1     167.191 176.113 162.889  1.00  0.00    -0.347 OA
ENDROOT
BRANCH   1   6
ATOM      6  N   UNL     1     165.523 177.716 162.331  1.00  0.00    -0.271 N 
ATOM      7  C   UNL     1     164.959 178.017 160.019  1.00  0.00     0.090 A 
ATOM      8  C   UNL     1     165.818 177.542 161.006  1.00  0.00     0.099 A 
ATOM      9  C   UNL     1     163.803 178.685 160.406  1.00  0.00     0.253 A 
ATOM     10  N   UNL     1     163.538 178.868 161.725  1.00  0.00    -0.274 N 
ATOM     11  O   UNL     1     163.007 179.124 159.533  1.00  0.00    -0.269 OA
ATOM     12  C   UNL     1     164.386 178.402 162.685  1.00  0.00     0.330 A 
ATOM     13  H   UNL     1     162.672 179.381 162.009  1.00  0.00     0.175 HD
ATOM     14  O   UNL     1     164.113 178.611 163.899  1.00  0.00    -0.248 OA
ENDBRANCH   1   6
BRANCH   2  15
ATOM     15  O   UNL     1     167.002 179.113 164.830  1.00  0.00    -0.386 OA
ATOM     16  H   UNL     1     166.026 178.963 164.939  1.00  0.00     0.211 HD
ENDBRANCH   2  15
BRANCH   3  17
ATOM     17  O   UNL     1     169.847 178.294 163.778  1.00  0.00    -0.387 OA
ATOM     18  H   UNL     1     170.085 178.793 164.603  1.00  0.00     0.211 HD
ENDBRANCH   3  17
BRANCH   4  19
ATOM     19  C   UNL     1     169.167 175.072 163.795  1.00  0.00     0.191 C 
BRANCH  19  20
ATOM     20  O   UNL     1     170.072 175.438 164.799  1.00  0.00    -0.394 OA
ATOM     21  H   UNL     1     170.737 176.034 164.366  1.00  0.00     0.210 HD
ENDBRANCH  19  20
ENDBRANCH   4  19
TORSDOF 5
ENDMDL
MODEL 4
REMARK VINA RESULT:    -1.094      1.298      1.375
REMARK INTER + INTRA:          -2.005
REMARK INTER:                  -1.313
REMARK INTRA:                  -0.691
REMARK UNBOUND:                -0.687
REMARK SMILES O=c1ccn([C@H]2O[C@H](CO)[C@@H](O)[C@@H]2O)c(=O)[nH]1
REMARK SMILES IDX 6 1 13 2 11 3 8 4 7 5 5 6 3 7 4 8 2 9 17 10 1 11 15 12 16 14
REMARK SMILES IDX 14 15 12 17 9 19 10 20
REMARK H PARENT 17 13 14 16 12 18 10 21
REMARK Flexibility Score: inf
ROOT
ATOM      1  C   UNL     1     172.257 176.983 173.805  1.00  0.00     0.255 C 
ATOM      2  C   UNL     1     170.923 177.712 173.653  1.00  0.00     0.196 C 
ATOM      3  C   UNL     1     170.013 176.630 173.138  1.00  0.00     0.179 C 
ATOM      4  C   UNL     1     170.629 175.376 173.761  1.00  0.00     0.178 C 
ATOM      5  O   UNL     1     172.002 175.606 174.005  1.00  0.00    -0.347 OA
ENDROOT
BRANCH   1   6
ATOM      6  N   UNL     1     173.035 177.540 174.930  1.00  0.00    -0.271 N 
ATOM      7  C   UNL     1     173.542 177.582 177.275  1.00  0.00     0.090 A 
ATOM      8  C   UNL     1     172.842 177.053 176.195  1.00  0.00     0.099 A 
ATOM      9  C   UNL     1     174.430 178.627 177.046  1.00  0.00     0.253 A 
ATOM     10  N   UNL     1     174.592 179.113 175.788  1.00  0.00    -0.274 N 
ATOM     11  O   UNL     1     175.078 179.125 178.005  1.00  0.00    -0.269 OA
ATOM     12  C   UNL     1     173.901 178.589 174.737  1.00  0.00     0.330 A 
ATOM     13  H   UNL     1     175.253 179.906 175.624  1.00  0.00     0.175 HD
ATOM     14  O   UNL     1     174.065 179.083 173.587  1.00  0.00    -0.248 OA
ENDBRANCH   1   6
BRANCH   2  15
ATOM     15  O   UNL     1     171.001 178.817 172.783  1.00  0.00    -0.386 OA
ATOM     16  H   UNL     1     171.481 178.536 171.961  1.00  0.00     0.211 HD
ENDBRANCH   2  15
BRANCH   3  17
ATOM     17  O   UNL     1     168.697 176.835 173.582  1.00  0.00    -0.387 OA
ATOM     18  H   UNL     1     168.277 177.460 172.936  1.00  0.00     0.211 HD
ENDBRANCH   3  17
BRANCH   4  19
ATOM     19  C   UNL     1     170.460 174.149 172.860  1.00  0.00     0.191 C 
BRANCH  19  20
ATOM     20  O   UNL     1     169.443 174.386 171.928  1.00  0.00    -0.394 OA
ATOM     21  H   UNL     1     169.628 175.281 171.539  1.00  0.00     0.210 HD
ENDBRANCH  19  20
ENDBRANCH   4  19
TORSDOF 5
ENDMDL
MODEL 5
REMARK VINA RESULT:    -1.071      9.182     10.648
REMARK INTER + INTRA:          -1.977
REMARK INTER:                  -1.293
REMARK INTRA:                  -0.684
REMARK UNBOUND:                -0.687
REMARK SMILES O=c1ccn([C@H]2O[C@H](CO)[C@@H](O)[C@@H]2O)c(=O)[nH]1
REMARK SMILES IDX 6 1 13 2 11 3 8 4 7 5 5 6 3 7 4 8 2 9 17 10 1 11 15 12 16 14
REMARK SMILES IDX 14 15 12 17 9 19 10 20
REMARK H PARENT 17 13 14 16 12 18 10 21
REMARK Flexibility Score: inf
ROOT
ATOM      1  C   UNL     1     164.735 177.042 165.675  1.00  0.00     0.255 C 
ATOM      2  C   UNL     1     166.165 177.553 165.512  1.00  0.00     0.196 C 
ATOM      3  C   UNL     1     166.220 177.919 164.054  1.00  0.00     0.179 C 
ATOM      4  C   UNL     1     164.769 178.310 163.770  1.00  0.00     0.178 C 
ATOM      5  O   UNL     1     163.922 177.642 164.685  1.00  0.00    -0.347 OA
ENDROOT
BRANCH   1   6
ATOM      6  N   UNL     1     164.220 177.341 167.027  1.00  0.00    -0.271 N 
ATOM      7  C   UNL     1     163.138 178.856 168.540  1.00  0.00     0.090 A 
ATOM      8  C   UNL     1     163.604 178.540 167.267  1.00  0.00     0.099 A 
ATOM      9  C   UNL     1     163.324 177.936 169.566  1.00  0.00     0.253 A 
ATOM     10  N   UNL     1     163.957 176.761 169.313  1.00  0.00    -0.274 N 
ATOM     11  O   UNL     1     162.910 178.195 170.727  1.00  0.00    -0.269 OA
ATOM     12  C   UNL     1     164.412 176.462 168.064  1.00  0.00     0.330 A 
ATOM     13  H   UNL     1     164.103 176.079 170.091  1.00  0.00     0.175 HD
ATOM     14  O   UNL     1     165.013 175.368 167.876  1.00  0.00    -0.248 OA
ENDBRANCH   1   6
BRANCH   2  15
ATOM     15  O   UNL     1     167.132 176.593 165.869  1.00  0.00    -0.386 OA
ATOM     16  H   UNL     1     167.757 176.480 165.106  1.00  0.00     0.211 HD
ENDBRANCH   2  15
BRANCH   3  17
ATOM     17  O   UNL     1     167.095 178.997 163.846  1.00  0.00    -0.387 OA
ATOM     18  H   UNL     1     167.901 178.623 163.402  1.00  0.00     0.211 HD
ENDBRANCH   3  17
BRANCH   4  19
ATOM     19  C   UNL     1     164.355 177.969 162.336  1.00  0.00     0.191 C 
BRANCH  19  20
ATOM     20  O   UNL     1     165.408 178.262 161.461  1.00  0.00    -0.394 OA
ATOM     21  H   UNL     1     165.935 178.983 161.895  1.00  0.00     0.210 HD
ENDBRANCH  19  20
ENDBRANCH   4  19
TORSDOF 5
ENDMDL
MODEL 6
REMARK VINA RESULT:    -1.067     14.775     15.736
REMARK INTER + INTRA:          -1.972
REMARK INTER:                  -1.285
REMARK INTRA:                  -0.688
REMARK UNBOUND:                -0.687
REMARK SMILES O=c1ccn([C@H]2O[C@H](CO)[C@@H](O)[C@@H]2O)c(=O)[nH]1
REMARK SMILES IDX 6 1 13 2 11 3 8 4 7 5 5 6 3 7 4 8 2 9 17 10 1 11 15 12 16 14
REMARK SMILES IDX 14 15 12 17 9 19 10 20
REMARK H PARENT 17 13 14 16 12 18 10 21
REMARK Flexibility Score: inf
ROOT
ATOM      1  C   UNL     1     177.418 163.913 174.423  1.00  0.00     0.255 C 
ATOM      2  C   UNL     1     178.622 164.589 173.768  1.00  0.00     0.196 C 
ATOM      3  C   UNL     1     178.075 165.938 173.387  1.00  0.00     0.179 C 
ATOM      4  C   UNL     1     177.012 166.165 174.464  1.00  0.00     0.178 C 
ATOM      5  O   UNL     1     176.562 164.913 174.941  1.00  0.00    -0.347 OA
ENDROOT
BRANCH   1   6
ATOM      6  N   UNL     1     177.851 162.989 175.491  1.00  0.00    -0.271 N 
ATOM      7  C   UNL     1     178.481 162.619 177.776  1.00  0.00     0.090 A 
ATOM      8  C   UNL     1     178.045 163.464 176.760  1.00  0.00     0.099 A 
ATOM      9  C   UNL     1     178.731 161.285 177.472  1.00  0.00     0.253 A 
ATOM     10  N   UNL     1     178.555 160.837 176.202  1.00  0.00    -0.274 N 
ATOM     11  O   UNL     1     179.125 160.497 178.373  1.00  0.00    -0.269 OA
ATOM     12  C   UNL     1     178.130 161.673 175.214  1.00  0.00     0.330 A 
ATOM     13  H   UNL     1     178.755 159.836 175.978  1.00  0.00     0.175 HD
ATOM     14  O   UNL     1     177.998 161.221 174.043  1.00  0.00    -0.248 OA
ENDBRANCH   1   6
BRANCH   2  15
ATOM     15  O   UNL     1     179.118 163.871 172.663  1.00  0.00    -0.386 OA
ATOM     16  H   UNL     1     179.298 164.513 171.927  1.00  0.00     0.211 HD
ENDBRANCH   2  15
BRANCH   3  17
ATOM     17  O   UNL     1     179.081 166.915 173.441  1.00  0.00    -0.387 OA
ATOM     18  H   UNL     1     179.233 167.214 172.507  1.00  0.00     0.211 HD
ENDBRANCH   3  17
BRANCH   4  19
ATOM     19  C   UNL     1     175.826 166.975 173.934  1.00  0.00     0.191 C 
BRANCH  19  20
ATOM     20  O   UNL     1     176.226 167.719 172.817  1.00  0.00    -0.394 OA
ATOM     21  H   UNL     1     176.103 168.673 173.062  1.00  0.00     0.210 HD
ENDBRANCH  19  20
ENDBRANCH   4  19
TORSDOF 5
ENDMDL
MODEL 7
REMARK VINA RESULT:    -1.055      3.416      5.773
REMARK INTER + INTRA:          -1.957
REMARK INTER:                  -1.270
REMARK INTRA:                  -0.687
REMARK UNBOUND:                -0.687
REMARK SMILES O=c1ccn([C@H]2O[C@H](CO)[C@@H](O)[C@@H]2O)c(=O)[nH]1
REMARK SMILES IDX 6 1 13 2 11 3 8 4 7 5 5 6 3 7 4 8 2 9 17 10 1 11 15 12 16 14
REMARK SMILES IDX 14 15 12 17 9 19 10 20
REMARK H PARENT 17 13 14 16 12 18 10 21
REMARK Flexibility Score: inf
ROOT
ATOM      1  C   UNL     1     174.007 177.179 172.899  1.00  0.00     0.255 C 
ATOM      2  C   UNL     1     173.344 178.371 173.587  1.00  0.00     0.196 C 
ATOM      3  C   UNL     1     173.401 177.985 175.041  1.00  0.00     0.179 C 
ATOM      4  C   UNL     1     174.664 177.123 175.090  1.00  0.00     0.178 C 
ATOM      5  O   UNL     1     174.890 176.559 173.814  1.00  0.00    -0.347 OA
ENDROOT
BRANCH   1   6
ATOM      6  N   UNL     1     174.729 177.609 171.684  1.00  0.00    -0.271 N 
ATOM      7  C   UNL     1     176.721 178.460 170.654  1.00  0.00     0.090 A 
ATOM      8  C   UNL     1     176.030 178.023 171.780  1.00  0.00     0.099 A 
ATOM      9  C   UNL     1     176.058 178.482 169.432  1.00  0.00     0.253 A 
ATOM     10  N   UNL     1     174.760 178.089 169.360  1.00  0.00    -0.274 N 
ATOM     11  O   UNL     1     176.660 178.872 168.395  1.00  0.00    -0.269 OA
ATOM     12  C   UNL     1     174.091 177.664 170.469  1.00  0.00     0.330 A 
ATOM     13  H   UNL     1     174.265 178.118 168.440  1.00  0.00     0.175 HD
ATOM     14  O   UNL     1     172.880 177.327 170.363  1.00  0.00    -0.248 OA
ENDBRANCH   1   6
BRANCH   2  15
ATOM     15  O   UNL     1     172.029 178.601 173.136  1.00  0.00    -0.386 OA
ATOM     16  H   UNL     1     172.069 179.211 172.354  1.00  0.00     0.211 HD
ENDBRANCH   2  15
BRANCH   3  17
ATOM     17  O   UNL     1     173.521 179.125 175.852  1.00  0.00    -0.387 OA
ATOM     18  H   UNL     1     172.597 179.398 176.091  1.00  0.00     0.211 HD
ENDBRANCH   3  17
BRANCH   4  19
ATOM     19  C   UNL     1     174.555 176.012 176.138  1.00  0.00     0.191 C 
BRANCH  19  20
ATOM     20  O   UNL     1     173.719 176.428 177.181  1.00  0.00    -0.394 OA
ATOM     21  H   UNL     1     173.943 175.853 177.959  1.00  0.00     0.210 HD
ENDBRANCH  19  20
ENDBRANCH   4  19
TORSDOF 5
ENDMDL
MODEL 8
REMARK VINA RESULT:    -1.024      3.198      5.906
REMARK INTER + INTRA:          -1.920
REMARK INTER:                  -1.238
REMARK INTRA:                  -0.682
REMARK UNBOUND:                -0.687
REMARK SMILES O=c1ccn([C@H]2O[C@H](CO)[C@@H](O)[C@@H]2O)c(=O)[nH]1
REMARK SMILES IDX 6 1 13 2 11 3 8 4 7 5 5 6 3 7 4 8 2 9 17 10 1 11 15 12 16 14
REMARK SMILES IDX 14 15 12 17 9 19 10 20
REMARK H PARENT 17 13 14 16 12 18 10 21
REMARK Flexibility Score: inf
ROOT
ATOM      1  C   UNL     1     170.347 177.250 171.657  1.00  0.00     0.255 C 
ATOM      2  C   UNL     1     170.850 178.360 172.579  1.00  0.00     0.196 C 
ATOM      3  C   UNL     1     171.627 177.599 173.618  1.00  0.00     0.179 C 
ATOM      4  C   UNL     1     172.119 176.389 172.822  1.00  0.00     0.178 C 
ATOM      5  O   UNL     1     171.232 176.150 171.747  1.00  0.00    -0.347 OA
ENDROOT
BRANCH   1   6
ATOM      6  N   UNL     1     170.248 177.729 170.263  1.00  0.00    -0.271 N 
ATOM      7  C   UNL     1     171.285 178.151 168.141  1.00  0.00     0.090 A 
ATOM      8  C   UNL     1     171.347 177.678 169.449  1.00  0.00     0.099 A 
ATOM      9  C   UNL     1     170.088 178.691 167.684  1.00  0.00     0.253 A 
ATOM     10  N   UNL     1     169.014 178.754 168.513  1.00  0.00    -0.274 N 
ATOM     11  O   UNL     1     170.002 179.125 166.504  1.00  0.00    -0.269 OA
ATOM     12  C   UNL     1     169.085 178.291 169.792  1.00  0.00     0.330 A 
ATOM     13  H   UNL     1     168.121 179.171 168.166  1.00  0.00     0.175 HD
ATOM     14  O   UNL     1     168.071 178.387 170.537  1.00  0.00    -0.248 OA
ENDBRANCH   1   6
BRANCH   2  15
ATOM     15  O   UNL     1     169.804 179.125 173.133  1.00  0.00    -0.386 OA
ATOM     16  H   UNL     1     169.116 178.504 173.487  1.00  0.00     0.211 HD
ENDBRANCH   2  15
BRANCH   3  17
ATOM     17  O   UNL     1     172.697 178.369 174.100  1.00  0.00    -0.387 OA
ATOM     18  H   UNL     1     173.155 177.817 174.785  1.00  0.00     0.211 HD
ENDBRANCH   3  17
BRANCH   4  19
ATOM     19  C   UNL     1     172.225 175.136 173.695  1.00  0.00     0.191 C 
BRANCH  19  20
ATOM     20  O   UNL     1     172.078 175.487 175.042  1.00  0.00    -0.394 OA
ATOM     21  H   UNL     1     171.122 175.336 175.263  1.00  0.00     0.210 HD
ENDBRANCH  19  20
ENDBRANCH   4  19
TORSDOF 5
ENDMDL
MODEL 9
REMARK VINA RESULT:    -1.001     12.755     13.553
REMARK INTER + INTRA:          -1.892
REMARK INTER:                  -1.204
REMARK INTRA:                  -0.688
REMARK UNBOUND:                -0.687
REMARK SMILES O=c1ccn([C@H]2O[C@H](CO)[C@@H](O)[C@@H]2O)c(=O)[nH]1
REMARK SMILES IDX 6 1 13 2 11 3 8 4 7 5 5 6 3 7 4 8 2 9 17 10 1 11 15 12 16 14
REMARK SMILES IDX 14 15 12 17 9 19 10 20
REMARK H PARENT 17 13 14 16 12 18 10 21
REMARK Flexibility Score: inf
ROOT
ATOM      1  C   UNL     1     177.211 166.186 174.527  1.00  0.00     0.255 C 
ATOM      2  C   UNL     1     178.288 167.203 174.151  1.00  0.00     0.196 C 
ATOM      3  C   UNL     1     177.479 168.411 173.764  1.00  0.00     0.179 C 
ATOM      4  C   UNL     1     176.234 168.252 174.639  1.00  0.00     0.178 C 
ATOM      5  O   UNL     1     176.053 166.884 174.943  1.00  0.00    -0.347 OA
ENDROOT
BRANCH   1   6
ATOM      6  N   UNL     1     177.690 165.284 175.595  1.00  0.00    -0.271 N 
ATOM      7  C   UNL     1     177.979 164.813 177.929  1.00  0.00     0.090 A 
ATOM      8  C   UNL     1     177.510 165.632 176.907  1.00  0.00     0.099 A 
ATOM      9  C   UNL     1     178.648 163.641 177.592  1.00  0.00     0.253 A 
ATOM     10  N   UNL     1     178.837 163.324 176.284  1.00  0.00    -0.274 N 
ATOM     11  O   UNL     1     179.082 162.880 178.497  1.00  0.00    -0.269 OA
ATOM     12  C   UNL     1     178.376 164.134 175.290  1.00  0.00     0.330 A 
ATOM     13  H   UNL     1     179.350 162.447 176.038  1.00  0.00     0.175 HD
ATOM     14  O   UNL     1     178.590 163.813 174.089  1.00  0.00    -0.248 OA
ENDBRANCH   1   6
BRANCH   2  15
ATOM     15  O   UNL     1     179.125 166.752 173.112  1.00  0.00    -0.386 OA
ATOM     16  H   UNL     1     179.856 167.412 172.990  1.00  0.00     0.211 HD
ENDBRANCH   2  15
BRANCH   3  17
ATOM     17  O   UNL     1     178.176 169.592 174.065  1.00  0.00    -0.387 OA
ATOM     18  H   UNL     1     178.889 169.680 173.380  1.00  0.00     0.211 HD
ENDBRANCH   3  17
BRANCH   4  19
ATOM     19  C   UNL     1     174.981 168.803 173.953  1.00  0.00     0.191 C 
BRANCH  19  20
ATOM     20  O   UNL     1     175.341 169.817 173.058  1.00  0.00    -0.394 OA
ATOM     21  H   UNL     1     174.994 170.663 173.446  1.00  0.00     0.210 HD
ENDBRANCH  19  20
ENDBRANCH   4  19
TORSDOF 5
ENDMDL
