MODEL 1
REMARK VINA RESULT:    -5.697      0.000      0.000
REMARK INTER + INTRA:         -12.814
REMARK INTER:                 -11.026
REMARK INTRA:                  -1.787
REMARK UNBOUND:                -1.787
REMARK SMILES CCCCCCCCCCCCCCCCCC(=O)[O-]
REMARK SMILES IDX 10 1 11 2 12 3 13 4 14 5 15 6 16 7 17 8 18 9 19 10 20 11
REMARK SMILES IDX 9 12 8 13 7 14 6 15 5 16 4 17 3 18 2 19 1 20
REMARK H PARENT
REMARK Flexibility Score: inf
ROOT
ATOM      1  C   UNL     1     163.274 153.302 151.107  1.00  0.00     0.000 C 
ENDROOT
BRANCH   1   2
ATOM      2  C   UNL     1     164.065 151.985 151.132  1.00  0.00     0.000 C 
BRANCH   2   3
ATOM      3  C   UNL     1     165.521 152.157 150.673  1.00  0.00     0.000 C 
BRANCH   3   4
ATOM      4  C   UNL     1     165.636 152.922 149.343  1.00  0.00     0.000 C 
BRANCH   4   5
ATOM      5  C   UNL     1     166.765 153.965 149.356  1.00  0.00     0.000 C 
BRANCH   5   6
ATOM      6  C   UNL     1     167.821 153.683 150.436  1.00  0.00     0.000 C 
BRANCH   6   7
ATOM      7  C   UNL     1     169.105 153.114 149.813  1.00  0.00     0.006 C 
BRANCH   7   8
ATOM      8  C   UNL     1     169.064 151.586 149.688  1.00  0.00     0.053 C 
BRANCH   8   9
ATOM      9  C   UNL     1     169.638 151.119 148.385  1.00  0.00     0.041 C 
ATOM     10  O   UNL     1     170.269 150.031 148.325  1.00  0.00    -0.550 OA
ATOM     11  O   UNL     1     169.505 151.901 147.245  1.00  0.00    -0.550 OA
ENDBRANCH   8   9
ENDBRANCH   7   8
ENDBRANCH   6   7
ENDBRANCH   5   6
ENDBRANCH   4   5
ENDBRANCH   3   4
ENDBRANCH   2   3
ENDBRANCH   1   2
BRANCH   1  12
ATOM     12  C   UNL     1     163.678 154.203 152.284  1.00  0.00     0.000 C 
BRANCH  12  13
ATOM     13  C   UNL     1     164.390 155.489 151.832  1.00  0.00    -0.000 C 
BRANCH  13  14
ATOM     14  C   UNL     1     165.639 155.860 152.655  1.00  0.00    -0.000 C 
BRANCH  14  15
ATOM     15  C   UNL     1     165.717 157.357 153.026  1.00  0.00    -0.000 C 
BRANCH  15  16
ATOM     16  C   UNL     1     164.506 158.149 152.503  1.00  0.00    -0.000 C 
BRANCH  16  17
ATOM     17  C   UNL     1     164.906 159.298 151.563  1.00  0.00    -0.000 C 
BRANCH  17  18
ATOM     18  C   UNL     1     164.763 158.923 150.078  1.00  0.00    -0.000 C 
BRANCH  18  19
ATOM     19  C   UNL     1     163.926 159.944 149.292  1.00  0.00    -0.003 C 
ATOM     20  C   UNL     1     162.964 160.733 150.181  1.00  0.00     0.004 C 
ENDBRANCH  18  19
ENDBRANCH  17  18
ENDBRANCH  16  17
ENDBRANCH  15  16
ENDBRANCH  14  15
ENDBRANCH  13  14
ENDBRANCH  12  13
ENDBRANCH   1  12
TORSDOF 16
ENDMDL
MODEL 2
REMARK VINA RESULT:    -5.653      3.574      7.032
REMARK INTER + INTRA:         -12.728
REMARK INTER:                 -10.332
REMARK INTRA:                  -2.396
REMARK UNBOUND:                -1.787
REMARK SMILES CCCCCCCCCCCCCCCCCC(=O)[O-]
REMARK SMILES IDX 10 1 11 2 12 3 13 4 14 5 15 6 16 7 17 8 18 9 19 10 20 11
REMARK SMILES IDX 9 12 8 13 7 14 6 15 5 16 4 17 3 18 2 19 1 20
REMARK H PARENT
REMARK Flexibility Score: inf
ROOT
ATOM      1  C   UNL     1     164.358 150.916 149.608  1.00  0.00     0.000 C 
ENDROOT
BRANCH   1   2
ATOM      2  C   UNL     1     164.407 151.641 150.963  1.00  0.00     0.000 C 
BRANCH   2   3
ATOM      3  C   UNL     1     163.261 152.650 151.138  1.00  0.00     0.000 C 
BRANCH   3   4
ATOM      4  C   UNL     1     163.760 154.103 151.218  1.00  0.00     0.000 C 
BRANCH   4   5
ATOM      5  C   UNL     1     164.048 154.551 152.660  1.00  0.00     0.000 C 
BRANCH   5   6
ATOM      6  C   UNL     1     164.828 155.872 152.727  1.00  0.00     0.000 C 
BRANCH   6   7
ATOM      7  C   UNL     1     164.808 156.591 151.369  1.00  0.00     0.006 C 
BRANCH   7   8
ATOM      8  C   UNL     1     165.478 157.969 151.429  1.00  0.00     0.053 C 
BRANCH   8   9
ATOM      9  C   UNL     1     164.471 159.078 151.404  1.00  0.00     0.041 C 
ATOM     10  O   UNL     1     163.739 159.246 150.394  1.00  0.00    -0.550 OA
ATOM     11  O   UNL     1     164.363 159.946 152.484  1.00  0.00    -0.550 OA
ENDBRANCH   8   9
ENDBRANCH   7   8
ENDBRANCH   6   7
ENDBRANCH   5   6
ENDBRANCH   4   5
ENDBRANCH   3   4
ENDBRANCH   2   3
ENDBRANCH   1   2
BRANCH   1  12
ATOM     12  C   UNL     1     164.586 151.903 148.453  1.00  0.00     0.000 C 
BRANCH  12  13
ATOM     13  C   UNL     1     166.053 152.350 148.333  1.00  0.00    -0.000 C 
BRANCH  13  14
ATOM     14  C   UNL     1     166.272 153.874 148.401  1.00  0.00    -0.000 C 
BRANCH  14  15
ATOM     15  C   UNL     1     167.116 154.327 149.612  1.00  0.00    -0.000 C 
BRANCH  15  16
ATOM     16  C   UNL     1     167.616 153.137 150.450  1.00  0.00    -0.000 C 
BRANCH  16  17
ATOM     17  C   UNL     1     169.111 152.848 150.242  1.00  0.00    -0.000 C 
BRANCH  17  18
ATOM     18  C   UNL     1     169.364 151.465 149.618  1.00  0.00    -0.000 C 
BRANCH  18  19
ATOM     19  C   UNL     1     169.665 151.545 148.113  1.00  0.00    -0.003 C 
ATOM     20  C   UNL     1     169.971 152.967 147.644  1.00  0.00     0.004 C 
ENDBRANCH  18  19
ENDBRANCH  17  18
ENDBRANCH  16  17
ENDBRANCH  15  16
ENDBRANCH  14  15
ENDBRANCH  13  14
ENDBRANCH  12  13
ENDBRANCH   1  12
TORSDOF 16
ENDMDL
MODEL 3
REMARK VINA RESULT:    -5.597      2.585      6.412
REMARK INTER + INTRA:         -12.620
REMARK INTER:                 -10.072
REMARK INTRA:                  -2.547
REMARK UNBOUND:                -1.787
REMARK SMILES CCCCCCCCCCCCCCCCCC(=O)[O-]
REMARK SMILES IDX 10 1 11 2 12 3 13 4 14 5 15 6 16 7 17 8 18 9 19 10 20 11
REMARK SMILES IDX 9 12 8 13 7 14 6 15 5 16 4 17 3 18 2 19 1 20
REMARK H PARENT
REMARK Flexibility Score: inf
ROOT
ATOM      1  C   UNL     1     164.027 153.609 152.006  1.00  0.00     0.000 C 
ENDROOT
BRANCH   1   2
ATOM      2  C   UNL     1     164.453 155.048 151.673  1.00  0.00     0.000 C 
BRANCH   2   3
ATOM      3  C   UNL     1     165.954 155.167 151.367  1.00  0.00     0.000 C 
BRANCH   3   4
ATOM      4  C   UNL     1     166.262 155.055 149.864  1.00  0.00     0.000 C 
BRANCH   4   5
ATOM      5  C   UNL     1     167.017 153.764 149.510  1.00  0.00     0.000 C 
BRANCH   5   6
ATOM      6  C   UNL     1     168.267 153.551 150.376  1.00  0.00     0.000 C 
BRANCH   6   7
ATOM      7  C   UNL     1     168.996 152.257 149.980  1.00  0.00     0.006 C 
BRANCH   7   8
ATOM      8  C   UNL     1     168.834 151.931 148.490  1.00  0.00     0.053 C 
BRANCH   8   9
ATOM      9  C   UNL     1     169.531 150.658 148.121  1.00  0.00     0.041 C 
ATOM     10  O   UNL     1     170.627 150.692 147.501  1.00  0.00    -0.550 OA
ATOM     11  O   UNL     1     168.956 149.432 148.432  1.00  0.00    -0.550 OA
ENDBRANCH   8   9
ENDBRANCH   7   8
ENDBRANCH   6   7
ENDBRANCH   5   6
ENDBRANCH   4   5
ENDBRANCH   3   4
ENDBRANCH   2   3
ENDBRANCH   1   2
BRANCH   1  12
ATOM     12  C   UNL     1     163.227 152.995 150.846  1.00  0.00     0.000 C 
BRANCH  12  13
ATOM     13  C   UNL     1     163.758 151.614 150.424  1.00  0.00    -0.000 C 
BRANCH  13  14
ATOM     14  C   UNL     1     165.057 151.178 151.129  1.00  0.00    -0.000 C 
BRANCH  14  15
ATOM     15  C   UNL     1     165.934 150.229 150.283  1.00  0.00    -0.000 C 
BRANCH  15  16
ATOM     16  C   UNL     1     165.461 150.149 148.820  1.00  0.00    -0.000 C 
BRANCH  16  17
ATOM     17  C   UNL     1     165.511 148.720 148.256  1.00  0.00    -0.000 C 
BRANCH  17  18
ATOM     18  C   UNL     1     165.208 147.653 149.322  1.00  0.00    -0.000 C 
BRANCH  18  19
ATOM     19  C   UNL     1     163.730 147.234 149.330  1.00  0.00    -0.003 C 
ATOM     20  C   UNL     1     163.185 147.008 150.741  1.00  0.00     0.004 C 
ENDBRANCH  18  19
ENDBRANCH  17  18
ENDBRANCH  16  17
ENDBRANCH  15  16
ENDBRANCH  14  15
ENDBRANCH  13  14
ENDBRANCH  12  13
ENDBRANCH   1  12
TORSDOF 16
ENDMDL
MODEL 4
REMARK VINA RESULT:    -5.589      3.707      7.199
REMARK INTER + INTRA:         -12.605
REMARK INTER:                 -10.052
REMARK INTRA:                  -2.553
REMARK UNBOUND:                -1.787
REMARK SMILES CCCCCCCCCCCCCCCCCC(=O)[O-]
REMARK SMILES IDX 10 1 11 2 12 3 13 4 14 5 15 6 16 7 17 8 18 9 19 10 20 11
REMARK SMILES IDX 9 12 8 13 7 14 6 15 5 16 4 17 3 18 2 19 1 20
REMARK H PARENT
REMARK Flexibility Score: inf
ROOT
ATOM      1  C   UNL     1     169.056 152.853 148.559  1.00  0.00     0.000 C 
ENDROOT
BRANCH   1   2
ATOM      2  C   UNL     1     169.165 153.001 150.085  1.00  0.00     0.000 C 
BRANCH   2   3
ATOM      3  C   UNL     1     167.941 153.696 150.702  1.00  0.00     0.000 C 
BRANCH   3   4
ATOM      4  C   UNL     1     167.022 154.328 149.643  1.00  0.00     0.000 C 
BRANCH   4   5
ATOM      5  C   UNL     1     165.965 155.259 150.257  1.00  0.00     0.000 C 
BRANCH   5   6
ATOM      6  C   UNL     1     165.041 154.537 151.249  1.00  0.00     0.000 C 
BRANCH   6   7
ATOM      7  C   UNL     1     164.589 155.486 152.370  1.00  0.00     0.006 C 
BRANCH   7   8
ATOM      8  C   UNL     1     165.760 156.271 152.976  1.00  0.00     0.053 C 
BRANCH   8   9
ATOM      9  C   UNL     1     165.430 157.723 153.139  1.00  0.00     0.041 C 
ATOM     10  O   UNL     1     164.478 158.077 153.883  1.00  0.00    -0.550 OA
ATOM     11  O   UNL     1     166.153 158.684 152.444  1.00  0.00    -0.550 OA
ENDBRANCH   8   9
ENDBRANCH   7   8
ENDBRANCH   6   7
ENDBRANCH   5   6
ENDBRANCH   4   5
ENDBRANCH   3   4
ENDBRANCH   2   3
ENDBRANCH   1   2
BRANCH   1  12
ATOM     12  C   UNL     1     169.166 151.377 148.145  1.00  0.00     0.000 C 
BRANCH  12  13
ATOM     13  C   UNL     1     168.725 150.412 149.259  1.00  0.00    -0.000 C 
BRANCH  13  14
ATOM     14  C   UNL     1     167.298 149.853 149.102  1.00  0.00    -0.000 C 
BRANCH  14  15
ATOM     15  C   UNL     1     166.539 149.705 150.438  1.00  0.00    -0.000 C 
BRANCH  15  16
ATOM     16  C   UNL     1     165.708 150.956 150.776  1.00  0.00    -0.000 C 
BRANCH  16  17
ATOM     17  C   UNL     1     164.234 150.821 150.362  1.00  0.00    -0.000 C 
BRANCH  17  18
ATOM     18  C   UNL     1     163.838 151.812 149.254  1.00  0.00    -0.000 C 
BRANCH  18  19
ATOM     19  C   UNL     1     164.180 151.291 147.849  1.00  0.00    -0.003 C 
ATOM     20  C   UNL     1     165.181 152.182 147.113  1.00  0.00     0.004 C 
ENDBRANCH  18  19
ENDBRANCH  17  18
ENDBRANCH  16  17
ENDBRANCH  15  16
ENDBRANCH  14  15
ENDBRANCH  13  14
ENDBRANCH  12  13
ENDBRANCH   1  12
TORSDOF 16
ENDMDL
MODEL 5
REMARK VINA RESULT:    -5.521      3.200      5.523
REMARK INTER + INTRA:         -12.473
REMARK INTER:                  -9.308
REMARK INTRA:                  -3.165
REMARK UNBOUND:                -1.787
REMARK SMILES CCCCCCCCCCCCCCCCCC(=O)[O-]
REMARK SMILES IDX 10 1 11 2 12 3 13 4 14 5 15 6 16 7 17 8 18 9 19 10 20 11
REMARK SMILES IDX 9 12 8 13 7 14 6 15 5 16 4 17 3 18 2 19 1 20
REMARK H PARENT
REMARK Flexibility Score: inf
ROOT
ATOM      1  C   UNL     1     167.194 154.400 149.494  1.00  0.00     0.000 C 
ENDROOT
BRANCH   1   2
ATOM      2  C   UNL     1     167.964 153.538 150.507  1.00  0.00     0.000 C 
BRANCH   2   3
ATOM      3  C   UNL     1     168.990 152.610 149.838  1.00  0.00     0.000 C 
BRANCH   3   4
ATOM      4  C   UNL     1     168.980 152.724 148.304  1.00  0.00     0.000 C 
BRANCH   4   5
ATOM      5  C   UNL     1     169.217 151.373 147.609  1.00  0.00     0.000 C 
BRANCH   5   6
ATOM      6  C   UNL     1     168.558 150.201 148.350  1.00  0.00     0.000 C 
BRANCH   6   7
ATOM      7  C   UNL     1     167.879 149.239 147.361  1.00  0.00     0.006 C 
BRANCH   7   8
ATOM      8  C   UNL     1     166.812 148.368 148.036  1.00  0.00     0.053 C 
BRANCH   8   9
ATOM      9  C   UNL     1     165.555 148.302 147.224  1.00  0.00     0.041 C 
ATOM     10  O   UNL     1     164.486 147.885 147.744  1.00  0.00    -0.550 OA
ATOM     11  O   UNL     1     165.569 148.671 145.885  1.00  0.00    -0.550 OA
ENDBRANCH   8   9
ENDBRANCH   7   8
ENDBRANCH   6   7
ENDBRANCH   5   6
ENDBRANCH   4   5
ENDBRANCH   3   4
ENDBRANCH   2   3
ENDBRANCH   1   2
BRANCH   1  12
ATOM     12  C   UNL     1     166.036 155.143 150.178  1.00  0.00     0.000 C 
BRANCH  12  13
ATOM     13  C   UNL     1     165.529 154.422 151.439  1.00  0.00    -0.000 C 
BRANCH  13  14
ATOM     14  C   UNL     1     164.007 154.188 151.480  1.00  0.00    -0.000 C 
BRANCH  14  15
ATOM     15  C   UNL     1     163.583 152.777 151.018  1.00  0.00    -0.000 C 
BRANCH  15  16
ATOM     16  C   UNL     1     164.693 151.735 151.237  1.00  0.00    -0.000 C 
BRANCH  16  17
ATOM     17  C   UNL     1     165.190 151.109 149.924  1.00  0.00    -0.000 C 
BRANCH  17  18
ATOM     18  C   UNL     1     164.415 151.617 148.697  1.00  0.00    -0.000 C 
BRANCH  18  19
ATOM     19  C   UNL     1     165.339 151.974 147.523  1.00  0.00    -0.003 C 
ATOM     20  C   UNL     1     164.615 151.975 146.176  1.00  0.00     0.004 C 
ENDBRANCH  18  19
ENDBRANCH  17  18
ENDBRANCH  16  17
ENDBRANCH  15  16
ENDBRANCH  14  15
ENDBRANCH  13  14
ENDBRANCH  12  13
ENDBRANCH   1  12
TORSDOF 16
ENDMDL
MODEL 6
REMARK VINA RESULT:    -5.516      3.234      7.138
REMARK INTER + INTRA:         -12.462
REMARK INTER:                 -10.283
REMARK INTRA:                  -2.179
REMARK UNBOUND:                -1.787
REMARK SMILES CCCCCCCCCCCCCCCCCC(=O)[O-]
REMARK SMILES IDX 10 1 11 2 12 3 13 4 14 5 15 6 16 7 17 8 18 9 19 10 20 11
REMARK SMILES IDX 9 12 8 13 7 14 6 15 5 16 4 17 3 18 2 19 1 20
REMARK H PARENT
REMARK Flexibility Score: inf
ROOT
ATOM      1  C   UNL     1     163.436 152.910 151.301  1.00  0.00     0.000 C 
ENDROOT
BRANCH   1   2
ATOM      2  C   UNL     1     163.709 154.408 151.510  1.00  0.00     0.000 C 
BRANCH   2   3
ATOM      3  C   UNL     1     165.209 154.739 151.543  1.00  0.00     0.000 C 
BRANCH   3   4
ATOM      4  C   UNL     1     165.481 156.253 151.557  1.00  0.00     0.000 C 
BRANCH   4   5
ATOM      5  C   UNL     1     164.663 156.990 152.631  1.00  0.00     0.000 C 
BRANCH   5   6
ATOM      6  C   UNL     1     164.499 158.487 152.329  1.00  0.00     0.000 C 
BRANCH   6   7
ATOM      7  C   UNL     1     165.696 159.018 151.525  1.00  0.00     0.006 C 
BRANCH   7   8
ATOM      8  C   UNL     1     165.320 160.220 150.648  1.00  0.00     0.053 C 
BRANCH   8   9
ATOM      9  C   UNL     1     164.455 159.818 149.494  1.00  0.00     0.041 C 
ATOM     10  O   UNL     1     164.959 159.245 148.493  1.00  0.00    -0.550 OA
ATOM     11  O   UNL     1     163.095 160.103 149.510  1.00  0.00    -0.550 OA
ENDBRANCH   8   9
ENDBRANCH   7   8
ENDBRANCH   6   7
ENDBRANCH   5   6
ENDBRANCH   4   5
ENDBRANCH   3   4
ENDBRANCH   2   3
ENDBRANCH   1   2
BRANCH   1  12
ATOM     12  C   UNL     1     164.729 152.093 151.449  1.00  0.00     0.000 C 
BRANCH  12  13
ATOM     13  C   UNL     1     165.053 151.260 150.198  1.00  0.00    -0.000 C 
BRANCH  13  14
ATOM     14  C   UNL     1     164.502 151.835 148.878  1.00  0.00    -0.000 C 
BRANCH  14  15
ATOM     15  C   UNL     1     165.599 152.330 147.911  1.00  0.00    -0.000 C 
BRANCH  15  16
ATOM     16  C   UNL     1     166.204 153.674 148.356  1.00  0.00    -0.000 C 
BRANCH  16  17
ATOM     17  C   UNL     1     167.729 153.608 148.539  1.00  0.00    -0.000 C 
BRANCH  17  18
ATOM     18  C   UNL     1     168.140 153.422 150.010  1.00  0.00    -0.000 C 
BRANCH  18  19
ATOM     19  C   UNL     1     169.248 152.372 150.182  1.00  0.00    -0.003 C 
ATOM     20  C   UNL     1     168.838 150.988 149.679  1.00  0.00     0.004 C 
ENDBRANCH  18  19
ENDBRANCH  17  18
ENDBRANCH  16  17
ENDBRANCH  15  16
ENDBRANCH  14  15
ENDBRANCH  13  14
ENDBRANCH  12  13
ENDBRANCH   1  12
TORSDOF 16
ENDMDL
MODEL 7
REMARK VINA RESULT:    -5.504      3.367      7.020
REMARK INTER + INTRA:         -12.439
REMARK INTER:                 -10.041
REMARK INTRA:                  -2.398
REMARK UNBOUND:                -1.787
REMARK SMILES CCCCCCCCCCCCCCCCCC(=O)[O-]
REMARK SMILES IDX 10 1 11 2 12 3 13 4 14 5 15 6 16 7 17 8 18 9 19 10 20 11
REMARK SMILES IDX 9 12 8 13 7 14 6 15 5 16 4 17 3 18 2 19 1 20
REMARK H PARENT
REMARK Flexibility Score: inf
ROOT
ATOM      1  C   UNL     1     164.115 151.368 150.599  1.00  0.00     0.000 C 
ENDROOT
BRANCH   1   2
ATOM      2  C   UNL     1     164.455 152.534 151.541  1.00  0.00     0.000 C 
BRANCH   2   3
ATOM      3  C   UNL     1     163.386 153.637 151.531  1.00  0.00     0.000 C 
BRANCH   3   4
ATOM      4  C   UNL     1     163.738 154.810 152.463  1.00  0.00     0.000 C 
BRANCH   4   5
ATOM      5  C   UNL     1     165.206 155.247 152.334  1.00  0.00     0.000 C 
BRANCH   5   6
ATOM      6  C   UNL     1     165.366 156.570 151.572  1.00  0.00     0.000 C 
BRANCH   6   7
ATOM      7  C   UNL     1     165.156 157.772 152.507  1.00  0.00     0.006 C 
BRANCH   7   8
ATOM      8  C   UNL     1     164.391 158.913 151.825  1.00  0.00     0.053 C 
BRANCH   8   9
ATOM      9  C   UNL     1     165.192 159.541 150.727  1.00  0.00     0.041 C 
ATOM     10  O   UNL     1     166.153 160.307 151.002  1.00  0.00    -0.550 OA
ATOM     11  O   UNL     1     164.857 159.308 149.399  1.00  0.00    -0.550 OA
ENDBRANCH   8   9
ENDBRANCH   7   8
ENDBRANCH   6   7
ENDBRANCH   5   6
ENDBRANCH   4   5
ENDBRANCH   3   4
ENDBRANCH   2   3
ENDBRANCH   1   2
BRANCH   1  12
ATOM     12  C   UNL     1     163.614 151.890 149.243  1.00  0.00     0.000 C 
BRANCH  12  13
ATOM     13  C   UNL     1     164.061 151.008 148.065  1.00  0.00    -0.000 C 
BRANCH  13  14
ATOM     14  C   UNL     1     165.002 151.700 147.060  1.00  0.00    -0.000 C 
BRANCH  14  15
ATOM     15  C   UNL     1     166.353 150.975 146.874  1.00  0.00    -0.000 C 
BRANCH  15  16
ATOM     16  C   UNL     1     167.027 150.647 148.219  1.00  0.00    -0.000 C 
BRANCH  16  17
ATOM     17  C   UNL     1     168.094 151.680 148.618  1.00  0.00    -0.000 C 
BRANCH  17  18
ATOM     18  C   UNL     1     167.818 152.313 149.992  1.00  0.00    -0.000 C 
BRANCH  18  19
ATOM     19  C   UNL     1     167.712 153.844 149.924  1.00  0.00    -0.003 C 
ATOM     20  C   UNL     1     166.611 154.321 148.976  1.00  0.00     0.004 C 
ENDBRANCH  18  19
ENDBRANCH  17  18
ENDBRANCH  16  17
ENDBRANCH  15  16
ENDBRANCH  14  15
ENDBRANCH  13  14
ENDBRANCH  12  13
ENDBRANCH   1  12
TORSDOF 16
ENDMDL
MODEL 8
REMARK VINA RESULT:    -5.485      3.407      7.180
REMARK INTER + INTRA:         -12.403
REMARK INTER:                  -9.947
REMARK INTRA:                  -2.456
REMARK UNBOUND:                -1.787
REMARK SMILES CCCCCCCCCCCCCCCCCC(=O)[O-]
REMARK SMILES IDX 10 1 11 2 12 3 13 4 14 5 15 6 16 7 17 8 18 9 19 10 20 11
REMARK SMILES IDX 9 12 8 13 7 14 6 15 5 16 4 17 3 18 2 19 1 20
REMARK H PARENT
REMARK Flexibility Score: inf
ROOT
ATOM      1  C   UNL     1     168.742 152.752 150.002  1.00  0.00     0.000 C 
ENDROOT
BRANCH   1   2
ATOM      2  C   UNL     1     167.846 153.795 150.687  1.00  0.00     0.000 C 
BRANCH   2   3
ATOM      3  C   UNL     1     167.018 154.617 149.687  1.00  0.00     0.000 C 
BRANCH   3   4
ATOM      4  C   UNL     1     165.856 155.370 150.358  1.00  0.00     0.000 C 
BRANCH   4   5
ATOM      5  C   UNL     1     165.937 155.334 151.893  1.00  0.00     0.000 C 
BRANCH   5   6
ATOM      6  C   UNL     1     165.397 156.616 152.545  1.00  0.00     0.000 C 
BRANCH   6   7
ATOM      7  C   UNL     1     164.728 157.523 151.501  1.00  0.00     0.006 C 
BRANCH   7   8
ATOM      8  C   UNL     1     164.872 159.011 151.845  1.00  0.00     0.053 C 
BRANCH   8   9
ATOM      9  C   UNL     1     165.522 159.778 150.735  1.00  0.00     0.041 C 
ATOM     10  O   UNL     1     166.444 160.599 150.986  1.00  0.00    -0.550 OA
ATOM     11  O   UNL     1     165.089 159.610 149.425  1.00  0.00    -0.550 OA
ENDBRANCH   8   9
ENDBRANCH   7   8
ENDBRANCH   6   7
ENDBRANCH   5   6
ENDBRANCH   4   5
ENDBRANCH   3   4
ENDBRANCH   2   3
ENDBRANCH   1   2
BRANCH   1  12
ATOM     12  C   UNL     1     168.651 152.874 148.473  1.00  0.00     0.000 C 
BRANCH  12  13
ATOM     13  C   UNL     1     168.601 151.508 147.769  1.00  0.00    -0.000 C 
BRANCH  13  14
ATOM     14  C   UNL     1     167.264 150.756 147.911  1.00  0.00    -0.000 C 
BRANCH  14  15
ATOM     15  C   UNL     1     166.039 151.570 147.439  1.00  0.00    -0.000 C 
BRANCH  15  16
ATOM     16  C   UNL     1     165.066 151.878 148.591  1.00  0.00    -0.000 C 
BRANCH  16  17
ATOM     17  C   UNL     1     165.377 151.075 149.864  1.00  0.00    -0.000 C 
BRANCH  17  18
ATOM     18  C   UNL     1     164.871 151.769 151.139  1.00  0.00    -0.000 C 
BRANCH  18  19
ATOM     19  C   UNL     1     163.369 152.087 151.080  1.00  0.00    -0.003 C 
ATOM     20  C   UNL     1     163.047 153.516 151.519  1.00  0.00     0.004 C 
ENDBRANCH  18  19
ENDBRANCH  17  18
ENDBRANCH  16  17
ENDBRANCH  15  16
ENDBRANCH  14  15
ENDBRANCH  13  14
ENDBRANCH  12  13
ENDBRANCH   1  12
TORSDOF 16
ENDMDL
MODEL 9
REMARK VINA RESULT:    -5.451      3.882      7.681
REMARK INTER + INTRA:         -12.336
REMARK INTER:                  -9.311
REMARK INTRA:                  -3.025
REMARK UNBOUND:                -1.787
REMARK SMILES CCCCCCCCCCCCCCCCCC(=O)[O-]
REMARK SMILES IDX 10 1 11 2 12 3 13 4 14 5 15 6 16 7 17 8 18 9 19 10 20 11
REMARK SMILES IDX 9 12 8 13 7 14 6 15 5 16 4 17 3 18 2 19 1 20
REMARK H PARENT
REMARK Flexibility Score: inf
ROOT
ATOM      1  C   UNL     1     164.044 150.971 150.356  1.00  0.00     0.000 C 
ENDROOT
BRANCH   1   2
ATOM      2  C   UNL     1     165.416 151.183 151.015  1.00  0.00     0.000 C 
BRANCH   2   3
ATOM      3  C   UNL     1     166.557 150.501 150.245  1.00  0.00     0.000 C 
BRANCH   3   4
ATOM      4  C   UNL     1     167.772 151.424 150.047  1.00  0.00     0.000 C 
BRANCH   4   5
ATOM      5  C   UNL     1     167.460 152.626 149.141  1.00  0.00     0.000 C 
BRANCH   5   6
ATOM      6  C   UNL     1     167.718 153.973 149.831  1.00  0.00     0.000 C 
BRANCH   6   7
ATOM      7  C   UNL     1     166.411 154.765 149.995  1.00  0.00     0.006 C 
BRANCH   7   8
ATOM      8  C   UNL     1     165.942 154.818 151.455  1.00  0.00     0.053 C 
BRANCH   8   9
ATOM      9  C   UNL     1     165.504 156.195 151.848  1.00  0.00     0.041 C 
ATOM     10  O   UNL     1     165.288 156.471 153.058  1.00  0.00    -0.550 OA
ATOM     11  O   UNL     1     165.302 157.166 150.875  1.00  0.00    -0.550 OA
ENDBRANCH   8   9
ENDBRANCH   7   8
ENDBRANCH   6   7
ENDBRANCH   5   6
ENDBRANCH   4   5
ENDBRANCH   3   4
ENDBRANCH   2   3
ENDBRANCH   1   2
BRANCH   1  12
ATOM     12  C   UNL     1     163.805 152.007 149.247  1.00  0.00     0.000 C 
BRANCH  12  13
ATOM     13  C   UNL     1     163.652 151.366 147.857  1.00  0.00    -0.000 C 
BRANCH  13  14
ATOM     14  C   UNL     1     164.788 151.689 146.868  1.00  0.00    -0.000 C 
BRANCH  14  15
ATOM     15  C   UNL     1     165.702 150.484 146.556  1.00  0.00    -0.000 C 
BRANCH  15  16
ATOM     16  C   UNL     1     165.088 149.153 147.023  1.00  0.00    -0.000 C 
BRANCH  16  17
ATOM     17  C   UNL     1     166.139 148.168 147.561  1.00  0.00    -0.000 C 
BRANCH  17  18
ATOM     18  C   UNL     1     165.596 147.287 148.699  1.00  0.00    -0.000 C 
BRANCH  18  19
ATOM     19  C   UNL     1     164.062 147.319 148.787  1.00  0.00    -0.003 C 
ATOM     20  C   UNL     1     163.548 147.223 150.223  1.00  0.00     0.004 C 
ENDBRANCH  18  19
ENDBRANCH  17  18
ENDBRANCH  16  17
ENDBRANCH  15  16
ENDBRANCH  14  15
ENDBRANCH  13  14
ENDBRANCH  12  13
ENDBRANCH   1  12
TORSDOF 16
ENDMDL
