MODEL 1
REMARK VINA RESULT:    -4.486      0.000      0.000
REMARK INTER + INTRA:          -7.856
REMARK INTER:                  -6.846
REMARK INTRA:                  -1.011
REMARK UNBOUND:                -1.011
REMARK SMILES O=C([O-])CCCCCCCCC(=O)[O-]
REMARK SMILES IDX 7 1 6 2 5 3 4 4 2 5 1 6 3 7 8 8 9 9 10 10 11 11 12 12 13 13
REMARK SMILES IDX 14 14
REMARK H PARENT
REMARK Flexibility Score: inf
ROOT
ATOM      1  C   UNL     1      62.487  29.001  13.083  1.00  0.00     0.000 C 
ENDROOT
BRANCH   1   2
ATOM      2  C   UNL     1      61.045  28.854  13.593  1.00  0.00     0.000 C 
BRANCH   2   3
ATOM      3  C   UNL     1      60.082  28.552  12.435  1.00  0.00     0.006 C 
BRANCH   3   4
ATOM      4  C   UNL     1      59.985  29.715  11.440  1.00  0.00     0.053 C 
BRANCH   4   5
ATOM      5  C   UNL     1      60.451  29.315  10.073  1.00  0.00     0.041 C 
ATOM      6  O   UNL     1      60.266  30.080   9.090  1.00  0.00    -0.550 OA
ATOM      7  O   UNL     1      61.058  28.081   9.880  1.00  0.00    -0.550 OA
ENDBRANCH   4   5
ENDBRANCH   3   4
ENDBRANCH   2   3
ENDBRANCH   1   2
BRANCH   1   8
ATOM      8  C   UNL     1      63.187  30.254  13.634  1.00  0.00     0.000 C 
BRANCH   8   9
ATOM      9  C   UNL     1      62.910  31.508  12.785  1.00  0.00     0.000 C 
BRANCH   9  10
ATOM     10  C   UNL     1      62.321  32.662  13.613  1.00  0.00     0.006 C 
BRANCH  10  11
ATOM     11  C   UNL     1      60.801  32.794  13.447  1.00  0.00     0.053 C 
BRANCH  11  12
ATOM     12  C   UNL     1      60.095  32.199  14.624  1.00  0.00     0.041 C 
ATOM     13  O   UNL     1      58.892  31.840  14.526  1.00  0.00    -0.550 OA
ATOM     14  O   UNL     1      60.750  32.086  15.844  1.00  0.00    -0.550 OA
ENDBRANCH  11  12
ENDBRANCH  10  11
ENDBRANCH   9  10
ENDBRANCH   8   9
ENDBRANCH   1   8
TORSDOF 9
ENDMDL
MODEL 2
REMARK VINA RESULT:    -4.455      1.887      2.330
REMARK INTER + INTRA:          -7.809
REMARK INTER:                  -6.788
REMARK INTRA:                  -1.022
REMARK UNBOUND:                -1.011
REMARK SMILES O=C([O-])CCCCCCCCC(=O)[O-]
REMARK SMILES IDX 7 1 6 2 5 3 4 4 2 5 1 6 3 7 8 8 9 9 10 10 11 11 12 12 13 13
REMARK SMILES IDX 14 14
REMARK H PARENT
REMARK Flexibility Score: inf
ROOT
ATOM      1  C   UNL     1      63.329  29.331  10.839  1.00  0.00     0.000 C 
ENDROOT
BRANCH   1   2
ATOM      2  C   UNL     1      61.988  29.702  10.187  1.00  0.00     0.000 C 
BRANCH   2   3
ATOM      3  C   UNL     1      60.906  28.665  10.528  1.00  0.00     0.006 C 
BRANCH   3   4
ATOM      4  C   UNL     1      59.751  29.272  11.334  1.00  0.00     0.053 C 
BRANCH   4   5
ATOM      5  C   UNL     1      59.623  28.638  12.684  1.00  0.00     0.041 C 
ATOM      6  O   UNL     1      60.519  28.806  13.553  1.00  0.00    -0.550 OA
ATOM      7  O   UNL     1      58.528  27.832  12.972  1.00  0.00    -0.550 OA
ENDBRANCH   4   5
ENDBRANCH   3   4
ENDBRANCH   2   3
ENDBRANCH   1   2
BRANCH   1   8
ATOM      8  C   UNL     1      63.534  30.011  12.202  1.00  0.00     0.000 C 
BRANCH   8   9
ATOM      9  C   UNL     1      63.283  31.529  12.149  1.00  0.00     0.000 C 
BRANCH   9  10
ATOM     10  C   UNL     1      62.457  32.031  13.345  1.00  0.00     0.006 C 
BRANCH  10  11
ATOM     11  C   UNL     1      60.994  32.314  12.979  1.00  0.00     0.053 C 
BRANCH  11  12
ATOM     12  C   UNL     1      60.184  32.553  14.214  1.00  0.00     0.041 C 
ATOM     13  O   UNL     1      59.132  31.893  14.418  1.00  0.00    -0.550 OA
ATOM     14  O   UNL     1      60.565  33.539  15.115  1.00  0.00    -0.550 OA
ENDBRANCH  11  12
ENDBRANCH  10  11
ENDBRANCH   9  10
ENDBRANCH   8   9
ENDBRANCH   1   8
TORSDOF 9
ENDMDL
MODEL 3
REMARK VINA RESULT:    -4.423      0.911      4.895
REMARK INTER + INTRA:          -7.760
REMARK INTER:                  -6.800
REMARK INTRA:                  -0.961
REMARK UNBOUND:                -1.011
REMARK SMILES O=C([O-])CCCCCCCCC(=O)[O-]
REMARK SMILES IDX 7 1 6 2 5 3 4 4 2 5 1 6 3 7 8 8 9 9 10 10 11 11 12 12 13 13
REMARK SMILES IDX 14 14
REMARK H PARENT
REMARK Flexibility Score: inf
ROOT
ATOM      1  C   UNL     1      63.552  29.922  13.674  1.00  0.00     0.000 C 
ENDROOT
BRANCH   1   2
ATOM      2  C   UNL     1      62.848  30.919  14.608  1.00  0.00     0.000 C 
BRANCH   2   3
ATOM      3  C   UNL     1      62.818  32.324  13.987  1.00  0.00     0.006 C 
BRANCH   3   4
ATOM      4  C   UNL     1      61.484  32.625  13.292  1.00  0.00     0.053 C 
BRANCH   4   5
ATOM      5  C   UNL     1      60.382  32.851  14.281  1.00  0.00     0.041 C 
ATOM      6  O   UNL     1      60.450  33.803  15.102  1.00  0.00    -0.550 OA
ATOM      7  O   UNL     1      59.295  31.987  14.317  1.00  0.00    -0.550 OA
ENDBRANCH   4   5
ENDBRANCH   3   4
ENDBRANCH   2   3
ENDBRANCH   1   2
BRANCH   1   8
ATOM      8  C   UNL     1      62.598  28.851  13.120  1.00  0.00     0.000 C 
BRANCH   8   9
ATOM      9  C   UNL     1      61.173  28.979  13.689  1.00  0.00     0.000 C 
BRANCH   9  10
ATOM     10  C   UNL     1      60.091  28.665  12.642  1.00  0.00     0.006 C 
BRANCH  10  11
ATOM     11  C   UNL     1      60.137  29.616  11.439  1.00  0.00     0.053 C 
BRANCH  11  12
ATOM     12  C   UNL     1      60.293  28.841  10.168  1.00  0.00     0.041 C 
ATOM     13  O   UNL     1      59.300  28.647   9.419  1.00  0.00    -0.550 OA
ATOM     14  O   UNL     1      61.525  28.292   9.835  1.00  0.00    -0.550 OA
ENDBRANCH  11  12
ENDBRANCH  10  11
ENDBRANCH   9  10
ENDBRANCH   8   9
ENDBRANCH   1   8
TORSDOF 9
ENDMDL
MODEL 4
REMARK VINA RESULT:    -4.416     12.751     13.736
REMARK INTER + INTRA:          -7.749
REMARK INTER:                  -6.747
REMARK INTRA:                  -1.002
REMARK UNBOUND:                -1.011
REMARK SMILES O=C([O-])CCCCCCCCC(=O)[O-]
REMARK SMILES IDX 7 1 6 2 5 3 4 4 2 5 1 6 3 7 8 8 9 9 10 10 11 11 12 12 13 13
REMARK SMILES IDX 14 14
REMARK H PARENT
REMARK Flexibility Score: inf
ROOT
ATOM      1  C   UNL     1      64.099  30.064  25.758  1.00  0.00     0.000 C 
ENDROOT
BRANCH   1   2
ATOM      2  C   UNL     1      65.202  29.069  26.150  1.00  0.00     0.000 C 
BRANCH   2   3
ATOM      3  C   UNL     1      65.415  28.023  25.045  1.00  0.00     0.006 C 
BRANCH   3   4
ATOM      4  C   UNL     1      64.724  26.691  25.364  1.00  0.00     0.053 C 
BRANCH   4   5
ATOM      5  C   UNL     1      64.495  25.875  24.129  1.00  0.00     0.041 C 
ATOM      6  O   UNL     1      65.416  25.734  23.282  1.00  0.00    -0.550 OA
ATOM      7  O   UNL     1      63.253  25.299  23.897  1.00  0.00    -0.550 OA
ENDBRANCH   4   5
ENDBRANCH   3   4
ENDBRANCH   2   3
ENDBRANCH   1   2
BRANCH   1   8
ATOM      8  C   UNL     1      63.068  30.279  26.878  1.00  0.00     0.000 C 
BRANCH   8   9
ATOM      9  C   UNL     1      62.859  29.019  27.738  1.00  0.00     0.000 C 
BRANCH   9  10
ATOM     10  C   UNL     1      61.433  28.457  27.623  1.00  0.00     0.006 C 
BRANCH  10  11
ATOM     11  C   UNL     1      61.377  27.138  26.841  1.00  0.00     0.053 C 
BRANCH  11  12
ATOM     12  C   UNL     1      60.718  27.347  25.513  1.00  0.00     0.041 C 
ATOM     13  O   UNL     1      59.622  26.784  25.256  1.00  0.00    -0.550 OA
ATOM     14  O   UNL     1      61.339  28.122  24.543  1.00  0.00    -0.550 OA
ENDBRANCH  11  12
ENDBRANCH  10  11
ENDBRANCH   9  10
ENDBRANCH   8   9
ENDBRANCH   1   8
TORSDOF 9
ENDMDL
MODEL 5
REMARK VINA RESULT:    -4.388     12.325     13.881
REMARK INTER + INTRA:          -7.707
REMARK INTER:                  -6.785
REMARK INTRA:                  -0.922
REMARK UNBOUND:                -1.011
REMARK SMILES O=C([O-])CCCCCCCCC(=O)[O-]
REMARK SMILES IDX 7 1 6 2 5 3 4 4 2 5 1 6 3 7 8 8 9 9 10 10 11 11 12 12 13 13
REMARK SMILES IDX 14 14
REMARK H PARENT
REMARK Flexibility Score: inf
ROOT
ATOM      1  C   UNL     1      63.519  29.994  24.402  1.00  0.00     0.000 C 
ENDROOT
BRANCH   1   2
ATOM      2  C   UNL     1      62.112  29.767  24.978  1.00  0.00     0.000 C 
BRANCH   2   3
ATOM      3  C   UNL     1      61.673  28.307  24.793  1.00  0.00     0.006 C 
BRANCH   3   4
ATOM      4  C   UNL     1      60.708  27.845  25.893  1.00  0.00     0.053 C 
BRANCH   4   5
ATOM      5  C   UNL     1      61.314  27.984  27.256  1.00  0.00     0.041 C 
ATOM      6  O   UNL     1      60.802  28.764  28.101  1.00  0.00    -0.550 OA
ATOM      7  O   UNL     1      62.464  27.276  27.579  1.00  0.00    -0.550 OA
ENDBRANCH   4   5
ENDBRANCH   3   4
ENDBRANCH   2   3
ENDBRANCH   1   2
BRANCH   1   8
ATOM      8  C   UNL     1      64.579  30.211  25.494  1.00  0.00     0.000 C 
BRANCH   8   9
ATOM      9  C   UNL     1      65.186  28.890  25.999  1.00  0.00     0.000 C 
BRANCH   9  10
ATOM     10  C   UNL     1      65.464  27.896  24.860  1.00  0.00     0.006 C 
BRANCH  10  11
ATOM     11  C   UNL     1      64.925  26.490  25.156  1.00  0.00     0.053 C 
BRANCH  11  12
ATOM     12  C   UNL     1      64.563  25.792  23.882  1.00  0.00     0.041 C 
ATOM     13  O   UNL     1      63.405  25.325  23.724  1.00  0.00    -0.550 OA
ATOM     14  O   UNL     1      65.519  25.613  22.891  1.00  0.00    -0.550 OA
ENDBRANCH  11  12
ENDBRANCH  10  11
ENDBRANCH   9  10
ENDBRANCH   8   9
ENDBRANCH   1   8
TORSDOF 9
ENDMDL
MODEL 6
REMARK VINA RESULT:    -4.385     12.867     14.117
REMARK INTER + INTRA:          -7.702
REMARK INTER:                  -6.712
REMARK INTRA:                  -0.990
REMARK UNBOUND:                -1.011
REMARK SMILES O=C([O-])CCCCCCCCC(=O)[O-]
REMARK SMILES IDX 7 1 6 2 5 3 4 4 2 5 1 6 3 7 8 8 9 9 10 10 11 11 12 12 13 13
REMARK SMILES IDX 14 14
REMARK H PARENT
REMARK Flexibility Score: inf
ROOT
ATOM      1  C   UNL     1      62.648  30.127  27.396  1.00  0.00     0.000 C 
ENDROOT
BRANCH   1   2
ATOM      2  C   UNL     1      62.572  28.803  28.172  1.00  0.00     0.000 C 
BRANCH   2   3
ATOM      3  C   UNL     1      61.234  28.093  27.916  1.00  0.00     0.006 C 
BRANCH   3   4
ATOM      4  C   UNL     1      61.364  26.958  26.893  1.00  0.00     0.053 C 
BRANCH   4   5
ATOM      5  C   UNL     1      60.642  27.273  25.619  1.00  0.00     0.041 C 
ATOM      6  O   UNL     1      59.539  26.723  25.361  1.00  0.00    -0.550 OA
ATOM      7  O   UNL     1      61.205  28.150  24.701  1.00  0.00    -0.550 OA
ENDBRANCH   4   5
ENDBRANCH   3   4
ENDBRANCH   2   3
ENDBRANCH   1   2
BRANCH   1   8
ATOM      8  C   UNL     1      63.566  30.041  26.165  1.00  0.00     0.000 C 
BRANCH   8   9
ATOM      9  C   UNL     1      64.748  29.079  26.374  1.00  0.00     0.000 C 
BRANCH   9  10
ATOM     10  C   UNL     1      64.971  28.149  25.170  1.00  0.00     0.006 C 
BRANCH  10  11
ATOM     11  C   UNL     1      64.646  26.683  25.486  1.00  0.00     0.053 C 
BRANCH  11  12
ATOM     12  C   UNL     1      64.517  25.893  24.222  1.00  0.00     0.041 C 
ATOM     13  O   UNL     1      65.505  25.765  23.452  1.00  0.00    -0.550 OA
ATOM     14  O   UNL     1      63.292  25.341  23.869  1.00  0.00    -0.550 OA
ENDBRANCH  11  12
ENDBRANCH  10  11
ENDBRANCH   9  10
ENDBRANCH   8   9
ENDBRANCH   1   8
TORSDOF 9
ENDMDL
MODEL 7
REMARK VINA RESULT:    -4.380     12.325     13.444
REMARK INTER + INTRA:          -7.696
REMARK INTER:                  -6.711
REMARK INTRA:                  -0.985
REMARK UNBOUND:                -1.011
REMARK SMILES O=C([O-])CCCCCCCCC(=O)[O-]
REMARK SMILES IDX 7 1 6 2 5 3 4 4 2 5 1 6 3 7 8 8 9 9 10 10 11 11 12 12 13 13
REMARK SMILES IDX 14 14
REMARK H PARENT
REMARK Flexibility Score: inf
ROOT
ATOM      1  C   UNL     1      64.217  30.084  25.975  1.00  0.00     0.000 C 
ENDROOT
BRANCH   1   2
ATOM      2  C   UNL     1      65.233  28.943  26.140  1.00  0.00     0.000 C 
BRANCH   2   3
ATOM      3  C   UNL     1      65.315  28.093  24.863  1.00  0.00     0.006 C 
BRANCH   3   4
ATOM      4  C   UNL     1      64.958  26.624  25.117  1.00  0.00     0.053 C 
BRANCH   4   5
ATOM      5  C   UNL     1      64.553  25.925  23.856  1.00  0.00     0.041 C 
ATOM      6  O   UNL     1      63.444  25.332  23.786  1.00  0.00    -0.550 OA
ATOM      7  O   UNL     1      65.417  25.900  22.768  1.00  0.00    -0.550 OA
ENDBRANCH   4   5
ENDBRANCH   3   4
ENDBRANCH   2   3
ENDBRANCH   1   2
BRANCH   1   8
ATOM      8  C   UNL     1      63.438  29.999  24.652  1.00  0.00     0.000 C 
BRANCH   8   9
ATOM      9  C   UNL     1      61.944  29.702  24.865  1.00  0.00     0.000 C 
BRANCH   9  10
ATOM     10  C   UNL     1      61.607  28.213  24.682  1.00  0.00     0.006 C 
BRANCH  10  11
ATOM     11  C   UNL     1      60.675  27.677  25.776  1.00  0.00     0.053 C 
BRANCH  11  12
ATOM     12  C   UNL     1      61.294  27.861  27.126  1.00  0.00     0.041 C 
ATOM     13  O   UNL     1      60.772  28.646  27.961  1.00  0.00    -0.550 OA
ATOM     14  O   UNL     1      62.476  27.204  27.444  1.00  0.00    -0.550 OA
ENDBRANCH  11  12
ENDBRANCH  10  11
ENDBRANCH   9  10
ENDBRANCH   8   9
ENDBRANCH   1   8
TORSDOF 9
ENDMDL
MODEL 8
REMARK VINA RESULT:    -4.374     12.635     14.901
REMARK INTER + INTRA:          -7.686
REMARK INTER:                  -6.668
REMARK INTRA:                  -1.018
REMARK UNBOUND:                -1.011
REMARK SMILES O=C([O-])CCCCCCCCC(=O)[O-]
REMARK SMILES IDX 7 1 6 2 5 3 4 4 2 5 1 6 3 7 8 8 9 9 10 10 11 11 12 12 13 13
REMARK SMILES IDX 14 14
REMARK H PARENT
REMARK Flexibility Score: inf
ROOT
ATOM      1  C   UNL     1      63.308  30.518  25.565  1.00  0.00     0.000 C 
ENDROOT
BRANCH   1   2
ATOM      2  C   UNL     1      63.948  30.099  26.897  1.00  0.00     0.000 C 
BRANCH   2   3
ATOM      3  C   UNL     1      62.946  30.232  28.054  1.00  0.00     0.006 C 
BRANCH   3   4
ATOM      4  C   UNL     1      62.941  28.999  28.965  1.00  0.00     0.053 C 
BRANCH   4   5
ATOM      5  C   UNL     1      61.669  28.219  28.838  1.00  0.00     0.041 C 
ATOM      6  O   UNL     1      60.564  28.816  28.748  1.00  0.00    -0.550 OA
ATOM      7  O   UNL     1      61.701  26.830  28.853  1.00  0.00    -0.550 OA
ENDBRANCH   4   5
ENDBRANCH   3   4
ENDBRANCH   2   3
ENDBRANCH   1   2
BRANCH   1   8
ATOM      8  C   UNL     1      62.010  29.752  25.262  1.00  0.00     0.000 C 
BRANCH   8   9
ATOM      9  C   UNL     1      62.259  28.463  24.459  1.00  0.00     0.000 C 
BRANCH   9  10
ATOM     10  C   UNL     1      62.084  27.195  25.311  1.00  0.00     0.006 C 
BRANCH  10  11
ATOM     11  C   UNL     1      63.422  26.599  25.768  1.00  0.00     0.053 C 
BRANCH  11  12
ATOM     12  C   UNL     1      64.178  26.056  24.596  1.00  0.00     0.041 C 
ATOM     13  O   UNL     1      65.396  26.333  24.446  1.00  0.00    -0.550 OA
ATOM     14  O   UNL     1      63.524  25.284  23.644  1.00  0.00    -0.550 OA
ENDBRANCH  11  12
ENDBRANCH  10  11
ENDBRANCH   9  10
ENDBRANCH   8   9
ENDBRANCH   1   8
TORSDOF 9
ENDMDL
MODEL 9
REMARK VINA RESULT:    -4.295      2.314      6.670
REMARK INTER + INTRA:          -7.566
REMARK INTER:                  -7.175
REMARK INTRA:                  -0.391
REMARK UNBOUND:                -1.011
REMARK SMILES O=C([O-])CCCCCCCCC(=O)[O-]
REMARK SMILES IDX 7 1 6 2 5 3 4 4 2 5 1 6 3 7 8 8 9 9 10 10 11 11 12 12 13 13
REMARK SMILES IDX 14 14
REMARK H PARENT
REMARK Flexibility Score: inf
ROOT
ATOM      1  C   UNL     1      60.896  32.647  13.462  1.00  0.00     0.000 C 
ENDROOT
BRANCH   1   2
ATOM      2  C   UNL     1      60.175  32.801  14.810  1.00  0.00     0.000 C 
BRANCH   2   3
ATOM      3  C   UNL     1      60.870  33.853  15.688  1.00  0.00     0.006 C 
BRANCH   3   4
ATOM      4  C   UNL     1      61.707  33.218  16.805  1.00  0.00     0.053 C 
BRANCH   4   5
ATOM      5  C   UNL     1      61.841  34.130  17.985  1.00  0.00     0.041 C 
ATOM      6  O   UNL     1      62.717  35.034  17.994  1.00  0.00    -0.550 OA
ATOM      7  O   UNL     1      61.018  33.959  19.092  1.00  0.00    -0.550 OA
ENDBRANCH   4   5
ENDBRANCH   3   4
ENDBRANCH   2   3
ENDBRANCH   1   2
BRANCH   1   8
ATOM      8  C   UNL     1      60.381  31.450  12.646  1.00  0.00     0.000 C 
BRANCH   8   9
ATOM      9  C   UNL     1      60.466  30.125  13.424  1.00  0.00     0.000 C 
BRANCH   9  10
ATOM     10  C   UNL     1      60.052  28.914  12.571  1.00  0.00     0.006 C 
BRANCH  10  11
ATOM     11  C   UNL     1      60.032  29.227  11.069  1.00  0.00     0.053 C 
BRANCH  11  12
ATOM     12  C   UNL     1      61.156  28.524  10.375  1.00  0.00     0.041 C 
ATOM     13  O   UNL     1      62.326  28.595  10.833  1.00  0.00    -0.550 OA
ATOM     14  O   UNL     1      60.919  27.832   9.194  1.00  0.00    -0.550 OA
ENDBRANCH  11  12
ENDBRANCH  10  11
ENDBRANCH   9  10
ENDBRANCH   8   9
ENDBRANCH   1   8
TORSDOF 9
ENDMDL
