MODEL 1
REMARK VINA RESULT:    -1.066      0.000      0.000
REMARK INTER + INTRA:          -4.348
REMARK INTER:                  -2.001
REMARK INTRA:                  -2.347
REMARK UNBOUND:                -2.347
REMARK SMILES O=C([O-])CCCCCCCCCCCCCCC(=O)[O-]
REMARK SMILES IDX 10 1 9 2 8 3 7 4 6 5 5 6 4 7 2 8 1 9 3 10 11 11 12 12 13 13
REMARK SMILES IDX 14 14 15 15 16 16 17 17 18 18 19 19 20 20
REMARK H PARENT
REMARK Flexibility Score: inf
ROOT
ATOM      1  C   UNL     1     -12.875 -21.335  84.211  1.00  0.00     0.000 C 
ENDROOT
BRANCH   1   2
ATOM      2  C   UNL     1     -13.410 -22.570  84.952  1.00  0.00     0.000 C 
BRANCH   2   3
ATOM      3  C   UNL     1     -14.825 -22.357  85.518  1.00  0.00     0.000 C 
BRANCH   3   4
ATOM      4  C   UNL     1     -15.754 -23.558  85.261  1.00  0.00     0.000 C 
BRANCH   4   5
ATOM      5  C   UNL     1     -16.971 -23.259  84.363  1.00  0.00     0.000 C 
BRANCH   5   6
ATOM      6  C   UNL     1     -16.631 -22.736  82.952  1.00  0.00     0.006 C 
BRANCH   6   7
ATOM      7  C   UNL     1     -17.118 -23.638  81.808  1.00  0.00     0.053 C 
BRANCH   7   8
ATOM      8  C   UNL     1     -16.719 -25.067  82.015  1.00  0.00     0.041 C 
ATOM      9  O   UNL     1     -15.511 -25.408  81.922  1.00  0.00    -0.550 OA
ATOM     10  O   UNL     1     -17.687 -26.028  82.278  1.00  0.00    -0.550 OA
ENDBRANCH   7   8
ENDBRANCH   6   7
ENDBRANCH   5   6
ENDBRANCH   4   5
ENDBRANCH   3   4
ENDBRANCH   2   3
ENDBRANCH   1   2
BRANCH   1  11
ATOM     11  C   UNL     1     -13.229 -21.346  82.714  1.00  0.00     0.000 C 
BRANCH  11  12
ATOM     12  C   UNL     1     -13.108 -22.746  82.089  1.00  0.00     0.000 C 
BRANCH  12  13
ATOM     13  C   UNL     1     -13.543 -22.776  80.615  1.00  0.00     0.000 C 
BRANCH  13  14
ATOM     14  C   UNL     1     -13.373 -21.394  79.964  1.00  0.00     0.000 C 
BRANCH  14  15
ATOM     15  C   UNL     1     -14.469 -21.078  78.930  1.00  0.00     0.000 C 
BRANCH  15  16
ATOM     16  C   UNL     1     -15.899 -21.014  79.496  1.00  0.00     0.006 C 
BRANCH  16  17
ATOM     17  C   UNL     1     -16.068 -19.937  80.576  1.00  0.00     0.053 C 
BRANCH  17  18
ATOM     18  C   UNL     1     -17.518 -19.666  80.822  1.00  0.00     0.041 C 
ATOM     19  O   UNL     1     -17.876 -18.605  81.397  1.00  0.00    -0.550 OA
ATOM     20  O   UNL     1     -18.473 -20.609  80.461  1.00  0.00    -0.550 OA
ENDBRANCH  17  18
ENDBRANCH  16  17
ENDBRANCH  15  16
ENDBRANCH  14  15
ENDBRANCH  13  14
ENDBRANCH  12  13
ENDBRANCH  11  12
ENDBRANCH   1  11
TORSDOF 15
ENDMDL
MODEL 2
REMARK VINA RESULT:    -0.980      2.383      5.273
REMARK INTER + INTRA:          -4.187
REMARK INTER:                  -1.598
REMARK INTRA:                  -2.589
REMARK UNBOUND:                -2.347
REMARK SMILES O=C([O-])CCCCCCCCCCCCCCC(=O)[O-]
REMARK SMILES IDX 10 1 9 2 8 3 7 4 6 5 5 6 4 7 2 8 1 9 3 10 11 11 12 12 13 13
REMARK SMILES IDX 14 14 15 15 16 16 17 17 18 18 19 19 20 20
REMARK H PARENT
REMARK Flexibility Score: inf
ROOT
ATOM      1  C   UNL     1     -12.981 -22.899  83.406  1.00  0.00     0.000 C 
ENDROOT
BRANCH   1   2
ATOM      2  C   UNL     1     -12.890 -22.171  82.056  1.00  0.00     0.000 C 
BRANCH   2   3
ATOM      3  C   UNL     1     -13.802 -20.934  81.984  1.00  0.00     0.000 C 
BRANCH   3   4
ATOM      4  C   UNL     1     -15.146 -21.226  81.293  1.00  0.00     0.000 C 
BRANCH   4   5
ATOM      5  C   UNL     1     -15.132 -22.423  80.321  1.00  0.00     0.000 C 
BRANCH   5   6
ATOM      6  C   UNL     1     -15.829 -23.697  80.840  1.00  0.00     0.006 C 
BRANCH   6   7
ATOM      7  C   UNL     1     -17.284 -23.486  81.286  1.00  0.00     0.053 C 
BRANCH   7   8
ATOM      8  C   UNL     1     -18.038 -24.778  81.364  1.00  0.00     0.041 C 
ATOM      9  O   UNL     1     -18.198 -25.482  80.332  1.00  0.00    -0.550 OA
ATOM     10  O   UNL     1     -18.590 -25.188  82.570  1.00  0.00    -0.550 OA
ENDBRANCH   7   8
ENDBRANCH   6   7
ENDBRANCH   5   6
ENDBRANCH   4   5
ENDBRANCH   3   4
ENDBRANCH   2   3
ENDBRANCH   1   2
BRANCH   1  11
ATOM     11  C   UNL     1     -13.329 -21.948  84.565  1.00  0.00     0.000 C 
BRANCH  11  12
ATOM     12  C   UNL     1     -14.486 -22.470  85.432  1.00  0.00     0.000 C 
BRANCH  12  13
ATOM     13  C   UNL     1     -15.718 -22.862  84.602  1.00  0.00     0.000 C 
BRANCH  13  14
ATOM     14  C   UNL     1     -16.135 -24.313  84.889  1.00  0.00     0.000 C 
BRANCH  14  15
ATOM     15  C   UNL     1     -15.022 -25.135  85.565  1.00  0.00     0.000 C 
BRANCH  15  16
ATOM     16  C   UNL     1     -14.400 -26.235  84.685  1.00  0.00     0.006 C 
BRANCH  16  17
ATOM     17  C   UNL     1     -14.876 -26.177  83.228  1.00  0.00     0.053 C 
BRANCH  17  18
ATOM     18  C   UNL     1     -15.761 -27.343  82.921  1.00  0.00     0.041 C 
ATOM     19  O   UNL     1     -15.916 -27.724  81.730  1.00  0.00    -0.550 OA
ATOM     20  O   UNL     1     -16.455 -27.978  83.943  1.00  0.00    -0.550 OA
ENDBRANCH  17  18
ENDBRANCH  16  17
ENDBRANCH  15  16
ENDBRANCH  14  15
ENDBRANCH  13  14
ENDBRANCH  12  13
ENDBRANCH  11  12
ENDBRANCH   1  11
TORSDOF 15
ENDMDL
MODEL 3
REMARK VINA RESULT:    -0.978      1.662      3.380
REMARK INTER + INTRA:          -4.183
REMARK INTER:                  -2.013
REMARK INTRA:                  -2.170
REMARK UNBOUND:                -2.347
REMARK SMILES O=C([O-])CCCCCCCCCCCCCCC(=O)[O-]
REMARK SMILES IDX 10 1 9 2 8 3 7 4 6 5 5 6 4 7 2 8 1 9 3 10 11 11 12 12 13 13
REMARK SMILES IDX 14 14 15 15 16 16 17 17 18 18 19 19 20 20
REMARK H PARENT
REMARK Flexibility Score: inf
ROOT
ATOM      1  C   UNL     1     -16.570 -23.290  85.362  1.00  0.00     0.000 C 
ENDROOT
BRANCH   1   2
ATOM      2  C   UNL     1     -16.206 -24.648  84.740  1.00  0.00     0.000 C 
BRANCH   2   3
ATOM      3  C   UNL     1     -16.341 -24.655  83.207  1.00  0.00     0.000 C 
BRANCH   3   4
ATOM      4  C   UNL     1     -17.523 -23.803  82.712  1.00  0.00     0.000 C 
BRANCH   4   5
ATOM      5  C   UNL     1     -17.581 -23.595  81.186  1.00  0.00     0.000 C 
BRANCH   5   6
ATOM      6  C   UNL     1     -16.506 -24.353  80.380  1.00  0.00     0.006 C 
BRANCH   6   7
ATOM      7  C   UNL     1     -17.068 -25.351  79.356  1.00  0.00     0.053 C 
BRANCH   7   8
ATOM      8  C   UNL     1     -18.033 -26.310  79.982  1.00  0.00     0.041 C 
ATOM      9  O   UNL     1     -19.242 -26.315  79.630  1.00  0.00    -0.550 OA
ATOM     10  O   UNL     1     -17.603 -27.177  80.978  1.00  0.00    -0.550 OA
ENDBRANCH   7   8
ENDBRANCH   6   7
ENDBRANCH   5   6
ENDBRANCH   4   5
ENDBRANCH   3   4
ENDBRANCH   2   3
ENDBRANCH   1   2
BRANCH   1  11
ATOM     11  C   UNL     1     -15.331 -22.502  85.822  1.00  0.00     0.000 C 
BRANCH  11  12
ATOM     12  C   UNL     1     -14.100 -23.401  86.022  1.00  0.00     0.000 C 
BRANCH  12  13
ATOM     13  C   UNL     1     -12.943 -23.039  85.078  1.00  0.00     0.000 C 
BRANCH  13  14
ATOM     14  C   UNL     1     -13.228 -21.722  84.340  1.00  0.00     0.000 C 
BRANCH  14  15
ATOM     15  C   UNL     1     -13.144 -21.861  82.809  1.00  0.00     0.000 C 
BRANCH  15  16
ATOM     16  C   UNL     1     -14.480 -21.684  82.064  1.00  0.00     0.006 C 
BRANCH  16  17
ATOM     17  C   UNL     1     -14.475 -20.491  81.100  1.00  0.00     0.053 C 
BRANCH  17  18
ATOM     18  C   UNL     1     -15.794 -20.376  80.405  1.00  0.00     0.041 C 
ATOM     19  O   UNL     1     -16.724 -19.700  80.920  1.00  0.00    -0.550 OA
ATOM     20  O   UNL     1     -16.015 -21.055  79.214  1.00  0.00    -0.550 OA
ENDBRANCH  17  18
ENDBRANCH  16  17
ENDBRANCH  15  16
ENDBRANCH  14  15
ENDBRANCH  13  14
ENDBRANCH  12  13
ENDBRANCH  11  12
ENDBRANCH   1  11
TORSDOF 15
ENDMDL
MODEL 4
REMARK VINA RESULT:    -0.973      7.775      9.249
REMARK INTER + INTRA:          -4.174
REMARK INTER:                  -1.553
REMARK INTRA:                  -2.620
REMARK UNBOUND:                -2.347
REMARK SMILES O=C([O-])CCCCCCCCCCCCCCC(=O)[O-]
REMARK SMILES IDX 10 1 9 2 8 3 7 4 6 5 5 6 4 7 2 8 1 9 3 10 11 11 12 12 13 13
REMARK SMILES IDX 14 14 15 15 16 16 17 17 18 18 19 19 20 20
REMARK H PARENT
REMARK Flexibility Score: inf
ROOT
ATOM      1  C   UNL     1     -13.599 -13.435  82.612  1.00  0.00     0.000 C 
ENDROOT
BRANCH   1   2
ATOM      2  C   UNL     1     -13.457 -14.587  83.619  1.00  0.00     0.000 C 
BRANCH   2   3
ATOM      3  C   UNL     1     -12.948 -14.116  84.992  1.00  0.00     0.000 C 
BRANCH   3   4
ATOM      4  C   UNL     1     -14.029 -14.191  86.085  1.00  0.00     0.000 C 
BRANCH   4   5
ATOM      5  C   UNL     1     -15.091 -13.075  86.027  1.00  0.00     0.000 C 
BRANCH   5   6
ATOM      6  C   UNL     1     -16.553 -13.562  85.969  1.00  0.00     0.006 C 
BRANCH   6   7
ATOM      7  C   UNL     1     -16.819 -14.643  84.910  1.00  0.00     0.053 C 
BRANCH   7   8
ATOM      8  C   UNL     1     -18.216 -15.177  84.996  1.00  0.00     0.041 C 
ATOM      9  O   UNL     1     -19.182 -14.396  85.203  1.00  0.00    -0.550 OA
ATOM     10  O   UNL     1     -18.447 -16.541  84.878  1.00  0.00    -0.550 OA
ENDBRANCH   7   8
ENDBRANCH   6   7
ENDBRANCH   5   6
ENDBRANCH   4   5
ENDBRANCH   3   4
ENDBRANCH   2   3
ENDBRANCH   1   2
BRANCH   1  11
ATOM     11  C   UNL     1     -12.923 -12.141  83.098  1.00  0.00     0.000 C 
BRANCH  11  12
ATOM     12  C   UNL     1     -13.912 -10.972  83.236  1.00  0.00     0.000 C 
BRANCH  12  13
ATOM     13  C   UNL     1     -15.117 -11.101  82.291  1.00  0.00     0.000 C 
BRANCH  13  14
ATOM     14  C   UNL     1     -16.435 -11.099  83.079  1.00  0.00     0.000 C 
BRANCH  14  15
ATOM     15  C   UNL     1     -17.492 -12.049  82.486  1.00  0.00     0.000 C 
BRANCH  15  16
ATOM     16  C   UNL     1     -17.074 -12.755  81.182  1.00  0.00     0.006 C 
BRANCH  16  17
ATOM     17  C   UNL     1     -17.082 -14.284  81.301  1.00  0.00     0.053 C 
BRANCH  17  18
ATOM     18  C   UNL     1     -18.430 -14.828  80.947  1.00  0.00     0.041 C 
ATOM     19  O   UNL     1     -19.145 -14.241  80.092  1.00  0.00    -0.550 OA
ATOM     20  O   UNL     1     -18.918 -15.954  81.597  1.00  0.00    -0.550 OA
ENDBRANCH  17  18
ENDBRANCH  16  17
ENDBRANCH  15  16
ENDBRANCH  14  15
ENDBRANCH  13  14
ENDBRANCH  12  13
ENDBRANCH  11  12
ENDBRANCH   1  11
TORSDOF 15
ENDMDL
MODEL 5
REMARK VINA RESULT:    -0.903      2.874      5.095
REMARK INTER + INTRA:          -4.042
REMARK INTER:                  -1.650
REMARK INTRA:                  -2.392
REMARK UNBOUND:                -2.347
REMARK SMILES O=C([O-])CCCCCCCCCCCCCCC(=O)[O-]
REMARK SMILES IDX 10 1 9 2 8 3 7 4 6 5 5 6 4 7 2 8 1 9 3 10 11 11 12 12 13 13
REMARK SMILES IDX 14 14 15 15 16 16 17 17 18 18 19 19 20 20
REMARK H PARENT
REMARK Flexibility Score: inf
ROOT
ATOM      1  C   UNL     1     -15.215 -22.429  81.847  1.00  0.00     0.000 C 
ENDROOT
BRANCH   1   2
ATOM      2  C   UNL     1     -13.954 -21.551  81.806  1.00  0.00     0.000 C 
BRANCH   2   3
ATOM      3  C   UNL     1     -12.878 -22.011  82.805  1.00  0.00     0.000 C 
BRANCH   3   4
ATOM      4  C   UNL     1     -13.256 -21.707  84.266  1.00  0.00     0.000 C 
BRANCH   4   5
ATOM      5  C   UNL     1     -13.090 -22.890  85.241  1.00  0.00     0.000 C 
BRANCH   5   6
ATOM      6  C   UNL     1     -14.397 -23.399  85.882  1.00  0.00     0.006 C 
BRANCH   6   7
ATOM      7  C   UNL     1     -15.589 -22.440  85.740  1.00  0.00     0.053 C 
BRANCH   7   8
ATOM      8  C   UNL     1     -16.847 -23.162  85.368  1.00  0.00     0.041 C 
ATOM      9  O   UNL     1     -17.534 -22.775  84.386  1.00  0.00    -0.550 OA
ATOM     10  O   UNL     1     -17.276 -24.244  86.125  1.00  0.00    -0.550 OA
ENDBRANCH   7   8
ENDBRANCH   6   7
ENDBRANCH   5   6
ENDBRANCH   4   5
ENDBRANCH   3   4
ENDBRANCH   2   3
ENDBRANCH   1   2
BRANCH   1  11
ATOM     11  C   UNL     1     -14.942 -23.873  81.393  1.00  0.00     0.000 C 
BRANCH  11  12
ATOM     12  C   UNL     1     -15.275 -24.908  82.480  1.00  0.00     0.000 C 
BRANCH  12  13
ATOM     13  C   UNL     1     -14.026 -25.620  83.022  1.00  0.00     0.000 C 
BRANCH  13  14
ATOM     14  C   UNL     1     -13.034 -25.925  81.890  1.00  0.00     0.000 C 
BRANCH  14  15
ATOM     15  C   UNL     1     -13.056 -27.401  81.452  1.00  0.00     0.000 C 
BRANCH  15  16
ATOM     16  C   UNL     1     -13.889 -27.694  80.191  1.00  0.00     0.006 C 
BRANCH  16  17
ATOM     17  C   UNL     1     -13.701 -26.641  79.091  1.00  0.00     0.053 C 
BRANCH  17  18
ATOM     18  C   UNL     1     -15.027 -26.121  78.633  1.00  0.00     0.041 C 
ATOM     19  O   UNL     1     -16.092 -26.624  79.079  1.00  0.00    -0.550 OA
ATOM     20  O   UNL     1     -15.088 -25.115  77.677  1.00  0.00    -0.550 OA
ENDBRANCH  17  18
ENDBRANCH  16  17
ENDBRANCH  15  16
ENDBRANCH  14  15
ENDBRANCH  13  14
ENDBRANCH  12  13
ENDBRANCH  11  12
ENDBRANCH   1  11
TORSDOF 15
ENDMDL
MODEL 6
REMARK VINA RESULT:    -0.897      2.183      4.299
REMARK INTER + INTRA:          -4.031
REMARK INTER:                  -1.584
REMARK INTRA:                  -2.447
REMARK UNBOUND:                -2.347
REMARK SMILES O=C([O-])CCCCCCCCCCCCCCC(=O)[O-]
REMARK SMILES IDX 10 1 9 2 8 3 7 4 6 5 5 6 4 7 2 8 1 9 3 10 11 11 12 12 13 13
REMARK SMILES IDX 14 14 15 15 16 16 17 17 18 18 19 19 20 20
REMARK H PARENT
REMARK Flexibility Score: inf
ROOT
ATOM      1  C   UNL     1     -16.886 -23.411  84.769  1.00  0.00     0.000 C 
ENDROOT
BRANCH   1   2
ATOM      2  C   UNL     1     -16.318 -24.825  84.573  1.00  0.00     0.000 C 
BRANCH   2   3
ATOM      3  C   UNL     1     -16.664 -25.421  83.197  1.00  0.00     0.000 C 
BRANCH   3   4
ATOM      4  C   UNL     1     -17.931 -24.799  82.584  1.00  0.00     0.000 C 
BRANCH   4   5
ATOM      5  C   UNL     1     -17.739 -24.172  81.189  1.00  0.00     0.000 C 
BRANCH   5   6
ATOM      6  C   UNL     1     -18.664 -22.979  80.872  1.00  0.00     0.006 C 
BRANCH   6   7
ATOM      7  C   UNL     1     -18.560 -21.814  81.868  1.00  0.00     0.053 C 
BRANCH   7   8
ATOM      8  C   UNL     1     -18.709 -20.486  81.192  1.00  0.00     0.041 C 
ATOM      9  O   UNL     1     -19.475 -19.611  81.674  1.00  0.00    -0.550 OA
ATOM     10  O   UNL     1     -18.024 -20.227  80.012  1.00  0.00    -0.550 OA
ENDBRANCH   7   8
ENDBRANCH   6   7
ENDBRANCH   5   6
ENDBRANCH   4   5
ENDBRANCH   3   4
ENDBRANCH   2   3
ENDBRANCH   1   2
BRANCH   1  11
ATOM     11  C   UNL     1     -15.974 -22.524  85.633  1.00  0.00     0.000 C 
BRANCH  11  12
ATOM     12  C   UNL     1     -14.598 -23.161  85.888  1.00  0.00     0.000 C 
BRANCH  12  13
ATOM     13  C   UNL     1     -13.483 -22.519  85.048  1.00  0.00     0.000 C 
BRANCH  13  14
ATOM     14  C   UNL     1     -12.927 -23.517  84.021  1.00  0.00     0.000 C 
BRANCH  14  15
ATOM     15  C   UNL     1     -12.875 -22.944  82.593  1.00  0.00     0.000 C 
BRANCH  15  16
ATOM     16  C   UNL     1     -14.208 -22.993  81.823  1.00  0.00     0.006 C 
BRANCH  16  17
ATOM     17  C   UNL     1     -14.925 -21.637  81.781  1.00  0.00     0.053 C 
BRANCH  17  18
ATOM     18  C   UNL     1     -14.552 -20.887  80.542  1.00  0.00     0.041 C 
ATOM     19  O   UNL     1     -14.006 -21.487  79.579  1.00  0.00    -0.550 OA
ATOM     20  O   UNL     1     -14.762 -19.516  80.469  1.00  0.00    -0.550 OA
ENDBRANCH  17  18
ENDBRANCH  16  17
ENDBRANCH  15  16
ENDBRANCH  14  15
ENDBRANCH  13  14
ENDBRANCH  12  13
ENDBRANCH  11  12
ENDBRANCH   1  11
TORSDOF 15
ENDMDL
MODEL 7
REMARK VINA RESULT:    -0.885      6.297      8.770
REMARK INTER + INTRA:          -4.007
REMARK INTER:                  -1.758
REMARK INTRA:                  -2.250
REMARK UNBOUND:                -2.347
REMARK SMILES O=C([O-])CCCCCCCCCCCCCCC(=O)[O-]
REMARK SMILES IDX 10 1 9 2 8 3 7 4 6 5 5 6 4 7 2 8 1 9 3 10 11 11 12 12 13 13
REMARK SMILES IDX 14 14 15 15 16 16 17 17 18 18 19 19 20 20
REMARK H PARENT
REMARK Flexibility Score: inf
ROOT
ATOM      1  C   UNL     1     -18.303 -15.560  84.953  1.00  0.00     0.000 C 
ENDROOT
BRANCH   1   2
ATOM      2  C   UNL     1     -19.564 -14.685  85.025  1.00  0.00     0.000 C 
BRANCH   2   3
ATOM      3  C   UNL     1     -20.653 -15.129  84.033  1.00  0.00     0.000 C 
BRANCH   3   4
ATOM      4  C   UNL     1     -20.327 -14.741  82.580  1.00  0.00     0.000 C 
BRANCH   4   5
ATOM      5  C   UNL     1     -20.349 -15.909  81.574  1.00  0.00     0.000 C 
BRANCH   5   6
ATOM      6  C   UNL     1     -18.963 -16.408  81.117  1.00  0.00     0.006 C 
BRANCH   6   7
ATOM      7  C   UNL     1     -18.439 -17.624  81.896  1.00  0.00     0.053 C 
BRANCH   7   8
ATOM      8  C   UNL     1     -18.225 -18.809  81.005  1.00  0.00     0.041 C 
ATOM      9  O   UNL     1     -19.197 -19.329  80.397  1.00  0.00    -0.550 OA
ATOM     10  O   UNL     1     -16.956 -19.356  80.871  1.00  0.00    -0.550 OA
ENDBRANCH   7   8
ENDBRANCH   6   7
ENDBRANCH   5   6
ENDBRANCH   4   5
ENDBRANCH   3   4
ENDBRANCH   2   3
ENDBRANCH   1   2
BRANCH   1  11
ATOM     11  C   UNL     1     -17.023 -14.732  84.745  1.00  0.00     0.000 C 
BRANCH  11  12
ATOM     12  C   UNL     1     -16.704 -14.499  83.259  1.00  0.00     0.000 C 
BRANCH  12  13
ATOM     13  C   UNL     1     -16.885 -13.033  82.837  1.00  0.00     0.000 C 
BRANCH  13  14
ATOM     14  C   UNL     1     -16.854 -12.102  84.058  1.00  0.00     0.000 C 
BRANCH  14  15
ATOM     15  C   UNL     1     -15.567 -11.262  84.142  1.00  0.00     0.000 C 
BRANCH  15  16
ATOM     16  C   UNL     1     -14.469 -11.841  85.053  1.00  0.00     0.006 C 
BRANCH  16  17
ATOM     17  C   UNL     1     -13.412 -12.642  84.283  1.00  0.00     0.053 C 
BRANCH  17  18
ATOM     18  C   UNL     1     -13.400 -14.066  84.741  1.00  0.00     0.041 C 
ATOM     19  O   UNL     1     -13.629 -14.345  85.947  1.00  0.00    -0.550 OA
ATOM     20  O   UNL     1     -13.087 -15.082  83.846  1.00  0.00    -0.550 OA
ENDBRANCH  17  18
ENDBRANCH  16  17
ENDBRANCH  15  16
ENDBRANCH  14  15
ENDBRANCH  13  14
ENDBRANCH  12  13
ENDBRANCH  11  12
ENDBRANCH   1  11
TORSDOF 15
ENDMDL
MODEL 8
REMARK VINA RESULT:    -0.826      5.079      8.232
REMARK INTER + INTRA:          -3.897
REMARK INTER:                  -1.134
REMARK INTRA:                  -2.763
REMARK UNBOUND:                -2.347
REMARK SMILES O=C([O-])CCCCCCCCCCCCCCC(=O)[O-]
REMARK SMILES IDX 10 1 9 2 8 3 7 4 6 5 5 6 4 7 2 8 1 9 3 10 11 11 12 12 13 13
REMARK SMILES IDX 14 14 15 15 16 16 17 17 18 18 19 19 20 20
REMARK H PARENT
REMARK Flexibility Score: inf
ROOT
ATOM      1  C   UNL     1     -22.578 -18.007  84.129  1.00  0.00     0.000 C 
ENDROOT
BRANCH   1   2
ATOM      2  C   UNL     1     -21.878 -19.374  84.195  1.00  0.00     0.000 C 
BRANCH   2   3
ATOM      3  C   UNL     1     -21.020 -19.542  85.461  1.00  0.00     0.000 C 
BRANCH   3   4
ATOM      4  C   UNL     1     -19.516 -19.358  85.188  1.00  0.00     0.000 C 
BRANCH   4   5
ATOM      5  C   UNL     1     -18.804 -18.355  86.116  1.00  0.00     0.000 C 
BRANCH   5   6
ATOM      6  C   UNL     1     -18.738 -16.907  85.589  1.00  0.00     0.006 C 
BRANCH   6   7
ATOM      7  C   UNL     1     -19.846 -15.987  86.125  1.00  0.00     0.053 C 
BRANCH   7   8
ATOM      8  C   UNL     1     -19.574 -14.546  85.817  1.00  0.00     0.041 C 
ATOM      9  O   UNL     1     -18.396 -14.102  85.850  1.00  0.00    -0.550 OA
ATOM     10  O   UNL     1     -20.626 -13.688  85.524  1.00  0.00    -0.550 OA
ENDBRANCH   7   8
ENDBRANCH   6   7
ENDBRANCH   5   6
ENDBRANCH   4   5
ENDBRANCH   3   4
ENDBRANCH   2   3
ENDBRANCH   1   2
BRANCH   1  11
ATOM     11  C   UNL     1     -22.355 -17.296  82.783  1.00  0.00     0.000 C 
BRANCH  11  12
ATOM     12  C   UNL     1     -21.683 -15.923  82.945  1.00  0.00     0.000 C 
BRANCH  12  13
ATOM     13  C   UNL     1     -20.270 -15.880  82.343  1.00  0.00     0.000 C 
BRANCH  13  14
ATOM     14  C   UNL     1     -19.957 -17.180  81.586  1.00  0.00     0.000 C 
BRANCH  14  15
ATOM     15  C   UNL     1     -18.601 -17.794  81.982  1.00  0.00     0.000 C 
BRANCH  15  16
ATOM     16  C   UNL     1     -18.398 -19.257  81.546  1.00  0.00     0.006 C 
BRANCH  16  17
ATOM     17  C   UNL     1     -19.719 -20.003  81.319  1.00  0.00     0.053 C 
BRANCH  17  18
ATOM     18  C   UNL     1     -19.556 -21.458  81.624  1.00  0.00     0.041 C 
ATOM     19  O   UNL     1     -19.923 -21.916  82.738  1.00  0.00    -0.550 OA
ATOM     20  O   UNL     1     -18.954 -22.300  80.698  1.00  0.00    -0.550 OA
ENDBRANCH  17  18
ENDBRANCH  16  17
ENDBRANCH  15  16
ENDBRANCH  14  15
ENDBRANCH  13  14
ENDBRANCH  12  13
ENDBRANCH  11  12
ENDBRANCH   1  11
TORSDOF 15
ENDMDL
MODEL 9
REMARK VINA RESULT:    -0.807      3.283      5.900
REMARK INTER + INTRA:          -3.862
REMARK INTER:                  -1.421
REMARK INTRA:                  -2.440
REMARK UNBOUND:                -2.347
REMARK SMILES O=C([O-])CCCCCCCCCCCCCCC(=O)[O-]
REMARK SMILES IDX 10 1 9 2 8 3 7 4 6 5 5 6 4 7 2 8 1 9 3 10 11 11 12 12 13 13
REMARK SMILES IDX 14 14 15 15 16 16 17 17 18 18 19 19 20 20
REMARK H PARENT
REMARK Flexibility Score: inf
ROOT
ATOM      1  C   UNL     1     -16.770 -23.742  81.694  1.00  0.00     0.000 C 
ENDROOT
BRANCH   1   2
ATOM      2  C   UNL     1     -17.830 -24.700  81.128  1.00  0.00     0.000 C 
BRANCH   2   3
ATOM      3  C   UNL     1     -17.687 -26.133  81.672  1.00  0.00     0.000 C 
BRANCH   3   4
ATOM      4  C   UNL     1     -17.062 -26.174  83.077  1.00  0.00     0.000 C 
BRANCH   4   5
ATOM      5  C   UNL     1     -17.777 -27.100  84.081  1.00  0.00     0.000 C 
BRANCH   5   6
ATOM      6  C   UNL     1     -19.156 -26.605  84.563  1.00  0.00     0.006 C 
BRANCH   6   7
ATOM      7  C   UNL     1     -20.332 -27.503  84.149  1.00  0.00     0.053 C 
BRANCH   7   8
ATOM      8  C   UNL     1     -21.282 -26.793  83.234  1.00  0.00     0.041 C 
ATOM      9  O   UNL     1     -20.986 -25.663  82.764  1.00  0.00    -0.550 OA
ATOM     10  O   UNL     1     -22.508 -27.367  82.926  1.00  0.00    -0.550 OA
ENDBRANCH   7   8
ENDBRANCH   6   7
ENDBRANCH   5   6
ENDBRANCH   4   5
ENDBRANCH   3   4
ENDBRANCH   2   3
ENDBRANCH   1   2
BRANCH   1  11
ATOM     11  C   UNL     1     -17.393 -22.496  82.349  1.00  0.00     0.000 C 
BRANCH  11  12
ATOM     12  C   UNL     1     -18.868 -22.703  82.729  1.00  0.00     0.000 C 
BRANCH  12  13
ATOM     13  C   UNL     1     -19.056 -23.024  84.220  1.00  0.00     0.000 C 
BRANCH  13  14
ATOM     14  C   UNL     1     -17.860 -22.523  85.044  1.00  0.00     0.000 C 
BRANCH  14  15
ATOM     15  C   UNL     1     -17.170 -23.643  85.843  1.00  0.00     0.000 C 
BRANCH  15  16
ATOM     16  C   UNL     1     -15.652 -23.765  85.616  1.00  0.00     0.006 C 
BRANCH  16  17
ATOM     17  C   UNL     1     -14.915 -22.427  85.762  1.00  0.00     0.053 C 
BRANCH  17  18
ATOM     18  C   UNL     1     -13.637 -22.447  84.985  1.00  0.00     0.041 C 
ATOM     19  O   UNL     1     -12.875 -23.448  85.045  1.00  0.00    -0.550 OA
ATOM     20  O   UNL     1     -13.263 -21.340  84.234  1.00  0.00    -0.550 OA
ENDBRANCH  17  18
ENDBRANCH  16  17
ENDBRANCH  15  16
ENDBRANCH  14  15
ENDBRANCH  13  14
ENDBRANCH  12  13
ENDBRANCH  11  12
ENDBRANCH   1  11
TORSDOF 15
ENDMDL
