MODEL 1
REMARK VINA RESULT:    -4.219      0.000      0.000
REMARK INTER + INTRA:          -4.219
REMARK INTER:                  -4.219
REMARK INTRA:                   0.000
REMARK UNBOUND:                 0.000
REMARK SMILES CC1=CC(=O)[C@@H]2C[C@H]1C2(C)C
REMARK SMILES IDX 1 1 2 2 3 3 4 4 5 5 6 6 7 7 8 8 9 9 10 10 11 11
REMARK H PARENT
REMARK Flexibility Score: inf
ROOT
ATOM      1  C   UNL     1      17.297  10.952  14.187  1.00  0.00     0.040 C 
ATOM      2  C   UNL     1      16.605  12.164  14.724  1.00  0.00    -0.066 C 
ATOM      3  C   UNL     1      17.235  13.370  14.785  1.00  0.00     0.047 C 
ATOM      4  C   UNL     1      16.425  14.516  15.313  1.00  0.00     0.159 C 
ATOM      5  O   UNL     1      16.881  15.687  15.383  1.00  0.00    -0.295 OA
ATOM      6  C   UNL     1      15.007  14.162  15.762  1.00  0.00     0.067 C 
ATOM      7  C   UNL     1      15.182  12.873  16.592  1.00  0.00     0.021 C 
ATOM      8  C   UNL     1      15.155  12.107  15.249  1.00  0.00     0.022 C 
ATOM      9  C   UNL     1      14.342  13.293  14.656  1.00  0.00    -0.019 C 
ATOM     10  C   UNL     1      12.815  13.129  14.874  1.00  0.00     0.012 C 
ATOM     11  C   UNL     1      14.583  13.678  13.169  1.00  0.00     0.012 C 
ENDROOT
TORSDOF 0
ENDMDL
MODEL 2
REMARK VINA RESULT:    -4.122      1.875      3.351
REMARK INTER + INTRA:          -4.122
REMARK INTER:                  -4.122
REMARK INTRA:                   0.000
REMARK UNBOUND:                 0.000
REMARK SMILES CC1=CC(=O)[C@@H]2C[C@H]1C2(C)C
REMARK SMILES IDX 1 1 2 2 3 3 4 4 5 5 6 6 7 7 8 8 9 9 10 10 11 11
REMARK H PARENT
REMARK Flexibility Score: inf
ROOT
ATOM      1  C   UNL     1      15.951  16.413  15.480  1.00  0.00     0.040 C 
ATOM      2  C   UNL     1      15.336  15.052  15.403  1.00  0.00    -0.066 C 
ATOM      3  C   UNL     1      14.000  14.890  15.194  1.00  0.00     0.047 C 
ATOM      4  C   UNL     1      13.510  13.476  15.105  1.00  0.00     0.159 C 
ATOM      5  O   UNL     1      12.305  13.195  14.876  1.00  0.00    -0.295 OA
ATOM      6  C   UNL     1      14.576  12.400  15.312  1.00  0.00     0.067 C 
ATOM      7  C   UNL     1      15.367  12.882  16.546  1.00  0.00     0.021 C 
ATOM      8  C   UNL     1      16.177  13.769  15.573  1.00  0.00     0.022 C 
ATOM      9  C   UNL     1      15.817  12.760  14.445  1.00  0.00    -0.019 C 
ATOM     10  C   UNL     1      16.831  11.591  14.353  1.00  0.00     0.012 C 
ATOM     11  C   UNL     1      15.580  13.314  13.011  1.00  0.00     0.012 C 
ENDROOT
TORSDOF 0
ENDMDL
MODEL 3
REMARK VINA RESULT:    -3.969     12.342     13.243
REMARK INTER + INTRA:          -3.969
REMARK INTER:                  -3.969
REMARK INTRA:                   0.000
REMARK UNBOUND:                 0.000
REMARK SMILES CC1=CC(=O)[C@@H]2C[C@H]1C2(C)C
REMARK SMILES IDX 1 1 2 2 3 3 4 4 5 5 6 6 7 7 8 8 9 9 10 10 11 11
REMARK H PARENT
REMARK Flexibility Score: inf
ROOT
ATOM      1  C   UNL     1      17.101  25.151  16.171  1.00  0.00     0.040 C 
ATOM      2  C   UNL     1      15.944  25.962  15.679  1.00  0.00    -0.066 C 
ATOM      3  C   UNL     1      16.119  27.221  15.190  1.00  0.00     0.047 C 
ATOM      4  C   UNL     1      14.887  27.919  14.699  1.00  0.00     0.159 C 
ATOM      5  O   UNL     1      14.923  29.069  14.190  1.00  0.00    -0.295 OA
ATOM      6  C   UNL     1      13.584  27.136  14.861  1.00  0.00     0.067 C 
ATOM      7  C   UNL     1      13.652  26.578  16.298  1.00  0.00     0.021 C 
ATOM      8  C   UNL     1      14.499  25.423  15.717  1.00  0.00     0.022 C 
ATOM      9  C   UNL     1      13.812  25.686  14.346  1.00  0.00    -0.019 C 
ATOM     10  C   UNL     1      12.484  24.900  14.191  1.00  0.00     0.012 C 
ATOM     11  C   UNL     1      14.651  25.484  13.053  1.00  0.00     0.012 C 
ENDROOT
TORSDOF 0
ENDMDL
MODEL 4
REMARK VINA RESULT:    -3.943     16.958     18.275
REMARK INTER + INTRA:          -3.943
REMARK INTER:                  -3.943
REMARK INTRA:                   0.000
REMARK UNBOUND:                 0.000
REMARK SMILES CC1=CC(=O)[C@@H]2C[C@H]1C2(C)C
REMARK SMILES IDX 1 1 2 2 3 3 4 4 5 5 6 6 7 7 8 8 9 9 10 10 11 11
REMARK H PARENT
REMARK Flexibility Score: inf
ROOT
ATOM      1  C   UNL     1       7.569  30.626  17.346  1.00  0.00     0.040 C 
ATOM      2  C   UNL     1       6.662  29.509  16.938  1.00  0.00    -0.066 C 
ATOM      3  C   UNL     1       5.322  29.559  17.181  1.00  0.00     0.047 C 
ATOM      4  C   UNL     1       4.517  28.392  16.696  1.00  0.00     0.159 C 
ATOM      5  O   UNL     1       3.266  28.338  16.825  1.00  0.00    -0.295 OA
ATOM      6  C   UNL     1       5.320  27.272  16.034  1.00  0.00     0.067 C 
ATOM      7  C   UNL     1       6.523  27.060  16.977  1.00  0.00     0.021 C 
ATOM      8  C   UNL     1       7.198  28.241  16.241  1.00  0.00     0.022 C 
ATOM      9  C   UNL     1       6.304  27.909  15.011  1.00  0.00    -0.019 C 
ATOM     10  C   UNL     1       6.951  26.852  14.080  1.00  0.00     0.012 C 
ATOM     11  C   UNL     1       5.797  29.087  14.132  1.00  0.00     0.012 C 
ENDROOT
TORSDOF 0
ENDMDL
MODEL 5
REMARK VINA RESULT:    -3.781      1.551      2.318
REMARK INTER + INTRA:          -3.781
REMARK INTER:                  -3.781
REMARK INTRA:                   0.000
REMARK UNBOUND:                 0.000
REMARK SMILES CC1=CC(=O)[C@@H]2C[C@H]1C2(C)C
REMARK SMILES IDX 1 1 2 2 3 3 4 4 5 5 6 6 7 7 8 8 9 9 10 10 11 11
REMARK H PARENT
REMARK Flexibility Score: inf
ROOT
ATOM      1  C   UNL     1      14.478  12.101  16.284  1.00  0.00     0.040 C 
ATOM      2  C   UNL     1      14.995  13.420  15.803  1.00  0.00    -0.066 C 
ATOM      3  C   UNL     1      16.332  13.662  15.702  1.00  0.00     0.047 C 
ATOM      4  C   UNL     1      16.724  15.010  15.177  1.00  0.00     0.159 C 
ATOM      5  O   UNL     1      17.926  15.340  15.002  1.00  0.00    -0.295 OA
ATOM      6  C   UNL     1      15.563  15.956  14.872  1.00  0.00     0.067 C 
ATOM      7  C   UNL     1      14.637  15.828  16.100  1.00  0.00     0.021 C 
ATOM      8  C   UNL     1      14.047  14.573  15.416  1.00  0.00     0.022 C 
ATOM      9  C   UNL     1      14.494  15.177  14.053  1.00  0.00    -0.019 C 
ATOM     10  C   UNL     1      13.421  16.115  13.443  1.00  0.00     0.012 C 
ATOM     11  C   UNL     1      14.979  14.204  12.942  1.00  0.00     0.012 C 
ENDROOT
TORSDOF 0
ENDMDL
MODEL 6
REMARK VINA RESULT:    -3.731     10.929     12.565
REMARK INTER + INTRA:          -3.731
REMARK INTER:                  -3.731
REMARK INTRA:                   0.000
REMARK UNBOUND:                 0.000
REMARK SMILES CC1=CC(=O)[C@@H]2C[C@H]1C2(C)C
REMARK SMILES IDX 1 1 2 2 3 3 4 4 5 5 6 6 7 7 8 8 9 9 10 10 11 11
REMARK H PARENT
REMARK Flexibility Score: inf
ROOT
ATOM      1  C   UNL     1      13.603  26.622  16.201  1.00  0.00     0.040 C 
ATOM      2  C   UNL     1      14.735  25.791  15.685  1.00  0.00    -0.066 C 
ATOM      3  C   UNL     1      14.537  24.514  15.254  1.00  0.00     0.047 C 
ATOM      4  C   UNL     1      15.745  23.796  14.731  1.00  0.00     0.159 C 
ATOM      5  O   UNL     1      15.684  22.627  14.268  1.00  0.00    -0.295 OA
ATOM      6  C   UNL     1      17.054  24.583  14.800  1.00  0.00     0.067 C 
ATOM      7  C   UNL     1      17.054  25.195  16.216  1.00  0.00     0.021 C 
ATOM      8  C   UNL     1      16.181  26.329  15.633  1.00  0.00     0.022 C 
ATOM      9  C   UNL     1      16.801  26.013  14.241  1.00  0.00    -0.019 C 
ATOM     10  C   UNL     1      18.119  26.790  13.993  1.00  0.00     0.012 C 
ATOM     11  C   UNL     1      15.900  26.166  12.983  1.00  0.00     0.012 C 
ENDROOT
TORSDOF 0
ENDMDL
MODEL 7
REMARK VINA RESULT:    -3.692     12.562     13.799
REMARK INTER + INTRA:          -3.692
REMARK INTER:                  -3.692
REMARK INTRA:                   0.000
REMARK UNBOUND:                 0.000
REMARK SMILES CC1=CC(=O)[C@@H]2C[C@H]1C2(C)C
REMARK SMILES IDX 1 1 2 2 3 3 4 4 5 5 6 6 7 7 8 8 9 9 10 10 11 11
REMARK H PARENT
REMARK Flexibility Score: inf
ROOT
ATOM      1  C   UNL     1      16.409  28.112  14.963  1.00  0.00     0.040 C 
ATOM      2  C   UNL     1      15.015  27.582  15.090  1.00  0.00    -0.066 C 
ATOM      3  C   UNL     1      13.934  28.366  14.824  1.00  0.00     0.047 C 
ATOM      4  C   UNL     1      12.592  27.711  14.957  1.00  0.00     0.159 C 
ATOM      5  O   UNL     1      11.519  28.317  14.701  1.00  0.00    -0.295 OA
ATOM      6  C   UNL     1      12.618  26.256  15.426  1.00  0.00     0.067 C 
ATOM      7  C   UNL     1      13.615  26.255  16.605  1.00  0.00     0.021 C 
ATOM      8  C   UNL     1      14.734  26.135  15.545  1.00  0.00     0.022 C 
ATOM      9  C   UNL     1      13.685  25.488  14.595  1.00  0.00    -0.019 C 
ATOM     10  C   UNL     1      13.586  23.953  14.783  1.00  0.00     0.012 C 
ATOM     11  C   UNL     1      13.791  25.786  13.072  1.00  0.00     0.012 C 
ENDROOT
TORSDOF 0
ENDMDL
MODEL 8
REMARK VINA RESULT:    -3.687     11.554     13.081
REMARK INTER + INTRA:          -3.687
REMARK INTER:                  -3.687
REMARK INTRA:                   0.000
REMARK UNBOUND:                 0.000
REMARK SMILES CC1=CC(=O)[C@@H]2C[C@H]1C2(C)C
REMARK SMILES IDX 1 1 2 2 3 3 4 4 5 5 6 6 7 7 8 8 9 9 10 10 11 11
REMARK H PARENT
REMARK Flexibility Score: inf
ROOT
ATOM      1  C   UNL     1      16.943  28.725  14.409  1.00  0.00     0.040 C 
ATOM      2  C   UNL     1      16.381  27.415  14.864  1.00  0.00    -0.066 C 
ATOM      3  C   UNL     1      15.130  27.329  15.395  1.00  0.00     0.047 C 
ATOM      4  C   UNL     1      14.668  25.957  15.785  1.00  0.00     0.159 C 
ATOM      5  O   UNL     1      13.519  25.740  16.250  1.00  0.00    -0.295 OA
ATOM      6  C   UNL     1      15.692  24.840  15.578  1.00  0.00     0.067 C 
ATOM      7  C   UNL     1      17.005  25.419  16.146  1.00  0.00     0.021 C 
ATOM      8  C   UNL     1      17.193  26.106  14.773  1.00  0.00     0.022 C 
ATOM      9  C   UNL     1      16.305  24.988  14.157  1.00  0.00    -0.019 C 
ATOM     10  C   UNL     1      17.129  23.743  13.738  1.00  0.00     0.012 C 
ATOM     11  C   UNL     1      15.360  25.364  12.980  1.00  0.00     0.012 C 
ENDROOT
TORSDOF 0
ENDMDL
MODEL 9
REMARK VINA RESULT:    -3.665     11.724     13.141
REMARK INTER + INTRA:          -3.665
REMARK INTER:                  -3.665
REMARK INTRA:                   0.000
REMARK UNBOUND:                 0.000
REMARK SMILES CC1=CC(=O)[C@@H]2C[C@H]1C2(C)C
REMARK SMILES IDX 1 1 2 2 3 3 4 4 5 5 6 6 7 7 8 8 9 9 10 10 11 11
REMARK H PARENT
REMARK Flexibility Score: inf
ROOT
ATOM      1  C   UNL     1      15.655  28.926  14.094  1.00  0.00     0.040 C 
ATOM      2  C   UNL     1      15.690  27.484  14.491  1.00  0.00    -0.066 C 
ATOM      3  C   UNL     1      16.597  27.021  15.395  1.00  0.00     0.047 C 
ATOM      4  C   UNL     1      16.510  25.563  15.734  1.00  0.00     0.159 C 
ATOM      5  O   UNL     1      17.266  25.024  16.583  1.00  0.00    -0.295 OA
ATOM      6  C   UNL     1      15.439  24.779  14.976  1.00  0.00     0.067 C 
ATOM      7  C   UNL     1      15.598  25.238  13.511  1.00  0.00     0.021 C 
ATOM      8  C   UNL     1      14.716  26.451  13.887  1.00  0.00     0.022 C 
ATOM      9  C   UNL     1      14.108  25.583  15.026  1.00  0.00    -0.019 C 
ATOM     10  C   UNL     1      12.895  24.746  14.547  1.00  0.00     0.012 C 
ATOM     11  C   UNL     1      13.720  26.286  16.358  1.00  0.00     0.012 C 
ENDROOT
TORSDOF 0
ENDMDL
