MODEL 1
REMARK VINA RESULT:    53.223      0.000      0.000
REMARK INTER + INTRA:          70.942
REMARK INTER:                  70.336
REMARK INTRA:                   0.607
REMARK UNBOUND:                 0.607
REMARK SMILES CC[C@H](C=C[C@H](C)[C@@H]1CC[C@@H]2C3=CC[C@H]4C[C@@H](O)CC[C@@]4(C)[C@H]3CC[C@@]21C)C(C)C
REMARK SMILES IDX 6 1 7 2 5 3 4 4 3 5 2 6 1 7 28 8 29 9 30 10 8 11 9 12 26 13
REMARK SMILES IDX 10 14 11 15 25 16 27 17 12 18 24 19 23 20 13 21 21 22 14 23
REMARK SMILES IDX 15 24 20 25 22 26 16 27 19 28 17 29 18 30
REMARK H PARENT 18 31
REMARK Flexibility Score: inf
ROOT
ATOM      1  C   UNL     1     -30.738  23.859   7.895  1.00  0.00     0.012 C 
ATOM      2  C   UNL     1     -30.916  22.922   9.098  1.00  0.00     0.012 C 
ENDROOT
BRANCH   1   3
ATOM      3  C   UNL     1     -29.261  23.946   7.572  1.00  0.00    -0.028 C 
ATOM      4  C   UNL     1     -28.326  23.531   8.442  1.00  0.00    -0.027 C 
BRANCH   4   5
ATOM      5  C   UNL     1     -26.846  23.657   8.143  1.00  0.00     0.014 C 
BRANCH   5   6
ATOM      6  C   UNL     1     -26.485  22.711   6.971  1.00  0.00     0.004 C 
ATOM      7  C   UNL     1     -27.714  22.029   6.360  1.00  0.00     0.004 C 
ENDBRANCH   5   6
BRANCH   5   8
ATOM      8  C   UNL     1     -26.489  25.144   7.839  1.00  0.00    -0.011 C 
ATOM      9  C   UNL     1     -26.085  25.893   9.124  1.00  0.00     0.008 C 
ATOM     10  C   UNL     1     -25.349  25.271   6.813  1.00  0.00     0.008 C 
ENDBRANCH   5   8
ENDBRANCH   4   5
ENDBRANCH   1   3
BRANCH   1  11
ATOM     11  C   UNL     1     -31.534  23.385   6.634  1.00  0.00     0.002 C 
ATOM     12  C   UNL     1     -32.032  24.579   5.792  1.00  0.00     0.005 C 
ATOM     13  C   UNL     1     -32.800  22.499   6.851  1.00  0.00    -0.023 C 
ATOM     14  C   UNL     1     -33.323  24.145   5.104  1.00  0.00     0.009 C 
ATOM     15  C   UNL     1     -33.551  22.692   5.514  1.00  0.00     0.021 C 
ATOM     16  C   UNL     1     -33.665  23.002   8.049  1.00  0.00     0.008 C 
ATOM     17  C   UNL     1     -32.444  21.000   7.026  1.00  0.00     0.012 C 
ATOM     18  C   UNL     1     -35.026  22.312   5.578  1.00  0.00    -0.067 C 
ATOM     19  C   UNL     1     -35.087  22.418   8.055  1.00  0.00     0.009 C 
ATOM     20  C   UNL     1     -35.851  22.799   6.769  1.00  0.00     0.021 C 
ATOM     21  C   UNL     1     -35.522  21.494   4.626  1.00  0.00    -0.027 C 
ATOM     22  C   UNL     1     -37.396  22.419   6.700  1.00  0.00    -0.023 C 
ATOM     23  C   UNL     1     -36.956  21.071   4.556  1.00  0.00     0.031 C 
ATOM     24  C   UNL     1     -37.651  21.084   5.927  1.00  0.00     0.002 C 
ATOM     25  C   UNL     1     -38.110  22.342   8.095  1.00  0.00     0.010 C 
ATOM     26  C   UNL     1     -38.108  23.566   5.923  1.00  0.00     0.012 C 
ATOM     27  C   UNL     1     -37.283  19.839   6.754  1.00  0.00     0.036 C 
ATOM     28  C   UNL     1     -37.893  21.038   8.889  1.00  0.00     0.032 C 
ATOM     29  C   UNL     1     -38.120  19.784   8.036  1.00  0.00     0.114 C 
BRANCH  29  30
ATOM     30  O   UNL     1     -37.766  18.638   8.766  1.00  0.00    -0.393 OA
ATOM     31  H   UNL     1     -36.775  18.602   8.778  1.00  0.00     0.210 HD
ENDBRANCH  29  30
ENDBRANCH   1  11
TORSDOF 6
ENDMDL
