MODEL 1
REMARK VINA RESULT:    -4.495      0.000      0.000
REMARK INTER + INTRA:          -6.692
REMARK INTER:                  -6.334
REMARK INTRA:                  -0.358
REMARK UNBOUND:                -0.358
REMARK SMILES CCCCCCCCC(=O)[O-]
REMARK SMILES IDX 6 1 7 2 8 3 9 4 10 5 11 6 5 7 4 8 3 9 2 10 1 11
REMARK H PARENT
REMARK Flexibility Score: inf
ROOT
ATOM      1  C   UNL     1      13.890  12.705   4.305  1.00  0.00     0.000 C 
ENDROOT
BRANCH   1   2
ATOM      2  C   UNL     1      14.142  13.222   2.876  1.00  0.00     0.006 C 
BRANCH   2   3
ATOM      3  C   UNL     1      15.607  13.131   2.419  1.00  0.00     0.053 C 
BRANCH   3   4
ATOM      4  C   UNL     1      16.501  14.024   3.222  1.00  0.00     0.041 C 
ATOM      5  O   UNL     1      17.585  13.583   3.688  1.00  0.00    -0.550 OA
ATOM      6  O   UNL     1      16.124  15.335   3.484  1.00  0.00    -0.550 OA
ENDBRANCH   3   4
ENDBRANCH   2   3
ENDBRANCH   1   2
BRANCH   1   7
ATOM      7  C   UNL     1      12.767  11.659   4.370  1.00  0.00     0.000 C 
BRANCH   7   8
ATOM      8  C   UNL     1      11.639  12.003   3.389  1.00  0.00    -0.000 C 
BRANCH   8   9
ATOM      9  C   UNL     1      10.303  11.404   3.854  1.00  0.00    -0.000 C 
BRANCH   9  10
ATOM     10  C   UNL     1      10.489  10.198   4.786  1.00  0.00    -0.003 C 
ATOM     11  C   UNL     1       9.786  10.377   6.131  1.00  0.00     0.004 C 
ENDBRANCH   9  10
ENDBRANCH   8   9
ENDBRANCH   7   8
ENDBRANCH   1   7
TORSDOF 7
ENDMDL
MODEL 2
REMARK VINA RESULT:    -4.468      1.213      1.587
REMARK INTER + INTRA:          -6.655
REMARK INTER:                  -6.257
REMARK INTRA:                  -0.398
REMARK UNBOUND:                -0.358
REMARK SMILES CCCCCCCCC(=O)[O-]
REMARK SMILES IDX 6 1 7 2 8 3 9 4 10 5 11 6 5 7 4 8 3 9 2 10 1 11
REMARK H PARENT
REMARK Flexibility Score: inf
ROOT
ATOM      1  C   UNL     1      13.444  11.968   4.450  1.00  0.00     0.000 C 
ENDROOT
BRANCH   1   2
ATOM      2  C   UNL     1      14.525  12.885   5.052  1.00  0.00     0.006 C 
BRANCH   2   3
ATOM      3  C   UNL     1      15.039  13.971   4.093  1.00  0.00     0.053 C 
BRANCH   3   4
ATOM      4  C   UNL     1      16.153  13.472   3.226  1.00  0.00     0.041 C 
ATOM      5  O   UNL     1      15.898  12.832   2.172  1.00  0.00    -0.550 OA
ATOM      6  O   UNL     1      17.475  13.686   3.598  1.00  0.00    -0.550 OA
ENDBRANCH   3   4
ENDBRANCH   2   3
ENDBRANCH   1   2
BRANCH   1   7
ATOM      7  C   UNL     1      12.376  12.744   3.665  1.00  0.00     0.000 C 
BRANCH   7   8
ATOM      8  C   UNL     1      11.024  12.021   3.716  1.00  0.00    -0.000 C 
BRANCH   8   9
ATOM      9  C   UNL     1      11.146  10.676   4.447  1.00  0.00    -0.000 C 
BRANCH   9  10
ATOM     10  C   UNL     1      10.052  10.476   5.505  1.00  0.00    -0.003 C 
ATOM     11  C   UNL     1       8.726  11.129   5.114  1.00  0.00     0.004 C 
ENDBRANCH   9  10
ENDBRANCH   8   9
ENDBRANCH   7   8
ENDBRANCH   1   7
TORSDOF 7
ENDMDL
MODEL 3
REMARK VINA RESULT:    -4.382      0.753      1.361
REMARK INTER + INTRA:          -6.533
REMARK INTER:                  -6.182
REMARK INTRA:                  -0.352
REMARK UNBOUND:                -0.358
REMARK SMILES CCCCCCCCC(=O)[O-]
REMARK SMILES IDX 6 1 7 2 8 3 9 4 10 5 11 6 5 7 4 8 3 9 2 10 1 11
REMARK H PARENT
REMARK Flexibility Score: inf
ROOT
ATOM      1  C   UNL     1      12.891  13.019   2.633  1.00  0.00     0.000 C 
ENDROOT
BRANCH   1   2
ATOM      2  C   UNL     1      14.155  13.723   2.105  1.00  0.00     0.006 C 
BRANCH   2   3
ATOM      3  C   UNL     1      15.473  13.049   2.517  1.00  0.00     0.053 C 
BRANCH   3   4
ATOM      4  C   UNL     1      16.348  13.965   3.315  1.00  0.00     0.041 C 
ATOM      5  O   UNL     1      15.930  15.105   3.652  1.00  0.00    -0.550 OA
ATOM      6  O   UNL     1      17.636  13.575   3.659  1.00  0.00    -0.550 OA
ENDBRANCH   3   4
ENDBRANCH   2   3
ENDBRANCH   1   2
BRANCH   1   7
ATOM      7  C   UNL     1      13.036  12.546   4.087  1.00  0.00     0.000 C 
BRANCH   7   8
ATOM      8  C   UNL     1      12.179  11.301   4.348  1.00  0.00    -0.000 C 
BRANCH   8   9
ATOM      9  C   UNL     1      10.781  11.456   3.731  1.00  0.00    -0.000 C 
BRANCH   9  10
ATOM     10  C   UNL     1       9.660  11.058   4.702  1.00  0.00    -0.003 C 
ATOM     11  C   UNL     1       9.993   9.802   5.506  1.00  0.00     0.004 C 
ENDBRANCH   9  10
ENDBRANCH   8   9
ENDBRANCH   7   8
ENDBRANCH   1   7
TORSDOF 7
ENDMDL
MODEL 4
REMARK VINA RESULT:    -4.308      4.923      7.117
REMARK INTER + INTRA:          -6.429
REMARK INTER:                  -6.063
REMARK INTRA:                  -0.366
REMARK UNBOUND:                -0.358
REMARK SMILES CCCCCCCCC(=O)[O-]
REMARK SMILES IDX 6 1 7 2 8 3 9 4 10 5 11 6 5 7 4 8 3 9 2 10 1 11
REMARK H PARENT
REMARK Flexibility Score: inf
ROOT
ATOM      1  C   UNL     1       9.254  10.600   5.487  1.00  0.00     0.000 C 
ENDROOT
BRANCH   1   2
ATOM      2  C   UNL     1       9.542  10.902   6.969  1.00  0.00     0.006 C 
BRANCH   2   3
ATOM      3  C   UNL     1       8.778  12.113   7.528  1.00  0.00     0.053 C 
BRANCH   3   4
ATOM      4  C   UNL     1       7.305  11.860   7.608  1.00  0.00     0.041 C 
ATOM      5  O   UNL     1       6.828  11.192   8.563  1.00  0.00    -0.550 OA
ATOM      6  O   UNL     1       6.461  12.332   6.610  1.00  0.00    -0.550 OA
ENDBRANCH   3   4
ENDBRANCH   2   3
ENDBRANCH   1   2
BRANCH   1   7
ATOM      7  C   UNL     1      10.527  10.565   4.628  1.00  0.00     0.000 C 
BRANCH   7   8
ATOM      8  C   UNL     1      10.539  11.720   3.618  1.00  0.00    -0.000 C 
BRANCH   8   9
ATOM      9  C   UNL     1      11.973  12.192   3.339  1.00  0.00    -0.000 C 
BRANCH   9  10
ATOM     10  C   UNL     1      12.954  11.791   4.450  1.00  0.00    -0.003 C 
ATOM     11  C   UNL     1      14.130  12.759   4.577  1.00  0.00     0.004 C 
ENDBRANCH   9  10
ENDBRANCH   8   9
ENDBRANCH   7   8
ENDBRANCH   1   7
TORSDOF 7
ENDMDL
MODEL 5
REMARK VINA RESULT:    -4.295      5.139      6.970
REMARK INTER + INTRA:          -6.410
REMARK INTER:                  -5.812
REMARK INTRA:                  -0.598
REMARK UNBOUND:                -0.358
REMARK SMILES CCCCCCCCC(=O)[O-]
REMARK SMILES IDX 6 1 7 2 8 3 9 4 10 5 11 6 5 7 4 8 3 9 2 10 1 11
REMARK H PARENT
REMARK Flexibility Score: inf
ROOT
ATOM      1  C   UNL     1      10.107  10.197   5.600  1.00  0.00     0.000 C 
ENDROOT
BRANCH   1   2
ATOM      2  C   UNL     1       9.199  10.901   6.625  1.00  0.00     0.006 C 
BRANCH   2   3
ATOM      3  C   UNL     1       7.992  11.627   6.009  1.00  0.00     0.053 C 
BRANCH   3   4
ATOM      4  C   UNL     1       7.078  12.185   7.055  1.00  0.00     0.041 C 
ATOM      5  O   UNL     1       6.772  11.495   8.063  1.00  0.00    -0.550 OA
ATOM      6  O   UNL     1       6.538  13.456   6.901  1.00  0.00    -0.550 OA
ENDBRANCH   3   4
ENDBRANCH   2   3
ENDBRANCH   1   2
BRANCH   1   7
ATOM      7  C   UNL     1      10.270  10.998   4.300  1.00  0.00     0.000 C 
BRANCH   7   8
ATOM      8  C   UNL     1      11.745  11.332   4.042  1.00  0.00    -0.000 C 
BRANCH   8   9
ATOM      9  C   UNL     1      12.026  12.820   4.296  1.00  0.00    -0.000 C 
BRANCH   9  10
ATOM     10  C   UNL     1      12.728  13.068   5.638  1.00  0.00    -0.003 C 
ATOM     11  C   UNL     1      11.763  13.508   6.738  1.00  0.00     0.004 C 
ENDBRANCH   9  10
ENDBRANCH   8   9
ENDBRANCH   7   8
ENDBRANCH   1   7
TORSDOF 7
ENDMDL
MODEL 6
REMARK VINA RESULT:    -4.246      2.806      5.100
REMARK INTER + INTRA:          -6.341
REMARK INTER:                  -5.659
REMARK INTRA:                  -0.682
REMARK UNBOUND:                -0.358
REMARK SMILES CCCCCCCCC(=O)[O-]
REMARK SMILES IDX 6 1 7 2 8 3 9 4 10 5 11 6 5 7 4 8 3 9 2 10 1 11
REMARK H PARENT
REMARK Flexibility Score: inf
ROOT
ATOM      1  C   UNL     1      13.060  13.539   2.311  1.00  0.00     0.000 C 
ENDROOT
BRANCH   1   2
ATOM      2  C   UNL     1      14.231  12.891   3.072  1.00  0.00     0.006 C 
BRANCH   2   3
ATOM      3  C   UNL     1      15.608  13.119   2.427  1.00  0.00     0.053 C 
BRANCH   3   4
ATOM      4  C   UNL     1      16.450  14.069   3.221  1.00  0.00     0.041 C 
ATOM      5  O   UNL     1      17.638  13.770   3.514  1.00  0.00    -0.550 OA
ATOM      6  O   UNL     1      15.913  15.270   3.666  1.00  0.00    -0.550 OA
ENDBRANCH   3   4
ENDBRANCH   2   3
ENDBRANCH   1   2
BRANCH   1   7
ATOM      7  C   UNL     1      13.348  13.713   0.812  1.00  0.00     0.000 C 
BRANCH   7   8
ATOM      8  C   UNL     1      12.967  15.122   0.340  1.00  0.00    -0.000 C 
BRANCH   8   9
ATOM      9  C   UNL     1      13.812  16.188   1.053  1.00  0.00    -0.000 C 
BRANCH   9  10
ATOM     10  C   UNL     1      15.085  16.550   0.275  1.00  0.00    -0.003 C 
ATOM     11  C   UNL     1      14.897  16.467  -1.239  1.00  0.00     0.004 C 
ENDBRANCH   9  10
ENDBRANCH   8   9
ENDBRANCH   7   8
ENDBRANCH   1   7
TORSDOF 7
ENDMDL
MODEL 7
REMARK VINA RESULT:    -4.093      3.593      4.886
REMARK INTER + INTRA:          -6.126
REMARK INTER:                  -5.505
REMARK INTRA:                  -0.621
REMARK UNBOUND:                -0.358
REMARK SMILES CCCCCCCCC(=O)[O-]
REMARK SMILES IDX 6 1 7 2 8 3 9 4 10 5 11 6 5 7 4 8 3 9 2 10 1 11
REMARK H PARENT
REMARK Flexibility Score: inf
ROOT
ATOM      1  C   UNL     1      15.960  15.506   3.359  1.00  0.00     0.000 C 
ENDROOT
BRANCH   1   2
ATOM      2  C   UNL     1      16.508  16.314   2.168  1.00  0.00     0.006 C 
BRANCH   2   3
ATOM      3  C   UNL     1      15.427  16.833   1.205  1.00  0.00     0.053 C 
BRANCH   3   4
ATOM      4  C   UNL     1      16.015  17.370  -0.063  1.00  0.00     0.041 C 
ATOM      5  O   UNL     1      16.986  18.170  -0.021  1.00  0.00    -0.550 OA
ATOM      6  O   UNL     1      15.470  17.012  -1.289  1.00  0.00    -0.550 OA
ENDBRANCH   3   4
ENDBRANCH   2   3
ENDBRANCH   1   2
BRANCH   1   7
ATOM      7  C   UNL     1      16.499  14.068   3.401  1.00  0.00     0.000 C 
BRANCH   7   8
ATOM      8  C   UNL     1      15.650  13.137   2.526  1.00  0.00    -0.000 C 
BRANCH   8   9
ATOM      9  C   UNL     1      14.255  12.931   3.133  1.00  0.00    -0.000 C 
BRANCH   9  10
ATOM     10  C   UNL     1      13.126  13.286   2.153  1.00  0.00    -0.003 C 
ATOM     11  C   UNL     1      13.647  13.702   0.778  1.00  0.00     0.004 C 
ENDBRANCH   9  10
ENDBRANCH   8   9
ENDBRANCH   7   8
ENDBRANCH   1   7
TORSDOF 7
ENDMDL
MODEL 8
REMARK VINA RESULT:    -4.079      2.677      4.047
REMARK INTER + INTRA:          -6.106
REMARK INTER:                  -5.576
REMARK INTRA:                  -0.531
REMARK UNBOUND:                -0.358
REMARK SMILES CCCCCCCCC(=O)[O-]
REMARK SMILES IDX 6 1 7 2 8 3 9 4 10 5 11 6 5 7 4 8 3 9 2 10 1 11
REMARK H PARENT
REMARK Flexibility Score: inf
ROOT
ATOM      1  C   UNL     1      10.224  11.144   4.104  1.00  0.00     0.000 C 
ENDROOT
BRANCH   1   2
ATOM      2  C   UNL     1      11.695  11.541   3.883  1.00  0.00     0.006 C 
BRANCH   2   3
ATOM      3  C   UNL     1      12.027  12.988   4.284  1.00  0.00     0.053 C 
BRANCH   3   4
ATOM      4  C   UNL     1      12.786  13.053   5.573  1.00  0.00     0.041 C 
ATOM      5  O   UNL     1      12.180  13.271   6.655  1.00  0.00    -0.550 OA
ATOM      6  O   UNL     1      14.168  12.907   5.576  1.00  0.00    -0.550 OA
ENDBRANCH   3   4
ENDBRANCH   2   3
ENDBRANCH   1   2
BRANCH   1   7
ATOM      7  C   UNL     1      10.038  10.184   5.289  1.00  0.00     0.000 C 
BRANCH   7   8
ATOM      8  C   UNL     1       9.383  10.899   6.477  1.00  0.00    -0.000 C 
BRANCH   8   9
ATOM      9  C   UNL     1       8.435  12.009   5.998  1.00  0.00    -0.000 C 
BRANCH   9  10
ATOM     10  C   UNL     1       7.157  12.100   6.843  1.00  0.00    -0.003 C 
ATOM     11  C   UNL     1       7.348  11.568   8.263  1.00  0.00     0.004 C 
ENDBRANCH   9  10
ENDBRANCH   8   9
ENDBRANCH   7   8
ENDBRANCH   1   7
TORSDOF 7
ENDMDL
MODEL 9
REMARK VINA RESULT:    -4.043      1.693      2.377
REMARK INTER + INTRA:          -6.055
REMARK INTER:                  -5.363
REMARK INTRA:                  -0.692
REMARK UNBOUND:                -0.358
REMARK SMILES CCCCCCCCC(=O)[O-]
REMARK SMILES IDX 6 1 7 2 8 3 9 4 10 5 11 6 5 7 4 8 3 9 2 10 1 11
REMARK H PARENT
REMARK Flexibility Score: inf
ROOT
ATOM      1  C   UNL     1      11.849  12.365   3.223  1.00  0.00     0.000 C 
ENDROOT
BRANCH   1   2
ATOM      2  C   UNL     1      12.814  11.742   4.249  1.00  0.00     0.006 C 
BRANCH   2   3
ATOM      3  C   UNL     1      13.363  12.736   5.286  1.00  0.00     0.053 C 
BRANCH   3   4
ATOM      4  C   UNL     1      14.319  13.714   4.675  1.00  0.00     0.041 C 
ATOM      5  O   UNL     1      15.511  13.378   4.451  1.00  0.00    -0.550 OA
ATOM      6  O   UNL     1      13.901  15.006   4.383  1.00  0.00    -0.550 OA
ENDBRANCH   3   4
ENDBRANCH   2   3
ENDBRANCH   1   2
BRANCH   1   7
ATOM      7  C   UNL     1      10.533  12.841   3.857  1.00  0.00     0.000 C 
BRANCH   7   8
ATOM      8  C   UNL     1       9.423  11.798   3.666  1.00  0.00    -0.000 C 
BRANCH   8   9
ATOM      9  C   UNL     1       8.674  11.546   4.982  1.00  0.00    -0.000 C 
BRANCH   9  10
ATOM     10  C   UNL     1       9.537  10.820   6.024  1.00  0.00    -0.003 C 
ATOM     11  C   UNL     1      10.087   9.489   5.512  1.00  0.00     0.004 C 
ENDBRANCH   9  10
ENDBRANCH   8   9
ENDBRANCH   7   8
ENDBRANCH   1   7
TORSDOF 7
ENDMDL
