MODEL 1
REMARK VINA RESULT:    -3.578      0.000      0.000
REMARK INTER + INTRA:          -6.814
REMARK INTER:                  -5.251
REMARK INTRA:                  -1.563
REMARK UNBOUND:                -1.563
REMARK SMILES CC(C)COC(=O)c1ccccc1C(=O)OCC(C)C
REMARK SMILES IDX 8 1 9 2 10 3 11 4 12 5 13 6 6 7 7 8 5 9 4 10 2 11 1 12 3 13
REMARK SMILES IDX 14 14 15 15 16 16 17 17 18 18 19 19 20 20
REMARK H PARENT
REMARK Flexibility Score: inf
ROOT
ATOM      1  C   UNL     1      -4.397  -6.256   0.808  1.00  0.00     0.074 A 
ATOM      2  C   UNL     1      -3.749  -7.168  -0.047  1.00  0.00     0.016 A 
ATOM      3  C   UNL     1      -2.901  -6.718  -1.061  1.00  0.00     0.001 A 
ATOM      4  C   UNL     1      -2.690  -5.353  -1.241  1.00  0.00     0.001 A 
ATOM      5  C   UNL     1      -3.308  -4.432  -0.395  1.00  0.00     0.016 A 
ATOM      6  C   UNL     1      -4.143  -4.867   0.647  1.00  0.00     0.074 A 
ENDROOT
BRANCH   1   7
ATOM      7  C   UNL     1      -5.386  -6.775   1.785  1.00  0.00     0.339 C 
ATOM      8  O   UNL     1      -6.620  -6.637   1.562  1.00  0.00    -0.246 OA
BRANCH   7   9
ATOM      9  O   UNL     1      -4.947  -7.371   2.975  1.00  0.00    -0.462 OA
BRANCH   9  10
ATOM     10  C   UNL     1      -3.694  -7.092   3.597  1.00  0.00     0.236 C 
BRANCH  10  11
ATOM     11  C   UNL     1      -2.923  -8.394   3.878  1.00  0.00     0.021 C 
ATOM     12  C   UNL     1      -2.265  -8.334   5.262  1.00  0.00     0.011 C 
ATOM     13  C   UNL     1      -1.865  -8.668   2.801  1.00  0.00     0.011 C 
ENDBRANCH  10  11
ENDBRANCH   9  10
ENDBRANCH   7   9
ENDBRANCH   1   7
BRANCH   6  14
ATOM     14  C   UNL     1      -4.689  -3.852   1.565  1.00  0.00     0.339 C 
ATOM     15  O   UNL     1      -4.220  -3.738   2.731  1.00  0.00    -0.246 OA
BRANCH  14  16
ATOM     16  O   UNL     1      -5.715  -3.008   1.125  1.00  0.00    -0.462 OA
BRANCH  16  17
ATOM     17  C   UNL     1      -6.891  -3.477   0.466  1.00  0.00     0.236 C 
BRANCH  17  18
ATOM     18  C   UNL     1      -6.917  -3.042  -1.013  1.00  0.00     0.021 C 
ATOM     19  C   UNL     1      -6.658  -4.231  -1.947  1.00  0.00     0.011 C 
ATOM     20  C   UNL     1      -5.888  -1.935  -1.261  1.00  0.00     0.011 C 
ENDBRANCH  17  18
ENDBRANCH  16  17
ENDBRANCH  14  16
ENDBRANCH   6  14
TORSDOF 8
ENDMDL
MODEL 2
REMARK VINA RESULT:    -3.553      0.467      5.609
REMARK INTER + INTRA:          -6.777
REMARK INTER:                  -5.105
REMARK INTRA:                  -1.673
REMARK UNBOUND:                -1.563
REMARK SMILES CC(C)COC(=O)c1ccccc1C(=O)OCC(C)C
REMARK SMILES IDX 8 1 9 2 10 3 11 4 12 5 13 6 6 7 7 8 5 9 4 10 2 11 1 12 3 13
REMARK SMILES IDX 14 14 15 15 16 16 17 17 18 18 19 19 20 20
REMARK H PARENT
REMARK Flexibility Score: inf
ROOT
ATOM      1  C   UNL     1      -4.234  -4.812   0.554  1.00  0.00     0.074 A 
ATOM      2  C   UNL     1      -3.286  -4.416  -0.408  1.00  0.00     0.016 A 
ATOM      3  C   UNL     1      -2.678  -5.356  -1.242  1.00  0.00     0.001 A 
ATOM      4  C   UNL     1      -3.001  -6.706  -1.126  1.00  0.00     0.001 A 
ATOM      5  C   UNL     1      -3.951  -7.120  -0.192  1.00  0.00     0.016 A 
ATOM      6  C   UNL     1      -4.593  -6.185   0.637  1.00  0.00     0.074 A 
ENDROOT
BRANCH   1   7
ATOM      7  C   UNL     1      -4.757  -3.795   1.500  1.00  0.00     0.339 C 
ATOM      8  O   UNL     1      -4.277  -3.718   2.665  1.00  0.00    -0.246 OA
BRANCH   7   9
ATOM      9  O   UNL     1      -5.814  -2.960   1.116  1.00  0.00    -0.462 OA
BRANCH   9  10
ATOM     10  C   UNL     1      -7.011  -3.418   0.489  1.00  0.00     0.236 C 
BRANCH  10  11
ATOM     11  C   UNL     1      -7.032  -3.026  -0.999  1.00  0.00     0.021 C 
ATOM     12  C   UNL     1      -6.804  -4.262  -1.877  1.00  0.00     0.011 C 
ATOM     13  C   UNL     1      -5.983  -1.952  -1.316  1.00  0.00     0.011 C 
ENDBRANCH  10  11
ENDBRANCH   9  10
ENDBRANCH   7   9
ENDBRANCH   1   7
BRANCH   6  14
ATOM     14  C   UNL     1      -5.655  -6.671   1.536  1.00  0.00     0.339 C 
ATOM     15  O   UNL     1      -6.808  -6.903   1.081  1.00  0.00    -0.246 OA
BRANCH  14  16
ATOM     16  O   UNL     1      -5.365  -6.890   2.887  1.00  0.00    -0.462 OA
BRANCH  16  17
ATOM     17  C   UNL     1      -4.673  -8.043   3.366  1.00  0.00     0.236 C 
BRANCH  17  18
ATOM     18  C   UNL     1      -3.207  -7.714   3.715  1.00  0.00     0.021 C 
ATOM     19  C   UNL     1      -2.234  -8.478   2.809  1.00  0.00     0.011 C 
ATOM     20  C   UNL     1      -2.926  -8.032   5.188  1.00  0.00     0.011 C 
ENDBRANCH  17  18
ENDBRANCH  16  17
ENDBRANCH  14  16
ENDBRANCH   6  14
TORSDOF 8
ENDMDL
MODEL 3
REMARK VINA RESULT:    -3.460      8.700     11.044
REMARK INTER + INTRA:          -6.641
REMARK INTER:                  -5.505
REMARK INTRA:                  -1.136
REMARK UNBOUND:                -1.563
REMARK SMILES CC(C)COC(=O)c1ccccc1C(=O)OCC(C)C
REMARK SMILES IDX 8 1 9 2 10 3 11 4 12 5 13 6 6 7 7 8 5 9 4 10 2 11 1 12 3 13
REMARK SMILES IDX 14 14 15 15 16 16 17 17 18 18 19 19 20 20
REMARK H PARENT
REMARK Flexibility Score: inf
ROOT
ATOM      1  C   UNL     1       6.425  -3.758  -1.014  1.00  0.00     0.074 A 
ATOM      2  C   UNL     1       6.717  -2.425  -1.361  1.00  0.00     0.016 A 
ATOM      3  C   UNL     1       7.259  -1.545  -0.421  1.00  0.00     0.001 A 
ATOM      4  C   UNL     1       7.512  -1.979   0.878  1.00  0.00     0.001 A 
ATOM      5  C   UNL     1       7.247  -3.300   1.239  1.00  0.00     0.016 A 
ATOM      6  C   UNL     1       6.728  -4.207   0.300  1.00  0.00     0.074 A 
ENDROOT
BRANCH   1   7
ATOM      7  C   UNL     1       5.735  -4.617  -2.008  1.00  0.00     0.339 C 
ATOM      8  O   UNL     1       6.390  -5.127  -2.959  1.00  0.00    -0.246 OA
BRANCH   7   9
ATOM      9  O   UNL     1       4.351  -4.817  -1.919  1.00  0.00    -0.462 OA
BRANCH   9  10
ATOM     10  C   UNL     1       3.656  -5.897  -2.540  1.00  0.00     0.236 C 
BRANCH  10  11
ATOM     11  C   UNL     1       2.227  -5.475  -2.928  1.00  0.00     0.021 C 
ATOM     12  C   UNL     1       2.255  -4.597  -4.184  1.00  0.00     0.011 C 
ATOM     13  C   UNL     1       1.525  -4.736  -1.781  1.00  0.00     0.011 C 
ENDBRANCH  10  11
ENDBRANCH   9  10
ENDBRANCH   7   9
ENDBRANCH   1   7
BRANCH   6  14
ATOM     14  C   UNL     1       6.559  -5.611   0.714  1.00  0.00     0.339 C 
ATOM     15  O   UNL     1       7.496  -6.437   0.537  1.00  0.00    -0.246 OA
BRANCH  14  16
ATOM     16  O   UNL     1       5.362  -6.010   1.320  1.00  0.00    -0.462 OA
BRANCH  16  17
ATOM     17  C   UNL     1       4.571  -7.102   0.853  1.00  0.00     0.236 C 
BRANCH  17  18
ATOM     18  C   UNL     1       3.074  -6.880   1.151  1.00  0.00     0.021 C 
ATOM     19  C   UNL     1       2.779  -7.017   2.650  1.00  0.00     0.011 C 
ATOM     20  C   UNL     1       2.219  -7.865   0.347  1.00  0.00     0.011 C 
ENDBRANCH  17  18
ENDBRANCH  16  17
ENDBRANCH  14  16
ENDBRANCH   6  14
TORSDOF 8
ENDMDL
MODEL 4
REMARK VINA RESULT:    -3.454      8.687     10.271
REMARK INTER + INTRA:          -6.633
REMARK INTER:                  -5.682
REMARK INTRA:                  -0.951
REMARK UNBOUND:                -1.563
REMARK SMILES CC(C)COC(=O)c1ccccc1C(=O)OCC(C)C
REMARK SMILES IDX 8 1 9 2 10 3 11 4 12 5 13 6 6 7 7 8 5 9 4 10 2 11 1 12 3 13
REMARK SMILES IDX 14 14 15 15 16 16 17 17 18 18 19 19 20 20
REMARK H PARENT
REMARK Flexibility Score: inf
ROOT
ATOM      1  C   UNL     1       6.582  -4.289   0.162  1.00  0.00     0.074 A 
ATOM      2  C   UNL     1       7.091  -3.496   1.207  1.00  0.00     0.016 A 
ATOM      3  C   UNL     1       7.463  -2.169   0.981  1.00  0.00     0.001 A 
ATOM      4  C   UNL     1       7.340  -1.616  -0.291  1.00  0.00     0.001 A 
ATOM      5  C   UNL     1       6.821  -2.377  -1.338  1.00  0.00     0.016 A 
ATOM      6  C   UNL     1       6.415  -3.705  -1.123  1.00  0.00     0.074 A 
ENDROOT
BRANCH   1   7
ATOM      7  C   UNL     1       6.320  -5.727   0.421  1.00  0.00     0.339 C 
ATOM      8  O   UNL     1       7.191  -6.587   0.117  1.00  0.00    -0.246 OA
BRANCH   7   9
ATOM      9  O   UNL     1       5.089  -6.129   0.956  1.00  0.00    -0.462 OA
BRANCH   9  10
ATOM     10  C   UNL     1       4.941  -6.834   2.187  1.00  0.00     0.236 C 
BRANCH  10  11
ATOM     11  C   UNL     1       3.570  -7.530   2.255  1.00  0.00     0.021 C 
ATOM     12  C   UNL     1       2.769  -7.256   0.977  1.00  0.00     0.011 C 
ATOM     13  C   UNL     1       2.770  -7.084   3.487  1.00  0.00     0.011 C 
ENDBRANCH  10  11
ENDBRANCH   9  10
ENDBRANCH   7   9
ENDBRANCH   1   7
BRANCH   6  14
ATOM     14  C   UNL     1       5.788  -4.427  -2.244  1.00  0.00     0.339 C 
ATOM     15  O   UNL     1       6.507  -5.030  -3.087  1.00  0.00    -0.246 OA
BRANCH  14  16
ATOM     16  O   UNL     1       4.393  -4.451  -2.352  1.00  0.00    -0.462 OA
BRANCH  16  17
ATOM     17  C   UNL     1       3.618  -5.646  -2.261  1.00  0.00     0.236 C 
BRANCH  17  18
ATOM     18  C   UNL     1       2.197  -5.440  -2.824  1.00  0.00     0.021 C 
ATOM     19  C   UNL     1       2.231  -4.664  -4.147  1.00  0.00     0.011 C 
ATOM     20  C   UNL     1       1.320  -4.711  -1.800  1.00  0.00     0.011 C 
ENDBRANCH  17  18
ENDBRANCH  16  17
ENDBRANCH  14  16
ENDBRANCH   6  14
TORSDOF 8
ENDMDL
MODEL 5
REMARK VINA RESULT:    -3.443      1.960      6.313
REMARK INTER + INTRA:          -6.616
REMARK INTER:                  -5.040
REMARK INTRA:                  -1.576
REMARK UNBOUND:                -1.563
REMARK SMILES CC(C)COC(=O)c1ccccc1C(=O)OCC(C)C
REMARK SMILES IDX 8 1 9 2 10 3 11 4 12 5 13 6 6 7 7 8 5 9 4 10 2 11 1 12 3 13
REMARK SMILES IDX 14 14 15 15 16 16 17 17 18 18 19 19 20 20
REMARK H PARENT
REMARK Flexibility Score: inf
ROOT
ATOM      1  C   UNL     1      -6.249  -3.671   0.444  1.00  0.00     0.074 A 
ATOM      2  C   UNL     1      -7.221  -3.029   1.234  1.00  0.00     0.016 A 
ATOM      3  C   UNL     1      -6.983  -2.764   2.584  1.00  0.00     0.001 A 
ATOM      4  C   UNL     1      -5.775  -3.139   3.168  1.00  0.00     0.001 A 
ATOM      5  C   UNL     1      -4.790  -3.760   2.400  1.00  0.00     0.016 A 
ATOM      6  C   UNL     1      -5.001  -4.010   1.034  1.00  0.00     0.074 A 
ENDROOT
BRANCH   1   7
ATOM      7  C   UNL     1      -6.597  -4.045  -0.949  1.00  0.00     0.339 C 
ATOM      8  O   UNL     1      -7.147  -5.157  -1.181  1.00  0.00    -0.246 OA
BRANCH   7   9
ATOM      9  O   UNL     1      -6.270  -3.187  -2.007  1.00  0.00    -0.462 OA
BRANCH   9  10
ATOM     10  C   UNL     1      -7.053  -2.060  -2.397  1.00  0.00     0.236 C 
BRANCH  10  11
ATOM     11  C   UNL     1      -6.561  -0.783  -1.692  1.00  0.00     0.021 C 
ATOM     12  C   UNL     1      -7.716   0.210  -1.523  1.00  0.00     0.011 C 
ATOM     13  C   UNL     1      -5.405  -0.124  -2.457  1.00  0.00     0.011 C 
ENDBRANCH  10  11
ENDBRANCH   9  10
ENDBRANCH   7   9
ENDBRANCH   1   7
BRANCH   6  14
ATOM     14  C   UNL     1      -3.888  -4.582   0.255  1.00  0.00     0.339 C 
ATOM     15  O   UNL     1      -3.224  -3.847  -0.527  1.00  0.00    -0.246 OA
BRANCH  14  16
ATOM     16  O   UNL     1      -3.566  -5.935   0.407  1.00  0.00    -0.462 OA
BRANCH  16  17
ATOM     17  C   UNL     1      -4.531  -6.984   0.346  1.00  0.00     0.236 C 
BRANCH  17  18
ATOM     18  C   UNL     1      -4.712  -7.662   1.720  1.00  0.00     0.021 C 
ATOM     19  C   UNL     1      -6.052  -7.277   2.358  1.00  0.00     0.011 C 
ATOM     20  C   UNL     1      -3.552  -7.294   2.651  1.00  0.00     0.011 C 
ENDBRANCH  17  18
ENDBRANCH  16  17
ENDBRANCH  14  16
ENDBRANCH   6  14
TORSDOF 8
ENDMDL
MODEL 6
REMARK VINA RESULT:    -3.428      2.033      3.992
REMARK INTER + INTRA:          -6.594
REMARK INTER:                  -4.898
REMARK INTRA:                  -1.696
REMARK UNBOUND:                -1.563
REMARK SMILES CC(C)COC(=O)c1ccccc1C(=O)OCC(C)C
REMARK SMILES IDX 8 1 9 2 10 3 11 4 12 5 13 6 6 7 7 8 5 9 4 10 2 11 1 12 3 13
REMARK SMILES IDX 14 14 15 15 16 16 17 17 18 18 19 19 20 20
REMARK H PARENT
REMARK Flexibility Score: inf
ROOT
ATOM      1  C   UNL     1      -4.974  -3.958   0.971  1.00  0.00     0.074 A 
ATOM      2  C   UNL     1      -4.789  -3.734   2.348  1.00  0.00     0.016 A 
ATOM      3  C   UNL     1      -5.790  -3.135   3.116  1.00  0.00     0.001 A 
ATOM      4  C   UNL     1      -6.987  -2.743   2.520  1.00  0.00     0.001 A 
ATOM      5  C   UNL     1      -7.199  -2.970   1.160  1.00  0.00     0.016 A 
ATOM      6  C   UNL     1      -6.214  -3.598   0.379  1.00  0.00     0.074 A 
ENDROOT
BRANCH   1   7
ATOM      7  C   UNL     1      -3.835  -4.480   0.175  1.00  0.00     0.339 C 
ATOM      8  O   UNL     1      -3.193  -3.704  -0.584  1.00  0.00    -0.246 OA
BRANCH   7   9
ATOM      9  O   UNL     1      -3.509  -5.841   0.230  1.00  0.00    -0.462 OA
BRANCH   9  10
ATOM     10  C   UNL     1      -4.452  -6.900   0.065  1.00  0.00     0.236 C 
BRANCH  10  11
ATOM     11  C   UNL     1      -4.693  -7.629   1.399  1.00  0.00     0.021 C 
ATOM     12  C   UNL     1      -6.060  -7.247   1.975  1.00  0.00     0.011 C 
ATOM     13  C   UNL     1      -3.585  -7.326   2.417  1.00  0.00     0.011 C 
ENDBRANCH  10  11
ENDBRANCH   9  10
ENDBRANCH   7   9
ENDBRANCH   1   7
BRANCH   6  14
ATOM     14  C   UNL     1      -6.535  -3.896  -1.029  1.00  0.00     0.339 C 
ATOM     15  O   UNL     1      -7.136  -4.964  -1.326  1.00  0.00    -0.246 OA
BRANCH  14  16
ATOM     16  O   UNL     1      -6.184  -2.976  -2.024  1.00  0.00    -0.462 OA
BRANCH  16  17
ATOM     17  C   UNL     1      -7.134  -2.169  -2.718  1.00  0.00     0.236 C 
BRANCH  17  18
ATOM     18  C   UNL     1      -6.894  -0.668  -2.457  1.00  0.00     0.021 C 
ATOM     19  C   UNL     1      -5.410  -0.378  -2.200  1.00  0.00     0.011 C 
ATOM     20  C   UNL     1      -7.743  -0.191  -1.273  1.00  0.00     0.011 C 
ENDBRANCH  17  18
ENDBRANCH  16  17
ENDBRANCH  14  16
ENDBRANCH   6  14
TORSDOF 8
ENDMDL
MODEL 7
REMARK VINA RESULT:    -3.333      1.442      5.355
REMARK INTER + INTRA:          -6.455
REMARK INTER:                  -4.647
REMARK INTRA:                  -1.808
REMARK UNBOUND:                -1.563
REMARK SMILES CC(C)COC(=O)c1ccccc1C(=O)OCC(C)C
REMARK SMILES IDX 8 1 9 2 10 3 11 4 12 5 13 6 6 7 7 8 5 9 4 10 2 11 1 12 3 13
REMARK SMILES IDX 14 14 15 15 16 16 17 17 18 18 19 19 20 20
REMARK H PARENT
REMARK Flexibility Score: inf
ROOT
ATOM      1  C   UNL     1      -5.728  -5.327  -0.028  1.00  0.00     0.074 A 
ATOM      2  C   UNL     1      -5.470  -5.892  -1.291  1.00  0.00     0.016 A 
ATOM      3  C   UNL     1      -4.207  -5.787  -1.876  1.00  0.00     0.001 A 
ATOM      4  C   UNL     1      -3.184  -5.111  -1.214  1.00  0.00     0.001 A 
ATOM      5  C   UNL     1      -3.412  -4.559   0.047  1.00  0.00     0.016 A 
ATOM      6  C   UNL     1      -4.669  -4.679   0.663  1.00  0.00     0.074 A 
ENDROOT
BRANCH   1   7
ATOM      7  C   UNL     1      -7.117  -5.355   0.495  1.00  0.00     0.339 C 
ATOM      8  O   UNL     1      -7.574  -6.415   1.003  1.00  0.00    -0.246 OA
BRANCH   7   9
ATOM      9  O   UNL     1      -7.933  -4.222   0.376  1.00  0.00    -0.462 OA
BRANCH   9  10
ATOM     10  C   UNL     1      -7.986  -3.390  -0.782  1.00  0.00     0.236 C 
BRANCH  10  11
ATOM     11  C   UNL     1      -7.257  -2.058  -0.531  1.00  0.00     0.021 C 
ATOM     12  C   UNL     1      -8.208  -0.879  -0.765  1.00  0.00     0.011 C 
ATOM     13  C   UNL     1      -6.013  -1.919  -1.418  1.00  0.00     0.011 C 
ENDBRANCH  10  11
ENDBRANCH   9  10
ENDBRANCH   7   9
ENDBRANCH   1   7
BRANCH   6  14
ATOM     14  C   UNL     1      -4.820  -4.158   2.033  1.00  0.00     0.339 C 
ATOM     15  O   UNL     1      -5.451  -3.084   2.233  1.00  0.00    -0.246 OA
BRANCH  14  16
ATOM     16  O   UNL     1      -4.276  -4.874   3.105  1.00  0.00    -0.462 OA
BRANCH  16  17
ATOM     17  C   UNL     1      -4.600  -6.235   3.387  1.00  0.00     0.236 C 
BRANCH  17  18
ATOM     18  C   UNL     1      -3.468  -7.185   2.946  1.00  0.00     0.021 C 
ATOM     19  C   UNL     1      -3.914  -8.080   1.783  1.00  0.00     0.011 C 
ATOM     20  C   UNL     1      -3.000  -8.040   4.129  1.00  0.00     0.011 C 
ENDBRANCH  17  18
ENDBRANCH  16  17
ENDBRANCH  14  16
ENDBRANCH   6  14
TORSDOF 8
ENDMDL
MODEL 8
REMARK VINA RESULT:    -3.310      1.583      3.208
REMARK INTER + INTRA:          -6.420
REMARK INTER:                  -4.434
REMARK INTRA:                  -1.986
REMARK UNBOUND:                -1.563
REMARK SMILES CC(C)COC(=O)c1ccccc1C(=O)OCC(C)C
REMARK SMILES IDX 8 1 9 2 10 3 11 4 12 5 13 6 6 7 7 8 5 9 4 10 2 11 1 12 3 13
REMARK SMILES IDX 14 14 15 15 16 16 17 17 18 18 19 19 20 20
REMARK H PARENT
REMARK Flexibility Score: inf
ROOT
ATOM      1  C   UNL     1      -4.014  -6.467   1.049  1.00  0.00     0.074 A 
ATOM      2  C   UNL     1      -3.295  -7.227   0.107  1.00  0.00     0.016 A 
ATOM      3  C   UNL     1      -2.686  -6.615  -0.990  1.00  0.00     0.001 A 
ATOM      4  C   UNL     1      -2.790  -5.237  -1.168  1.00  0.00     0.001 A 
ATOM      5  C   UNL     1      -3.483  -4.462  -0.238  1.00  0.00     0.016 A 
ATOM      6  C   UNL     1      -4.078  -5.057   0.886  1.00  0.00     0.074 A 
ENDROOT
BRANCH   1   7
ATOM      7  C   UNL     1      -4.749  -7.177   2.126  1.00  0.00     0.339 C 
ATOM      8  O   UNL     1      -4.122  -7.609   3.133  1.00  0.00    -0.246 OA
BRANCH   7   9
ATOM      9  O   UNL     1      -6.124  -7.411   1.998  1.00  0.00    -0.462 OA
BRANCH   9  10
ATOM     10  C   UNL     1      -6.755  -7.850   0.797  1.00  0.00     0.236 C 
BRANCH  10  11
ATOM     11  C   UNL     1      -7.357  -6.659   0.029  1.00  0.00     0.021 C 
ATOM     12  C   UNL     1      -8.886  -6.762   0.003  1.00  0.00     0.011 C 
ATOM     13  C   UNL     1      -6.808  -6.573  -1.401  1.00  0.00     0.011 C 
ENDBRANCH  10  11
ENDBRANCH   9  10
ENDBRANCH   7   9
ENDBRANCH   1   7
BRANCH   6  14
ATOM     14  C   UNL     1      -4.713  -4.174   1.881  1.00  0.00     0.339 C 
ATOM     15  O   UNL     1      -4.013  -3.626   2.775  1.00  0.00    -0.246 OA
BRANCH  14  16
ATOM     16  O   UNL     1      -6.091  -3.937   1.810  1.00  0.00    -0.462 OA
BRANCH  16  17
ATOM     17  C   UNL     1      -6.659  -2.778   1.201  1.00  0.00     0.236 C 
BRANCH  17  18
ATOM     18  C   UNL     1      -6.912  -3.000  -0.304  1.00  0.00     0.021 C 
ATOM     19  C   UNL     1      -6.090  -2.025  -1.156  1.00  0.00     0.011 C 
ATOM     20  C   UNL     1      -8.405  -2.857  -0.619  1.00  0.00     0.011 C 
ENDBRANCH  17  18
ENDBRANCH  16  17
ENDBRANCH  14  16
ENDBRANCH   6  14
TORSDOF 8
ENDMDL
MODEL 9
REMARK VINA RESULT:    -3.216     11.621     13.237
REMARK INTER + INTRA:          -6.282
REMARK INTER:                  -4.708
REMARK INTRA:                  -1.574
REMARK UNBOUND:                -1.563
REMARK SMILES CC(C)COC(=O)c1ccccc1C(=O)OCC(C)C
REMARK SMILES IDX 8 1 9 2 10 3 11 4 12 5 13 6 6 7 7 8 5 9 4 10 2 11 1 12 3 13
REMARK SMILES IDX 14 14 15 15 16 16 17 17 18 18 19 19 20 20
REMARK H PARENT
REMARK Flexibility Score: inf
ROOT
ATOM      1  C   UNL     1       6.592   0.121   3.511  1.00  0.00     0.074 A 
ATOM      2  C   UNL     1       7.313  -0.891   4.172  1.00  0.00     0.016 A 
ATOM      3  C   UNL     1       6.837  -1.447   5.361  1.00  0.00     0.001 A 
ATOM      4  C   UNL     1       5.639  -0.998   5.912  1.00  0.00     0.001 A 
ATOM      5  C   UNL     1       4.899  -0.008   5.266  1.00  0.00     0.016 A 
ATOM      6  C   UNL     1       5.348   0.543   4.054  1.00  0.00     0.074 A 
ENDROOT
BRANCH   1   7
ATOM      7  C   UNL     1       7.200   0.768   2.322  1.00  0.00     0.339 C 
ATOM      8  O   UNL     1       7.864   1.833   2.458  1.00  0.00    -0.246 OA
BRANCH   7   9
ATOM      9  O   UNL     1       6.992   0.225   1.047  1.00  0.00    -0.462 OA
BRANCH   9  10
ATOM     10  C   UNL     1       7.810  -0.788   0.464  1.00  0.00     0.236 C 
BRANCH  10  11
ATOM     11  C   UNL     1       6.995  -2.069   0.212  1.00  0.00     0.021 C 
ATOM     12  C   UNL     1       7.349  -3.138   1.253  1.00  0.00     0.011 C 
ATOM     13  C   UNL     1       7.221  -2.614  -1.204  1.00  0.00     0.011 C 
ENDBRANCH  10  11
ENDBRANCH   9  10
ENDBRANCH   7   9
ENDBRANCH   1   7
BRANCH   6  14
ATOM     14  C   UNL     1       4.476   1.515   3.371  1.00  0.00     0.339 C 
ATOM     15  O   UNL     1       3.845   1.175   2.332  1.00  0.00    -0.246 OA
BRANCH  14  16
ATOM     16  O   UNL     1       4.340   2.805   3.896  1.00  0.00    -0.462 OA
BRANCH  16  17
ATOM     17  C   UNL     1       5.445   3.598   4.327  1.00  0.00     0.236 C 
BRANCH  17  18
ATOM     18  C   UNL     1       5.397   3.850   5.848  1.00  0.00     0.021 C 
ATOM     19  C   UNL     1       6.500   3.072   6.576  1.00  0.00     0.011 C 
ATOM     20  C   UNL     1       4.020   3.473   6.406  1.00  0.00     0.011 C 
ENDBRANCH  17  18
ENDBRANCH  16  17
ENDBRANCH  14  16
ENDBRANCH   6  14
TORSDOF 8
ENDMDL
