MODEL 1
REMARK VINA RESULT:    -5.199      0.000      0.000
REMARK INTER + INTRA:          -8.778
REMARK INTER:                  -7.934
REMARK INTRA:                  -0.843
REMARK UNBOUND:                -0.843
REMARK SMILES O=C([O-])CCCCCCCCC(=O)[O-]
REMARK SMILES IDX 7 1 6 2 5 3 4 4 2 5 1 6 3 7 8 8 9 9 10 10 11 11 12 12 13 13
REMARK SMILES IDX 14 14
REMARK H PARENT
REMARK Flexibility Score: inf
ROOT
ATOM      1  C   UNL     1       6.991  54.301  21.644  1.00  0.00     0.000 C 
ENDROOT
BRANCH   1   2
ATOM      2  C   UNL     1       7.342  55.743  21.248  1.00  0.00     0.000 C 
BRANCH   2   3
ATOM      3  C   UNL     1       6.681  56.122  19.915  1.00  0.00     0.006 C 
BRANCH   3   4
ATOM      4  C   UNL     1       7.570  55.788  18.709  1.00  0.00     0.053 C 
BRANCH   4   5
ATOM      5  C   UNL     1       6.910  54.808  17.788  1.00  0.00     0.041 C 
ATOM      6  O   UNL     1       6.569  53.671  18.209  1.00  0.00    -0.550 OA
ATOM      7  O   UNL     1       6.641  55.163  16.472  1.00  0.00    -0.550 OA
ENDBRANCH   4   5
ENDBRANCH   3   4
ENDBRANCH   2   3
ENDBRANCH   1   2
BRANCH   1   8
ATOM      8  C   UNL     1       8.140  53.316  21.379  1.00  0.00     0.000 C 
BRANCH   8   9
ATOM      9  C   UNL     1       9.522  53.986  21.455  1.00  0.00     0.000 C 
BRANCH   9  10
ATOM     10  C   UNL     1      10.239  53.615  22.758  1.00  0.00     0.006 C 
BRANCH  10  11
ATOM     11  C   UNL     1      10.003  54.675  23.837  1.00  0.00     0.053 C 
BRANCH  11  12
ATOM     12  C   UNL     1       9.292  54.080  25.011  1.00  0.00     0.041 C 
ATOM     13  O   UNL     1       8.189  53.495  24.854  1.00  0.00    -0.550 OA
ATOM     14  O   UNL     1       9.826  54.214  26.287  1.00  0.00    -0.550 OA
ENDBRANCH  11  12
ENDBRANCH  10  11
ENDBRANCH   9  10
ENDBRANCH   8   9
ENDBRANCH   1   8
TORSDOF 9
ENDMDL
MODEL 2
REMARK VINA RESULT:    -5.158      0.222      6.311
REMARK INTER + INTRA:          -8.715
REMARK INTER:                  -7.968
REMARK INTRA:                  -0.746
REMARK UNBOUND:                -0.843
REMARK SMILES O=C([O-])CCCCCCCCC(=O)[O-]
REMARK SMILES IDX 7 1 6 2 5 3 4 4 2 5 1 6 3 7 8 8 9 9 10 10 11 11 12 12 13 13
REMARK SMILES IDX 14 14
REMARK H PARENT
REMARK Flexibility Score: inf
ROOT
ATOM      1  C   UNL     1       7.870  53.480  21.568  1.00  0.00     0.000 C 
ENDROOT
BRANCH   1   2
ATOM      2  C   UNL     1       9.317  53.987  21.491  1.00  0.00     0.000 C 
BRANCH   2   3
ATOM      3  C   UNL     1      10.135  53.498  22.696  1.00  0.00     0.006 C 
BRANCH   3   4
ATOM      4  C   UNL     1      10.140  54.514  23.846  1.00  0.00     0.053 C 
BRANCH   4   5
ATOM      5  C   UNL     1       9.331  54.036  25.013  1.00  0.00     0.041 C 
ATOM      6  O   UNL     1       8.250  53.416  24.825  1.00  0.00    -0.550 OA
ATOM      7  O   UNL     1       9.787  54.246  26.308  1.00  0.00    -0.550 OA
ENDBRANCH   4   5
ENDBRANCH   3   4
ENDBRANCH   2   3
ENDBRANCH   1   2
BRANCH   1   8
ATOM      8  C   UNL     1       6.857  54.613  21.798  1.00  0.00     0.000 C 
BRANCH   8   9
ATOM      9  C   UNL     1       7.361  55.971  21.283  1.00  0.00     0.000 C 
BRANCH   9  10
ATOM     10  C   UNL     1       6.693  56.334  19.951  1.00  0.00     0.006 C 
BRANCH  10  11
ATOM     11  C   UNL     1       7.597  55.976  18.767  1.00  0.00     0.053 C 
BRANCH  11  12
ATOM     12  C   UNL     1       6.936  54.960  17.891  1.00  0.00     0.041 C 
ATOM     13  O   UNL     1       6.725  55.212  16.676  1.00  0.00    -0.550 OA
ATOM     14  O   UNL     1       6.509  53.752  18.429  1.00  0.00    -0.550 OA
ENDBRANCH  11  12
ENDBRANCH  10  11
ENDBRANCH   9  10
ENDBRANCH   8   9
ENDBRANCH   1   8
TORSDOF 9
ENDMDL
MODEL 3
REMARK VINA RESULT:    -5.029      1.171      1.526
REMARK INTER + INTRA:          -8.518
REMARK INTER:                  -7.842
REMARK INTRA:                  -0.676
REMARK UNBOUND:                -0.843
REMARK SMILES O=C([O-])CCCCCCCCC(=O)[O-]
REMARK SMILES IDX 7 1 6 2 5 3 4 4 2 5 1 6 3 7 8 8 9 9 10 10 11 11 12 12 13 13
REMARK SMILES IDX 14 14
REMARK H PARENT
REMARK Flexibility Score: inf
ROOT
ATOM      1  C   UNL     1       8.489  54.726  21.095  1.00  0.00     0.000 C 
ENDROOT
BRANCH   1   2
ATOM      2  C   UNL     1       7.621  55.987  21.208  1.00  0.00     0.000 C 
BRANCH   2   3
ATOM      3  C   UNL     1       6.603  56.059  20.061  1.00  0.00     0.006 C 
BRANCH   3   4
ATOM      4  C   UNL     1       7.278  56.052  18.683  1.00  0.00     0.053 C 
BRANCH   4   5
ATOM      5  C   UNL     1       6.819  54.897  17.846  1.00  0.00     0.041 C 
ATOM      6  O   UNL     1       6.433  53.830  18.393  1.00  0.00    -0.550 OA
ATOM      7  O   UNL     1       6.786  55.010  16.462  1.00  0.00    -0.550 OA
ENDBRANCH   4   5
ENDBRANCH   3   4
ENDBRANCH   2   3
ENDBRANCH   1   2
BRANCH   1   8
ATOM      8  C   UNL     1       7.794  53.475  21.656  1.00  0.00     0.000 C 
BRANCH   8   9
ATOM      9  C   UNL     1       7.179  53.713  23.044  1.00  0.00     0.000 C 
BRANCH   9  10
ATOM     10  C   UNL     1       8.021  53.043  24.137  1.00  0.00     0.006 C 
BRANCH  10  11
ATOM     11  C   UNL     1       8.747  54.087  24.990  1.00  0.00     0.053 C 
BRANCH  11  12
ATOM     12  C   UNL     1      10.216  54.064  24.710  1.00  0.00     0.041 C 
ATOM     13  O   UNL     1      10.639  53.736  23.571  1.00  0.00    -0.550 OA
ATOM     14  O   UNL     1      11.121  54.358  25.723  1.00  0.00    -0.550 OA
ENDBRANCH  11  12
ENDBRANCH  10  11
ENDBRANCH   9  10
ENDBRANCH   8   9
ENDBRANCH   1   8
TORSDOF 9
ENDMDL
MODEL 4
REMARK VINA RESULT:    -4.953      1.874      2.254
REMARK INTER + INTRA:          -8.402
REMARK INTER:                  -7.771
REMARK INTRA:                  -0.631
REMARK UNBOUND:                -0.843
REMARK SMILES O=C([O-])CCCCCCCCC(=O)[O-]
REMARK SMILES IDX 7 1 6 2 5 3 4 4 2 5 1 6 3 7 8 8 9 9 10 10 11 11 12 12 13 13
REMARK SMILES IDX 14 14
REMARK H PARENT
REMARK Flexibility Score: inf
ROOT
ATOM      1  C   UNL     1       7.345  55.006  21.605  1.00  0.00     0.000 C 
ENDROOT
BRANCH   1   2
ATOM      2  C   UNL     1       6.319  56.067  21.178  1.00  0.00     0.000 C 
BRANCH   2   3
ATOM      3  C   UNL     1       6.607  56.567  19.754  1.00  0.00     0.006 C 
BRANCH   3   4
ATOM      4  C   UNL     1       7.624  55.682  19.022  1.00  0.00     0.053 C 
BRANCH   4   5
ATOM      5  C   UNL     1       6.965  54.814  17.993  1.00  0.00     0.041 C 
ATOM      6  O   UNL     1       6.493  53.692  18.318  1.00  0.00    -0.550 OA
ATOM      7  O   UNL     1       6.844  55.258  16.683  1.00  0.00    -0.550 OA
ENDBRANCH   4   5
ENDBRANCH   3   4
ENDBRANCH   2   3
ENDBRANCH   1   2
BRANCH   1   8
ATOM      8  C   UNL     1       6.755  53.967  22.572  1.00  0.00     0.000 C 
BRANCH   8   9
ATOM      9  C   UNL     1       7.770  53.499  23.627  1.00  0.00     0.000 C 
BRANCH   9  10
ATOM     10  C   UNL     1       8.986  54.434  23.669  1.00  0.00     0.006 C 
BRANCH  10  11
ATOM     11  C   UNL     1      10.292  53.644  23.553  1.00  0.00     0.053 C 
BRANCH  11  12
ATOM     12  C   UNL     1      10.313  52.850  22.285  1.00  0.00     0.041 C 
ATOM     13  O   UNL     1      10.332  51.592  22.325  1.00  0.00    -0.550 OA
ATOM     14  O   UNL     1      10.360  53.501  21.059  1.00  0.00    -0.550 OA
ENDBRANCH  11  12
ENDBRANCH  10  11
ENDBRANCH   9  10
ENDBRANCH   8   9
ENDBRANCH   1   8
TORSDOF 9
ENDMDL
MODEL 5
REMARK VINA RESULT:    -4.941      1.892      5.735
REMARK INTER + INTRA:          -8.384
REMARK INTER:                  -7.685
REMARK INTRA:                  -0.699
REMARK UNBOUND:                -0.843
REMARK SMILES O=C([O-])CCCCCCCCC(=O)[O-]
REMARK SMILES IDX 7 1 6 2 5 3 4 4 2 5 1 6 3 7 8 8 9 9 10 10 11 11 12 12 13 13
REMARK SMILES IDX 14 14
REMARK H PARENT
REMARK Flexibility Score: inf
ROOT
ATOM      1  C   UNL     1       6.974  53.866  21.747  1.00  0.00     0.000 C 
ENDROOT
BRANCH   1   2
ATOM      2  C   UNL     1       7.573  53.686  23.149  1.00  0.00     0.000 C 
BRANCH   2   3
ATOM      3  C   UNL     1       8.868  54.496  23.301  1.00  0.00     0.006 C 
BRANCH   3   4
ATOM      4  C   UNL     1      10.109  53.598  23.397  1.00  0.00     0.053 C 
BRANCH   4   5
ATOM      5  C   UNL     1      10.250  52.717  22.192  1.00  0.00     0.041 C 
ATOM      6  O   UNL     1      10.260  51.464  22.320  1.00  0.00    -0.550 OA
ATOM      7  O   UNL     1      10.338  53.280  20.926  1.00  0.00    -0.550 OA
ENDBRANCH   4   5
ENDBRANCH   3   4
ENDBRANCH   2   3
ENDBRANCH   1   2
BRANCH   1   8
ATOM      8  C   UNL     1       6.061  55.099  21.646  1.00  0.00     0.000 C 
BRANCH   8   9
ATOM      9  C   UNL     1       6.687  56.232  20.817  1.00  0.00     0.000 C 
BRANCH   9  10
ATOM     10  C   UNL     1       7.699  55.676  19.808  1.00  0.00     0.006 C 
BRANCH  10  11
ATOM     11  C   UNL     1       7.336  56.091  18.379  1.00  0.00     0.053 C 
BRANCH  11  12
ATOM     12  C   UNL     1       6.886  54.904  17.587  1.00  0.00     0.041 C 
ATOM     13  O   UNL     1       6.581  55.031  16.372  1.00  0.00    -0.550 OA
ATOM     14  O   UNL     1       6.756  53.666  18.204  1.00  0.00    -0.550 OA
ENDBRANCH  11  12
ENDBRANCH  10  11
ENDBRANCH   9  10
ENDBRANCH   8   9
ENDBRANCH   1   8
TORSDOF 9
ENDMDL
MODEL 6
REMARK VINA RESULT:    -4.799      1.996      2.641
REMARK INTER + INTRA:          -8.167
REMARK INTER:                  -7.674
REMARK INTRA:                  -0.493
REMARK UNBOUND:                -0.843
REMARK SMILES O=C([O-])CCCCCCCCC(=O)[O-]
REMARK SMILES IDX 7 1 6 2 5 3 4 4 2 5 1 6 3 7 8 8 9 9 10 10 11 11 12 12 13 13
REMARK SMILES IDX 14 14
REMARK H PARENT
REMARK Flexibility Score: inf
ROOT
ATOM      1  C   UNL     1       8.452  54.189  20.820  1.00  0.00     0.000 C 
ENDROOT
BRANCH   1   2
ATOM      2  C   UNL     1       7.834  54.445  19.439  1.00  0.00     0.000 C 
BRANCH   2   3
ATOM      3  C   UNL     1       7.387  55.909  19.300  1.00  0.00     0.006 C 
BRANCH   3   4
ATOM      4  C   UNL     1       7.104  56.562  20.659  1.00  0.00     0.053 C 
BRANCH   4   5
ATOM      5  C   UNL     1       5.668  56.409  21.059  1.00  0.00     0.041 C 
ATOM      6  O   UNL     1       4.846  57.340  20.843  1.00  0.00    -0.550 OA
ATOM      7  O   UNL     1       5.229  55.227  21.641  1.00  0.00    -0.550 OA
ENDBRANCH   4   5
ENDBRANCH   3   4
ENDBRANCH   2   3
ENDBRANCH   1   2
BRANCH   1   8
ATOM      8  C   UNL     1       9.752  53.372  20.746  1.00  0.00     0.000 C 
BRANCH   8   9
ATOM      9  C   UNL     1      10.451  53.248  22.109  1.00  0.00     0.000 C 
BRANCH   9  10
ATOM     10  C   UNL     1      10.140  54.461  22.996  1.00  0.00     0.006 C 
BRANCH  10  11
ATOM     11  C   UNL     1      10.659  54.248  24.421  1.00  0.00     0.053 C 
BRANCH  11  12
ATOM     12  C   UNL     1       9.523  53.988  25.359  1.00  0.00     0.041 C 
ATOM     13  O   UNL     1       9.658  54.200  26.593  1.00  0.00    -0.550 OA
ATOM     14  O   UNL     1       8.329  53.466  24.877  1.00  0.00    -0.550 OA
ENDBRANCH  11  12
ENDBRANCH  10  11
ENDBRANCH   9  10
ENDBRANCH   8   9
ENDBRANCH   1   8
TORSDOF 9
ENDMDL
MODEL 7
REMARK VINA RESULT:    -4.382      2.188      5.869
REMARK INTER + INTRA:          -7.532
REMARK INTER:                  -7.261
REMARK INTRA:                  -0.270
REMARK UNBOUND:                -0.843
REMARK SMILES O=C([O-])CCCCCCCCC(=O)[O-]
REMARK SMILES IDX 7 1 6 2 5 3 4 4 2 5 1 6 3 7 8 8 9 9 10 10 11 11 12 12 13 13
REMARK SMILES IDX 14 14
REMARK H PARENT
REMARK Flexibility Score: inf
ROOT
ATOM      1  C   UNL     1       8.959  54.190  21.828  1.00  0.00     0.000 C 
ENDROOT
BRANCH   1   2
ATOM      2  C   UNL     1       8.474  52.869  22.444  1.00  0.00     0.000 C 
BRANCH   2   3
ATOM      3  C   UNL     1       8.085  53.061  23.917  1.00  0.00     0.006 C 
BRANCH   3   4
ATOM      4  C   UNL     1       8.562  54.408  24.475  1.00  0.00     0.053 C 
BRANCH   4   5
ATOM      5  C   UNL     1       9.846  54.271  25.235  1.00  0.00     0.041 C 
ATOM      6  O   UNL     1       9.829  54.056  26.476  1.00  0.00    -0.550 OA
ATOM      7  O   UNL     1      11.061  54.349  24.567  1.00  0.00    -0.550 OA
ENDBRANCH   4   5
ENDBRANCH   3   4
ENDBRANCH   2   3
ENDBRANCH   1   2
BRANCH   1   8
ATOM      8  C   UNL     1       8.978  54.157  20.292  1.00  0.00     0.000 C 
BRANCH   8   9
ATOM      9  C   UNL     1       7.575  54.301  19.681  1.00  0.00     0.000 C 
BRANCH   9  10
ATOM     10  C   UNL     1       7.300  55.756  19.280  1.00  0.00     0.006 C 
BRANCH  10  11
ATOM     11  C   UNL     1       7.069  56.632  20.514  1.00  0.00     0.053 C 
BRANCH  11  12
ATOM     12  C   UNL     1       5.696  56.412  21.064  1.00  0.00     0.041 C 
ATOM     13  O   UNL     1       4.805  57.289  20.914  1.00  0.00    -0.550 OA
ATOM     14  O   UNL     1       5.413  55.259  21.785  1.00  0.00    -0.550 OA
ENDBRANCH  11  12
ENDBRANCH  10  11
ENDBRANCH   9  10
ENDBRANCH   8   9
ENDBRANCH   1   8
TORSDOF 9
ENDMDL
MODEL 8
REMARK VINA RESULT:    -4.319      3.582      4.245
REMARK INTER + INTRA:          -7.435
REMARK INTER:                  -7.083
REMARK INTRA:                  -0.353
REMARK UNBOUND:                -0.843
REMARK SMILES O=C([O-])CCCCCCCCC(=O)[O-]
REMARK SMILES IDX 7 1 6 2 5 3 4 4 2 5 1 6 3 7 8 8 9 9 10 10 11 11 12 12 13 13
REMARK SMILES IDX 14 14
REMARK H PARENT
REMARK Flexibility Score: inf
ROOT
ATOM      1  C   UNL     1       5.861  55.470  21.348  1.00  0.00     0.000 C 
ENDROOT
BRANCH   1   2
ATOM      2  C   UNL     1       5.671  56.900  20.820  1.00  0.00     0.000 C 
BRANCH   2   3
ATOM      3  C   UNL     1       4.229  57.380  21.041  1.00  0.00     0.006 C 
BRANCH   3   4
ATOM      4  C   UNL     1       3.896  58.625  20.209  1.00  0.00     0.053 C 
BRANCH   4   5
ATOM      5  C   UNL     1       2.424  58.746  19.955  1.00  0.00     0.041 C 
ATOM      6  O   UNL     1       2.004  59.172  18.847  1.00  0.00    -0.550 OA
ATOM      7  O   UNL     1       1.516  58.357  20.932  1.00  0.00    -0.550 OA
ENDBRANCH   4   5
ENDBRANCH   3   4
ENDBRANCH   2   3
ENDBRANCH   1   2
BRANCH   1   8
ATOM      8  C   UNL     1       6.297  54.486  20.251  1.00  0.00     0.000 C 
BRANCH   8   9
ATOM      9  C   UNL     1       7.803  54.561  19.954  1.00  0.00     0.000 C 
BRANCH   9  10
ATOM     10  C   UNL     1       8.617  54.589  21.255  1.00  0.00     0.006 C 
BRANCH  10  11
ATOM     11  C   UNL     1       9.716  53.522  21.238  1.00  0.00     0.053 C 
BRANCH  11  12
ATOM     12  C   UNL     1       9.426  52.455  22.246  1.00  0.00     0.041 C 
ATOM     13  O   UNL     1       8.488  52.602  23.073  1.00  0.00    -0.550 OA
ATOM     14  O   UNL     1      10.223  51.319  22.302  1.00  0.00    -0.550 OA
ENDBRANCH  11  12
ENDBRANCH  10  11
ENDBRANCH   9  10
ENDBRANCH   8   9
ENDBRANCH   1   8
TORSDOF 9
ENDMDL
MODEL 9
REMARK VINA RESULT:    -4.060      4.295      7.481
REMARK INTER + INTRA:          -7.040
REMARK INTER:                  -6.727
REMARK INTRA:                  -0.313
REMARK UNBOUND:                -0.843
REMARK SMILES O=C([O-])CCCCCCCCC(=O)[O-]
REMARK SMILES IDX 7 1 6 2 5 3 4 4 2 5 1 6 3 7 8 8 9 9 10 10 11 11 12 12 13 13
REMARK SMILES IDX 14 14
REMARK H PARENT
REMARK Flexibility Score: inf
ROOT
ATOM      1  C   UNL     1       5.007  57.013  21.172  1.00  0.00     0.000 C 
ENDROOT
BRANCH   1   2
ATOM      2  C   UNL     1       6.298  56.897  20.349  1.00  0.00     0.000 C 
BRANCH   2   3
ATOM      3  C   UNL     1       7.351  56.064  21.094  1.00  0.00     0.006 C 
BRANCH   3   4
ATOM      4  C   UNL     1       8.077  55.080  20.167  1.00  0.00     0.053 C 
BRANCH   4   5
ATOM      5  C   UNL     1       7.170  54.553  19.097  1.00  0.00     0.041 C 
ATOM      6  O   UNL     1       7.314  54.925  17.903  1.00  0.00    -0.550 OA
ATOM      7  O   UNL     1       6.186  53.626  19.415  1.00  0.00    -0.550 OA
ENDBRANCH   4   5
ENDBRANCH   3   4
ENDBRANCH   2   3
ENDBRANCH   1   2
BRANCH   1   8
ATOM      8  C   UNL     1       3.936  57.869  20.478  1.00  0.00     0.000 C 
BRANCH   8   9
ATOM      9  C   UNL     1       3.155  58.753  21.464  1.00  0.00     0.000 C 
BRANCH   9  10
ATOM     10  C   UNL     1       2.599  59.998  20.761  1.00  0.00     0.006 C 
BRANCH  10  11
ATOM     11  C   UNL     1       3.060  60.058  19.302  1.00  0.00     0.053 C 
BRANCH  11  12
ATOM     12  C   UNL     1       1.888  59.974  18.377  1.00  0.00     0.041 C 
ATOM     13  O   UNL     1       2.035  59.539  17.205  1.00  0.00    -0.550 OA
ATOM     14  O   UNL     1       0.641  60.421  18.795  1.00  0.00    -0.550 OA
ENDBRANCH  11  12
ENDBRANCH  10  11
ENDBRANCH   9  10
ENDBRANCH   8   9
ENDBRANCH   1   8
TORSDOF 9
ENDMDL
