MODEL 1
REMARK VINA RESULT:    -4.535      0.000      0.000
REMARK INTER + INTRA:          -7.196
REMARK INTER:                  -6.922
REMARK INTRA:                  -0.275
REMARK UNBOUND:                -0.275
REMARK SMILES O=C([O-])CCCCCCCCC(=O)[O-]
REMARK SMILES IDX 7 1 6 2 5 3 4 4 2 5 1 6 3 7 8 8 9 9 10 10 11 11 12 12 13 13
REMARK SMILES IDX 14 14
REMARK H PARENT
REMARK Flexibility Score: inf
ROOT
ATOM      1  C   UNL     1      -1.521 -41.323 -18.508  1.00  0.00     0.000 C 
ENDROOT
BRANCH   1   2
ATOM      2  C   UNL     1      -0.445 -41.782 -17.511  1.00  0.00     0.000 C 
BRANCH   2   3
ATOM      3  C   UNL     1      -0.825 -43.084 -16.788  1.00  0.00     0.006 C 
BRANCH   3   4
ATOM      4  C   UNL     1      -1.282 -44.151 -17.787  1.00  0.00     0.053 C 
BRANCH   4   5
ATOM      5  C   UNL     1      -2.168 -45.152 -17.115  1.00  0.00     0.041 C 
ATOM      6  O   UNL     1      -2.354 -45.099 -15.871  1.00  0.00    -0.550 OA
ATOM      7  O   UNL     1      -2.828 -46.114 -17.870  1.00  0.00    -0.550 OA
ENDBRANCH   4   5
ENDBRANCH   3   4
ENDBRANCH   2   3
ENDBRANCH   1   2
BRANCH   1   8
ATOM      8  C   UNL     1      -0.967 -41.128 -19.928  1.00  0.00     0.000 C 
BRANCH   8   9
ATOM      9  C   UNL     1      -1.629 -39.926 -20.614  1.00  0.00     0.000 C 
BRANCH   9  10
ATOM     10  C   UNL     1      -0.638 -39.204 -21.538  1.00  0.00     0.006 C 
BRANCH  10  11
ATOM     11  C   UNL     1      -1.203 -37.883 -22.077  1.00  0.00     0.053 C 
BRANCH  11  12
ATOM     12  C   UNL     1      -0.419 -36.704 -21.590  1.00  0.00     0.041 C 
ATOM     13  O   UNL     1       0.755 -36.509 -22.002  1.00  0.00    -0.550 OA
ATOM     14  O   UNL     1      -0.998 -35.802 -20.706  1.00  0.00    -0.550 OA
ENDBRANCH  11  12
ENDBRANCH  10  11
ENDBRANCH   9  10
ENDBRANCH   8   9
ENDBRANCH   1   8
TORSDOF 9
ENDMDL
MODEL 2
REMARK VINA RESULT:    -4.494     10.689     14.018
REMARK INTER + INTRA:          -7.134
REMARK INTER:                  -6.736
REMARK INTRA:                  -0.398
REMARK UNBOUND:                -0.275
REMARK SMILES O=C([O-])CCCCCCCCC(=O)[O-]
REMARK SMILES IDX 7 1 6 2 5 3 4 4 2 5 1 6 3 7 8 8 9 9 10 10 11 11 12 12 13 13
REMARK SMILES IDX 14 14
REMARK H PARENT
REMARK Flexibility Score: inf
ROOT
ATOM      1  C   UNL     1       7.520 -29.743 -17.250  1.00  0.00     0.000 C 
ENDROOT
BRANCH   1   2
ATOM      2  C   UNL     1       7.664 -28.231 -17.489  1.00  0.00     0.000 C 
BRANCH   2   3
ATOM      3  C   UNL     1       6.353 -27.466 -17.248  1.00  0.00     0.006 C 
BRANCH   3   4
ATOM      4  C   UNL     1       5.838 -27.699 -15.825  1.00  0.00     0.053 C 
BRANCH   4   5
ATOM      5  C   UNL     1       4.425 -28.190 -15.853  1.00  0.00     0.041 C 
ATOM      6  O   UNL     1       3.469 -27.372 -15.807  1.00  0.00    -0.550 OA
ATOM      7  O   UNL     1       4.164 -29.549 -15.979  1.00  0.00    -0.550 OA
ENDBRANCH   4   5
ENDBRANCH   3   4
ENDBRANCH   2   3
ENDBRANCH   1   2
BRANCH   1   8
ATOM      8  C   UNL     1       6.658 -30.432 -18.318  1.00  0.00     0.000 C 
BRANCH   8   9
ATOM      9  C   UNL     1       6.935 -31.940 -18.358  1.00  0.00     0.000 C 
BRANCH   9  10
ATOM     10  C   UNL     1       6.466 -32.552 -19.686  1.00  0.00     0.006 C 
BRANCH  10  11
ATOM     11  C   UNL     1       7.418 -33.644 -20.191  1.00  0.00     0.053 C 
BRANCH  11  12
ATOM     12  C   UNL     1       6.678 -34.753 -20.873  1.00  0.00     0.041 C 
ATOM     13  O   UNL     1       6.713 -35.921 -20.405  1.00  0.00    -0.550 OA
ATOM     14  O   UNL     1       5.922 -34.488 -22.009  1.00  0.00    -0.550 OA
ENDBRANCH  11  12
ENDBRANCH  10  11
ENDBRANCH   9  10
ENDBRANCH   8   9
ENDBRANCH   1   8
TORSDOF 9
ENDMDL
MODEL 3
REMARK VINA RESULT:    -4.423      9.341     13.416
REMARK INTER + INTRA:          -7.025
REMARK INTER:                  -6.715
REMARK INTRA:                  -0.310
REMARK UNBOUND:                -0.275
REMARK SMILES O=C([O-])CCCCCCCCC(=O)[O-]
REMARK SMILES IDX 7 1 6 2 5 3 4 4 2 5 1 6 3 7 8 8 9 9 10 10 11 11 12 12 13 13
REMARK SMILES IDX 14 14
REMARK H PARENT
REMARK Flexibility Score: inf
ROOT
ATOM      1  C   UNL     1       6.970 -31.526 -18.731  1.00  0.00     0.000 C 
ENDROOT
BRANCH   1   2
ATOM      2  C   UNL     1       6.386 -31.719 -17.322  1.00  0.00     0.000 C 
BRANCH   2   3
ATOM      3  C   UNL     1       6.208 -30.392 -16.568  1.00  0.00     0.006 C 
BRANCH   3   4
ATOM      4  C   UNL     1       6.547 -29.201 -17.469  1.00  0.00     0.053 C 
BRANCH   4   5
ATOM      5  C   UNL     1       7.707 -28.437 -16.913  1.00  0.00     0.041 C 
ATOM      6  O   UNL     1       7.950 -28.465 -15.678  1.00  0.00    -0.550 OA
ATOM      7  O   UNL     1       8.550 -27.735 -17.766  1.00  0.00    -0.550 OA
ENDBRANCH   4   5
ENDBRANCH   3   4
ENDBRANCH   2   3
ENDBRANCH   1   2
BRANCH   1   8
ATOM      8  C   UNL     1       6.394 -32.519 -19.751  1.00  0.00     0.000 C 
BRANCH   8   9
ATOM      9  C   UNL     1       7.439 -33.570 -20.145  1.00  0.00     0.000 C 
BRANCH   9  10
ATOM     10  C   UNL     1       6.767 -34.878 -20.585  1.00  0.00     0.006 C 
BRANCH  10  11
ATOM     11  C   UNL     1       6.046 -34.737 -21.931  1.00  0.00     0.053 C 
BRANCH  11  12
ATOM     12  C   UNL     1       5.197 -35.933 -22.234  1.00  0.00     0.041 C 
ATOM     13  O   UNL     1       4.039 -35.787 -22.706  1.00  0.00    -0.550 OA
ATOM     14  O   UNL     1       5.699 -37.212 -22.026  1.00  0.00    -0.550 OA
ENDBRANCH  11  12
ENDBRANCH  10  11
ENDBRANCH   9  10
ENDBRANCH   8   9
ENDBRANCH   1   8
TORSDOF 9
ENDMDL
MODEL 4
REMARK VINA RESULT:    -4.403      1.008      8.057
REMARK INTER + INTRA:          -6.995
REMARK INTER:                  -6.731
REMARK INTRA:                  -0.263
REMARK UNBOUND:                -0.275
REMARK SMILES O=C([O-])CCCCCCCCC(=O)[O-]
REMARK SMILES IDX 7 1 6 2 5 3 4 4 2 5 1 6 3 7 8 8 9 9 10 10 11 11 12 12 13 13
REMARK SMILES IDX 14 14
REMARK H PARENT
REMARK Flexibility Score: inf
ROOT
ATOM      1  C   UNL     1      -1.532 -40.432 -20.147  1.00  0.00     0.000 C 
ENDROOT
BRANCH   1   2
ATOM      2  C   UNL     1      -0.742 -39.768 -21.286  1.00  0.00     0.000 C 
BRANCH   2   3
ATOM      3  C   UNL     1      -1.114 -38.290 -21.482  1.00  0.00     0.006 C 
BRANCH   3   4
ATOM      4  C   UNL     1      -0.602 -37.771 -22.829  1.00  0.00     0.053 C 
BRANCH   4   5
ATOM      5  C   UNL     1       0.775 -37.203 -22.682  1.00  0.00     0.041 C 
ATOM      6  O   UNL     1       1.135 -36.692 -21.590  1.00  0.00    -0.550 OA
ATOM      7  O   UNL     1       1.676 -37.281 -23.737  1.00  0.00    -0.550 OA
ENDBRANCH   4   5
ENDBRANCH   3   4
ENDBRANCH   2   3
ENDBRANCH   1   2
BRANCH   1   8
ATOM      8  C   UNL     1      -0.722 -41.513 -19.417  1.00  0.00     0.000 C 
BRANCH   8   9
ATOM      9  C   UNL     1      -1.488 -42.042 -18.197  1.00  0.00     0.000 C 
BRANCH   9  10
ATOM     10  C   UNL     1      -0.595 -42.946 -17.335  1.00  0.00     0.006 C 
BRANCH  10  11
ATOM     11  C   UNL     1      -0.778 -44.432 -17.669  1.00  0.00     0.053 C 
BRANCH  11  12
ATOM     12  C   UNL     1      -1.994 -45.004 -17.009  1.00  0.00     0.041 C 
ATOM     13  O   UNL     1      -2.150 -44.897 -15.764  1.00  0.00    -0.550 OA
ATOM     14  O   UNL     1      -2.973 -45.625 -17.774  1.00  0.00    -0.550 OA
ENDBRANCH  11  12
ENDBRANCH  10  11
ENDBRANCH   9  10
ENDBRANCH   8   9
ENDBRANCH   1   8
TORSDOF 9
ENDMDL
MODEL 5
REMARK VINA RESULT:    -4.382     10.894     13.223
REMARK INTER + INTRA:          -6.962
REMARK INTER:                  -6.222
REMARK INTRA:                  -0.741
REMARK UNBOUND:                -0.275
REMARK SMILES O=C([O-])CCCCCCCCC(=O)[O-]
REMARK SMILES IDX 7 1 6 2 5 3 4 4 2 5 1 6 3 7 8 8 9 9 10 10 11 11 12 12 13 13
REMARK SMILES IDX 14 14
REMARK H PARENT
REMARK Flexibility Score: inf
ROOT
ATOM      1  C   UNL     1       5.765 -31.757 -17.499  1.00  0.00     0.000 C 
ENDROOT
BRANCH   1   2
ATOM      2  C   UNL     1       6.867 -31.484 -18.535  1.00  0.00     0.000 C 
BRANCH   2   3
ATOM      3  C   UNL     1       7.280 -32.746 -19.308  1.00  0.00     0.006 C 
BRANCH   3   4
ATOM      4  C   UNL     1       6.404 -32.938 -20.550  1.00  0.00     0.053 C 
BRANCH   4   5
ATOM      5  C   UNL     1       6.460 -34.359 -21.016  1.00  0.00     0.041 C 
ATOM      6  O   UNL     1       5.881 -34.699 -22.081  1.00  0.00    -0.550 OA
ATOM      7  O   UNL     1       7.191 -35.298 -20.298  1.00  0.00    -0.550 OA
ENDBRANCH   4   5
ENDBRANCH   3   4
ENDBRANCH   2   3
ENDBRANCH   1   2
BRANCH   1   8
ATOM      8  C   UNL     1       4.636 -30.716 -17.547  1.00  0.00     0.000 C 
BRANCH   8   9
ATOM      9  C   UNL     1       5.096 -29.440 -18.262  1.00  0.00     0.000 C 
BRANCH   9  10
ATOM     10  C   UNL     1       5.109 -28.243 -17.300  1.00  0.00     0.006 C 
BRANCH  10  11
ATOM     11  C   UNL     1       6.438 -27.477 -17.344  1.00  0.00     0.053 C 
BRANCH  11  12
ATOM     12  C   UNL     1       7.566 -28.291 -16.788  1.00  0.00     0.041 C 
ATOM     13  O   UNL     1       7.447 -28.860 -15.671  1.00  0.00    -0.550 OA
ATOM     14  O   UNL     1       8.736 -28.448 -17.520  1.00  0.00    -0.550 OA
ENDBRANCH  11  12
ENDBRANCH  10  11
ENDBRANCH   9  10
ENDBRANCH   8   9
ENDBRANCH   1   8
TORSDOF 9
ENDMDL
MODEL 6
REMARK VINA RESULT:    -4.371     10.185     12.724
REMARK INTER + INTRA:          -6.946
REMARK INTER:                  -6.663
REMARK INTRA:                  -0.283
REMARK UNBOUND:                -0.275
REMARK SMILES O=C([O-])CCCCCCCCC(=O)[O-]
REMARK SMILES IDX 7 1 6 2 5 3 4 4 2 5 1 6 3 7 8 8 9 9 10 10 11 11 12 12 13 13
REMARK SMILES IDX 14 14
REMARK H PARENT
REMARK Flexibility Score: inf
ROOT
ATOM      1  C   UNL     1       6.626 -32.442 -19.751  1.00  0.00     0.000 C 
ENDROOT
BRANCH   1   2
ATOM      2  C   UNL     1       7.502 -33.616 -20.216  1.00  0.00     0.000 C 
BRANCH   2   3
ATOM      3  C   UNL     1       6.682 -34.869 -20.560  1.00  0.00     0.006 C 
BRANCH   3   4
ATOM      4  C   UNL     1       6.052 -34.746 -21.950  1.00  0.00     0.053 C 
BRANCH   4   5
ATOM      5  C   UNL     1       6.247 -36.010 -22.727  1.00  0.00     0.041 C 
ATOM      6  O   UNL     1       6.463 -35.965 -23.967  1.00  0.00    -0.550 OA
ATOM      7  O   UNL     1       6.238 -37.236 -22.074  1.00  0.00    -0.550 OA
ENDBRANCH   4   5
ENDBRANCH   3   4
ENDBRANCH   2   3
ENDBRANCH   1   2
BRANCH   1   8
ATOM      8  C   UNL     1       7.218 -31.704 -18.542  1.00  0.00     0.000 C 
BRANCH   8   9
ATOM      9  C   UNL     1       6.157 -30.832 -17.858  1.00  0.00     0.000 C 
BRANCH   9  10
ATOM     10  C   UNL     1       6.605 -30.422 -16.448  1.00  0.00     0.006 C 
BRANCH  10  11
ATOM     11  C   UNL     1       6.487 -28.910 -16.217  1.00  0.00     0.053 C 
BRANCH  11  12
ATOM     12  C   UNL     1       7.456 -28.143 -17.063  1.00  0.00     0.041 C 
ATOM     13  O   UNL     1       8.649 -28.532 -17.173  1.00  0.00    -0.550 OA
ATOM     14  O   UNL     1       7.033 -27.016 -17.756  1.00  0.00    -0.550 OA
ENDBRANCH  11  12
ENDBRANCH  10  11
ENDBRANCH   9  10
ENDBRANCH   8   9
ENDBRANCH   1   8
TORSDOF 9
ENDMDL
MODEL 7
REMARK VINA RESULT:    -4.275      1.925      7.682
REMARK INTER + INTRA:          -6.799
REMARK INTER:                  -6.411
REMARK INTRA:                  -0.388
REMARK UNBOUND:                -0.275
REMARK SMILES O=C([O-])CCCCCCCCC(=O)[O-]
REMARK SMILES IDX 7 1 6 2 5 3 4 4 2 5 1 6 3 7 8 8 9 9 10 10 11 11 12 12 13 13
REMARK SMILES IDX 14 14
REMARK H PARENT
REMARK Flexibility Score: inf
ROOT
ATOM      1  C   UNL     1      -0.893 -41.113 -19.896  1.00  0.00     0.000 C 
ENDROOT
BRANCH   1   2
ATOM      2  C   UNL     1      -1.535 -39.873 -20.538  1.00  0.00     0.000 C 
BRANCH   2   3
ATOM      3  C   UNL     1      -0.630 -39.216 -21.592  1.00  0.00     0.006 C 
BRANCH   3   4
ATOM      4  C   UNL     1      -1.205 -37.871 -22.046  1.00  0.00     0.053 C 
BRANCH   4   5
ATOM      5  C   UNL     1      -0.385 -36.742 -21.506  1.00  0.00     0.041 C 
ATOM      6  O   UNL     1       0.796 -36.569 -21.907  1.00  0.00    -0.550 OA
ATOM      7  O   UNL     1      -0.940 -35.851 -20.596  1.00  0.00    -0.550 OA
ENDBRANCH   4   5
ENDBRANCH   3   4
ENDBRANCH   2   3
ENDBRANCH   1   2
BRANCH   1   8
ATOM      8  C   UNL     1      -1.599 -41.542 -18.601  1.00  0.00     0.000 C 
BRANCH   8   9
ATOM      9  C   UNL     1      -0.614 -42.211 -17.635  1.00  0.00     0.000 C 
BRANCH   9  10
ATOM     10  C   UNL     1       0.751 -42.429 -18.303  1.00  0.00     0.006 C 
BRANCH  10  11
ATOM     11  C   UNL     1       1.156 -43.909 -18.328  1.00  0.00     0.053 C 
BRANCH  11  12
ATOM     12  C   UNL     1       1.469 -44.422 -16.957  1.00  0.00     0.041 C 
ATOM     13  O   UNL     1       1.042 -45.547 -16.587  1.00  0.00    -0.550 OA
ATOM     14  O   UNL     1       2.261 -43.670 -16.098  1.00  0.00    -0.550 OA
ENDBRANCH  11  12
ENDBRANCH  10  11
ENDBRANCH   9  10
ENDBRANCH   8   9
ENDBRANCH   1   8
TORSDOF 9
ENDMDL
MODEL 8
REMARK VINA RESULT:    -4.211      4.089      5.179
REMARK INTER + INTRA:          -6.702
REMARK INTER:                  -5.743
REMARK INTRA:                  -0.959
REMARK UNBOUND:                -0.275
REMARK SMILES O=C([O-])CCCCCCCCC(=O)[O-]
REMARK SMILES IDX 7 1 6 2 5 3 4 4 2 5 1 6 3 7 8 8 9 9 10 10 11 11 12 12 13 13
REMARK SMILES IDX 14 14
REMARK H PARENT
REMARK Flexibility Score: inf
ROOT
ATOM      1  C   UNL     1       1.815 -45.606 -16.691  1.00  0.00     0.000 C 
ENDROOT
BRANCH   1   2
ATOM      2  C   UNL     1       0.906 -45.268 -15.499  1.00  0.00     0.000 C 
BRANCH   2   3
ATOM      3  C   UNL     1      -0.585 -45.279 -15.869  1.00  0.00     0.006 C 
BRANCH   3   4
ATOM      4  C   UNL     1      -0.783 -45.697 -17.329  1.00  0.00     0.053 C 
BRANCH   4   5
ATOM      5  C   UNL     1      -2.240 -45.823 -17.645  1.00  0.00     0.041 C 
ATOM      6  O   UNL     1      -3.034 -44.890 -17.355  1.00  0.00    -0.550 OA
ATOM      7  O   UNL     1      -2.714 -46.952 -18.303  1.00  0.00    -0.550 OA
ENDBRANCH   4   5
ENDBRANCH   3   4
ENDBRANCH   2   3
ENDBRANCH   1   2
BRANCH   1   8
ATOM      8  C   UNL     1       3.106 -44.774 -16.707  1.00  0.00     0.000 C 
BRANCH   8   9
ATOM      9  C   UNL     1       2.790 -43.274 -16.784  1.00  0.00     0.000 C 
BRANCH   9  10
ATOM     10  C   UNL     1       1.793 -42.978 -17.913  1.00  0.00     0.006 C 
BRANCH  10  11
ATOM     11  C   UNL     1       0.976 -41.707 -17.648  1.00  0.00     0.053 C 
BRANCH  11  12
ATOM     12  C   UNL     1      -0.493 -41.995 -17.583  1.00  0.00     0.041 C 
ATOM     13  O   UNL     1      -1.130 -41.807 -16.514  1.00  0.00    -0.550 OA
ATOM     14  O   UNL     1      -1.164 -42.441 -18.715  1.00  0.00    -0.550 OA
ENDBRANCH  11  12
ENDBRANCH  10  11
ENDBRANCH   9  10
ENDBRANCH   8   9
ENDBRANCH   1   8
TORSDOF 9
ENDMDL
