MODEL 1
REMARK VINA RESULT:    -8.151      0.000      0.000
REMARK INTER + INTRA:         -10.058
REMARK INTER:                  -9.819
REMARK INTRA:                  -0.239
REMARK UNBOUND:                -0.239
REMARK SMILES O=c1c(O)c(-c2ccc(O)c(O)c2)oc2cc(O)cc(O)c12
REMARK SMILES IDX 5 1 3 2 2 3 1 4 22 5 20 6 19 7 17 8 16 9 15 10 14 11 6 12
REMARK SMILES IDX 7 13 8 14 9 15 13 16 11 17 10 18 12 20 4 22 21 24 18 26
REMARK H PARENT 10 19 12 21 4 23 21 25 18 27
REMARK Flexibility Score: inf
ROOT
ATOM      1  C   UNL     1     -30.250 -10.249   1.638  1.00  0.00     0.180 A 
ATOM      2  C   UNL     1     -29.558 -11.256   2.334  1.00  0.00     0.208 A 
ATOM      3  C   UNL     1     -28.195 -11.457   2.065  1.00  0.00     0.238 A 
ATOM      4  O   UNL     1     -27.594 -12.395   2.652  1.00  0.00    -0.285 OA
ATOM      5  C   UNL     1     -27.536 -10.638   1.116  1.00  0.00     0.111 A 
ATOM      6  C   UNL     1     -26.149 -10.726   0.794  1.00  0.00     0.134 A 
ATOM      7  C   UNL     1     -25.632  -9.954  -0.254  1.00  0.00     0.093 A 
ATOM      8  C   UNL     1     -26.440  -9.050  -0.948  1.00  0.00     0.123 A 
ATOM      9  C   UNL     1     -27.782  -8.914  -0.601  1.00  0.00     0.094 A 
ATOM     10  C   UNL     1     -28.335  -9.697   0.415  1.00  0.00     0.146 A 
ATOM     11  O   UNL     1     -29.621  -9.542   0.707  1.00  0.00    -0.452 OA
ENDROOT
BRANCH   1  12
ATOM     12  C   UNL     1     -31.682  -9.962   1.884  1.00  0.00     0.025 A 
ATOM     13  C   UNL     1     -32.689 -10.836   1.444  1.00  0.00     0.016 A 
ATOM     14  C   UNL     1     -34.030 -10.558   1.710  1.00  0.00     0.051 A 
ATOM     15  C   UNL     1     -34.394  -9.414   2.428  1.00  0.00     0.157 A 
ATOM     16  C   UNL     1     -32.042  -8.825   2.625  1.00  0.00     0.062 A 
ATOM     17  C   UNL     1     -33.386  -8.538   2.895  1.00  0.00     0.158 A 
BRANCH  15  18
ATOM     18  O   UNL     1     -35.753  -9.190   2.656  1.00  0.00    -0.504 OA
ATOM     19  H   UNL     1     -36.146  -8.290   2.890  1.00  0.00     0.293 HD
ENDBRANCH  15  18
BRANCH  17  20
ATOM     20  O   UNL     1     -33.671  -7.383   3.627  1.00  0.00    -0.504 OA
ATOM     21  H   UNL     1     -34.438  -7.301   4.277  1.00  0.00     0.293 HD
ENDBRANCH  17  20
ENDBRANCH   1  12
BRANCH   2  22
ATOM     22  O   UNL     1     -30.234 -12.067   3.250  1.00  0.00    -0.502 OA
ATOM     23  H   UNL     1     -29.760 -12.770   3.806  1.00  0.00     0.293 HD
ENDBRANCH   2  22
BRANCH   6  24
ATOM     24  O   UNL     1     -25.237 -11.529   1.486  1.00  0.00    -0.507 OA
ATOM     25  H   UNL     1     -24.437 -11.184   1.994  1.00  0.00     0.293 HD
ENDBRANCH   6  24
BRANCH   8  26
ATOM     26  O   UNL     1     -25.915  -8.274  -1.980  1.00  0.00    -0.508 OA
ATOM     27  H   UNL     1     -26.027  -8.539  -2.951  1.00  0.00     0.293 HD
ENDBRANCH   8  26
TORSDOF 6
ENDMDL
MODEL 2
REMARK VINA RESULT:    -7.948      0.625      1.477
REMARK INTER + INTRA:          -9.814
REMARK INTER:                  -9.547
REMARK INTRA:                  -0.268
REMARK UNBOUND:                -0.239
REMARK SMILES O=c1c(O)c(-c2ccc(O)c(O)c2)oc2cc(O)cc(O)c12
REMARK SMILES IDX 5 1 3 2 2 3 1 4 22 5 20 6 19 7 17 8 16 9 15 10 14 11 6 12
REMARK SMILES IDX 7 13 8 14 9 15 13 16 11 17 10 18 12 20 4 22 21 24 18 26
REMARK H PARENT 10 19 12 21 4 23 21 25 18 27
REMARK Flexibility Score: inf
ROOT
ATOM      1  C   UNL     1     -30.336 -10.295   1.674  1.00  0.00     0.180 A 
ATOM      2  C   UNL     1     -29.689 -11.369   2.311  1.00  0.00     0.208 A 
ATOM      3  C   UNL     1     -28.337 -11.616   2.025  1.00  0.00     0.238 A 
ATOM      4  O   UNL     1     -27.779 -12.611   2.558  1.00  0.00    -0.285 OA
ATOM      5  C   UNL     1     -27.643 -10.776   1.121  1.00  0.00     0.111 A 
ATOM      6  C   UNL     1     -26.262 -10.909   0.788  1.00  0.00     0.134 A 
ATOM      7  C   UNL     1     -25.713 -10.105  -0.217  1.00  0.00     0.093 A 
ATOM      8  C   UNL     1     -26.479  -9.128  -0.858  1.00  0.00     0.123 A 
ATOM      9  C   UNL     1     -27.814  -8.951  -0.498  1.00  0.00     0.094 A 
ATOM     10  C   UNL     1     -28.400  -9.763   0.476  1.00  0.00     0.146 A 
ATOM     11  O   UNL     1     -29.677  -9.567   0.780  1.00  0.00    -0.452 OA
ENDROOT
BRANCH   1  12
ATOM     12  C   UNL     1     -31.753  -9.958   1.941  1.00  0.00     0.025 A 
ATOM     13  C   UNL     1     -32.105  -8.848   2.726  1.00  0.00     0.016 A 
ATOM     14  C   UNL     1     -33.447  -8.536   2.944  1.00  0.00     0.051 A 
ATOM     15  C   UNL     1     -34.463  -9.312   2.377  1.00  0.00     0.157 A 
ATOM     16  C   UNL     1     -32.770 -10.726   1.352  1.00  0.00     0.062 A 
ATOM     17  C   UNL     1     -34.119 -10.420   1.566  1.00  0.00     0.158 A 
BRANCH  15  18
ATOM     18  O   UNL     1     -35.786  -8.949   2.637  1.00  0.00    -0.504 OA
ATOM     19  H   UNL     1     -36.244  -9.085   3.526  1.00  0.00     0.293 HD
ENDBRANCH  15  18
BRANCH  17  20
ATOM     20  O   UNL     1     -35.077 -11.235   0.958  1.00  0.00    -0.504 OA
ATOM     21  H   UNL     1     -35.660 -11.890   1.458  1.00  0.00     0.293 HD
ENDBRANCH  17  20
ENDBRANCH   1  12
BRANCH   2  22
ATOM     22  O   UNL     1     -30.399 -12.198   3.184  1.00  0.00    -0.502 OA
ATOM     23  H   UNL     1     -30.149 -12.300   4.161  1.00  0.00     0.293 HD
ENDBRANCH   2  22
BRANCH   6  24
ATOM     24  O   UNL     1     -25.386 -11.789   1.432  1.00  0.00    -0.507 OA
ATOM     25  H   UNL     1     -24.643 -12.297   0.976  1.00  0.00     0.293 HD
ENDBRANCH   6  24
BRANCH   8  26
ATOM     26  O   UNL     1     -25.921  -8.321  -1.847  1.00  0.00    -0.508 OA
ATOM     27  H   UNL     1     -25.077  -7.785  -1.680  1.00  0.00     0.293 HD
ENDBRANCH   8  26
TORSDOF 6
ENDMDL
MODEL 3
REMARK VINA RESULT:    -7.845      1.731      6.909
REMARK INTER + INTRA:          -9.690
REMARK INTER:                  -9.425
REMARK INTRA:                  -0.265
REMARK UNBOUND:                -0.239
REMARK SMILES O=c1c(O)c(-c2ccc(O)c(O)c2)oc2cc(O)cc(O)c12
REMARK SMILES IDX 5 1 3 2 2 3 1 4 22 5 20 6 19 7 17 8 16 9 15 10 14 11 6 12
REMARK SMILES IDX 7 13 8 14 9 15 13 16 11 17 10 18 12 20 4 22 21 24 18 26
REMARK H PARENT 10 19 12 21 4 23 21 25 18 27
REMARK Flexibility Score: inf
ROOT
ATOM      1  C   UNL     1     -28.797 -10.824   1.760  1.00  0.00     0.180 A 
ATOM      2  C   UNL     1     -29.448 -11.948   1.222  1.00  0.00     0.208 A 
ATOM      3  C   UNL     1     -30.851 -11.965   1.174  1.00  0.00     0.238 A 
ATOM      4  O   UNL     1     -31.429 -12.996   0.741  1.00  0.00    -0.285 OA
ATOM      5  C   UNL     1     -31.586 -10.852   1.650  1.00  0.00     0.111 A 
ATOM      6  C   UNL     1     -33.008 -10.744   1.614  1.00  0.00     0.134 A 
ATOM      7  C   UNL     1     -33.634  -9.655   2.232  1.00  0.00     0.093 A 
ATOM      8  C   UNL     1     -32.886  -8.636   2.827  1.00  0.00     0.123 A 
ATOM      9  C   UNL     1     -31.495  -8.703   2.815  1.00  0.00     0.094 A 
ATOM     10  C   UNL     1     -30.842  -9.796   2.240  1.00  0.00     0.146 A 
ATOM     11  O   UNL     1     -29.515  -9.824   2.259  1.00  0.00    -0.452 OA
ENDROOT
BRANCH   1  12
ATOM     12  C   UNL     1     -27.321 -10.723   1.822  1.00  0.00     0.025 A 
ATOM     13  C   UNL     1     -26.623 -10.937   3.021  1.00  0.00     0.016 A 
ATOM     14  C   UNL     1     -25.230 -10.861   3.050  1.00  0.00     0.051 A 
ATOM     15  C   UNL     1     -24.505 -10.583   1.885  1.00  0.00     0.157 A 
ATOM     16  C   UNL     1     -26.596 -10.467   0.647  1.00  0.00     0.062 A 
ATOM     17  C   UNL     1     -25.198 -10.388   0.667  1.00  0.00     0.158 A 
BRANCH  15  18
ATOM     18  O   UNL     1     -23.114 -10.516   1.982  1.00  0.00    -0.504 OA
ATOM     19  H   UNL     1     -22.622 -10.044   2.726  1.00  0.00     0.293 HD
ENDBRANCH  15  18
BRANCH  17  20
ATOM     20  O   UNL     1     -24.543 -10.118  -0.537  1.00  0.00    -0.504 OA
ATOM     21  H   UNL     1     -25.005 -10.072  -1.433  1.00  0.00     0.293 HD
ENDBRANCH  17  20
ENDBRANCH   1  12
BRANCH   2  22
ATOM     22  O   UNL     1     -28.704 -13.045   0.778  1.00  0.00    -0.502 OA
ATOM     23  H   UNL     1     -27.721 -12.974   0.538  1.00  0.00     0.293 HD
ENDBRANCH   2  22
BRANCH   6  24
ATOM     24  O   UNL     1     -33.843 -11.658   0.965  1.00  0.00    -0.507 OA
ATOM     25  H   UNL     1     -33.535 -12.525   0.550  1.00  0.00     0.293 HD
ENDBRANCH   6  24
BRANCH   8  26
ATOM     26  O   UNL     1     -33.517  -7.548   3.427  1.00  0.00    -0.508 OA
ATOM     27  H   UNL     1     -34.465  -7.613   3.778  1.00  0.00     0.293 HD
ENDBRANCH   8  26
TORSDOF 6
ENDMDL
MODEL 4
REMARK VINA RESULT:    -7.837      4.615      5.997
REMARK INTER + INTRA:          -9.680
REMARK INTER:                  -9.438
REMARK INTRA:                  -0.241
REMARK UNBOUND:                -0.239
REMARK SMILES O=c1c(O)c(-c2ccc(O)c(O)c2)oc2cc(O)cc(O)c12
REMARK SMILES IDX 5 1 3 2 2 3 1 4 22 5 20 6 19 7 17 8 16 9 15 10 14 11 6 12
REMARK SMILES IDX 7 13 8 14 9 15 13 16 11 17 10 18 12 20 4 22 21 24 18 26
REMARK H PARENT 10 19 12 21 4 23 21 25 18 27
REMARK Flexibility Score: inf
ROOT
ATOM      1  C   UNL     1     -27.679 -13.757   1.783  1.00  0.00     0.180 A 
ATOM      2  C   UNL     1     -27.005 -12.567   2.106  1.00  0.00     0.208 A 
ATOM      3  C   UNL     1     -26.416 -11.816   1.076  1.00  0.00     0.238 A 
ATOM      4  O   UNL     1     -25.769 -10.779   1.378  1.00  0.00    -0.285 OA
ATOM      5  C   UNL     1     -26.522 -12.256  -0.265  1.00  0.00     0.111 A 
ATOM      6  C   UNL     1     -25.998 -11.554  -1.393  1.00  0.00     0.134 A 
ATOM      7  C   UNL     1     -26.047 -12.148  -2.659  1.00  0.00     0.093 A 
ATOM      8  C   UNL     1     -26.659 -13.389  -2.851  1.00  0.00     0.123 A 
ATOM      9  C   UNL     1     -27.226 -14.055  -1.766  1.00  0.00     0.094 A 
ATOM     10  C   UNL     1     -27.160 -13.505  -0.483  1.00  0.00     0.146 A 
ATOM     11  O   UNL     1     -27.704 -14.178   0.523  1.00  0.00    -0.452 OA
ENDROOT
BRANCH   1  12
ATOM     12  C   UNL     1     -28.345 -14.590   2.811  1.00  0.00     0.025 A 
ATOM     13  C   UNL     1     -29.511 -14.154   3.461  1.00  0.00     0.016 A 
ATOM     14  C   UNL     1     -30.136 -14.966   4.408  1.00  0.00     0.051 A 
ATOM     15  C   UNL     1     -29.621 -16.230   4.717  1.00  0.00     0.157 A 
ATOM     16  C   UNL     1     -27.839 -15.866   3.101  1.00  0.00     0.062 A 
ATOM     17  C   UNL     1     -28.459 -16.688   4.051  1.00  0.00     0.158 A 
BRANCH  15  18
ATOM     18  O   UNL     1     -30.290 -16.991   5.677  1.00  0.00    -0.504 OA
ATOM     19  H   UNL     1     -30.614 -16.628   6.561  1.00  0.00     0.293 HD
ENDBRANCH  15  18
BRANCH  17  20
ATOM     20  O   UNL     1     -27.893 -17.941   4.298  1.00  0.00    -0.504 OA
ATOM     21  H   UNL     1     -27.414 -18.185   5.153  1.00  0.00     0.293 HD
ENDBRANCH  17  20
ENDBRANCH   1  12
BRANCH   2  22
ATOM     22  O   UNL     1     -26.895 -12.162   3.440  1.00  0.00    -0.502 OA
ATOM     23  H   UNL     1     -27.636 -11.665   3.920  1.00  0.00     0.293 HD
ENDBRANCH   2  22
BRANCH   6  24
ATOM     24  O   UNL     1     -25.450 -10.270  -1.325  1.00  0.00    -0.507 OA
ATOM     25  H   UNL     1     -25.987  -9.416  -1.292  1.00  0.00     0.293 HD
ENDBRANCH   6  24
BRANCH   8  26
ATOM     26  O   UNL     1     -26.717 -13.966  -4.117  1.00  0.00    -0.508 OA
ATOM     27  H   UNL     1     -25.992 -13.803  -4.807  1.00  0.00     0.293 HD
ENDBRANCH   8  26
TORSDOF 6
ENDMDL
MODEL 5
REMARK VINA RESULT:    -7.823      3.375      7.181
REMARK INTER + INTRA:          -9.663
REMARK INTER:                  -9.341
REMARK INTRA:                  -0.322
REMARK UNBOUND:                -0.239
REMARK SMILES O=c1c(O)c(-c2ccc(O)c(O)c2)oc2cc(O)cc(O)c12
REMARK SMILES IDX 5 1 3 2 2 3 1 4 22 5 20 6 19 7 17 8 16 9 15 10 14 11 6 12
REMARK SMILES IDX 7 13 8 14 9 15 13 16 11 17 10 18 12 20 4 22 21 24 18 26
REMARK H PARENT 10 19 12 21 4 23 21 25 18 27
REMARK Flexibility Score: inf
ROOT
ATOM      1  C   UNL     1     -29.360 -13.476   2.301  1.00  0.00     0.180 A 
ATOM      2  C   UNL     1     -28.705 -12.330   2.787  1.00  0.00     0.208 A 
ATOM      3  C   UNL     1     -29.412 -11.119   2.857  1.00  0.00     0.238 A 
ATOM      4  O   UNL     1     -28.805 -10.086   3.242  1.00  0.00    -0.285 OA
ATOM      5  C   UNL     1     -30.769 -11.072   2.456  1.00  0.00     0.111 A 
ATOM      6  C   UNL     1     -31.594  -9.909   2.522  1.00  0.00     0.134 A 
ATOM      7  C   UNL     1     -32.883  -9.945   1.977  1.00  0.00     0.093 A 
ATOM      8  C   UNL     1     -33.400 -11.120   1.426  1.00  0.00     0.123 A 
ATOM      9  C   UNL     1     -32.624 -12.277   1.411  1.00  0.00     0.094 A 
ATOM     10  C   UNL     1     -31.321 -12.263   1.914  1.00  0.00     0.146 A 
ATOM     11  O   UNL     1     -30.613 -13.385   1.871  1.00  0.00    -0.452 OA
ENDROOT
BRANCH   1  12
ATOM     12  C   UNL     1     -28.687 -14.793   2.221  1.00  0.00     0.025 A 
ATOM     13  C   UNL     1     -28.009 -15.197   1.060  1.00  0.00     0.016 A 
ATOM     14  C   UNL     1     -27.361 -16.433   1.015  1.00  0.00     0.051 A 
ATOM     15  C   UNL     1     -27.365 -17.282   2.127  1.00  0.00     0.157 A 
ATOM     16  C   UNL     1     -28.674 -15.633   3.345  1.00  0.00     0.062 A 
ATOM     17  C   UNL     1     -28.027 -16.874   3.310  1.00  0.00     0.158 A 
BRANCH  15  18
ATOM     18  O   UNL     1     -26.703 -18.506   2.017  1.00  0.00    -0.504 OA
ATOM     19  H   UNL     1     -27.162 -19.379   1.802  1.00  0.00     0.293 HD
ENDBRANCH  15  18
BRANCH  17  20
ATOM     20  O   UNL     1     -28.066 -17.663   4.462  1.00  0.00    -0.504 OA
ATOM     21  H   UNL     1     -27.248 -17.930   4.990  1.00  0.00     0.293 HD
ENDBRANCH  17  20
ENDBRANCH   1  12
BRANCH   2  22
ATOM     22  O   UNL     1     -27.358 -12.395   3.157  1.00  0.00    -0.502 OA
ATOM     23  H   UNL     1     -26.662 -11.758   2.787  1.00  0.00     0.293 HD
ENDBRANCH   2  22
BRANCH   6  24
ATOM     24  O   UNL     1     -31.207  -8.713   3.133  1.00  0.00    -0.507 OA
ATOM     25  H   UNL     1     -30.574  -8.039   2.730  1.00  0.00     0.293 HD
ENDBRANCH   6  24
BRANCH   8  26
ATOM     26  O   UNL     1     -34.690 -11.151   0.899  1.00  0.00    -0.508 OA
ATOM     27  H   UNL     1     -35.101 -12.011   0.555  1.00  0.00     0.293 HD
ENDBRANCH   8  26
TORSDOF 6
ENDMDL
MODEL 6
REMARK VINA RESULT:    -7.803      3.014      5.343
REMARK INTER + INTRA:          -9.639
REMARK INTER:                  -9.402
REMARK INTRA:                  -0.237
REMARK UNBOUND:                -0.239
REMARK SMILES O=c1c(O)c(-c2ccc(O)c(O)c2)oc2cc(O)cc(O)c12
REMARK SMILES IDX 5 1 3 2 2 3 1 4 22 5 20 6 19 7 17 8 16 9 15 10 14 11 6 12
REMARK SMILES IDX 7 13 8 14 9 15 13 16 11 17 10 18 12 20 4 22 21 24 18 26
REMARK H PARENT 10 19 12 21 4 23 21 25 18 27
REMARK Flexibility Score: inf
ROOT
ATOM      1  C   UNL     1     -31.251 -12.329   2.570  1.00  0.00     0.180 A 
ATOM      2  C   UNL     1     -30.045 -12.316   1.847  1.00  0.00     0.208 A 
ATOM      3  C   UNL     1     -29.095 -13.321   2.089  1.00  0.00     0.238 A 
ATOM      4  O   UNL     1     -27.995 -13.273   1.477  1.00  0.00    -0.285 OA
ATOM      5  C   UNL     1     -29.368 -14.335   3.038  1.00  0.00     0.111 A 
ATOM      6  C   UNL     1     -28.494 -15.424   3.335  1.00  0.00     0.134 A 
ATOM      7  C   UNL     1     -28.808 -16.295   4.384  1.00  0.00     0.093 A 
ATOM      8  C   UNL     1     -29.996 -16.155   5.107  1.00  0.00     0.123 A 
ATOM      9  C   UNL     1     -30.883 -15.130   4.785  1.00  0.00     0.094 A 
ATOM     10  C   UNL     1     -30.581 -14.223   3.767  1.00  0.00     0.146 A 
ATOM     11  O   UNL     1     -31.449 -13.255   3.501  1.00  0.00    -0.452 OA
ENDROOT
BRANCH   1  12
ATOM     12  C   UNL     1     -32.311 -11.318   2.354  1.00  0.00     0.025 A 
ATOM     13  C   UNL     1     -32.157  -9.993   2.792  1.00  0.00     0.016 A 
ATOM     14  C   UNL     1     -33.159  -9.051   2.555  1.00  0.00     0.051 A 
ATOM     15  C   UNL     1     -34.325  -9.405   1.867  1.00  0.00     0.157 A 
ATOM     16  C   UNL     1     -33.469 -11.671   1.644  1.00  0.00     0.062 A 
ATOM     17  C   UNL     1     -34.480 -10.732   1.401  1.00  0.00     0.158 A 
BRANCH  15  18
ATOM     18  O   UNL     1     -35.291  -8.417   1.666  1.00  0.00    -0.504 OA
ATOM     19  H   UNL     1     -35.106  -7.427   1.726  1.00  0.00     0.293 HD
ENDBRANCH  15  18
BRANCH  17  20
ATOM     20  O   UNL     1     -35.609 -11.158   0.699  1.00  0.00    -0.504 OA
ATOM     21  H   UNL     1     -36.204 -11.918   0.994  1.00  0.00     0.293 HD
ENDBRANCH  17  20
ENDBRANCH   1  12
BRANCH   2  22
ATOM     22  O   UNL     1     -29.787 -11.293   0.930  1.00  0.00    -0.502 OA
ATOM     23  H   UNL     1     -30.507 -10.654   0.612  1.00  0.00     0.293 HD
ENDBRANCH   2  22
BRANCH   6  24
ATOM     24  O   UNL     1     -27.330 -15.708   2.614  1.00  0.00    -0.507 OA
ATOM     25  H   UNL     1     -27.219 -16.489   1.986  1.00  0.00     0.293 HD
ENDBRANCH   6  24
BRANCH   8  26
ATOM     26  O   UNL     1     -30.308 -17.035   6.140  1.00  0.00    -0.508 OA
ATOM     27  H   UNL     1     -29.964 -17.989   6.146  1.00  0.00     0.293 HD
ENDBRANCH   8  26
TORSDOF 6
ENDMDL
MODEL 7
REMARK VINA RESULT:    -7.794      2.904      5.038
REMARK INTER + INTRA:          -9.628
REMARK INTER:                  -9.347
REMARK INTRA:                  -0.281
REMARK UNBOUND:                -0.239
REMARK SMILES O=c1c(O)c(-c2ccc(O)c(O)c2)oc2cc(O)cc(O)c12
REMARK SMILES IDX 5 1 3 2 2 3 1 4 22 5 20 6 19 7 17 8 16 9 15 10 14 11 6 12
REMARK SMILES IDX 7 13 8 14 9 15 13 16 11 17 10 18 12 20 4 22 21 24 18 26
REMARK H PARENT 10 19 12 21 4 23 21 25 18 27
REMARK Flexibility Score: inf
ROOT
ATOM      1  C   UNL     1     -31.399 -12.198   2.500  1.00  0.00     0.180 A 
ATOM      2  C   UNL     1     -30.199 -12.149   1.769  1.00  0.00     0.208 A 
ATOM      3  C   UNL     1     -29.219 -13.128   2.002  1.00  0.00     0.238 A 
ATOM      4  O   UNL     1     -28.125 -13.047   1.383  1.00  0.00    -0.285 OA
ATOM      5  C   UNL     1     -29.458 -14.152   2.949  1.00  0.00     0.111 A 
ATOM      6  C   UNL     1     -28.553 -15.218   3.237  1.00  0.00     0.134 A 
ATOM      7  C   UNL     1     -28.836 -16.100   4.286  1.00  0.00     0.093 A 
ATOM      8  C   UNL     1     -30.023 -15.995   5.016  1.00  0.00     0.123 A 
ATOM      9  C   UNL     1     -30.940 -14.994   4.703  1.00  0.00     0.094 A 
ATOM     10  C   UNL     1     -30.669 -14.076   3.686  1.00  0.00     0.146 A 
ATOM     11  O   UNL     1     -31.566 -13.132   3.429  1.00  0.00    -0.452 OA
ENDROOT
BRANCH   1  12
ATOM     12  C   UNL     1     -32.488 -11.215   2.293  1.00  0.00     0.025 A 
ATOM     13  C   UNL     1     -33.645 -11.548   1.571  1.00  0.00     0.016 A 
ATOM     14  C   UNL     1     -34.669 -10.614   1.410  1.00  0.00     0.051 A 
ATOM     15  C   UNL     1     -34.567  -9.337   1.974  1.00  0.00     0.157 A 
ATOM     16  C   UNL     1     -32.392  -9.943   2.879  1.00  0.00     0.062 A 
ATOM     17  C   UNL     1     -33.414  -8.999   2.722  1.00  0.00     0.158 A 
BRANCH  15  18
ATOM     18  O   UNL     1     -35.624  -8.448   1.772  1.00  0.00    -0.504 OA
ATOM     19  H   UNL     1     -35.941  -8.144   0.863  1.00  0.00     0.293 HD
ENDBRANCH  15  18
BRANCH  17  20
ATOM     20  O   UNL     1     -33.246  -7.750   3.323  1.00  0.00    -0.504 OA
ATOM     21  H   UNL     1     -32.468  -7.134   3.136  1.00  0.00     0.293 HD
ENDBRANCH  17  20
ENDBRANCH   1  12
BRANCH   2  22
ATOM     22  O   UNL     1     -29.975 -11.116   0.854  1.00  0.00    -0.502 OA
ATOM     23  H   UNL     1     -29.278 -10.395   1.007  1.00  0.00     0.293 HD
ENDBRANCH   2  22
BRANCH   6  24
ATOM     24  O   UNL     1     -27.386 -15.467   2.509  1.00  0.00    -0.507 OA
ATOM     25  H   UNL     1     -27.281 -15.307   1.518  1.00  0.00     0.293 HD
ENDBRANCH   6  24
BRANCH   8  26
ATOM     26  O   UNL     1     -30.304 -16.887   6.049  1.00  0.00    -0.508 OA
ATOM     27  H   UNL     1     -31.232 -16.957   6.450  1.00  0.00     0.293 HD
ENDBRANCH   8  26
TORSDOF 6
ENDMDL
MODEL 8
REMARK VINA RESULT:    -7.600      3.038      5.780
REMARK INTER + INTRA:          -9.394
REMARK INTER:                  -9.699
REMARK INTRA:                   0.305
REMARK UNBOUND:                -0.239
REMARK SMILES O=c1c(O)c(-c2ccc(O)c(O)c2)oc2cc(O)cc(O)c12
REMARK SMILES IDX 5 1 3 2 2 3 1 4 22 5 20 6 19 7 17 8 16 9 15 10 14 11 6 12
REMARK SMILES IDX 7 13 8 14 9 15 13 16 11 17 10 18 12 20 4 22 21 24 18 26
REMARK H PARENT 10 19 12 21 4 23 21 25 18 27
REMARK Flexibility Score: inf
ROOT
ATOM      1  C   UNL     1     -28.106  -8.244  -0.404  1.00  0.00     0.180 A 
ATOM      2  C   UNL     1     -26.966  -8.857  -0.953  1.00  0.00     0.208 A 
ATOM      3  C   UNL     1     -26.616 -10.149  -0.528  1.00  0.00     0.238 A 
ATOM      4  O   UNL     1     -25.565 -10.671  -0.984  1.00  0.00    -0.285 OA
ATOM      5  C   UNL     1     -27.418 -10.818   0.428  1.00  0.00     0.111 A 
ATOM      6  C   UNL     1     -27.180 -12.143   0.901  1.00  0.00     0.134 A 
ATOM      7  C   UNL     1     -27.962 -12.655   1.943  1.00  0.00     0.093 A 
ATOM      8  C   UNL     1     -29.014 -11.914   2.486  1.00  0.00     0.123 A 
ATOM      9  C   UNL     1     -29.292 -10.642   1.990  1.00  0.00     0.094 A 
ATOM     10  C   UNL     1     -28.506 -10.090   0.975  1.00  0.00     0.146 A 
ATOM     11  O   UNL     1     -28.800  -8.871   0.540  1.00  0.00    -0.452 OA
ENDROOT
BRANCH   1  12
ATOM     12  C   UNL     1     -28.552  -6.894  -0.819  1.00  0.00     0.025 A 
ATOM     13  C   UNL     1     -29.178  -6.021   0.084  1.00  0.00     0.016 A 
ATOM     14  C   UNL     1     -29.567  -4.745  -0.323  1.00  0.00     0.051 A 
ATOM     15  C   UNL     1     -29.330  -4.308  -1.632  1.00  0.00     0.157 A 
ATOM     16  C   UNL     1     -28.292  -6.452  -2.126  1.00  0.00     0.062 A 
ATOM     17  C   UNL     1     -28.679  -5.173  -2.544  1.00  0.00     0.158 A 
BRANCH  15  18
ATOM     18  O   UNL     1     -29.748  -3.022  -1.977  1.00  0.00    -0.504 OA
ATOM     19  H   UNL     1     -30.670  -2.658  -1.789  1.00  0.00     0.293 HD
ENDBRANCH  15  18
BRANCH  17  20
ATOM     20  O   UNL     1     -28.399  -4.805  -3.862  1.00  0.00    -0.504 OA
ATOM     21  H   UNL     1     -28.346  -5.456  -4.631  1.00  0.00     0.293 HD
ENDBRANCH  17  20
ENDBRANCH   1  12
BRANCH   2  22
ATOM     22  O   UNL     1     -26.177  -8.170  -1.880  1.00  0.00    -0.502 OA
ATOM     23  H   UNL     1     -25.644  -7.343  -1.633  1.00  0.00     0.293 HD
ENDBRANCH   2  22
BRANCH   6  24
ATOM     24  O   UNL     1     -26.215 -13.001   0.365  1.00  0.00    -0.507 OA
ATOM     25  H   UNL     1     -25.224 -12.935   0.543  1.00  0.00     0.293 HD
ENDBRANCH   6  24
BRANCH   8  26
ATOM     26  O   UNL     1     -29.797 -12.437   3.512  1.00  0.00    -0.508 OA
ATOM     27  H   UNL     1     -30.776 -12.192   3.610  1.00  0.00     0.293 HD
ENDBRANCH   8  26
TORSDOF 6
ENDMDL
MODEL 9
REMARK VINA RESULT:    -7.535      3.325      5.971
REMARK INTER + INTRA:          -9.316
REMARK INTER:                  -9.039
REMARK INTRA:                  -0.277
REMARK UNBOUND:                -0.239
REMARK SMILES O=c1c(O)c(-c2ccc(O)c(O)c2)oc2cc(O)cc(O)c12
REMARK SMILES IDX 5 1 3 2 2 3 1 4 22 5 20 6 19 7 17 8 16 9 15 10 14 11 6 12
REMARK SMILES IDX 7 13 8 14 9 15 13 16 11 17 10 18 12 20 4 22 21 24 18 26
REMARK H PARENT 10 19 12 21 4 23 21 25 18 27
REMARK Flexibility Score: inf
ROOT
ATOM      1  C   UNL     1     -27.451 -12.422   3.271  1.00  0.00     0.180 A 
ATOM      2  C   UNL     1     -28.639 -11.899   2.732  1.00  0.00     0.208 A 
ATOM      3  C   UNL     1     -28.564 -11.041   1.623  1.00  0.00     0.238 A 
ATOM      4  O   UNL     1     -29.628 -10.534   1.178  1.00  0.00    -0.285 OA
ATOM      5  C   UNL     1     -27.305 -10.729   1.057  1.00  0.00     0.111 A 
ATOM      6  C   UNL     1     -27.113  -9.903  -0.091  1.00  0.00     0.134 A 
ATOM      7  C   UNL     1     -25.816  -9.557  -0.484  1.00  0.00     0.093 A 
ATOM      8  C   UNL     1     -24.700 -10.059   0.190  1.00  0.00     0.123 A 
ATOM      9  C   UNL     1     -24.876 -10.914   1.276  1.00  0.00     0.094 A 
ATOM     10  C   UNL     1     -26.159 -11.249   1.715  1.00  0.00     0.146 A 
ATOM     11  O   UNL     1     -26.281 -12.059   2.760  1.00  0.00    -0.452 OA
ENDROOT
BRANCH   1  12
ATOM     12  C   UNL     1     -27.451 -13.352   4.424  1.00  0.00     0.025 A 
ATOM     13  C   UNL     1     -27.145 -12.909   5.720  1.00  0.00     0.016 A 
ATOM     14  C   UNL     1     -27.176 -13.798   6.795  1.00  0.00     0.051 A 
ATOM     15  C   UNL     1     -27.524 -15.140   6.604  1.00  0.00     0.157 A 
ATOM     16  C   UNL     1     -27.823 -14.692   4.231  1.00  0.00     0.062 A 
ATOM     17  C   UNL     1     -27.856 -15.592   5.304  1.00  0.00     0.158 A 
BRANCH  15  18
ATOM     18  O   UNL     1     -27.531 -15.979   7.719  1.00  0.00    -0.504 OA
ATOM     19  H   UNL     1     -26.761 -16.576   7.982  1.00  0.00     0.293 HD
ENDBRANCH  15  18
BRANCH  17  20
ATOM     20  O   UNL     1     -28.222 -16.912   5.036  1.00  0.00    -0.504 OA
ATOM     21  H   UNL     1     -28.850 -17.185   4.295  1.00  0.00     0.293 HD
ENDBRANCH  17  20
ENDBRANCH   1  12
BRANCH   2  22
ATOM     22  O   UNL     1     -29.871 -12.203   3.319  1.00  0.00    -0.502 OA
ATOM     23  H   UNL     1     -30.401 -11.523   3.853  1.00  0.00     0.293 HD
ENDBRANCH   2  22
BRANCH   6  24
ATOM     24  O   UNL     1     -28.157  -9.424  -0.889  1.00  0.00    -0.507 OA
ATOM     25  H   UNL     1     -28.370  -8.449  -1.034  1.00  0.00     0.293 HD
ENDBRANCH   6  24
BRANCH   8  26
ATOM     26  O   UNL     1     -23.411  -9.722  -0.217  1.00  0.00    -0.508 OA
ATOM     27  H   UNL     1     -23.249  -9.099  -1.000  1.00  0.00     0.293 HD
ENDBRANCH   8  26
TORSDOF 6
ENDMDL
