MODEL 1
REMARK VINA RESULT:    -2.891      0.000      0.000
REMARK INTER + INTRA:          -3.443
REMARK INTER:                  -3.230
REMARK INTRA:                  -0.213
REMARK UNBOUND:                -0.213
REMARK SMILES CC(C)c1ccc(C(=O)[O-])cc1
REMARK SMILES IDX 7 1 6 2 11 3 5 4 12 5 4 6 8 7 9 8 10 9 2 10 1 11 3 12
REMARK H PARENT
REMARK Flexibility Score: inf
ROOT
ATOM      1  C   UNL     1      32.157  76.465  -0.881  1.00  0.00    -0.003 A 
ATOM      2  C   UNL     1      32.743  76.566  -2.152  1.00  0.00     0.010 A 
ATOM      3  C   UNL     1      32.977  76.551   0.257  1.00  0.00     0.010 A 
ATOM      4  C   UNL     1      34.123  76.748  -2.285  1.00  0.00     0.004 A 
ATOM      5  C   UNL     1      34.357  76.734   0.124  1.00  0.00     0.004 A 
ATOM      6  C   UNL     1      34.945  76.834  -1.150  1.00  0.00    -0.045 A 
ENDROOT
BRANCH   1   7
ATOM      7  C   UNL     1      30.695  76.272  -0.744  1.00  0.00     0.071 C 
ATOM      8  O   UNL     1      30.113  75.334  -1.350  1.00  0.00    -0.545 OA
ATOM      9  O   UNL     1      29.945  77.125   0.058  1.00  0.00    -0.545 OA
ENDBRANCH   1   7
BRANCH   6  10
ATOM     10  C   UNL     1      36.441  77.031  -1.309  1.00  0.00     0.013 C 
ATOM     11  C   UNL     1      37.125  77.197   0.053  1.00  0.00     0.012 C 
ATOM     12  C   UNL     1      36.748  78.220  -2.229  1.00  0.00     0.012 C 
ENDBRANCH   6  10
TORSDOF 2
ENDMDL
MODEL 2
REMARK VINA RESULT:    -2.887      3.869      5.323
REMARK INTER + INTRA:          -3.437
REMARK INTER:                  -3.232
REMARK INTRA:                  -0.205
REMARK UNBOUND:                -0.213
REMARK SMILES CC(C)c1ccc(C(=O)[O-])cc1
REMARK SMILES IDX 7 1 6 2 11 3 5 4 12 5 4 6 8 7 9 8 10 9 2 10 1 11 3 12
REMARK H PARENT
REMARK Flexibility Score: inf
ROOT
ATOM      1  C   UNL     1      29.065  79.819   0.611  1.00  0.00    -0.003 A 
ATOM      2  C   UNL     1      28.565  78.514   0.478  1.00  0.00     0.010 A 
ATOM      3  C   UNL     1      30.441  80.043   0.435  1.00  0.00     0.010 A 
ATOM      4  C   UNL     1      29.422  77.453   0.175  1.00  0.00     0.004 A 
ATOM      5  C   UNL     1      31.299  78.981   0.131  1.00  0.00     0.004 A 
ATOM      6  C   UNL     1      30.798  77.673  -0.002  1.00  0.00    -0.045 A 
ENDROOT
BRANCH   1   7
ATOM      7  C   UNL     1      28.154  80.941   0.933  1.00  0.00     0.071 C 
ATOM      8  O   UNL     1      28.094  81.403   2.103  1.00  0.00    -0.545 OA
ATOM      9  O   UNL     1      27.352  81.500  -0.055  1.00  0.00    -0.545 OA
ENDBRANCH   1   7
BRANCH   6  10
ATOM     10  C   UNL     1      31.717  76.512  -0.331  1.00  0.00     0.013 C 
ATOM     11  C   UNL     1      30.928  75.320  -0.884  1.00  0.00     0.012 C 
ATOM     12  C   UNL     1      32.551  76.104   0.891  1.00  0.00     0.012 C 
ENDBRANCH   6  10
TORSDOF 2
ENDMDL
MODEL 3
REMARK VINA RESULT:    -2.867     13.459     13.899
REMARK INTER + INTRA:          -3.416
REMARK INTER:                  -3.200
REMARK INTRA:                  -0.215
REMARK UNBOUND:                -0.213
REMARK SMILES CC(C)c1ccc(C(=O)[O-])cc1
REMARK SMILES IDX 7 1 6 2 11 3 5 4 12 5 4 6 8 7 9 8 10 9 2 10 1 11 3 12
REMARK H PARENT
REMARK Flexibility Score: inf
ROOT
ATOM      1  C   UNL     1      21.559  77.528   5.883  1.00  0.00    -0.003 A 
ATOM      2  C   UNL     1      20.778  78.094   4.864  1.00  0.00     0.010 A 
ATOM      3  C   UNL     1      22.490  78.336   6.558  1.00  0.00     0.010 A 
ATOM      4  C   UNL     1      20.923  79.442   4.525  1.00  0.00     0.004 A 
ATOM      5  C   UNL     1      22.635  79.684   6.219  1.00  0.00     0.004 A 
ATOM      6  C   UNL     1      21.852  80.253   5.197  1.00  0.00    -0.045 A 
ENDROOT
BRANCH   1   7
ATOM      7  C   UNL     1      21.403  76.099   6.240  1.00  0.00     0.071 C 
ATOM      8  O   UNL     1      21.399  75.212   5.346  1.00  0.00    -0.545 OA
ATOM      9  O   UNL     1      21.258  75.718   7.568  1.00  0.00    -0.545 OA
ENDBRANCH   1   7
BRANCH   6  10
ATOM     10  C   UNL     1      22.000  81.715   4.819  1.00  0.00     0.013 C 
ATOM     11  C   UNL     1      21.968  81.898   3.297  1.00  0.00     0.012 C 
ATOM     12  C   UNL     1      23.276  82.316   5.421  1.00  0.00     0.012 C 
ENDBRANCH   6  10
TORSDOF 2
ENDMDL
MODEL 4
REMARK VINA RESULT:    -2.841      1.252      2.023
REMARK INTER + INTRA:          -3.386
REMARK INTER:                  -3.179
REMARK INTRA:                  -0.207
REMARK UNBOUND:                -0.213
REMARK SMILES CC(C)c1ccc(C(=O)[O-])cc1
REMARK SMILES IDX 7 1 6 2 11 3 5 4 12 5 4 6 8 7 9 8 10 9 2 10 1 11 3 12
REMARK H PARENT
REMARK Flexibility Score: inf
ROOT
ATOM      1  C   UNL     1      31.391  77.033  -0.498  1.00  0.00    -0.003 A 
ATOM      2  C   UNL     1      32.017  76.434   0.606  1.00  0.00     0.010 A 
ATOM      3  C   UNL     1      32.184  77.517  -1.553  1.00  0.00     0.010 A 
ATOM      4  C   UNL     1      33.410  76.321   0.656  1.00  0.00     0.004 A 
ATOM      5  C   UNL     1      33.576  77.403  -1.502  1.00  0.00     0.004 A 
ATOM      6  C   UNL     1      34.205  76.803  -0.396  1.00  0.00    -0.045 A 
ENDROOT
BRANCH   1   7
ATOM      7  C   UNL     1      29.916  77.152  -0.548  1.00  0.00     0.071 C 
ATOM      8  O   UNL     1      29.246  77.268   0.512  1.00  0.00    -0.545 OA
ATOM      9  O   UNL     1      29.250  77.137  -1.768  1.00  0.00    -0.545 OA
ENDBRANCH   1   7
BRANCH   6  10
ATOM     10  C   UNL     1      35.715  76.674  -0.328  1.00  0.00     0.013 C 
ATOM     11  C   UNL     1      36.368  78.006   0.060  1.00  0.00     0.012 C 
ATOM     12  C   UNL     1      36.285  76.144  -1.650  1.00  0.00     0.012 C 
ENDBRANCH   6  10
TORSDOF 2
ENDMDL
MODEL 5
REMARK VINA RESULT:    -2.809     14.808     16.390
REMARK INTER + INTRA:          -3.351
REMARK INTER:                  -3.141
REMARK INTRA:                  -0.210
REMARK UNBOUND:                -0.213
REMARK SMILES CC(C)c1ccc(C(=O)[O-])cc1
REMARK SMILES IDX 7 1 6 2 11 3 5 4 12 5 4 6 8 7 9 8 10 9 2 10 1 11 3 12
REMARK H PARENT
REMARK Flexibility Score: inf
ROOT
ATOM      1  C   UNL     1      19.347  80.064  -6.540  1.00  0.00    -0.003 A 
ATOM      2  C   UNL     1      20.010  79.539  -5.419  1.00  0.00     0.010 A 
ATOM      3  C   UNL     1      17.944  80.137  -6.531  1.00  0.00     0.010 A 
ATOM      4  C   UNL     1      19.284  79.096  -4.310  1.00  0.00     0.004 A 
ATOM      5  C   UNL     1      17.218  79.693  -5.422  1.00  0.00     0.004 A 
ATOM      6  C   UNL     1      17.881  79.166  -4.297  1.00  0.00    -0.045 A 
ENDROOT
BRANCH   1   7
ATOM      7  C   UNL     1      20.119  80.534  -7.713  1.00  0.00     0.071 C 
ATOM      8  O   UNL     1      19.618  80.495  -8.867  1.00  0.00    -0.545 OA
ATOM      9  O   UNL     1      21.410  81.025  -7.554  1.00  0.00    -0.545 OA
ENDBRANCH   1   7
BRANCH   6  10
ATOM     10  C   UNL     1      17.106  78.680  -3.087  1.00  0.00     0.013 C 
ATOM     11  C   UNL     1      16.876  79.817  -2.084  1.00  0.00     0.012 C 
ATOM     12  C   UNL     1      17.809  77.490  -2.422  1.00  0.00     0.012 C 
ENDBRANCH   6  10
TORSDOF 2
ENDMDL
MODEL 6
REMARK VINA RESULT:    -2.796     11.627     13.258
REMARK INTER + INTRA:          -3.336
REMARK INTER:                  -3.121
REMARK INTRA:                  -0.215
REMARK UNBOUND:                -0.213
REMARK SMILES CC(C)c1ccc(C(=O)[O-])cc1
REMARK SMILES IDX 7 1 6 2 11 3 5 4 12 5 4 6 8 7 9 8 10 9 2 10 1 11 3 12
REMARK H PARENT
REMARK Flexibility Score: inf
ROOT
ATOM      1  C   UNL     1      21.683  76.859   0.716  1.00  0.00    -0.003 A 
ATOM      2  C   UNL     1      21.775  75.669   1.455  1.00  0.00     0.010 A 
ATOM      3  C   UNL     1      21.155  78.006   1.332  1.00  0.00     0.010 A 
ATOM      4  C   UNL     1      21.348  75.626   2.785  1.00  0.00     0.004 A 
ATOM      5  C   UNL     1      20.727  77.962   2.662  1.00  0.00     0.004 A 
ATOM      6  C   UNL     1      20.819  76.770   3.404  1.00  0.00    -0.045 A 
ENDROOT
BRANCH   1   7
ATOM      7  C   UNL     1      22.138  76.902  -0.693  1.00  0.00     0.071 C 
ATOM      8  O   UNL     1      21.727  76.050  -1.525  1.00  0.00    -0.545 OA
ATOM      9  O   UNL     1      23.025  77.885  -1.116  1.00  0.00    -0.545 OA
ENDBRANCH   1   7
BRANCH   6  10
ATOM     10  C   UNL     1      20.357  76.708   4.848  1.00  0.00     0.013 C 
ATOM     11  C   UNL     1      20.091  78.112   5.404  1.00  0.00     0.012 C 
ATOM     12  C   UNL     1      21.367  75.951   5.720  1.00  0.00     0.012 C 
ENDBRANCH   6  10
TORSDOF 2
ENDMDL
MODEL 7
REMARK VINA RESULT:    -2.792      6.533      7.772
REMARK INTER + INTRA:          -3.331
REMARK INTER:                  -3.111
REMARK INTRA:                  -0.220
REMARK UNBOUND:                -0.213
REMARK SMILES CC(C)c1ccc(C(=O)[O-])cc1
REMARK SMILES IDX 7 1 6 2 11 3 5 4 12 5 4 6 8 7 9 8 10 9 2 10 1 11 3 12
REMARK H PARENT
REMARK Flexibility Score: inf
ROOT
ATOM      1  C   UNL     1      35.114  81.617   5.004  1.00  0.00    -0.003 A 
ATOM      2  C   UNL     1      36.005  80.913   4.180  1.00  0.00     0.010 A 
ATOM      3  C   UNL     1      33.737  81.559   4.727  1.00  0.00     0.010 A 
ATOM      4  C   UNL     1      35.531  80.165   3.098  1.00  0.00     0.004 A 
ATOM      5  C   UNL     1      33.263  80.811   3.645  1.00  0.00     0.004 A 
ATOM      6  C   UNL     1      34.156  80.105   2.818  1.00  0.00    -0.045 A 
ENDROOT
BRANCH   1   7
ATOM      7  C   UNL     1      35.620  82.409   6.149  1.00  0.00     0.071 C 
ATOM      8  O   UNL     1      34.855  82.722   7.099  1.00  0.00    -0.545 OA
ATOM      9  O   UNL     1      36.948  82.817   6.189  1.00  0.00    -0.545 OA
ENDBRANCH   1   7
BRANCH   6  10
ATOM     10  C   UNL     1      33.655  79.289   1.641  1.00  0.00     0.013 C 
ATOM     11  C   UNL     1      34.772  79.050   0.618  1.00  0.00     0.012 C 
ATOM     12  C   UNL     1      32.439  79.955   0.985  1.00  0.00     0.012 C 
ENDBRANCH   6  10
TORSDOF 2
ENDMDL
MODEL 8
REMARK VINA RESULT:    -2.771     12.813     13.616
REMARK INTER + INTRA:          -3.308
REMARK INTER:                  -3.100
REMARK INTRA:                  -0.208
REMARK UNBOUND:                -0.213
REMARK SMILES CC(C)c1ccc(C(=O)[O-])cc1
REMARK SMILES IDX 7 1 6 2 11 3 5 4 12 5 4 6 8 7 9 8 10 9 2 10 1 11 3 12
REMARK H PARENT
REMARK Flexibility Score: inf
ROOT
ATOM      1  C   UNL     1      20.921  76.818   1.587  1.00  0.00    -0.003 A 
ATOM      2  C   UNL     1      21.241  75.647   2.291  1.00  0.00     0.010 A 
ATOM      3  C   UNL     1      20.641  77.992   2.308  1.00  0.00     0.010 A 
ATOM      4  C   UNL     1      21.282  75.647   3.688  1.00  0.00     0.004 A 
ATOM      5  C   UNL     1      20.682  77.992   3.705  1.00  0.00     0.004 A 
ATOM      6  C   UNL     1      21.003  76.818   4.411  1.00  0.00    -0.045 A 
ENDROOT
BRANCH   1   7
ATOM      7  C   UNL     1      20.879  76.814   0.107  1.00  0.00     0.071 C 
ATOM      8  O   UNL     1      21.935  76.669  -0.564  1.00  0.00    -0.545 OA
ATOM      9  O   UNL     1      19.671  76.970  -0.563  1.00  0.00    -0.545 OA
ENDBRANCH   1   7
BRANCH   6  10
ATOM     10  C   UNL     1      21.050  76.804   5.928  1.00  0.00     0.013 C 
ATOM     11  C   UNL     1      22.169  77.708   6.455  1.00  0.00     0.012 C 
ATOM     12  C   UNL     1      21.196  75.374   6.463  1.00  0.00     0.012 C 
ENDBRANCH   6  10
TORSDOF 2
ENDMDL
MODEL 9
REMARK VINA RESULT:    -2.551     12.810     14.411
REMARK INTER + INTRA:          -3.063
REMARK INTER:                  -2.862
REMARK INTRA:                  -0.201
REMARK UNBOUND:                -0.213
REMARK SMILES CC(C)c1ccc(C(=O)[O-])cc1
REMARK SMILES IDX 7 1 6 2 11 3 5 4 12 5 4 6 8 7 9 8 10 9 2 10 1 11 3 12
REMARK H PARENT
REMARK Flexibility Score: inf
ROOT
ATOM      1  C   UNL     1      21.282  77.393   6.301  1.00  0.00    -0.003 A 
ATOM      2  C   UNL     1      20.907  78.301   5.299  1.00  0.00     0.010 A 
ATOM      3  C   UNL     1      21.384  76.028   5.981  1.00  0.00     0.010 A 
ATOM      4  C   UNL     1      20.639  77.856   4.001  1.00  0.00     0.004 A 
ATOM      5  C   UNL     1      21.116  75.583   4.683  1.00  0.00     0.004 A 
ATOM      6  C   UNL     1      20.740  76.493   3.678  1.00  0.00    -0.045 A 
ENDROOT
BRANCH   1   7
ATOM      7  C   UNL     1      21.565  77.868   7.674  1.00  0.00     0.071 C 
ATOM      8  O   UNL     1      22.499  78.685   7.890  1.00  0.00    -0.545 OA
ATOM      9  O   UNL     1      20.801  77.420   8.745  1.00  0.00    -0.545 OA
ENDBRANCH   1   7
BRANCH   6  10
ATOM     10  C   UNL     1      20.446  76.023   2.266  1.00  0.00     0.013 C 
ATOM     11  C   UNL     1      19.429  74.875   2.265  1.00  0.00     0.012 C 
ATOM     12  C   UNL     1      21.734  75.620   1.537  1.00  0.00     0.012 C 
ENDBRANCH   6  10
TORSDOF 2
ENDMDL
