MODEL 1
REMARK VINA RESULT:    -4.062      0.000      0.000
REMARK INTER + INTRA:          -7.007
REMARK INTER:                  -6.200
REMARK INTRA:                  -0.807
REMARK UNBOUND:                -0.807
REMARK SMILES CCCCCCCCCCC(=O)[O-]
REMARK SMILES IDX 7 1 8 2 9 3 10 4 11 5 12 6 13 7 6 8 5 9 4 10 3 11 2 12 1 13
REMARK H PARENT
REMARK Flexibility Score: inf
ROOT
ATOM      1  C   UNL     1       5.406  -1.562  -5.920  1.00  0.00     0.000 C 
ENDROOT
BRANCH   1   2
ATOM      2  C   UNL     1       5.973  -2.232  -7.180  1.00  0.00     0.000 C 
BRANCH   2   3
ATOM      3  C   UNL     1       6.008  -3.759  -7.021  1.00  0.00     0.006 C 
BRANCH   3   4
ATOM      4  C   UNL     1       5.900  -4.193  -5.553  1.00  0.00     0.053 C 
BRANCH   4   5
ATOM      5  C   UNL     1       7.137  -4.900  -5.091  1.00  0.00     0.041 C 
ATOM      6  O   UNL     1       7.229  -5.304  -3.902  1.00  0.00    -0.550 OA
ATOM      7  O   UNL     1       8.174  -5.140  -5.982  1.00  0.00    -0.550 OA
ENDBRANCH   4   5
ENDBRANCH   3   4
ENDBRANCH   2   3
ENDBRANCH   1   2
BRANCH   1   8
ATOM      8  C   UNL     1       6.212  -0.326  -5.492  1.00  0.00     0.000 C 
BRANCH   8   9
ATOM      9  C   UNL     1       5.318   0.857  -5.092  1.00  0.00    -0.000 C 
BRANCH   9  10
ATOM     10  C   UNL     1       4.122   0.987  -6.043  1.00  0.00    -0.000 C 
BRANCH  10  11
ATOM     11  C   UNL     1       4.229   2.265  -6.889  1.00  0.00    -0.000 C 
BRANCH  11  12
ATOM     12  C   UNL     1       4.382   1.969  -8.390  1.00  0.00    -0.003 C 
ATOM     13  C   UNL     1       3.988   0.538  -8.753  1.00  0.00     0.004 C 
ENDBRANCH  11  12
ENDBRANCH  10  11
ENDBRANCH   9  10
ENDBRANCH   8   9
ENDBRANCH   1   8
TORSDOF 9
ENDMDL
MODEL 2
REMARK VINA RESULT:    -3.943      0.984      1.450
REMARK INTER + INTRA:          -6.825
REMARK INTER:                  -5.894
REMARK INTRA:                  -0.931
REMARK UNBOUND:                -0.807
REMARK SMILES CCCCCCCCCCC(=O)[O-]
REMARK SMILES IDX 7 1 8 2 9 3 10 4 11 5 12 6 13 7 6 8 5 9 4 10 3 11 2 12 1 13
REMARK H PARENT
REMARK Flexibility Score: inf
ROOT
ATOM      1  C   UNL     1       6.320  -0.779  -5.588  1.00  0.00     0.000 C 
ENDROOT
BRANCH   1   2
ATOM      2  C   UNL     1       5.846  -1.387  -6.916  1.00  0.00     0.000 C 
BRANCH   2   3
ATOM      3  C   UNL     1       5.990  -2.916  -6.902  1.00  0.00     0.006 C 
BRANCH   3   4
ATOM      4  C   UNL     1       5.749  -3.509  -5.508  1.00  0.00     0.053 C 
BRANCH   4   5
ATOM      5  C   UNL     1       6.657  -4.669  -5.234  1.00  0.00     0.041 C 
ATOM      6  O   UNL     1       7.073  -4.887  -4.066  1.00  0.00    -0.550 OA
ATOM      7  O   UNL     1       7.016  -5.528  -6.264  1.00  0.00    -0.550 OA
ENDBRANCH   4   5
ENDBRANCH   3   4
ENDBRANCH   2   3
ENDBRANCH   1   2
BRANCH   1   8
ATOM      8  C   UNL     1       5.382   0.323  -5.072  1.00  0.00     0.000 C 
BRANCH   8   9
ATOM      9  C   UNL     1       4.127   0.490  -5.943  1.00  0.00    -0.000 C 
BRANCH   9  10
ATOM     10  C   UNL     1       4.063   1.897  -6.549  1.00  0.00    -0.000 C 
BRANCH  10  11
ATOM     11  C   UNL     1       4.235   1.847  -8.075  1.00  0.00    -0.000 C 
BRANCH  11  12
ATOM     12  C   UNL     1       5.667   2.181  -8.519  1.00  0.00    -0.003 C 
ATOM     13  C   UNL     1       6.424   3.024  -7.493  1.00  0.00     0.004 C 
ENDBRANCH  11  12
ENDBRANCH  10  11
ENDBRANCH   9  10
ENDBRANCH   8   9
ENDBRANCH   1   8
TORSDOF 9
ENDMDL
MODEL 3
REMARK VINA RESULT:    -3.836      0.812      1.515
REMARK INTER + INTRA:          -6.662
REMARK INTER:                  -5.729
REMARK INTRA:                  -0.932
REMARK UNBOUND:                -0.807
REMARK SMILES CCCCCCCCCCC(=O)[O-]
REMARK SMILES IDX 7 1 8 2 9 3 10 4 11 5 12 6 13 7 6 8 5 9 4 10 3 11 2 12 1 13
REMARK H PARENT
REMARK Flexibility Score: inf
ROOT
ATOM      1  C   UNL     1       7.095  -1.623  -7.699  1.00  0.00     0.000 C 
ENDROOT
BRANCH   1   2
ATOM      2  C   UNL     1       5.788  -2.419  -7.563  1.00  0.00     0.000 C 
BRANCH   2   3
ATOM      3  C   UNL     1       6.075  -3.912  -7.343  1.00  0.00     0.006 C 
BRANCH   3   4
ATOM      4  C   UNL     1       5.801  -4.350  -5.898  1.00  0.00     0.053 C 
BRANCH   4   5
ATOM      5  C   UNL     1       7.048  -4.820  -5.216  1.00  0.00     0.041 C 
ATOM      6  O   UNL     1       7.077  -4.945  -3.962  1.00  0.00    -0.550 OA
ATOM      7  O   UNL     1       8.169  -5.152  -5.966  1.00  0.00    -0.550 OA
ENDBRANCH   4   5
ENDBRANCH   3   4
ENDBRANCH   2   3
ENDBRANCH   1   2
BRANCH   1   8
ATOM      8  C   UNL     1       7.270  -0.576  -6.588  1.00  0.00     0.000 C 
BRANCH   8   9
ATOM      9  C   UNL     1       6.256  -0.748  -5.446  1.00  0.00    -0.000 C 
BRANCH   9  10
ATOM     10  C   UNL     1       5.514   0.564  -5.168  1.00  0.00    -0.000 C 
BRANCH  10  11
ATOM     11  C   UNL     1       4.177   0.610  -5.924  1.00  0.00    -0.000 C 
BRANCH  11  12
ATOM     12  C   UNL     1       4.243   1.482  -7.188  1.00  0.00    -0.003 C 
ATOM     13  C   UNL     1       5.203   2.663  -7.043  1.00  0.00     0.004 C 
ENDBRANCH  11  12
ENDBRANCH  10  11
ENDBRANCH   9  10
ENDBRANCH   8   9
ENDBRANCH   1   8
TORSDOF 9
ENDMDL
MODEL 4
REMARK VINA RESULT:    -3.772      1.208      2.466
REMARK INTER + INTRA:          -6.563
REMARK INTER:                  -5.614
REMARK INTRA:                  -0.950
REMARK UNBOUND:                -0.807
REMARK SMILES CCCCCCCCCCC(=O)[O-]
REMARK SMILES IDX 7 1 8 2 9 3 10 4 11 5 12 6 13 7 6 8 5 9 4 10 3 11 2 12 1 13
REMARK H PARENT
REMARK Flexibility Score: inf
ROOT
ATOM      1  C   UNL     1       6.963  -1.753  -7.978  1.00  0.00     0.000 C 
ENDROOT
BRANCH   1   2
ATOM      2  C   UNL     1       7.498  -1.661  -6.540  1.00  0.00     0.000 C 
BRANCH   2   3
ATOM      3  C   UNL     1       6.617  -2.468  -5.575  1.00  0.00     0.006 C 
BRANCH   3   4
ATOM      4  C   UNL     1       6.199  -3.822  -6.164  1.00  0.00     0.053 C 
BRANCH   4   5
ATOM      5  C   UNL     1       6.978  -4.952  -5.565  1.00  0.00     0.041 C 
ATOM      6  O   UNL     1       7.336  -5.925  -6.280  1.00  0.00    -0.550 OA
ATOM      7  O   UNL     1       7.338  -4.915  -4.224  1.00  0.00    -0.550 OA
ENDBRANCH   4   5
ENDBRANCH   3   4
ENDBRANCH   2   3
ENDBRANCH   1   2
BRANCH   1   8
ATOM      8  C   UNL     1       6.347  -0.433  -8.466  1.00  0.00     0.000 C 
BRANCH   8   9
ATOM      9  C   UNL     1       4.837  -0.346  -8.194  1.00  0.00    -0.000 C 
BRANCH   9  10
ATOM     10  C   UNL     1       4.378   1.114  -8.108  1.00  0.00    -0.000 C 
BRANCH  10  11
ATOM     11  C   UNL     1       4.035   1.498  -6.660  1.00  0.00    -0.000 C 
BRANCH  11  12
ATOM     12  C   UNL     1       4.383   0.388  -5.656  1.00  0.00    -0.003 C 
ATOM     13  C   UNL     1       5.414   0.831  -4.618  1.00  0.00     0.004 C 
ENDBRANCH  11  12
ENDBRANCH  10  11
ENDBRANCH   9  10
ENDBRANCH   8   9
ENDBRANCH   1   8
TORSDOF 9
ENDMDL
MODEL 5
REMARK VINA RESULT:    -3.676      1.303      2.054
REMARK INTER + INTRA:          -6.417
REMARK INTER:                  -5.477
REMARK INTRA:                  -0.940
REMARK UNBOUND:                -0.807
REMARK SMILES CCCCCCCCCCC(=O)[O-]
REMARK SMILES IDX 7 1 8 2 9 3 10 4 11 5 12 6 13 7 6 8 5 9 4 10 3 11 2 12 1 13
REMARK H PARENT
REMARK Flexibility Score: inf
ROOT
ATOM      1  C   UNL     1       5.571   0.335  -5.043  1.00  0.00     0.000 C 
ENDROOT
BRANCH   1   2
ATOM      2  C   UNL     1       4.922  -0.953  -5.573  1.00  0.00     0.000 C 
BRANCH   2   3
ATOM      3  C   UNL     1       5.956  -1.831  -6.294  1.00  0.00     0.006 C 
BRANCH   3   4
ATOM      4  C   UNL     1       6.796  -2.662  -5.315  1.00  0.00     0.053 C 
BRANCH   4   5
ATOM      5  C   UNL     1       6.378  -4.100  -5.308  1.00  0.00     0.041 C 
ATOM      6  O   UNL     1       6.762  -4.868  -4.386  1.00  0.00    -0.550 OA
ATOM      7  O   UNL     1       5.537  -4.585  -6.301  1.00  0.00    -0.550 OA
ENDBRANCH   4   5
ENDBRANCH   3   4
ENDBRANCH   2   3
ENDBRANCH   1   2
BRANCH   1   8
ATOM      8  C   UNL     1       5.343   1.538  -5.973  1.00  0.00     0.000 C 
BRANCH   8   9
ATOM      9  C   UNL     1       3.932   1.560  -6.579  1.00  0.00    -0.000 C 
BRANCH   9  10
ATOM     10  C   UNL     1       3.982   1.895  -8.074  1.00  0.00    -0.000 C 
BRANCH  10  11
ATOM     11  C   UNL     1       5.155   1.176  -8.759  1.00  0.00    -0.000 C 
BRANCH  11  12
ATOM     12  C   UNL     1       4.703   0.295  -9.935  1.00  0.00    -0.003 C 
ATOM     13  C   UNL     1       4.358  -1.132  -9.507  1.00  0.00     0.004 C 
ENDBRANCH  11  12
ENDBRANCH  10  11
ENDBRANCH   9  10
ENDBRANCH   8   9
ENDBRANCH   1   8
TORSDOF 9
ENDMDL
MODEL 6
REMARK VINA RESULT:    -3.599      1.737      2.882
REMARK INTER + INTRA:          -6.300
REMARK INTER:                  -5.159
REMARK INTRA:                  -1.141
REMARK UNBOUND:                -0.807
REMARK SMILES CCCCCCCCCCC(=O)[O-]
REMARK SMILES IDX 7 1 8 2 9 3 10 4 11 5 12 6 13 7 6 8 5 9 4 10 3 11 2 12 1 13
REMARK H PARENT
REMARK Flexibility Score: inf
ROOT
ATOM      1  C   UNL     1       5.119   1.088  -5.244  1.00  0.00     0.000 C 
ENDROOT
BRANCH   1   2
ATOM      2  C   UNL     1       4.847  -0.420  -5.353  1.00  0.00     0.000 C 
BRANCH   2   3
ATOM      3  C   UNL     1       6.153  -1.198  -5.575  1.00  0.00     0.006 C 
BRANCH   3   4
ATOM      4  C   UNL     1       5.980  -2.350  -6.573  1.00  0.00     0.053 C 
BRANCH   4   5
ATOM      5  C   UNL     1       6.237  -3.681  -5.934  1.00  0.00     0.041 C 
ATOM      6  O   UNL     1       5.713  -4.723  -6.408  1.00  0.00    -0.550 OA
ATOM      7  O   UNL     1       7.082  -3.773  -4.836  1.00  0.00    -0.550 OA
ENDBRANCH   4   5
ENDBRANCH   3   4
ENDBRANCH   2   3
ENDBRANCH   1   2
BRANCH   1   8
ATOM      8  C   UNL     1       4.437   1.895  -6.361  1.00  0.00     0.000 C 
BRANCH   8   9
ATOM      9  C   UNL     1       4.122   1.044  -7.601  1.00  0.00    -0.000 C 
BRANCH   9  10
ATOM     10  C   UNL     1       4.884   1.558  -8.827  1.00  0.00    -0.000 C 
BRANCH  10  11
ATOM     11  C   UNL     1       6.241   2.154  -8.422  1.00  0.00    -0.000 C 
BRANCH  11  12
ATOM     12  C   UNL     1       7.357   1.100  -8.371  1.00  0.00    -0.003 C 
ATOM     13  C   UNL     1       8.330   1.323  -7.213  1.00  0.00     0.004 C 
ENDBRANCH  11  12
ENDBRANCH  10  11
ENDBRANCH   9  10
ENDBRANCH   8   9
ENDBRANCH   1   8
TORSDOF 9
ENDMDL
MODEL 7
REMARK VINA RESULT:    -3.530      3.305      6.276
REMARK INTER + INTRA:          -6.195
REMARK INTER:                  -5.494
REMARK INTRA:                  -0.701
REMARK UNBOUND:                -0.807
REMARK SMILES CCCCCCCCCCC(=O)[O-]
REMARK SMILES IDX 7 1 8 2 9 3 10 4 11 5 12 6 13 7 6 8 5 9 4 10 3 11 2 12 1 13
REMARK H PARENT
REMARK Flexibility Score: inf
ROOT
ATOM      1  C   UNL     1       4.939  -0.425  -5.391  1.00  0.00     0.000 C 
ENDROOT
BRANCH   1   2
ATOM      2  C   UNL     1       5.395   1.019  -5.130  1.00  0.00     0.000 C 
BRANCH   2   3
ATOM      3  C   UNL     1       4.745   1.988  -6.128  1.00  0.00     0.006 C 
BRANCH   3   4
ATOM      4  C   UNL     1       3.906   1.257  -7.185  1.00  0.00     0.053 C 
BRANCH   4   5
ATOM      5  C   UNL     1       4.463   1.446  -8.563  1.00  0.00     0.041 C 
ATOM      6  O   UNL     1       3.814   2.094  -9.426  1.00  0.00    -0.550 OA
ATOM      7  O   UNL     1       5.713   0.934  -8.884  1.00  0.00    -0.550 OA
ENDBRANCH   4   5
ENDBRANCH   3   4
ENDBRANCH   2   3
ENDBRANCH   1   2
BRANCH   1   8
ATOM      8  C   UNL     1       6.110  -1.367  -5.709  1.00  0.00     0.000 C 
BRANCH   8   9
ATOM      9  C   UNL     1       5.891  -2.172  -7.000  1.00  0.00    -0.000 C 
BRANCH   9  10
ATOM     10  C   UNL     1       6.043  -3.675  -6.742  1.00  0.00    -0.000 C 
BRANCH  10  11
ATOM     11  C   UNL     1       6.174  -3.965  -5.239  1.00  0.00    -0.000 C 
BRANCH  11  12
ATOM     12  C   UNL     1       7.059  -5.187  -4.948  1.00  0.00    -0.003 C 
ATOM     13  C   UNL     1       7.873  -5.631  -6.164  1.00  0.00     0.004 C 
ENDBRANCH  11  12
ENDBRANCH  10  11
ENDBRANCH   9  10
ENDBRANCH   8   9
ENDBRANCH   1   8
TORSDOF 9
ENDMDL
MODEL 8
REMARK VINA RESULT:    -3.470      1.347      2.089
REMARK INTER + INTRA:          -6.103
REMARK INTER:                  -5.681
REMARK INTRA:                  -0.422
REMARK UNBOUND:                -0.807
REMARK SMILES CCCCCCCCCCC(=O)[O-]
REMARK SMILES IDX 7 1 8 2 9 3 10 4 11 5 12 6 13 7 6 8 5 9 4 10 3 11 2 12 1 13
REMARK H PARENT
REMARK Flexibility Score: inf
ROOT
ATOM      1  C   UNL     1       6.244  -2.880  -6.491  1.00  0.00     0.000 C 
ENDROOT
BRANCH   1   2
ATOM      2  C   UNL     1       5.707  -3.717  -5.320  1.00  0.00     0.000 C 
BRANCH   2   3
ATOM      3  C   UNL     1       6.737  -4.767  -4.879  1.00  0.00     0.006 C 
BRANCH   3   4
ATOM      4  C   UNL     1       7.588  -5.275  -6.050  1.00  0.00     0.053 C 
BRANCH   4   5
ATOM      5  C   UNL     1       8.021  -6.694  -5.847  1.00  0.00     0.041 C 
ATOM      6  O   UNL     1       8.020  -7.502  -6.814  1.00  0.00    -0.550 OA
ATOM      7  O   UNL     1       8.457  -7.116  -4.598  1.00  0.00    -0.550 OA
ENDBRANCH   4   5
ENDBRANCH   3   4
ENDBRANCH   2   3
ENDBRANCH   1   2
BRANCH   1   8
ATOM      8  C   UNL     1       6.539  -1.425  -6.094  1.00  0.00     0.000 C 
BRANCH   8   9
ATOM      9  C   UNL     1       5.298  -0.695  -5.556  1.00  0.00    -0.000 C 
BRANCH   9  10
ATOM     10  C   UNL     1       5.601   0.786  -5.302  1.00  0.00    -0.000 C 
BRANCH  10  11
ATOM     11  C   UNL     1       4.561   1.685  -5.989  1.00  0.00    -0.000 C 
BRANCH  11  12
ATOM     12  C   UNL     1       4.234   1.226  -7.418  1.00  0.00    -0.003 C 
ATOM     13  C   UNL     1       4.084   2.392  -8.395  1.00  0.00     0.004 C 
ENDBRANCH  11  12
ENDBRANCH  10  11
ENDBRANCH   9  10
ENDBRANCH   8   9
ENDBRANCH   1   8
TORSDOF 9
ENDMDL
MODEL 9
REMARK VINA RESULT:    -3.354      3.483      5.439
REMARK INTER + INTRA:          -5.926
REMARK INTER:                  -4.593
REMARK INTRA:                  -1.333
REMARK UNBOUND:                -0.807
REMARK SMILES CCCCCCCCCCC(=O)[O-]
REMARK SMILES IDX 7 1 8 2 9 3 10 4 11 5 12 6 13 7 6 8 5 9 4 10 3 11 2 12 1 13
REMARK H PARENT
REMARK Flexibility Score: inf
ROOT
ATOM      1  C   UNL     1       4.545  -0.034  -5.225  1.00  0.00     0.000 C 
ENDROOT
BRANCH   1   2
ATOM      2  C   UNL     1       3.996   0.823  -6.376  1.00  0.00     0.000 C 
BRANCH   2   3
ATOM      3  C   UNL     1       4.657   2.209  -6.391  1.00  0.00     0.006 C 
BRANCH   3   4
ATOM      4  C   UNL     1       5.223   2.567  -7.772  1.00  0.00     0.053 C 
BRANCH   4   5
ATOM      5  C   UNL     1       6.714   2.697  -7.744  1.00  0.00     0.041 C 
ATOM      6  O   UNL     1       7.324   3.220  -8.714  1.00  0.00    -0.550 OA
ATOM      7  O   UNL     1       7.429   2.269  -6.632  1.00  0.00    -0.550 OA
ENDBRANCH   4   5
ENDBRANCH   3   4
ENDBRANCH   2   3
ENDBRANCH   1   2
BRANCH   1   8
ATOM      8  C   UNL     1       5.915  -0.652  -5.548  1.00  0.00     0.000 C 
BRANCH   8   9
ATOM      9  C   UNL     1       5.819  -2.131  -5.950  1.00  0.00    -0.000 C 
BRANCH   9  10
ATOM     10  C   UNL     1       6.361  -2.351  -7.367  1.00  0.00    -0.000 C 
BRANCH  10  11
ATOM     11  C   UNL     1       6.784  -1.020  -8.007  1.00  0.00    -0.000 C 
BRANCH  11  12
ATOM     12  C   UNL     1       6.054  -0.742  -9.330  1.00  0.00    -0.003 C 
ATOM     13  C   UNL     1       4.617  -1.263  -9.334  1.00  0.00     0.004 C 
ENDBRANCH  11  12
ENDBRANCH  10  11
ENDBRANCH   9  10
ENDBRANCH   8   9
ENDBRANCH   1   8
TORSDOF 9
ENDMDL
