MODEL 1
REMARK VINA RESULT:    -6.953      0.000      0.000
REMARK INTER + INTRA:          -9.342
REMARK INTER:                  -9.392
REMARK INTRA:                   0.050
REMARK UNBOUND:                 0.050
REMARK SMILES O=c1c(-c2ccc(O)cc2)coc2c([C@H]3O[C@H](CO)[C@@H](O)[C@H](O)[C@H]3O)c(O)ccc12
REMARK SMILES IDX 3 1 11 2 12 3 13 4 30 5 2 6 1 7 29 8 28 9 26 10 14 11 4 12
REMARK SMILES IDX 5 13 6 14 7 15 10 16 9 17 8 18 15 20 24 21 16 22 22 23 17 24
REMARK SMILES IDX 20 25 25 26 23 28 18 30 19 31 21 33 27 35
REMARK H PARENT 8 19 25 27 23 29 19 32 21 34 27 36
REMARK Flexibility Score: inf
ROOT
ATOM      1  C   UNL     1      36.242  11.258 105.309  1.00  0.00     0.065 A 
ATOM      2  C   UNL     1      35.895   9.967 105.731  1.00  0.00     0.208 A 
ATOM      3  O   UNL     1      34.623   9.619 105.876  1.00  0.00    -0.463 OA
ATOM      4  C   UNL     1      33.606  10.443 105.627  1.00  0.00     0.147 A 
ATOM      5  C   UNL     1      33.865  11.770 105.213  1.00  0.00     0.066 A 
ATOM      6  C   UNL     1      35.206  12.180 105.066  1.00  0.00     0.200 A 
ATOM      7  O   UNL     1      35.477  13.365 104.721  1.00  0.00    -0.288 OA
ATOM      8  C   UNL     1      32.794  12.630 104.941  1.00  0.00     0.020 A 
ATOM      9  C   UNL     1      31.482  12.176 105.045  1.00  0.00     0.047 A 
ATOM     10  C   UNL     1      31.207  10.854 105.433  1.00  0.00     0.125 A 
ATOM     11  C   UNL     1      32.274   9.973 105.756  1.00  0.00     0.069 A 
ENDROOT
BRANCH   1  12
ATOM     12  C   UNL     1      37.675  11.610 105.133  1.00  0.00    -0.011 A 
ATOM     13  C   UNL     1      38.343  11.344 103.922  1.00  0.00     0.013 A 
ATOM     14  C   UNL     1      39.709  11.614 103.793  1.00  0.00     0.047 A 
ATOM     15  C   UNL     1      40.422  12.156 104.866  1.00  0.00     0.115 A 
ATOM     16  C   UNL     1      38.399  12.158 106.207  1.00  0.00     0.013 A 
ATOM     17  C   UNL     1      39.763  12.439 106.069  1.00  0.00     0.047 A 
BRANCH  15  18
ATOM     18  O   UNL     1      41.787  12.397 104.729  1.00  0.00    -0.508 OA
ATOM     19  H   UNL     1      42.388  12.505 105.538  1.00  0.00     0.293 HD
ENDBRANCH  15  18
ENDBRANCH   1  12
BRANCH  11  20
ATOM     20  C   UNL     1      32.046   8.528 106.206  1.00  0.00     0.188 C 
ATOM     21  C   UNL     1      31.326   7.696 105.109  1.00  0.00     0.179 C 
ATOM     22  O   UNL     1      31.321   8.458 107.424  1.00  0.00    -0.362 OA
ATOM     23  C   UNL     1      30.804   6.350 105.670  1.00  0.00     0.177 C 
ATOM     24  C   UNL     1      31.318   7.157 108.011  1.00  0.00     0.176 C 
ATOM     25  C   UNL     1      31.488   5.981 107.003  1.00  0.00     0.177 C 
BRANCH  21  26
ATOM     26  O   UNL     1      30.243   8.416 104.569  1.00  0.00    -0.387 OA
ATOM     27  H   UNL     1      29.774   8.850 105.327  1.00  0.00     0.211 HD
ENDBRANCH  21  26
BRANCH  23  28
ATOM     28  O   UNL     1      30.951   5.322 104.719  1.00  0.00    -0.387 OA
ATOM     29  H   UNL     1      30.182   4.703 104.817  1.00  0.00     0.211 HD
ENDBRANCH  23  28
BRANCH  24  30
ATOM     30  C   UNL     1      32.333   7.092 109.165  1.00  0.00     0.191 C 
BRANCH  30  31
ATOM     31  O   UNL     1      33.193   6.000 109.004  1.00  0.00    -0.394 OA
ATOM     32  H   UNL     1      34.104   6.334 109.219  1.00  0.00     0.210 HD
ENDBRANCH  30  31
ENDBRANCH  24  30
BRANCH  25  33
ATOM     33  O   UNL     1      30.898   4.815 107.515  1.00  0.00    -0.388 OA
ATOM     34  H   UNL     1      31.538   4.415 108.160  1.00  0.00     0.211 HD
ENDBRANCH  25  33
ENDBRANCH  11  20
BRANCH  10  35
ATOM     35  O   UNL     1      29.872  10.441 105.502  1.00  0.00    -0.507 OA
ATOM     36  H   UNL     1      29.629   9.493 105.773  1.00  0.00     0.293 HD
ENDBRANCH  10  35
TORSDOF 9
ENDMDL
MODEL 2
REMARK VINA RESULT:    -6.123      1.950      8.460
REMARK INTER + INTRA:          -8.221
REMARK INTER:                  -8.054
REMARK INTRA:                  -0.167
REMARK UNBOUND:                 0.050
REMARK SMILES O=c1c(-c2ccc(O)cc2)coc2c([C@H]3O[C@H](CO)[C@@H](O)[C@H](O)[C@H]3O)c(O)ccc12
REMARK SMILES IDX 3 1 11 2 12 3 13 4 30 5 2 6 1 7 29 8 28 9 26 10 14 11 4 12
REMARK SMILES IDX 5 13 6 14 7 15 10 16 9 17 8 18 15 20 24 21 16 22 22 23 17 24
REMARK SMILES IDX 20 25 25 26 23 28 18 30 19 31 21 33 27 35
REMARK H PARENT 8 19 25 27 23 29 19 32 21 34 27 36
REMARK Flexibility Score: inf
ROOT
ATOM      1  C   UNL     1      34.467   9.451 106.510  1.00  0.00     0.065 A 
ATOM      2  C   UNL     1      35.858   9.335 106.646  1.00  0.00     0.208 A 
ATOM      3  O   UNL     1      36.673  10.185 106.035  1.00  0.00    -0.463 OA
ATOM      4  C   UNL     1      36.246  11.192 105.275  1.00  0.00     0.147 A 
ATOM      5  C   UNL     1      34.858  11.373 105.069  1.00  0.00     0.066 A 
ATOM      6  C   UNL     1      33.962  10.479 105.689  1.00  0.00     0.200 A 
ATOM      7  O   UNL     1      32.718  10.594 105.508  1.00  0.00    -0.288 OA
ATOM      8  C   UNL     1      34.412  12.440 104.279  1.00  0.00     0.020 A 
ATOM      9  C   UNL     1      35.322  13.337 103.726  1.00  0.00     0.047 A 
ATOM     10  C   UNL     1      36.702  13.184 103.940  1.00  0.00     0.125 A 
ATOM     11  C   UNL     1      37.185  12.087 104.702  1.00  0.00     0.069 A 
ENDROOT
BRANCH   1  12
ATOM     12  C   UNL     1      33.579   8.500 107.226  1.00  0.00    -0.011 A 
ATOM     13  C   UNL     1      33.997   7.873 108.416  1.00  0.00     0.013 A 
ATOM     14  C   UNL     1      33.181   6.926 109.042  1.00  0.00     0.047 A 
ATOM     15  C   UNL     1      31.939   6.597 108.493  1.00  0.00     0.115 A 
ATOM     16  C   UNL     1      32.326   8.166 106.681  1.00  0.00     0.013 A 
ATOM     17  C   UNL     1      31.507   7.227 107.318  1.00  0.00     0.047 A 
BRANCH  15  18
ATOM     18  O   UNL     1      31.148   5.634 109.116  1.00  0.00    -0.508 OA
ATOM     19  H   UNL     1      31.075   5.584 110.126  1.00  0.00     0.293 HD
ENDBRANCH  15  18
ENDBRANCH   1  12
BRANCH  11  20
ATOM     20  C   UNL     1      38.675  11.849 104.956  1.00  0.00     0.188 C 
ATOM     21  C   UNL     1      39.049  12.108 106.441  1.00  0.00     0.179 C 
ATOM     22  O   UNL     1      39.493  12.635 104.103  1.00  0.00    -0.362 OA
ATOM     23  C   UNL     1      40.584  12.191 106.632  1.00  0.00     0.177 C 
ATOM     24  C   UNL     1      40.868  12.253 104.120  1.00  0.00     0.176 C 
ATOM     25  C   UNL     1      41.345  11.574 105.440  1.00  0.00     0.177 C 
BRANCH  21  26
ATOM     26  O   UNL     1      38.468  13.306 106.898  1.00  0.00    -0.387 OA
ATOM     27  H   UNL     1      38.294  13.870 106.101  1.00  0.00     0.211 HD
ENDBRANCH  21  26
BRANCH  23  28
ATOM     28  O   UNL     1      40.969  11.591 107.847  1.00  0.00    -0.387 OA
ATOM     29  H   UNL     1      40.423  11.992 108.572  1.00  0.00     0.211 HD
ENDBRANCH  23  28
BRANCH  24  30
ATOM     30  C   UNL     1      41.202  11.414 102.875  1.00  0.00     0.191 C 
BRANCH  30  31
ATOM     31  O   UNL     1      41.440  10.081 103.228  1.00  0.00    -0.394 OA
ATOM     32  H   UNL     1      40.935   9.529 102.575  1.00  0.00     0.210 HD
ENDBRANCH  30  31
ENDBRANCH  24  30
BRANCH  25  33
ATOM     33  O   UNL     1      42.722  11.777 105.619  1.00  0.00    -0.388 OA
ATOM     34  H   UNL     1      43.143  10.885 105.732  1.00  0.00     0.211 HD
ENDBRANCH  25  33
ENDBRANCH  11  20
BRANCH  10  35
ATOM     35  O   UNL     1      37.573  14.124 103.380  1.00  0.00    -0.507 OA
ATOM     36  H   UNL     1      38.508  14.262 103.753  1.00  0.00     0.293 HD
ENDBRANCH  10  35
TORSDOF 9
ENDMDL
MODEL 3
REMARK VINA RESULT:    -4.395      0.944      2.138
REMARK INTER + INTRA:          -5.887
REMARK INTER:                  -6.659
REMARK INTRA:                   0.772
REMARK UNBOUND:                 0.050
REMARK SMILES O=c1c(-c2ccc(O)cc2)coc2c([C@H]3O[C@H](CO)[C@@H](O)[C@H](O)[C@H]3O)c(O)ccc12
REMARK SMILES IDX 3 1 11 2 12 3 13 4 30 5 2 6 1 7 29 8 28 9 26 10 14 11 4 12
REMARK SMILES IDX 5 13 6 14 7 15 10 16 9 17 8 18 15 20 24 21 16 22 22 23 17 24
REMARK SMILES IDX 20 25 25 26 23 28 18 30 19 31 21 33 27 35
REMARK H PARENT 8 19 25 27 23 29 19 32 21 34 27 36
REMARK Flexibility Score: inf
ROOT
ATOM      1  C   UNL     1      36.241  11.171 105.250  1.00  0.00     0.065 A 
ATOM      2  C   UNL     1      35.841  10.004 105.916  1.00  0.00     0.208 A 
ATOM      3  O   UNL     1      34.557   9.759 106.144  1.00  0.00    -0.463 OA
ATOM      4  C   UNL     1      33.576  10.574 105.759  1.00  0.00     0.147 A 
ATOM      5  C   UNL     1      33.891  11.782 105.095  1.00  0.00     0.066 A 
ATOM      6  C   UNL     1      35.246  12.085 104.851  1.00  0.00     0.200 A 
ATOM      7  O   UNL     1      35.566  13.166 104.283  1.00  0.00    -0.288 OA
ATOM      8  C   UNL     1      32.857  12.631 104.681  1.00  0.00     0.020 A 
ATOM      9  C   UNL     1      31.526  12.276 104.890  1.00  0.00     0.047 A 
ATOM     10  C   UNL     1      31.197  11.068 105.528  1.00  0.00     0.125 A 
ATOM     11  C   UNL     1      32.226  10.209 105.996  1.00  0.00     0.069 A 
ENDROOT
BRANCH   1  12
ATOM     12  C   UNL     1      37.684  11.406 104.987  1.00  0.00    -0.011 A 
ATOM     13  C   UNL     1      38.259  11.069 103.746  1.00  0.00     0.013 A 
ATOM     14  C   UNL     1      39.633  11.228 103.536  1.00  0.00     0.047 A 
ATOM     15  C   UNL     1      40.445  11.728 104.556  1.00  0.00     0.115 A 
ATOM     16  C   UNL     1      38.509  11.911 106.007  1.00  0.00     0.013 A 
ATOM     17  C   UNL     1      39.881  12.081 105.788  1.00  0.00     0.047 A 
BRANCH  15  18
ATOM     18  O   UNL     1      41.815  11.858 104.338  1.00  0.00    -0.508 OA
ATOM     19  H   UNL     1      42.360  12.571 104.811  1.00  0.00     0.293 HD
ENDBRANCH  15  18
ENDBRANCH   1  12
BRANCH  11  20
ATOM     20  C   UNL     1      31.938   8.890 106.717  1.00  0.00     0.188 C 
ATOM     21  C   UNL     1      32.459   8.914 108.180  1.00  0.00     0.179 C 
ATOM     22  O   UNL     1      32.481   7.776 106.025  1.00  0.00    -0.362 OA
ATOM     23  C   UNL     1      32.469   7.495 108.801  1.00  0.00     0.177 C 
ATOM     24  C   UNL     1      32.012   6.519 106.514  1.00  0.00     0.176 C 
ATOM     25  C   UNL     1      31.576   6.516 108.010  1.00  0.00     0.177 C 
BRANCH  21  26
ATOM     26  O   UNL     1      33.762   9.445 108.235  1.00  0.00    -0.387 OA
ATOM     27  H   UNL     1      34.202   9.230 107.373  1.00  0.00     0.211 HD
ENDBRANCH  21  26
BRANCH  23  28
ATOM     28  O   UNL     1      32.095   7.542 110.158  1.00  0.00    -0.387 OA
ATOM     29  H   UNL     1      31.846   8.477 110.375  1.00  0.00     0.211 HD
ENDBRANCH  23  28
BRANCH  24  30
ATOM     30  C   UNL     1      30.922   5.960 105.584  1.00  0.00     0.191 C 
BRANCH  30  31
ATOM     31  O   UNL     1      31.082   4.581 105.410  1.00  0.00    -0.394 OA
ATOM     32  H   UNL     1      30.167   4.208 105.314  1.00  0.00     0.210 HD
ENDBRANCH  30  31
ENDBRANCH  24  30
BRANCH  25  33
ATOM     33  O   UNL     1      31.712   5.229 108.552  1.00  0.00    -0.388 OA
ATOM     34  H   UNL     1      31.408   4.582 107.863  1.00  0.00     0.211 HD
ENDBRANCH  25  33
ENDBRANCH  11  20
BRANCH  10  35
ATOM     35  O   UNL     1      29.845  10.749 105.695  1.00  0.00    -0.507 OA
ATOM     36  H   UNL     1      29.124  11.226 105.163  1.00  0.00     0.293 HD
ENDBRANCH  10  35
TORSDOF 9
ENDMDL
