MODEL 1
REMARK VINA RESULT:    -2.456      0.000      0.000
REMARK INTER + INTRA:          -9.746
REMARK INTER:                  -5.327
REMARK INTRA:                  -4.418
REMARK UNBOUND:                -4.418
REMARK SMILES CCCCCCCCCCCCCCCCCCCCCC(=O)[O-]
REMARK SMILES IDX 12 1 11 2 10 3 9 4 8 5 7 6 6 7 5 8 4 9 3 10 2 11 1 12 13 13
REMARK SMILES IDX 14 14 15 15 16 16 17 17 18 18 19 19 20 20 21 21 22 22 23 23
REMARK SMILES IDX 24 24
REMARK H PARENT
REMARK Flexibility Score: inf
ROOT
ATOM      1  C   UNL     1      98.024  64.449 225.690  1.00  0.00     0.000 C 
ENDROOT
BRANCH   1   2
ATOM      2  C   UNL     1      99.270  65.109 225.082  1.00  0.00     0.000 C 
BRANCH   2   3
ATOM      3  C   UNL     1      99.857  66.205 225.985  1.00  0.00     0.000 C 
BRANCH   3   4
ATOM      4  C   UNL     1     101.376  66.367 225.802  1.00  0.00    -0.000 C 
BRANCH   4   5
ATOM      5  C   UNL     1     102.159  66.060 227.088  1.00  0.00    -0.000 C 
BRANCH   5   6
ATOM      6  C   UNL     1     101.252  65.573 228.228  1.00  0.00    -0.000 C 
BRANCH   6   7
ATOM      7  C   UNL     1     101.847  64.377 228.994  1.00  0.00    -0.000 C 
BRANCH   7   8
ATOM      8  C   UNL     1     100.877  63.183 229.129  1.00  0.00    -0.000 C 
BRANCH   8   9
ATOM      9  C   UNL     1     100.324  62.688 227.779  1.00  0.00    -0.000 C 
BRANCH   9  10
ATOM     10  C   UNL     1     101.335  61.826 226.987  1.00  0.00    -0.000 C 
BRANCH  10  11
ATOM     11  C   UNL     1     101.787  62.520 225.695  1.00  0.00    -0.003 C 
ATOM     12  C   UNL     1     103.276  62.855 225.736  1.00  0.00     0.004 C 
ENDBRANCH  10  11
ENDBRANCH   9  10
ENDBRANCH   8   9
ENDBRANCH   7   8
ENDBRANCH   6   7
ENDBRANCH   5   6
ENDBRANCH   4   5
ENDBRANCH   3   4
ENDBRANCH   2   3
ENDBRANCH   1   2
BRANCH   1  13
ATOM     13  C   UNL     1      96.744  65.015 225.060  1.00  0.00     0.000 C 
BRANCH  13  14
ATOM     14  C   UNL     1      95.645  65.308 226.099  1.00  0.00     0.000 C 
BRANCH  14  15
ATOM     15  C   UNL     1      95.105  66.751 226.085  1.00  0.00     0.000 C 
BRANCH  15  16
ATOM     16  C   UNL     1      96.177  67.846 225.943  1.00  0.00     0.000 C 
BRANCH  16  17
ATOM     17  C   UNL     1      97.011  68.072 227.223  1.00  0.00     0.000 C 
BRANCH  17  18
ATOM     18  C   UNL     1      96.145  68.096 228.494  1.00  0.00     0.000 C 
BRANCH  18  19
ATOM     19  C   UNL     1      96.582  67.032 229.524  1.00  0.00     0.000 C 
BRANCH  19  20
ATOM     20  C   UNL     1      97.703  66.110 229.017  1.00  0.00     0.006 C 
BRANCH  20  21
ATOM     21  C   UNL     1      97.500  64.647 229.428  1.00  0.00     0.053 C 
BRANCH  21  22
ATOM     22  C   UNL     1      97.683  64.485 230.905  1.00  0.00     0.041 C 
ATOM     23  O   UNL     1      96.840  63.836 231.582  1.00  0.00    -0.550 OA
ATOM     24  O   UNL     1      98.799  65.024 231.532  1.00  0.00    -0.550 OA
ENDBRANCH  21  22
ENDBRANCH  20  21
ENDBRANCH  19  20
ENDBRANCH  18  19
ENDBRANCH  17  18
ENDBRANCH  16  17
ENDBRANCH  15  16
ENDBRANCH  14  15
ENDBRANCH  13  14
ENDBRANCH   1  13
TORSDOF 20
ENDMDL
MODEL 2
REMARK VINA RESULT:    -2.440      1.870      6.030
REMARK INTER + INTRA:          -9.711
REMARK INTER:                  -6.164
REMARK INTRA:                  -3.547
REMARK UNBOUND:                -4.418
REMARK SMILES CCCCCCCCCCCCCCCCCCCCCC(=O)[O-]
REMARK SMILES IDX 12 1 11 2 10 3 9 4 8 5 7 6 6 7 5 8 4 9 3 10 2 11 1 12 13 13
REMARK SMILES IDX 14 14 15 15 16 16 17 17 18 18 19 19 20 20 21 21 22 22 23 23
REMARK SMILES IDX 24 24
REMARK H PARENT
REMARK Flexibility Score: inf
ROOT
ATOM      1  C   UNL     1      99.303  65.995 225.295  1.00  0.00     0.000 C 
ENDROOT
BRANCH   1   2
ATOM      2  C   UNL     1      98.612  64.631 225.432  1.00  0.00     0.000 C 
BRANCH   2   3
ATOM      3  C   UNL     1      97.083  64.730 225.323  1.00  0.00     0.000 C 
BRANCH   3   4
ATOM      4  C   UNL     1      96.630  65.463 224.049  1.00  0.00    -0.000 C 
BRANCH   4   5
ATOM      5  C   UNL     1      95.305  66.217 224.245  1.00  0.00    -0.000 C 
BRANCH   5   6
ATOM      6  C   UNL     1      94.935  66.384 225.726  1.00  0.00    -0.000 C 
BRANCH   6   7
ATOM      7  C   UNL     1      95.115  67.828 226.227  1.00  0.00    -0.000 C 
BRANCH   7   8
ATOM      8  C   UNL     1      95.672  67.922 227.664  1.00  0.00    -0.000 C 
BRANCH   8   9
ATOM      9  C   UNL     1      97.202  67.763 227.738  1.00  0.00    -0.000 C 
BRANCH   9  10
ATOM     10  C   UNL     1      97.646  66.523 228.551  1.00  0.00    -0.000 C 
BRANCH  10  11
ATOM     11  C   UNL     1      96.446  65.687 229.016  1.00  0.00    -0.003 C 
ATOM     12  C   UNL     1      96.374  65.618 230.539  1.00  0.00     0.004 C 
ENDBRANCH  10  11
ENDBRANCH   9  10
ENDBRANCH   8   9
ENDBRANCH   7   8
ENDBRANCH   6   7
ENDBRANCH   5   6
ENDBRANCH   4   5
ENDBRANCH   3   4
ENDBRANCH   2   3
ENDBRANCH   1   2
BRANCH   1  13
ATOM     13  C   UNL     1     100.817  65.825 225.103  1.00  0.00     0.000 C 
BRANCH  13  14
ATOM     14  C   UNL     1     101.199  64.434 224.564  1.00  0.00     0.000 C 
BRANCH  14  15
ATOM     15  C   UNL     1     102.170  63.635 225.455  1.00  0.00     0.000 C 
BRANCH  15  16
ATOM     16  C   UNL     1     101.543  62.434 226.185  1.00  0.00     0.000 C 
BRANCH  16  17
ATOM     17  C   UNL     1     102.298  62.020 227.467  1.00  0.00     0.000 C 
BRANCH  17  18
ATOM     18  C   UNL     1     101.582  62.482 228.748  1.00  0.00     0.000 C 
BRANCH  18  19
ATOM     19  C   UNL     1     100.448  63.489 228.456  1.00  0.00     0.000 C 
BRANCH  19  20
ATOM     20  C   UNL     1      99.104  63.105 229.096  1.00  0.00     0.006 C 
BRANCH  20  21
ATOM     21  C   UNL     1      98.209  62.292 228.154  1.00  0.00     0.053 C 
BRANCH  21  22
ATOM     22  C   UNL     1      97.828  60.989 228.783  1.00  0.00     0.041 C 
ATOM     23  O   UNL     1      97.502  60.942 230.000  1.00  0.00    -0.550 OA
ATOM     24  O   UNL     1      97.803  59.829 228.020  1.00  0.00    -0.550 OA
ENDBRANCH  21  22
ENDBRANCH  20  21
ENDBRANCH  19  20
ENDBRANCH  18  19
ENDBRANCH  17  18
ENDBRANCH  16  17
ENDBRANCH  15  16
ENDBRANCH  14  15
ENDBRANCH  13  14
ENDBRANCH   1  13
TORSDOF 20
ENDMDL
MODEL 3
REMARK VINA RESULT:    -2.414      2.617      5.582
REMARK INTER + INTRA:          -9.654
REMARK INTER:                  -5.648
REMARK INTRA:                  -4.005
REMARK UNBOUND:                -4.418
REMARK SMILES CCCCCCCCCCCCCCCCCCCCCC(=O)[O-]
REMARK SMILES IDX 12 1 11 2 10 3 9 4 8 5 7 6 6 7 5 8 4 9 3 10 2 11 1 12 13 13
REMARK SMILES IDX 14 14 15 15 16 16 17 17 18 18 19 19 20 20 21 21 22 22 23 23
REMARK SMILES IDX 24 24
REMARK H PARENT
REMARK Flexibility Score: inf
ROOT
ATOM      1  C   UNL     1      97.839  64.289 225.473  1.00  0.00     0.000 C 
ENDROOT
BRANCH   1   2
ATOM      2  C   UNL     1      97.191  65.433 224.680  1.00  0.00     0.000 C 
BRANCH   2   3
ATOM      3  C   UNL     1      95.706  65.625 225.026  1.00  0.00     0.000 C 
BRANCH   3   4
ATOM      4  C   UNL     1      95.495  66.078 226.481  1.00  0.00    -0.000 C 
BRANCH   4   5
ATOM      5  C   UNL     1      96.260  67.368 226.811  1.00  0.00    -0.000 C 
BRANCH   5   6
ATOM      6  C   UNL     1      97.150  67.225 228.055  1.00  0.00    -0.000 C 
BRANCH   6   7
ATOM      7  C   UNL     1      96.844  65.952 228.863  1.00  0.00    -0.000 C 
BRANCH   7   8
ATOM      8  C   UNL     1      98.104  65.248 229.413  1.00  0.00    -0.000 C 
BRANCH   8   9
ATOM      9  C   UNL     1      97.834  63.819 229.920  1.00  0.00    -0.000 C 
BRANCH   9  10
ATOM     10  C   UNL     1      97.796  62.768 228.785  1.00  0.00    -0.000 C 
BRANCH  10  11
ATOM     11  C   UNL     1      98.760  61.605 229.053  1.00  0.00    -0.003 C 
ATOM     12  C   UNL     1      98.663  60.540 227.963  1.00  0.00     0.004 C 
ENDBRANCH  10  11
ENDBRANCH   9  10
ENDBRANCH   8   9
ENDBRANCH   7   8
ENDBRANCH   6   7
ENDBRANCH   5   6
ENDBRANCH   4   5
ENDBRANCH   3   4
ENDBRANCH   2   3
ENDBRANCH   1   2
BRANCH   1  13
ATOM     13  C   UNL     1      99.242  64.684 225.955  1.00  0.00     0.000 C 
BRANCH  13  14
ATOM     14  C   UNL     1      99.627  66.123 225.563  1.00  0.00     0.000 C 
BRANCH  14  15
ATOM     15  C   UNL     1     100.961  66.622 226.152  1.00  0.00     0.000 C 
BRANCH  15  16
ATOM     16  C   UNL     1     101.026  66.642 227.689  1.00  0.00     0.000 C 
BRANCH  16  17
ATOM     17  C   UNL     1     102.046  65.647 228.283  1.00  0.00     0.000 C 
BRANCH  17  18
ATOM     18  C   UNL     1     101.413  64.286 228.623  1.00  0.00     0.000 C 
BRANCH  18  19
ATOM     19  C   UNL     1     102.367  63.107 228.333  1.00  0.00     0.000 C 
BRANCH  19  20
ATOM     20  C   UNL     1     101.925  62.235 227.146  1.00  0.00     0.006 C 
BRANCH  20  21
ATOM     21  C   UNL     1     103.057  61.977 226.146  1.00  0.00     0.053 C 
BRANCH  21  22
ATOM     22  C   UNL     1     103.618  63.268 225.639  1.00  0.00     0.041 C 
ATOM     23  O   UNL     1     102.873  64.096 225.048  1.00  0.00    -0.550 OA
ATOM     24  O   UNL     1     104.957  63.574 225.845  1.00  0.00    -0.550 OA
ENDBRANCH  21  22
ENDBRANCH  20  21
ENDBRANCH  19  20
ENDBRANCH  18  19
ENDBRANCH  17  18
ENDBRANCH  16  17
ENDBRANCH  15  16
ENDBRANCH  14  15
ENDBRANCH  13  14
ENDBRANCH   1  13
TORSDOF 20
ENDMDL
MODEL 4
REMARK VINA RESULT:    -2.381      1.319      2.841
REMARK INTER + INTRA:          -9.583
REMARK INTER:                  -5.966
REMARK INTRA:                  -3.617
REMARK UNBOUND:                -4.418
REMARK SMILES CCCCCCCCCCCCCCCCCCCCCC(=O)[O-]
REMARK SMILES IDX 12 1 11 2 10 3 9 4 8 5 7 6 6 7 5 8 4 9 3 10 2 11 1 12 13 13
REMARK SMILES IDX 14 14 15 15 16 16 17 17 18 18 19 19 20 20 21 21 22 22 23 23
REMARK SMILES IDX 24 24
REMARK H PARENT
REMARK Flexibility Score: inf
ROOT
ATOM      1  C   UNL     1      96.472  64.631 226.412  1.00  0.00     0.000 C 
ENDROOT
BRANCH   1   2
ATOM      2  C   UNL     1      97.246  64.214 227.671  1.00  0.00     0.000 C 
BRANCH   2   3
ATOM      3  C   UNL     1      98.767  64.347 227.501  1.00  0.00     0.000 C 
BRANCH   3   4
ATOM      4  C   UNL     1      99.544  63.287 228.301  1.00  0.00    -0.000 C 
BRANCH   4   5
ATOM      5  C   UNL     1      99.757  61.990 227.504  1.00  0.00    -0.000 C 
BRANCH   5   6
ATOM      6  C   UNL     1     101.236  61.586 227.419  1.00  0.00    -0.000 C 
BRANCH   6   7
ATOM      7  C   UNL     1     101.761  61.546 225.973  1.00  0.00    -0.000 C 
BRANCH   7   8
ATOM      8  C   UNL     1     102.857  62.593 225.680  1.00  0.00    -0.000 C 
BRANCH   8   9
ATOM      9  C   UNL     1     102.363  64.047 225.806  1.00  0.00    -0.000 C 
BRANCH   9  10
ATOM     10  C   UNL     1     101.266  64.407 224.776  1.00  0.00    -0.000 C 
BRANCH  10  11
ATOM     11  C   UNL     1     101.025  65.922 224.706  1.00  0.00    -0.003 C 
ATOM     12  C   UNL     1     101.238  66.581 226.066  1.00  0.00     0.004 C 
ENDBRANCH  10  11
ENDBRANCH   9  10
ENDBRANCH   8   9
ENDBRANCH   7   8
ENDBRANCH   6   7
ENDBRANCH   5   6
ENDBRANCH   4   5
ENDBRANCH   3   4
ENDBRANCH   2   3
ENDBRANCH   1   2
BRANCH   1  13
ATOM     13  C   UNL     1      97.410  64.727 225.201  1.00  0.00     0.000 C 
BRANCH  13  14
ATOM     14  C   UNL     1      97.180  66.000 224.364  1.00  0.00     0.000 C 
BRANCH  14  15
ATOM     15  C   UNL     1      97.608  67.313 225.047  1.00  0.00     0.000 C 
BRANCH  15  16
ATOM     16  C   UNL     1      96.512  68.391 225.129  1.00  0.00     0.000 C 
BRANCH  16  17
ATOM     17  C   UNL     1      96.017  68.668 226.565  1.00  0.00     0.000 C 
BRANCH  17  18
ATOM     18  C   UNL     1      96.931  68.045 227.635  1.00  0.00     0.000 C 
BRANCH  18  19
ATOM     19  C   UNL     1      96.206  67.849 228.984  1.00  0.00     0.000 C 
BRANCH  19  20
ATOM     20  C   UNL     1      97.035  67.072 230.020  1.00  0.00     0.006 C 
BRANCH  20  21
ATOM     21  C   UNL     1      96.235  65.958 230.704  1.00  0.00     0.053 C 
BRANCH  21  22
ATOM     22  C   UNL     1      97.154  64.987 231.378  1.00  0.00     0.041 C 
ATOM     23  O   UNL     1      96.685  64.064 232.097  1.00  0.00    -0.550 OA
ATOM     24  O   UNL     1      98.526  65.082 231.190  1.00  0.00    -0.550 OA
ENDBRANCH  21  22
ENDBRANCH  20  21
ENDBRANCH  19  20
ENDBRANCH  18  19
ENDBRANCH  17  18
ENDBRANCH  16  17
ENDBRANCH  15  16
ENDBRANCH  14  15
ENDBRANCH  13  14
ENDBRANCH   1  13
TORSDOF 20
ENDMDL
MODEL 5
REMARK VINA RESULT:    -2.378      1.553      2.717
REMARK INTER + INTRA:          -9.577
REMARK INTER:                  -6.359
REMARK INTRA:                  -3.218
REMARK UNBOUND:                -4.418
REMARK SMILES CCCCCCCCCCCCCCCCCCCCCC(=O)[O-]
REMARK SMILES IDX 12 1 11 2 10 3 9 4 8 5 7 6 6 7 5 8 4 9 3 10 2 11 1 12 13 13
REMARK SMILES IDX 14 14 15 15 16 16 17 17 18 18 19 19 20 20 21 21 22 22 23 23
REMARK SMILES IDX 24 24
REMARK H PARENT
REMARK Flexibility Score: inf
ROOT
ATOM      1  C   UNL     1      99.163  64.543 226.622  1.00  0.00     0.000 C 
ENDROOT
BRANCH   1   2
ATOM      2  C   UNL     1      99.606  65.912 226.087  1.00  0.00     0.000 C 
BRANCH   2   3
ATOM      3  C   UNL     1     101.013  65.879 225.470  1.00  0.00     0.000 C 
BRANCH   3   4
ATOM      4  C   UNL     1     101.281  64.581 224.687  1.00  0.00    -0.000 C 
BRANCH   4   5
ATOM      5  C   UNL     1     102.390  63.730 225.325  1.00  0.00    -0.000 C 
BRANCH   5   6
ATOM      6  C   UNL     1     101.982  62.259 225.492  1.00  0.00    -0.000 C 
BRANCH   6   7
ATOM      7  C   UNL     1     101.475  61.938 226.910  1.00  0.00    -0.000 C 
BRANCH   7   8
ATOM      8  C   UNL     1     100.840  60.537 227.039  1.00  0.00    -0.000 C 
BRANCH   8   9
ATOM      9  C   UNL     1      99.944  60.384 228.283  1.00  0.00    -0.000 C 
BRANCH   9  10
ATOM     10  C   UNL     1      98.434  60.505 227.963  1.00  0.00    -0.000 C 
BRANCH  10  11
ATOM     11  C   UNL     1      97.780  61.662 228.731  1.00  0.00    -0.003 C 
ATOM     12  C   UNL     1      98.767  62.320 229.692  1.00  0.00     0.004 C 
ENDBRANCH  10  11
ENDBRANCH   9  10
ENDBRANCH   8   9
ENDBRANCH   7   8
ENDBRANCH   6   7
ENDBRANCH   5   6
ENDBRANCH   4   5
ENDBRANCH   3   4
ENDBRANCH   2   3
ENDBRANCH   1   2
BRANCH   1  13
ATOM     13  C   UNL     1      97.861  64.088 225.949  1.00  0.00     0.000 C 
BRANCH  13  14
ATOM     14  C   UNL     1      97.417  65.023 224.808  1.00  0.00     0.000 C 
BRANCH  14  15
ATOM     15  C   UNL     1      95.926  65.412 224.828  1.00  0.00     0.000 C 
BRANCH  15  16
ATOM     16  C   UNL     1      95.357  65.738 226.220  1.00  0.00     0.000 C 
BRANCH  16  17
ATOM     17  C   UNL     1      95.710  67.155 226.722  1.00  0.00     0.000 C 
BRANCH  17  18
ATOM     18  C   UNL     1      96.287  67.148 228.149  1.00  0.00     0.000 C 
BRANCH  18  19
ATOM     19  C   UNL     1      96.386  65.723 228.735  1.00  0.00     0.000 C 
BRANCH  19  20
ATOM     20  C   UNL     1      97.381  65.605 229.902  1.00  0.00     0.006 C 
BRANCH  20  21
ATOM     21  C   UNL     1      96.798  66.100 231.230  1.00  0.00     0.053 C 
BRANCH  21  22
ATOM     22  C   UNL     1      97.120  65.144 232.335  1.00  0.00     0.041 C 
ATOM     23  O   UNL     1      96.812  63.926 232.231  1.00  0.00    -0.550 OA
ATOM     24  O   UNL     1      97.787  65.589 233.470  1.00  0.00    -0.550 OA
ENDBRANCH  21  22
ENDBRANCH  20  21
ENDBRANCH  19  20
ENDBRANCH  18  19
ENDBRANCH  17  18
ENDBRANCH  16  17
ENDBRANCH  15  16
ENDBRANCH  14  15
ENDBRANCH  13  14
ENDBRANCH   1  13
TORSDOF 20
ENDMDL
MODEL 6
REMARK VINA RESULT:    -2.370      2.691      4.960
REMARK INTER + INTRA:          -9.558
REMARK INTER:                  -5.726
REMARK INTRA:                  -3.832
REMARK UNBOUND:                -4.418
REMARK SMILES CCCCCCCCCCCCCCCCCCCCCC(=O)[O-]
REMARK SMILES IDX 12 1 11 2 10 3 9 4 8 5 7 6 6 7 5 8 4 9 3 10 2 11 1 12 13 13
REMARK SMILES IDX 14 14 15 15 16 16 17 17 18 18 19 19 20 20 21 21 22 22 23 23
REMARK SMILES IDX 24 24
REMARK H PARENT
REMARK Flexibility Score: inf
ROOT
ATOM      1  C   UNL     1      98.907  67.293 225.390  1.00  0.00     0.000 C 
ENDROOT
BRANCH   1   2
ATOM      2  C   UNL     1      99.261  67.347 226.883  1.00  0.00     0.000 C 
BRANCH   2   3
ATOM      3  C   UNL     1      98.137  67.958 227.734  1.00  0.00     0.000 C 
BRANCH   3   4
ATOM      4  C   UNL     1      97.835  67.128 228.994  1.00  0.00    -0.000 C 
BRANCH   4   5
ATOM      5  C   UNL     1      96.335  67.090 229.326  1.00  0.00    -0.000 C 
BRANCH   5   6
ATOM      6  C   UNL     1      96.030  66.262 230.583  1.00  0.00    -0.000 C 
BRANCH   6   7
ATOM      7  C   UNL     1      97.033  66.515 231.722  1.00  0.00    -0.000 C 
BRANCH   7   8
ATOM      8  C   UNL     1      97.386  65.248 232.531  1.00  0.00    -0.000 C 
BRANCH   8   9
ATOM      9  C   UNL     1      97.470  63.975 231.668  1.00  0.00    -0.000 C 
BRANCH   9  10
ATOM     10  C   UNL     1      98.863  63.764 231.029  1.00  0.00    -0.000 C 
BRANCH  10  11
ATOM     11  C   UNL     1      99.289  62.290 231.065  1.00  0.00    -0.003 C 
ATOM     12  C   UNL     1     100.735  62.118 230.609  1.00  0.00     0.004 C 
ENDBRANCH  10  11
ENDBRANCH   9  10
ENDBRANCH   8   9
ENDBRANCH   7   8
ENDBRANCH   6   7
ENDBRANCH   5   6
ENDBRANCH   4   5
ENDBRANCH   3   4
ENDBRANCH   2   3
ENDBRANCH   1   2
BRANCH   1  13
ATOM     13  C   UNL     1      97.483  67.811 225.146  1.00  0.00     0.000 C 
BRANCH  13  14
ATOM     14  C   UNL     1      96.521  66.712 224.657  1.00  0.00     0.000 C 
BRANCH  14  15
ATOM     15  C   UNL     1      95.364  66.383 225.620  1.00  0.00     0.000 C 
BRANCH  15  16
ATOM     16  C   UNL     1      95.578  65.132 226.491  1.00  0.00     0.000 C 
BRANCH  16  17
ATOM     17  C   UNL     1      96.924  64.419 226.238  1.00  0.00     0.000 C 
BRANCH  17  18
ATOM     18  C   UNL     1      97.536  63.841 227.526  1.00  0.00     0.000 C 
BRANCH  18  19
ATOM     19  C   UNL     1      98.792  62.987 227.247  1.00  0.00     0.000 C 
BRANCH  19  20
ATOM     20  C   UNL     1     100.101  63.793 227.269  1.00  0.00     0.006 C 
BRANCH  20  21
ATOM     21  C   UNL     1     101.092  63.345 226.188  1.00  0.00     0.053 C 
BRANCH  21  22
ATOM     22  C   UNL     1     101.427  64.482 225.275  1.00  0.00     0.041 C 
ATOM     23  O   UNL     1     100.884  64.567 224.140  1.00  0.00    -0.550 OA
ATOM     24  O   UNL     1     102.315  65.468 225.688  1.00  0.00    -0.550 OA
ENDBRANCH  21  22
ENDBRANCH  20  21
ENDBRANCH  19  20
ENDBRANCH  18  19
ENDBRANCH  17  18
ENDBRANCH  16  17
ENDBRANCH  15  16
ENDBRANCH  14  15
ENDBRANCH  13  14
ENDBRANCH   1  13
TORSDOF 20
ENDMDL
MODEL 7
REMARK VINA RESULT:    -2.356      1.844      3.416
REMARK INTER + INTRA:          -9.530
REMARK INTER:                  -5.676
REMARK INTRA:                  -3.853
REMARK UNBOUND:                -4.418
REMARK SMILES CCCCCCCCCCCCCCCCCCCCCC(=O)[O-]
REMARK SMILES IDX 12 1 11 2 10 3 9 4 8 5 7 6 6 7 5 8 4 9 3 10 2 11 1 12 13 13
REMARK SMILES IDX 14 14 15 15 16 16 17 17 18 18 19 19 20 20 21 21 22 22 23 23
REMARK SMILES IDX 24 24
REMARK H PARENT
REMARK Flexibility Score: inf
ROOT
ATOM      1  C   UNL     1      98.392  68.495 226.123  1.00  0.00     0.000 C 
ENDROOT
BRANCH   1   2
ATOM      2  C   UNL     1      99.543  67.579 225.684  1.00  0.00     0.000 C 
BRANCH   2   3
ATOM      3  C   UNL     1     100.332  67.011 226.874  1.00  0.00     0.000 C 
BRANCH   3   4
ATOM      4  C   UNL     1     101.090  65.721 226.514  1.00  0.00    -0.000 C 
BRANCH   4   5
ATOM      5  C   UNL     1     100.895  65.315 225.045  1.00  0.00    -0.000 C 
BRANCH   5   6
ATOM      6  C   UNL     1     101.447  63.915 224.741  1.00  0.00    -0.000 C 
BRANCH   6   7
ATOM      7  C   UNL     1     102.746  63.607 225.507  1.00  0.00    -0.000 C 
BRANCH   7   8
ATOM      8  C   UNL     1     102.846  62.146 225.998  1.00  0.00    -0.000 C 
BRANCH   8   9
ATOM      9  C   UNL     1     102.223  61.925 227.389  1.00  0.00    -0.000 C 
BRANCH   9  10
ATOM     10  C   UNL     1     100.870  61.175 227.338  1.00  0.00    -0.000 C 
BRANCH  10  11
ATOM     11  C   UNL     1      99.686  62.118 227.591  1.00  0.00    -0.003 C 
ATOM     12  C   UNL     1      99.966  63.061 228.757  1.00  0.00     0.004 C 
ENDBRANCH  10  11
ENDBRANCH   9  10
ENDBRANCH   8   9
ENDBRANCH   7   8
ENDBRANCH   6   7
ENDBRANCH   5   6
ENDBRANCH   4   5
ENDBRANCH   3   4
ENDBRANCH   2   3
ENDBRANCH   1   2
BRANCH   1  13
ATOM     13  C   UNL     1      97.601  69.001 224.908  1.00  0.00     0.000 C 
BRANCH  13  14
ATOM     14  C   UNL     1      96.195  68.380 224.808  1.00  0.00     0.000 C 
BRANCH  14  15
ATOM     15  C   UNL     1      95.862  67.738 223.448  1.00  0.00     0.000 C 
BRANCH  15  16
ATOM     16  C   UNL     1      96.335  66.282 223.282  1.00  0.00     0.000 C 
BRANCH  16  17
ATOM     17  C   UNL     1      96.032  65.386 224.502  1.00  0.00     0.000 C 
BRANCH  17  18
ATOM     18  C   UNL     1      97.278  64.637 225.008  1.00  0.00     0.000 C 
BRANCH  18  19
ATOM     19  C   UNL     1      97.423  64.709 226.543  1.00  0.00     0.000 C 
BRANCH  19  20
ATOM     20  C   UNL     1      96.326  65.543 227.227  1.00  0.00     0.006 C 
BRANCH  20  21
ATOM     21  C   UNL     1      96.598  65.772 228.718  1.00  0.00     0.053 C 
BRANCH  21  22
ATOM     22  C   UNL     1      96.475  67.224 229.059  1.00  0.00     0.041 C 
ATOM     23  O   UNL     1      97.469  67.857 229.508  1.00  0.00    -0.550 OA
ATOM     24  O   UNL     1      95.273  67.888 228.852  1.00  0.00    -0.550 OA
ENDBRANCH  21  22
ENDBRANCH  20  21
ENDBRANCH  19  20
ENDBRANCH  18  19
ENDBRANCH  17  18
ENDBRANCH  16  17
ENDBRANCH  15  16
ENDBRANCH  14  15
ENDBRANCH  13  14
ENDBRANCH   1  13
TORSDOF 20
ENDMDL
MODEL 8
REMARK VINA RESULT:    -2.351      1.858      3.477
REMARK INTER + INTRA:          -9.517
REMARK INTER:                  -5.753
REMARK INTRA:                  -3.764
REMARK UNBOUND:                -4.418
REMARK SMILES CCCCCCCCCCCCCCCCCCCCCC(=O)[O-]
REMARK SMILES IDX 12 1 11 2 10 3 9 4 8 5 7 6 6 7 5 8 4 9 3 10 2 11 1 12 13 13
REMARK SMILES IDX 14 14 15 15 16 16 17 17 18 18 19 19 20 20 21 21 22 22 23 23
REMARK SMILES IDX 24 24
REMARK H PARENT
REMARK Flexibility Score: inf
ROOT
ATOM      1  C   UNL     1      99.978  66.776 226.096  1.00  0.00     0.000 C 
ENDROOT
BRANCH   1   2
ATOM      2  C   UNL     1     100.423  65.677 225.121  1.00  0.00     0.000 C 
BRANCH   2   3
ATOM      3  C   UNL     1     100.233  64.265 225.696  1.00  0.00     0.000 C 
BRANCH   3   4
ATOM      4  C   UNL     1     100.827  64.120 227.108  1.00  0.00    -0.000 C 
BRANCH   4   5
ATOM      5  C   UNL     1     102.067  63.212 227.132  1.00  0.00    -0.000 C 
BRANCH   5   6
ATOM      6  C   UNL     1     102.147  62.289 225.908  1.00  0.00    -0.000 C 
BRANCH   6   7
ATOM      7  C   UNL     1     101.605  60.876 226.189  1.00  0.00    -0.000 C 
BRANCH   7   8
ATOM      8  C   UNL     1     101.595  60.503 227.688  1.00  0.00    -0.000 C 
BRANCH   8   9
ATOM      9  C   UNL     1     100.210  60.061 228.198  1.00  0.00    -0.000 C 
BRANCH   9  10
ATOM     10  C   UNL     1      99.074  61.028 227.788  1.00  0.00    -0.000 C 
BRANCH  10  11
ATOM     11  C   UNL     1      98.176  61.390 228.978  1.00  0.00    -0.003 C 
ATOM     12  C   UNL     1      98.862  62.387 229.908  1.00  0.00     0.004 C 
ENDBRANCH  10  11
ENDBRANCH   9  10
ENDBRANCH   8   9
ENDBRANCH   7   8
ENDBRANCH   6   7
ENDBRANCH   5   6
ENDBRANCH   4   5
ENDBRANCH   3   4
ENDBRANCH   2   3
ENDBRANCH   1   2
BRANCH   1  13
ATOM     13  C   UNL     1      99.360  67.961 225.340  1.00  0.00     0.000 C 
BRANCH  13  14
ATOM     14  C   UNL     1      97.928  68.287 225.804  1.00  0.00     0.000 C 
BRANCH  14  15
ATOM     15  C   UNL     1      96.873  68.323 224.682  1.00  0.00     0.000 C 
BRANCH  15  16
ATOM     16  C   UNL     1      95.902  67.128 224.663  1.00  0.00     0.000 C 
BRANCH  16  17
ATOM     17  C   UNL     1      96.488  65.860 224.006  1.00  0.00     0.000 C 
BRANCH  17  18
ATOM     18  C   UNL     1      96.846  64.773 225.036  1.00  0.00     0.000 C 
BRANCH  18  19
ATOM     19  C   UNL     1      96.107  64.970 226.377  1.00  0.00     0.000 C 
BRANCH  19  20
ATOM     20  C   UNL     1      96.928  64.537 227.602  1.00  0.00     0.006 C 
BRANCH  20  21
ATOM     21  C   UNL     1      97.328  65.717 228.495  1.00  0.00     0.053 C 
BRANCH  21  22
ATOM     22  C   UNL     1      96.145  66.226 229.257  1.00  0.00     0.041 C 
ATOM     23  O   UNL     1      95.652  65.543 230.196  1.00  0.00    -0.550 OA
ATOM     24  O   UNL     1      95.602  67.468 228.953  1.00  0.00    -0.550 OA
ENDBRANCH  21  22
ENDBRANCH  20  21
ENDBRANCH  19  20
ENDBRANCH  18  19
ENDBRANCH  17  18
ENDBRANCH  16  17
ENDBRANCH  15  16
ENDBRANCH  14  15
ENDBRANCH  13  14
ENDBRANCH   1  13
TORSDOF 20
ENDMDL
MODEL 9
REMARK VINA RESULT:    -2.341      1.143      5.825
REMARK INTER + INTRA:          -9.497
REMARK INTER:                  -5.284
REMARK INTRA:                  -4.213
REMARK UNBOUND:                -4.418
REMARK SMILES CCCCCCCCCCCCCCCCCCCCCC(=O)[O-]
REMARK SMILES IDX 12 1 11 2 10 3 9 4 8 5 7 6 6 7 5 8 4 9 3 10 2 11 1 12 13 13
REMARK SMILES IDX 14 14 15 15 16 16 17 17 18 18 19 19 20 20 21 21 22 22 23 23
REMARK SMILES IDX 24 24
REMARK H PARENT
REMARK Flexibility Score: inf
ROOT
ATOM      1  C   UNL     1     100.754  66.065 226.420  1.00  0.00     0.000 C 
ENDROOT
BRANCH   1   2
ATOM      2  C   UNL     1      99.563  66.120 225.454  1.00  0.00     0.000 C 
BRANCH   2   3
ATOM      3  C   UNL     1      98.808  64.784 225.371  1.00  0.00     0.000 C 
BRANCH   3   4
ATOM      4  C   UNL     1      97.326  64.968 224.999  1.00  0.00    -0.000 C 
BRANCH   4   5
ATOM      5  C   UNL     1      96.390  64.763 226.200  1.00  0.00    -0.000 C 
BRANCH   5   6
ATOM      6  C   UNL     1      95.160  65.681 226.154  1.00  0.00    -0.000 C 
BRANCH   6   7
ATOM      7  C   UNL     1      95.530  67.166 225.991  1.00  0.00    -0.000 C 
BRANCH   7   8
ATOM      8  C   UNL     1      95.796  67.889 227.329  1.00  0.00    -0.000 C 
BRANCH   8   9
ATOM      9  C   UNL     1      97.288  67.955 227.703  1.00  0.00    -0.000 C 
BRANCH   9  10
ATOM     10  C   UNL     1      97.628  67.167 228.990  1.00  0.00    -0.000 C 
BRANCH  10  11
ATOM     11  C   UNL     1      96.400  66.440 229.554  1.00  0.00    -0.003 C 
ATOM     12  C   UNL     1      96.048  66.945 230.951  1.00  0.00     0.004 C 
ENDBRANCH  10  11
ENDBRANCH   9  10
ENDBRANCH   8   9
ENDBRANCH   7   8
ENDBRANCH   6   7
ENDBRANCH   5   6
ENDBRANCH   4   5
ENDBRANCH   3   4
ENDBRANCH   2   3
ENDBRANCH   1   2
BRANCH   1  13
ATOM     13  C   UNL     1     100.407  65.245 227.671  1.00  0.00     0.000 C 
BRANCH  13  14
ATOM     14  C   UNL     1     101.589  64.397 228.178  1.00  0.00     0.000 C 
BRANCH  14  15
ATOM     15  C   UNL     1     102.023  63.256 227.237  1.00  0.00     0.000 C 
BRANCH  15  16
ATOM     16  C   UNL     1     100.895  62.296 226.817  1.00  0.00     0.000 C 
BRANCH  16  17
ATOM     17  C   UNL     1     100.756  61.060 227.731  1.00  0.00     0.000 C 
BRANCH  17  18
ATOM     18  C   UNL     1      99.416  61.034 228.488  1.00  0.00     0.000 C 
BRANCH  18  19
ATOM     19  C   UNL     1      98.428  62.101 227.968  1.00  0.00     0.000 C 
BRANCH  19  20
ATOM     20  C   UNL     1      97.909  63.044 229.066  1.00  0.00     0.006 C 
BRANCH  20  21
ATOM     21  C   UNL     1      98.784  63.030 230.324  1.00  0.00     0.053 C 
BRANCH  21  22
ATOM     22  C   UNL     1      98.173  63.871 231.400  1.00  0.00     0.041 C 
ATOM     23  O   UNL     1      98.817  64.834 231.896  1.00  0.00    -0.550 OA
ATOM     24  O   UNL     1      96.880  63.611 231.837  1.00  0.00    -0.550 OA
ENDBRANCH  21  22
ENDBRANCH  20  21
ENDBRANCH  19  20
ENDBRANCH  18  19
ENDBRANCH  17  18
ENDBRANCH  16  17
ENDBRANCH  15  16
ENDBRANCH  14  15
ENDBRANCH  13  14
ENDBRANCH   1  13
TORSDOF 20
ENDMDL
