MODEL 1
REMARK VINA RESULT:    -5.926      0.000      0.000
REMARK INTER + INTRA:          -6.100
REMARK INTER:                  -6.100
REMARK INTRA:                   0.000
REMARK UNBOUND:                 0.000
REMARK SMILES O=c1ccc2ccc(O)cc2o1
REMARK SMILES IDX 6 1 7 2 8 3 10 4 11 5 5 6 4 7 3 8 2 9 1 10 12 11 9 12
REMARK H PARENT 9 13
REMARK Flexibility Score: inf
ROOT
ATOM      1  C   UNL     1     -10.491  -5.841  -8.404  1.00  0.00     0.016 A 
ATOM      2  C   UNL     1     -10.533  -4.783  -9.318  1.00  0.00     0.047 A 
ATOM      3  C   UNL     1     -11.295  -3.637  -9.041  1.00  0.00     0.119 A 
ATOM      4  C   UNL     1     -12.015  -3.551  -7.844  1.00  0.00     0.094 A 
ATOM      5  C   UNL     1     -11.980  -4.604  -6.923  1.00  0.00     0.142 A 
ATOM      6  C   UNL     1     -11.212  -5.756  -7.204  1.00  0.00     0.018 A 
ATOM      7  C   UNL     1     -11.197  -6.791  -6.265  1.00  0.00     0.019 A 
ATOM      8  C   UNL     1     -11.932  -6.658  -5.088  1.00  0.00     0.094 A 
ATOM      9  C   UNL     1     -12.668  -5.488  -4.876  1.00  0.00     0.336 A 
ATOM     10  O   UNL     1     -13.338  -5.349  -3.820  1.00  0.00    -0.246 OA
ATOM     11  O   UNL     1     -12.667  -4.517  -5.787  1.00  0.00    -0.423 OA
ENDROOT
BRANCH   3  12
ATOM     12  O   UNL     1     -11.340  -2.581  -9.948  1.00  0.00    -0.508 OA
ATOM     13  H   UNL     1     -11.476  -2.739 -10.940  1.00  0.00     0.293 HD
ENDBRANCH   3  12
TORSDOF 1
ENDMDL
MODEL 2
REMARK VINA RESULT:    -5.582      0.790      4.218
REMARK INTER + INTRA:          -5.745
REMARK INTER:                  -5.745
REMARK INTRA:                   0.000
REMARK UNBOUND:                 0.000
REMARK SMILES O=c1ccc2ccc(O)cc2o1
REMARK SMILES IDX 6 1 7 2 8 3 10 4 11 5 5 6 4 7 3 8 2 9 1 10 12 11 9 12
REMARK H PARENT 9 13
REMARK Flexibility Score: inf
ROOT
ATOM      1  C   UNL     1     -11.149  -6.752  -6.240  1.00  0.00     0.016 A 
ATOM      2  C   UNL     1     -11.804  -6.507  -5.029  1.00  0.00     0.047 A 
ATOM      3  C   UNL     1     -12.458  -5.285  -4.812  1.00  0.00     0.119 A 
ATOM      4  C   UNL     1     -12.454  -4.305  -5.812  1.00  0.00     0.094 A 
ATOM      5  C   UNL     1     -11.801  -4.540  -7.026  1.00  0.00     0.142 A 
ATOM      6  C   UNL     1     -11.144  -5.771  -7.243  1.00  0.00     0.018 A 
ATOM      7  C   UNL     1     -10.500  -5.977  -8.466  1.00  0.00     0.019 A 
ATOM      8  C   UNL     1     -10.525  -4.970  -9.430  1.00  0.00     0.094 A 
ATOM      9  C   UNL     1     -11.196  -3.775  -9.147  1.00  0.00     0.336 A 
ATOM     10  O   UNL     1     -11.229  -2.854 -10.004  1.00  0.00    -0.246 OA
ATOM     11  O   UNL     1     -11.801  -3.604  -7.973  1.00  0.00    -0.423 OA
ENDROOT
BRANCH   3  12
ATOM     12  O   UNL     1     -13.113  -5.036  -3.608  1.00  0.00    -0.508 OA
ATOM     13  H   UNL     1     -12.639  -5.133  -2.717  1.00  0.00     0.293 HD
ENDBRANCH   3  12
TORSDOF 1
ENDMDL
MODEL 3
REMARK VINA RESULT:    -5.359      2.148      4.767
REMARK INTER + INTRA:          -5.516
REMARK INTER:                  -5.516
REMARK INTRA:                   0.000
REMARK UNBOUND:                 0.000
REMARK SMILES O=c1ccc2ccc(O)cc2o1
REMARK SMILES IDX 6 1 7 2 8 3 10 4 11 5 5 6 4 7 3 8 2 9 1 10 12 11 9 12
REMARK H PARENT 9 13
REMARK Flexibility Score: inf
ROOT
ATOM      1  C   UNL     1     -11.635  -4.594  -5.831  1.00  0.00     0.016 A 
ATOM      2  C   UNL     1     -10.924  -5.492  -5.028  1.00  0.00     0.047 A 
ATOM      3  C   UNL     1      -9.947  -6.327  -5.592  1.00  0.00     0.119 A 
ATOM      4  C   UNL     1      -9.682  -6.261  -6.965  1.00  0.00     0.094 A 
ATOM      5  C   UNL     1     -10.387  -5.367  -7.776  1.00  0.00     0.142 A 
ATOM      6  C   UNL     1     -11.370  -4.527  -7.206  1.00  0.00     0.018 A 
ATOM      7  C   UNL     1     -12.058  -3.644  -8.043  1.00  0.00     0.019 A 
ATOM      8  C   UNL     1     -11.759  -3.616  -9.404  1.00  0.00     0.094 A 
ATOM      9  C   UNL     1     -10.773  -4.476  -9.899  1.00  0.00     0.336 A 
ATOM     10  O   UNL     1     -10.487  -4.467 -11.125  1.00  0.00    -0.246 OA
ATOM     11  O   UNL     1     -10.132  -5.309  -9.081  1.00  0.00    -0.423 OA
ENDROOT
BRANCH   3  12
ATOM     12  O   UNL     1      -9.236  -7.223  -4.796  1.00  0.00    -0.508 OA
ATOM     13  H   UNL     1      -9.016  -8.158  -5.119  1.00  0.00     0.293 HD
ENDBRANCH   3  12
TORSDOF 1
ENDMDL
MODEL 4
REMARK VINA RESULT:    -5.324      2.071      2.633
REMARK INTER + INTRA:          -5.479
REMARK INTER:                  -5.479
REMARK INTRA:                   0.000
REMARK UNBOUND:                 0.000
REMARK SMILES O=c1ccc2ccc(O)cc2o1
REMARK SMILES IDX 6 1 7 2 8 3 10 4 11 5 5 6 4 7 3 8 2 9 1 10 12 11 9 12
REMARK H PARENT 9 13
REMARK Flexibility Score: inf
ROOT
ATOM      1  C   UNL     1     -11.876  -3.635  -7.819  1.00  0.00     0.016 A 
ATOM      2  C   UNL     1     -11.641  -3.653  -9.197  1.00  0.00     0.047 A 
ATOM      3  C   UNL     1     -10.750  -4.584  -9.752  1.00  0.00     0.119 A 
ATOM      4  C   UNL     1     -10.093  -5.500  -8.923  1.00  0.00     0.094 A 
ATOM      5  C   UNL     1     -10.320  -5.490  -7.543  1.00  0.00     0.142 A 
ATOM      6  C   UNL     1     -11.218  -4.552  -6.986  1.00  0.00     0.018 A 
ATOM      7  C   UNL     1     -11.425  -4.567  -5.604  1.00  0.00     0.019 A 
ATOM      8  C   UNL     1     -10.746  -5.498  -4.821  1.00  0.00     0.094 A 
ATOM      9  C   UNL     1      -9.872  -6.399  -5.440  1.00  0.00     0.336 A 
ATOM     10  O   UNL     1      -9.250  -7.247  -4.750  1.00  0.00    -0.246 OA
ATOM     11  O   UNL     1      -9.692  -6.363  -6.759  1.00  0.00    -0.423 OA
ENDROOT
BRANCH   3  12
ATOM     12  O   UNL     1     -10.513  -4.606 -11.125  1.00  0.00    -0.508 OA
ATOM     13  H   UNL     1      -9.573  -4.556 -11.501  1.00  0.00     0.293 HD
ENDBRANCH   3  12
TORSDOF 1
ENDMDL
MODEL 5
REMARK VINA RESULT:    -4.746      1.967      2.801
REMARK INTER + INTRA:          -4.884
REMARK INTER:                  -4.884
REMARK INTRA:                   0.000
REMARK UNBOUND:                 0.000
REMARK SMILES O=c1ccc2ccc(O)cc2o1
REMARK SMILES IDX 6 1 7 2 8 3 10 4 11 5 5 6 4 7 3 8 2 9 1 10 12 11 9 12
REMARK H PARENT 9 13
REMARK Flexibility Score: inf
ROOT
ATOM      1  C   UNL     1     -10.437  -6.149  -6.840  1.00  0.00     0.016 A 
ATOM      2  C   UNL     1     -10.605  -4.762  -6.778  1.00  0.00     0.047 A 
ATOM      3  C   UNL     1     -11.700  -4.211  -6.096  1.00  0.00     0.119 A 
ATOM      4  C   UNL     1     -12.630  -5.053  -5.474  1.00  0.00     0.094 A 
ATOM      5  C   UNL     1     -12.471  -6.441  -5.530  1.00  0.00     0.142 A 
ATOM      6  C   UNL     1     -11.367  -6.994  -6.217  1.00  0.00     0.018 A 
ATOM      7  C   UNL     1     -11.235  -8.385  -6.256  1.00  0.00     0.019 A 
ATOM      8  C   UNL     1     -12.188  -9.180  -5.622  1.00  0.00     0.094 A 
ATOM      9  C   UNL     1     -13.255  -8.564  -4.959  1.00  0.00     0.336 A 
ATOM     10  O   UNL     1     -14.125  -9.265  -4.380  1.00  0.00    -0.246 OA
ATOM     11  O   UNL     1     -13.358  -7.237  -4.937  1.00  0.00    -0.423 OA
ENDROOT
BRANCH   3  12
ATOM     12  O   UNL     1     -11.872  -2.830  -6.031  1.00  0.00    -0.508 OA
ATOM     13  H   UNL     1     -11.549  -2.220  -6.773  1.00  0.00     0.293 HD
ENDBRANCH   3  12
TORSDOF 1
ENDMDL
MODEL 6
REMARK VINA RESULT:    -4.710      7.836      8.400
REMARK INTER + INTRA:          -4.848
REMARK INTER:                  -4.848
REMARK INTRA:                   0.000
REMARK UNBOUND:                 0.000
REMARK SMILES O=c1ccc2ccc(O)cc2o1
REMARK SMILES IDX 6 1 7 2 8 3 10 4 11 5 5 6 4 7 3 8 2 9 1 10 12 11 9 12
REMARK H PARENT 9 13
REMARK Flexibility Score: inf
ROOT
ATOM      1  C   UNL     1      -7.551 -10.226  -5.124  1.00  0.00     0.016 A 
ATOM      2  C   UNL     1      -6.235  -9.999  -5.540  1.00  0.00     0.047 A 
ATOM      3  C   UNL     1      -5.677 -10.767  -6.573  1.00  0.00     0.119 A 
ATOM      4  C   UNL     1      -6.440 -11.765  -7.191  1.00  0.00     0.094 A 
ATOM      5  C   UNL     1      -7.757 -11.999  -6.782  1.00  0.00     0.142 A 
ATOM      6  C   UNL     1      -8.317 -11.225  -5.741  1.00  0.00     0.018 A 
ATOM      7  C   UNL     1      -9.636 -11.482  -5.354  1.00  0.00     0.019 A 
ATOM      8  C   UNL     1     -10.354 -12.487  -6.000  1.00  0.00     0.094 A 
ATOM      9  C   UNL     1      -9.736 -13.214  -7.023  1.00  0.00     0.336 A 
ATOM     10  O   UNL     1     -10.368 -14.125  -7.618  1.00  0.00    -0.246 OA
ATOM     11  O   UNL     1      -8.478 -12.949  -7.372  1.00  0.00    -0.423 OA
ENDROOT
BRANCH   3  12
ATOM     12  O   UNL     1      -4.367 -10.546  -6.992  1.00  0.00    -0.508 OA
ATOM     13  H   UNL     1      -3.587 -10.612  -6.348  1.00  0.00     0.293 HD
ENDBRANCH   3  12
TORSDOF 1
ENDMDL
MODEL 7
REMARK VINA RESULT:    -4.598      6.995      8.088
REMARK INTER + INTRA:          -4.732
REMARK INTER:                  -4.732
REMARK INTRA:                   0.000
REMARK UNBOUND:                 0.000
REMARK SMILES O=c1ccc2ccc(O)cc2o1
REMARK SMILES IDX 6 1 7 2 8 3 10 4 11 5 5 6 4 7 3 8 2 9 1 10 12 11 9 12
REMARK H PARENT 9 13
REMARK Flexibility Score: inf
ROOT
ATOM      1  C   UNL     1      -6.619 -12.775  -7.648  1.00  0.00     0.016 A 
ATOM      2  C   UNL     1      -5.376 -12.141  -7.556  1.00  0.00     0.047 A 
ATOM      3  C   UNL     1      -5.216 -11.010  -6.740  1.00  0.00     0.119 A 
ATOM      4  C   UNL     1      -6.306 -10.514  -6.015  1.00  0.00     0.094 A 
ATOM      5  C   UNL     1      -7.553 -11.141  -6.101  1.00  0.00     0.142 A 
ATOM      6  C   UNL     1      -7.712 -12.279  -6.923  1.00  0.00     0.018 A 
ATOM      7  C   UNL     1      -8.970 -12.884  -6.988  1.00  0.00     0.019 A 
ATOM      8  C   UNL     1     -10.024 -12.352  -6.247  1.00  0.00     0.094 A 
ATOM      9  C   UNL     1      -9.794 -11.223  -5.454  1.00  0.00     0.336 A 
ATOM     10  O   UNL     1     -10.733 -10.728  -4.778  1.00  0.00    -0.246 OA
ATOM     11  O   UNL     1      -8.586 -10.665  -5.409  1.00  0.00    -0.423 OA
ENDROOT
BRANCH   3  12
ATOM     12  O   UNL     1      -3.980 -10.375  -6.644  1.00  0.00    -0.508 OA
ATOM     13  H   UNL     1      -3.439 -10.142  -7.469  1.00  0.00     0.293 HD
ENDBRANCH   3  12
TORSDOF 1
ENDMDL
MODEL 8
REMARK VINA RESULT:    -4.594      7.182      8.713
REMARK INTER + INTRA:          -4.728
REMARK INTER:                  -4.728
REMARK INTRA:                   0.000
REMARK UNBOUND:                 0.000
REMARK SMILES O=c1ccc2ccc(O)cc2o1
REMARK SMILES IDX 6 1 7 2 8 3 10 4 11 5 5 6 4 7 3 8 2 9 1 10 12 11 9 12
REMARK H PARENT 9 13
REMARK Flexibility Score: inf
ROOT
ATOM      1  C   UNL     1      -9.414 -11.670  -5.961  1.00  0.00     0.016 A 
ATOM      2  C   UNL     1      -9.479 -10.553  -5.122  1.00  0.00     0.047 A 
ATOM      3  C   UNL     1      -8.337  -9.770  -4.895  1.00  0.00     0.119 A 
ATOM      4  C   UNL     1      -7.127 -10.107  -5.512  1.00  0.00     0.094 A 
ATOM      5  C   UNL     1      -7.051 -11.222  -6.353  1.00  0.00     0.142 A 
ATOM      6  C   UNL     1      -8.202 -12.009  -6.580  1.00  0.00     0.018 A 
ATOM      7  C   UNL     1      -8.095 -13.117  -7.425  1.00  0.00     0.019 A 
ATOM      8  C   UNL     1      -6.868 -13.412  -8.015  1.00  0.00     0.094 A 
ATOM      9  C   UNL     1      -5.770 -12.588  -7.746  1.00  0.00     0.336 A 
ATOM     10  O   UNL     1      -4.653 -12.837  -8.269  1.00  0.00    -0.246 OA
ATOM     11  O   UNL     1      -5.898 -11.538  -6.937  1.00  0.00    -0.423 OA
ENDROOT
BRANCH   3  12
ATOM     12  O   UNL     1      -8.397  -8.656  -4.061  1.00  0.00    -0.508 OA
ATOM     13  H   UNL     1      -7.931  -7.788  -4.302  1.00  0.00     0.293 HD
ENDBRANCH   3  12
TORSDOF 1
ENDMDL
MODEL 9
REMARK VINA RESULT:    -4.438      7.224      8.824
REMARK INTER + INTRA:          -4.568
REMARK INTER:                  -4.568
REMARK INTRA:                   0.000
REMARK UNBOUND:                 0.000
REMARK SMILES O=c1ccc2ccc(O)cc2o1
REMARK SMILES IDX 6 1 7 2 8 3 10 4 11 5 5 6 4 7 3 8 2 9 1 10 12 11 9 12
REMARK H PARENT 9 13
REMARK Flexibility Score: inf
ROOT
ATOM      1  C   UNL     1      -8.121 -10.002  -5.145  1.00  0.00     0.016 A 
ATOM      2  C   UNL     1      -9.462 -10.400  -5.124  1.00  0.00     0.047 A 
ATOM      3  C   UNL     1      -9.878 -11.524  -5.853  1.00  0.00     0.119 A 
ATOM      4  C   UNL     1      -8.948 -12.252  -6.604  1.00  0.00     0.094 A 
ATOM      5  C   UNL     1      -7.605 -11.862  -6.632  1.00  0.00     0.142 A 
ATOM      6  C   UNL     1      -7.188 -10.729  -5.897  1.00  0.00     0.018 A 
ATOM      7  C   UNL     1      -5.840 -10.364  -5.945  1.00  0.00     0.019 A 
ATOM      8  C   UNL     1      -4.952 -11.121  -6.709  1.00  0.00     0.094 A 
ATOM      9  C   UNL     1      -5.436 -12.230  -7.410  1.00  0.00     0.336 A 
ATOM     10  O   UNL     1      -4.651 -12.926  -8.105  1.00  0.00    -0.246 OA
ATOM     11  O   UNL     1      -6.725 -12.557  -7.349  1.00  0.00    -0.423 OA
ENDROOT
BRANCH   3  12
ATOM     12  O   UNL     1     -11.212 -11.926  -5.835  1.00  0.00    -0.508 OA
ATOM     13  H   UNL     1     -11.497 -12.833  -6.186  1.00  0.00     0.293 HD
ENDBRANCH   3  12
TORSDOF 1
ENDMDL
