MODEL 1
REMARK VINA RESULT:    -3.551      0.000      0.000
REMARK INTER + INTRA:          -6.858
REMARK INTER:                  -6.042
REMARK INTRA:                  -0.816
REMARK UNBOUND:                -0.816
REMARK SMILES CCCCCCCCCCCCCC(=O)[O-]
REMARK SMILES IDX 8 1 9 2 10 3 11 4 12 5 13 6 14 7 15 8 16 9 7 10 6 11 5 12
REMARK SMILES IDX 4 13 3 14 2 15 1 16
REMARK H PARENT
REMARK Flexibility Score: inf
ROOT
ATOM      1  C   UNL     1      16.194  -3.997  14.903  1.00  0.00     0.000 C 
ENDROOT
BRANCH   1   2
ATOM      2  C   UNL     1      15.666  -2.796  14.092  1.00  0.00     0.000 C 
BRANCH   2   3
ATOM      3  C   UNL     1      15.300  -1.552  14.925  1.00  0.00     0.000 C 
BRANCH   3   4
ATOM      4  C   UNL     1      16.080  -0.275  14.562  1.00  0.00     0.000 C 
BRANCH   4   5
ATOM      5  C   UNL     1      16.403   0.595  15.785  1.00  0.00     0.006 C 
BRANCH   5   6
ATOM      6  C   UNL     1      16.603  -0.268  17.034  1.00  0.00     0.053 C 
BRANCH   6   7
ATOM      7  C   UNL     1      18.058  -0.515  17.273  1.00  0.00     0.041 C 
ATOM      8  O   UNL     1      18.661   0.092  18.197  1.00  0.00    -0.550 OA
ATOM      9  O   UNL     1      18.762  -1.379  16.443  1.00  0.00    -0.550 OA
ENDBRANCH   6   7
ENDBRANCH   5   6
ENDBRANCH   4   5
ENDBRANCH   3   4
ENDBRANCH   2   3
ENDBRANCH   1   2
BRANCH   1  10
ATOM     10  C   UNL     1      15.957  -5.373  14.254  1.00  0.00     0.000 C 
BRANCH  10  11
ATOM     11  C   UNL     1      17.235  -5.977  13.654  1.00  0.00    -0.000 C 
BRANCH  11  12
ATOM     12  C   UNL     1      17.076  -6.206  12.142  1.00  0.00    -0.000 C 
BRANCH  12  13
ATOM     13  C   UNL     1      15.624  -6.536  11.753  1.00  0.00    -0.000 C 
BRANCH  13  14
ATOM     14  C   UNL     1      15.225  -5.988  10.364  1.00  0.00    -0.000 C 
BRANCH  14  15
ATOM     15  C   UNL     1      16.424  -5.763   9.428  1.00  0.00    -0.003 C 
ATOM     16  C   UNL     1      16.370  -6.632   8.173  1.00  0.00     0.004 C 
ENDBRANCH  14  15
ENDBRANCH  13  14
ENDBRANCH  12  13
ENDBRANCH  11  12
ENDBRANCH  10  11
ENDBRANCH   1  10
TORSDOF 12
ENDMDL
MODEL 2
REMARK VINA RESULT:    -3.528      3.668      7.677
REMARK INTER + INTRA:          -6.819
REMARK INTER:                  -6.204
REMARK INTRA:                  -0.615
REMARK UNBOUND:                -0.816
REMARK SMILES CCCCCCCCCCCCCC(=O)[O-]
REMARK SMILES IDX 8 1 9 2 10 3 11 4 12 5 13 6 14 7 15 8 16 9 7 10 6 11 5 12
REMARK SMILES IDX 4 13 3 14 2 15 1 16
REMARK H PARENT
REMARK Flexibility Score: inf
ROOT
ATOM      1  C   UNL     1      15.787  -5.251  12.338  1.00  0.00     0.000 C 
ENDROOT
BRANCH   1   2
ATOM      2  C   UNL     1      16.110  -6.396  11.357  1.00  0.00     0.000 C 
BRANCH   2   3
ATOM      3  C   UNL     1      15.285  -6.397  10.054  1.00  0.00     0.000 C 
BRANCH   3   4
ATOM      4  C   UNL     1      16.113  -6.514   8.762  1.00  0.00     0.000 C 
BRANCH   4   5
ATOM      5  C   UNL     1      16.975  -5.273   8.491  1.00  0.00     0.006 C 
BRANCH   5   6
ATOM      6  C   UNL     1      18.466  -5.602   8.616  1.00  0.00     0.053 C 
BRANCH   6   7
ATOM      7  C   UNL     1      19.292  -4.555   7.940  1.00  0.00     0.041 C 
ATOM      8  O   UNL     1      18.799  -3.425   7.684  1.00  0.00    -0.550 OA
ATOM      9  O   UNL     1      20.593  -4.844   7.548  1.00  0.00    -0.550 OA
ENDBRANCH   6   7
ENDBRANCH   5   6
ENDBRANCH   4   5
ENDBRANCH   3   4
ENDBRANCH   2   3
ENDBRANCH   1   2
BRANCH   1  10
ATOM     10  C   UNL     1      16.497  -5.344  13.701  1.00  0.00     0.000 C 
BRANCH  10  11
ATOM     11  C   UNL     1      15.728  -4.634  14.824  1.00  0.00    -0.000 C 
BRANCH  11  12
ATOM     12  C   UNL     1      16.305  -3.233  15.082  1.00  0.00    -0.000 C 
BRANCH  12  13
ATOM     13  C   UNL     1      15.533  -2.136  14.327  1.00  0.00    -0.000 C 
BRANCH  13  14
ATOM     14  C   UNL     1      16.144  -0.728  14.503  1.00  0.00    -0.000 C 
BRANCH  14  15
ATOM     15  C   UNL     1      17.207  -0.656  15.612  1.00  0.00    -0.003 C 
ATOM     16  C   UNL     1      16.717   0.080  16.857  1.00  0.00     0.004 C 
ENDBRANCH  14  15
ENDBRANCH  13  14
ENDBRANCH  12  13
ENDBRANCH  11  12
ENDBRANCH  10  11
ENDBRANCH   1  10
TORSDOF 12
ENDMDL
MODEL 3
REMARK VINA RESULT:    -3.519     15.763     18.085
REMARK INTER + INTRA:          -6.803
REMARK INTER:                  -6.288
REMARK INTRA:                  -0.515
REMARK UNBOUND:                -0.816
REMARK SMILES CCCCCCCCCCCCCC(=O)[O-]
REMARK SMILES IDX 8 1 9 2 10 3 11 4 12 5 13 6 14 7 15 8 16 9 7 10 6 11 5 12
REMARK SMILES IDX 4 13 3 14 2 15 1 16
REMARK H PARENT
REMARK Flexibility Score: inf
ROOT
ATOM      1  C   UNL     1      23.262  12.105   5.862  1.00  0.00     0.000 C 
ENDROOT
BRANCH   1   2
ATOM      2  C   UNL     1      23.716  10.673   5.510  1.00  0.00     0.000 C 
BRANCH   2   3
ATOM      3  C   UNL     1      24.888  10.130   6.350  1.00  0.00     0.000 C 
BRANCH   3   4
ATOM      4  C   UNL     1      25.917   9.295   5.567  1.00  0.00     0.000 C 
BRANCH   4   5
ATOM      5  C   UNL     1      27.368   9.672   5.897  1.00  0.00     0.006 C 
BRANCH   5   6
ATOM      6  C   UNL     1      27.933  10.641   4.854  1.00  0.00     0.053 C 
BRANCH   6   7
ATOM      7  C   UNL     1      28.418  11.894   5.512  1.00  0.00     0.041 C 
ATOM      8  O   UNL     1      29.363  12.551   5.003  1.00  0.00    -0.550 OA
ATOM      9  O   UNL     1      27.857  12.309   6.713  1.00  0.00    -0.550 OA
ENDBRANCH   6   7
ENDBRANCH   5   6
ENDBRANCH   4   5
ENDBRANCH   3   4
ENDBRANCH   2   3
ENDBRANCH   1   2
BRANCH   1  10
ATOM     10  C   UNL     1      22.310  12.206   7.068  1.00  0.00     0.000 C 
BRANCH  10  11
ATOM     11  C   UNL     1      21.508  10.918   7.304  1.00  0.00    -0.000 C 
BRANCH  11  12
ATOM     12  C   UNL     1      20.560  11.074   8.503  1.00  0.00    -0.000 C 
BRANCH  12  13
ATOM     13  C   UNL     1      20.233   9.725   9.167  1.00  0.00    -0.000 C 
BRANCH  13  14
ATOM     14  C   UNL     1      18.774   9.270   8.939  1.00  0.00    -0.000 C 
BRANCH  14  15
ATOM     15  C   UNL     1      18.340   8.119   9.862  1.00  0.00    -0.003 C 
ATOM     16  C   UNL     1      17.510   8.593  11.053  1.00  0.00     0.004 C 
ENDBRANCH  14  15
ENDBRANCH  13  14
ENDBRANCH  12  13
ENDBRANCH  11  12
ENDBRANCH  10  11
ENDBRANCH   1  10
TORSDOF 12
ENDMDL
MODEL 4
REMARK VINA RESULT:    -3.387     13.756     16.470
REMARK INTER + INTRA:          -6.579
REMARK INTER:                  -5.780
REMARK INTRA:                  -0.798
REMARK UNBOUND:                -0.816
REMARK SMILES CCCCCCCCCCCCCC(=O)[O-]
REMARK SMILES IDX 8 1 9 2 10 3 11 4 12 5 13 6 14 7 15 8 16 9 7 10 6 11 5 12
REMARK SMILES IDX 4 13 3 14 2 15 1 16
REMARK H PARENT
REMARK Flexibility Score: inf
ROOT
ATOM      1  C   UNL     1      20.473  10.454   8.260  1.00  0.00     0.000 C 
ENDROOT
BRANCH   1   2
ATOM      2  C   UNL     1      21.019  11.870   7.988  1.00  0.00     0.000 C 
BRANCH   2   3
ATOM      3  C   UNL     1      22.353  11.923   7.218  1.00  0.00     0.000 C 
BRANCH   3   4
ATOM      4  C   UNL     1      22.992  10.552   6.930  1.00  0.00     0.000 C 
BRANCH   4   5
ATOM      5  C   UNL     1      23.752  10.516   5.597  1.00  0.00     0.006 C 
BRANCH   5   6
ATOM      6  C   UNL     1      25.253  10.728   5.816  1.00  0.00     0.053 C 
BRANCH   6   7
ATOM      7  C   UNL     1      25.967   9.415   5.864  1.00  0.00     0.041 C 
ATOM      8  O   UNL     1      26.360   8.947   6.965  1.00  0.00    -0.550 OA
ATOM      9  O   UNL     1      26.241   8.730   4.687  1.00  0.00    -0.550 OA
ENDBRANCH   6   7
ENDBRANCH   5   6
ENDBRANCH   4   5
ENDBRANCH   3   4
ENDBRANCH   2   3
ENDBRANCH   1   2
BRANCH   1  10
ATOM     10  C   UNL     1      19.346  10.001   7.314  1.00  0.00     0.000 C 
BRANCH  10  11
ATOM     11  C   UNL     1      18.499   8.861   7.898  1.00  0.00    -0.000 C 
BRANCH  11  12
ATOM     12  C   UNL     1      19.002   8.465   9.295  1.00  0.00    -0.000 C 
BRANCH  12  13
ATOM     13  C   UNL     1      17.918   8.633  10.375  1.00  0.00    -0.000 C 
BRANCH  13  14
ATOM     14  C   UNL     1      17.409  10.087  10.506  1.00  0.00    -0.000 C 
BRANCH  14  15
ATOM     15  C   UNL     1      17.517  10.646  11.934  1.00  0.00    -0.003 C 
ATOM     16  C   UNL     1      17.008   9.672  12.994  1.00  0.00     0.004 C 
ENDBRANCH  14  15
ENDBRANCH  13  14
ENDBRANCH  12  13
ENDBRANCH  11  12
ENDBRANCH  10  11
ENDBRANCH   1  10
TORSDOF 12
ENDMDL
MODEL 5
REMARK VINA RESULT:    -3.361     16.902     18.862
REMARK INTER + INTRA:          -6.534
REMARK INTER:                  -4.762
REMARK INTRA:                  -1.772
REMARK UNBOUND:                -0.816
REMARK SMILES CCCCCCCCCCCCCC(=O)[O-]
REMARK SMILES IDX 8 1 9 2 10 3 11 4 12 5 13 6 14 7 15 8 16 9 7 10 6 11 5 12
REMARK SMILES IDX 4 13 3 14 2 15 1 16
REMARK H PARENT
REMARK Flexibility Score: inf
ROOT
ATOM      1  C   UNL     1      25.376   9.674   6.535  1.00  0.00     0.000 C 
ENDROOT
BRANCH   1   2
ATOM      2  C   UNL     1      24.703   9.830   5.156  1.00  0.00     0.000 C 
BRANCH   2   3
ATOM      3  C   UNL     1      23.390  10.637   5.154  1.00  0.00     0.000 C 
BRANCH   3   4
ATOM      4  C   UNL     1      23.376  11.859   6.090  1.00  0.00     0.000 C 
BRANCH   4   5
ATOM      5  C   UNL     1      22.091  11.958   6.924  1.00  0.00     0.006 C 
BRANCH   5   6
ATOM      6  C   UNL     1      21.919  10.723   7.814  1.00  0.00     0.053 C 
BRANCH   6   7
ATOM      7  C   UNL     1      20.473  10.495   8.120  1.00  0.00     0.041 C 
ATOM      8  O   UNL     1      20.072  10.481   9.313  1.00  0.00    -0.550 OA
ATOM      9  O   UNL     1      19.575  10.249   7.089  1.00  0.00    -0.550 OA
ENDBRANCH   6   7
ENDBRANCH   5   6
ENDBRANCH   4   5
ENDBRANCH   3   4
ENDBRANCH   2   3
ENDBRANCH   1   2
BRANCH   1  10
ATOM     10  C   UNL     1      26.908   9.523   6.496  1.00  0.00     0.000 C 
BRANCH  10  11
ATOM     11  C   UNL     1      27.593  10.616   5.664  1.00  0.00    -0.000 C 
BRANCH  11  12
ATOM     12  C   UNL     1      27.611  11.953   6.422  1.00  0.00    -0.000 C 
BRANCH  12  13
ATOM     13  C   UNL     1      26.829  13.053   5.683  1.00  0.00    -0.000 C 
BRANCH  13  14
ATOM     14  C   UNL     1      27.008  13.003   4.149  1.00  0.00    -0.000 C 
BRANCH  14  15
ATOM     15  C   UNL     1      25.678  13.006   3.377  1.00  0.00    -0.003 C 
ATOM     16  C   UNL     1      25.675  12.039   2.195  1.00  0.00     0.004 C 
ENDBRANCH  14  15
ENDBRANCH  13  14
ENDBRANCH  12  13
ENDBRANCH  11  12
ENDBRANCH  10  11
ENDBRANCH   1  10
TORSDOF 12
ENDMDL
MODEL 6
REMARK VINA RESULT:    -3.334     12.532     13.669
REMARK INTER + INTRA:          -6.488
REMARK INTER:                  -4.976
REMARK INTRA:                  -1.512
REMARK UNBOUND:                -0.816
REMARK SMILES CCCCCCCCCCCCCC(=O)[O-]
REMARK SMILES IDX 8 1 9 2 10 3 11 4 12 5 13 6 14 7 15 8 16 9 7 10 6 11 5 12
REMARK SMILES IDX 4 13 3 14 2 15 1 16
REMARK H PARENT
REMARK Flexibility Score: inf
ROOT
ATOM      1  C   UNL     1      28.495   1.188   6.684  1.00  0.00     0.000 C 
ENDROOT
BRANCH   1   2
ATOM      2  C   UNL     1      28.051   1.613   5.270  1.00  0.00     0.000 C 
BRANCH   2   3
ATOM      3  C   UNL     1      26.547   1.915   5.116  1.00  0.00     0.000 C 
BRANCH   3   4
ATOM      4  C   UNL     1      25.805   2.204   6.432  1.00  0.00     0.000 C 
BRANCH   4   5
ATOM      5  C   UNL     1      24.305   1.885   6.354  1.00  0.00     0.006 C 
BRANCH   5   6
ATOM      6  C   UNL     1      23.513   3.093   5.845  1.00  0.00     0.053 C 
BRANCH   6   7
ATOM      7  C   UNL     1      22.056   2.765   5.758  1.00  0.00     0.041 C 
ATOM      8  O   UNL     1      21.636   1.640   6.134  1.00  0.00    -0.550 OA
ATOM      9  O   UNL     1      21.169   3.686   5.214  1.00  0.00    -0.550 OA
ENDBRANCH   6   7
ENDBRANCH   5   6
ENDBRANCH   4   5
ENDBRANCH   3   4
ENDBRANCH   2   3
ENDBRANCH   1   2
BRANCH   1  10
ATOM     10  C   UNL     1      29.278   2.259   7.467  1.00  0.00     0.000 C 
BRANCH  10  11
ATOM     11  C   UNL     1      29.188   2.070   8.988  1.00  0.00    -0.000 C 
BRANCH  11  12
ATOM     12  C   UNL     1      28.585   0.700   9.336  1.00  0.00    -0.000 C 
BRANCH  12  13
ATOM     13  C   UNL     1      27.291   0.825  10.160  1.00  0.00    -0.000 C 
BRANCH  13  14
ATOM     14  C   UNL     1      26.080   0.123   9.505  1.00  0.00    -0.000 C 
BRANCH  14  15
ATOM     15  C   UNL     1      26.475  -1.012   8.546  1.00  0.00    -0.003 C 
ATOM     16  C   UNL     1      25.344  -1.415   7.603  1.00  0.00     0.004 C 
ENDBRANCH  14  15
ENDBRANCH  13  14
ENDBRANCH  12  13
ENDBRANCH  11  12
ENDBRANCH  10  11
ENDBRANCH   1  10
TORSDOF 12
ENDMDL
MODEL 7
REMARK VINA RESULT:    -3.332     11.847     13.630
REMARK INTER + INTRA:          -6.485
REMARK INTER:                  -4.627
REMARK INTRA:                  -1.858
REMARK UNBOUND:                -0.816
REMARK SMILES CCCCCCCCCCCCCC(=O)[O-]
REMARK SMILES IDX 8 1 9 2 10 3 11 4 12 5 13 6 14 7 15 8 16 9 7 10 6 11 5 12
REMARK SMILES IDX 4 13 3 14 2 15 1 16
REMARK H PARENT
REMARK Flexibility Score: inf
ROOT
ATOM      1  C   UNL     1      18.489   3.013   1.771  1.00  0.00     0.000 C 
ENDROOT
BRANCH   1   2
ATOM      2  C   UNL     1      19.799   3.827   1.766  1.00  0.00     0.000 C 
BRANCH   2   3
ATOM      3  C   UNL     1      20.784   3.493   2.904  1.00  0.00     0.000 C 
BRANCH   3   4
ATOM      4  C   UNL     1      20.385   2.290   3.776  1.00  0.00     0.000 C 
BRANCH   4   5
ATOM      5  C   UNL     1      20.988   2.350   5.188  1.00  0.00     0.006 C 
BRANCH   5   6
ATOM      6  C   UNL     1      22.158   3.337   5.243  1.00  0.00     0.053 C 
BRANCH   6   7
ATOM      7  C   UNL     1      23.358   2.692   5.860  1.00  0.00     0.041 C 
ATOM      8  O   UNL     1      23.357   1.458   6.109  1.00  0.00    -0.550 OA
ATOM      9  O   UNL     1      24.461   3.463   6.205  1.00  0.00    -0.550 OA
ENDBRANCH   6   7
ENDBRANCH   5   6
ENDBRANCH   4   5
ENDBRANCH   3   4
ENDBRANCH   2   3
ENDBRANCH   1   2
BRANCH   1  10
ATOM     10  C   UNL     1      17.243   3.795   2.226  1.00  0.00     0.000 C 
BRANCH  10  11
ATOM     11  C   UNL     1      16.766   3.393   3.629  1.00  0.00    -0.000 C 
BRANCH  11  12
ATOM     12  C   UNL     1      16.809   4.595   4.587  1.00  0.00    -0.000 C 
BRANCH  12  13
ATOM     13  C   UNL     1      18.071   4.593   5.467  1.00  0.00    -0.000 C 
BRANCH  13  14
ATOM     14  C   UNL     1      19.057   5.732   5.122  1.00  0.00    -0.000 C 
BRANCH  14  15
ATOM     15  C   UNL     1      18.421   6.863   4.296  1.00  0.00    -0.003 C 
ATOM     16  C   UNL     1      19.051   8.226   4.570  1.00  0.00     0.004 C 
ENDBRANCH  14  15
ENDBRANCH  13  14
ENDBRANCH  12  13
ENDBRANCH  11  12
ENDBRANCH  10  11
ENDBRANCH   1  10
TORSDOF 12
ENDMDL
MODEL 8
REMARK VINA RESULT:    -3.316     12.220     13.541
REMARK INTER + INTRA:          -6.458
REMARK INTER:                  -5.155
REMARK INTRA:                  -1.303
REMARK UNBOUND:                -0.816
REMARK SMILES CCCCCCCCCCCCCC(=O)[O-]
REMARK SMILES IDX 8 1 9 2 10 3 11 4 12 5 13 6 14 7 15 8 16 9 7 10 6 11 5 12
REMARK SMILES IDX 4 13 3 14 2 15 1 16
REMARK H PARENT
REMARK Flexibility Score: inf
ROOT
ATOM      1  C   UNL     1      26.916  -0.287   6.824  1.00  0.00     0.000 C 
ENDROOT
BRANCH   1   2
ATOM      2  C   UNL     1      25.640   0.579   6.823  1.00  0.00     0.000 C 
BRANCH   2   3
ATOM      3  C   UNL     1      25.871   2.089   6.616  1.00  0.00     0.000 C 
BRANCH   3   4
ATOM      4  C   UNL     1      24.608   2.898   6.272  1.00  0.00     0.000 C 
BRANCH   4   5
ATOM      5  C   UNL     1      23.530   2.055   5.576  1.00  0.00     0.006 C 
BRANCH   5   6
ATOM      6  C   UNL     1      22.132   2.616   5.851  1.00  0.00     0.053 C 
BRANCH   6   7
ATOM      7  C   UNL     1      21.086   1.595   5.536  1.00  0.00     0.041 C 
ATOM      8  O   UNL     1      21.120   0.462   6.085  1.00  0.00    -0.550 OA
ATOM      9  O   UNL     1      20.099   1.876   4.599  1.00  0.00    -0.550 OA
ENDBRANCH   6   7
ENDBRANCH   5   6
ENDBRANCH   4   5
ENDBRANCH   3   4
ENDBRANCH   2   3
ENDBRANCH   1   2
BRANCH   1  10
ATOM     10  C   UNL     1      27.185  -1.043   8.138  1.00  0.00     0.000 C 
BRANCH  10  11
ATOM     11  C   UNL     1      26.487  -0.405   9.348  1.00  0.00    -0.000 C 
BRANCH  11  12
ATOM     12  C   UNL     1      27.501   0.319  10.247  1.00  0.00    -0.000 C 
BRANCH  12  13
ATOM     13  C   UNL     1      27.698   1.789   9.837  1.00  0.00    -0.000 C 
BRANCH  13  14
ATOM     14  C   UNL     1      29.135   2.304  10.083  1.00  0.00    -0.000 C 
BRANCH  14  15
ATOM     15  C   UNL     1      30.093   2.028   8.913  1.00  0.00    -0.003 C 
ATOM     16  C   UNL     1      29.456   2.289   7.549  1.00  0.00     0.004 C 
ENDBRANCH  14  15
ENDBRANCH  13  14
ENDBRANCH  12  13
ENDBRANCH  11  12
ENDBRANCH  10  11
ENDBRANCH   1  10
TORSDOF 12
ENDMDL
MODEL 9
REMARK VINA RESULT:    -3.316     15.822     18.053
REMARK INTER + INTRA:          -6.458
REMARK INTER:                  -5.623
REMARK INTRA:                  -0.835
REMARK UNBOUND:                -0.816
REMARK SMILES CCCCCCCCCCCCCC(=O)[O-]
REMARK SMILES IDX 8 1 9 2 10 3 11 4 12 5 13 6 14 7 15 8 16 9 7 10 6 11 5 12
REMARK SMILES IDX 4 13 3 14 2 15 1 16
REMARK H PARENT
REMARK Flexibility Score: inf
ROOT
ATOM      1  C   UNL     1      22.499  11.803   6.164  1.00  0.00     0.000 C 
ENDROOT
BRANCH   1   2
ATOM      2  C   UNL     1      23.112  10.500   5.614  1.00  0.00     0.000 C 
BRANCH   2   3
ATOM      3  C   UNL     1      24.649  10.499   5.487  1.00  0.00     0.000 C 
BRANCH   3   4
ATOM      4  C   UNL     1      25.394   9.762   6.614  1.00  0.00     0.000 C 
BRANCH   4   5
ATOM      5  C   UNL     1      26.917   9.758   6.419  1.00  0.00     0.006 C 
BRANCH   5   6
ATOM      6  C   UNL     1      27.329  10.710   5.293  1.00  0.00     0.053 C 
BRANCH   6   7
ATOM      7  C   UNL     1      28.131  11.849   5.836  1.00  0.00     0.041 C 
ATOM      8  O   UNL     1      27.743  12.465   6.863  1.00  0.00    -0.550 OA
ATOM      9  O   UNL     1      29.284  12.262   5.179  1.00  0.00    -0.550 OA
ENDBRANCH   6   7
ENDBRANCH   5   6
ENDBRANCH   4   5
ENDBRANCH   3   4
ENDBRANCH   2   3
ENDBRANCH   1   2
BRANCH   1  10
ATOM     10  C   UNL     1      22.097  11.755   7.650  1.00  0.00     0.000 C 
BRANCH  10  11
ATOM     11  C   UNL     1      20.838  12.578   7.954  1.00  0.00    -0.000 C 
BRANCH  11  12
ATOM     12  C   UNL     1      19.674  11.665   8.372  1.00  0.00    -0.000 C 
BRANCH  12  13
ATOM     13  C   UNL     1      20.162  10.361   9.027  1.00  0.00    -0.000 C 
BRANCH  13  14
ATOM     14  C   UNL     1      19.179   9.182   8.844  1.00  0.00    -0.000 C 
BRANCH  14  15
ATOM     15  C   UNL     1      18.206   9.372   7.669  1.00  0.00    -0.003 C 
ATOM     16  C   UNL     1      18.659   8.653   6.400  1.00  0.00     0.004 C 
ENDBRANCH  14  15
ENDBRANCH  13  14
ENDBRANCH  12  13
ENDBRANCH  11  12
ENDBRANCH  10  11
ENDBRANCH   1  10
TORSDOF 12
ENDMDL
