MODEL 1
REMARK VINA RESULT:    -0.407      0.000      0.000
REMARK INTER + INTRA:          -0.514
REMARK INTER:                  -0.562
REMARK INTRA:                   0.048
REMARK UNBOUND:                 0.048
REMARK SMILES O=C([O-])[C@H]1O[C@@H](Oc2cc3oc(-c4ccccc4)cc(=O)c3c(O)c2O)[C@H](O)[C@@H](O)[C@H]1O
REMARK SMILES IDX 7 1 6 2 4 3 31 4 5 5 29 6 27 7 2 8 1 9 3 10 32 11 30 13
REMARK SMILES IDX 28 15 8 17 25 18 9 19 23 20 10 21 22 22 11 23 20 24 12 25
REMARK SMILES IDX 19 26 21 27 26 28 24 30 13 32 14 33 18 34 15 35 17 36 16 37
REMARK H PARENT 32 12 30 14 28 16 26 29 24 31
REMARK Flexibility Score: inf
ROOT
ATOM      1  O   UNL     1     -41.834  26.682   7.816  1.00  0.00    -0.458 OA
ENDROOT
BRANCH   1   2
ATOM      2  C   UNL     1     -40.565  27.248   7.476  1.00  0.00     0.339 C 
ATOM      3  C   UNL     1     -40.447  26.309   5.287  1.00  0.00     0.199 C 
ATOM      4  C   UNL     1     -39.264  25.385   5.681  1.00  0.00     0.180 C 
ATOM      5  O   UNL     1     -40.477  27.492   6.077  1.00  0.00    -0.328 OA
ATOM      6  C   UNL     1     -39.197  25.091   7.199  1.00  0.00     0.181 C 
ATOM      7  C   UNL     1     -39.396  26.385   8.016  1.00  0.00     0.214 C 
BRANCH   3   8
ATOM      8  C   UNL     1     -41.815  25.671   5.180  1.00  0.00     0.073 C 
ATOM      9  O   UNL     1     -42.845  26.362   4.958  1.00  0.00    -0.547 OA
ATOM     10  O   UNL     1     -41.963  24.319   5.464  1.00  0.00    -0.547 OA
ENDBRANCH   3   8
BRANCH   4  11
ATOM     11  O   UNL     1     -39.195  24.231   4.875  1.00  0.00    -0.387 OA
ATOM     12  H   UNL     1     -40.085  23.799   4.843  1.00  0.00     0.211 HD
ENDBRANCH   4  11
BRANCH   6  13
ATOM     13  O   UNL     1     -40.097  24.087   7.604  1.00  0.00    -0.387 OA
ATOM     14  H   UNL     1     -39.852  23.796   8.516  1.00  0.00     0.211 HD
ENDBRANCH   6  13
BRANCH   7  15
ATOM     15  O   UNL     1     -38.203  27.131   8.057  1.00  0.00    -0.384 OA
ATOM     16  H   UNL     1     -37.583  26.758   7.379  1.00  0.00     0.211 HD
ENDBRANCH   7  15
ENDBRANCH   1   2
BRANCH   1  17
ATOM     17  C   UNL     1     -42.128  26.224   9.101  1.00  0.00     0.172 A 
ATOM     18  C   UNL     1     -42.999  26.942   9.942  1.00  0.00     0.201 A 
ATOM     19  C   UNL     1     -41.561  25.027   9.543  1.00  0.00     0.098 A 
ATOM     20  C   UNL     1     -43.266  26.476  11.242  1.00  0.00     0.176 A 
ATOM     21  C   UNL     1     -41.817  24.553  10.831  1.00  0.00     0.146 A 
ATOM     22  C   UNL     1     -42.670  25.275  11.698  1.00  0.00     0.111 A 
ATOM     23  O   UNL     1     -41.250  23.419  11.228  1.00  0.00    -0.456 OA
ATOM     24  C   UNL     1     -42.882  24.750  12.989  1.00  0.00     0.197 A 
ATOM     25  C   UNL     1     -41.437  22.892  12.436  1.00  0.00     0.138 A 
ATOM     26  C   UNL     1     -42.261  23.557  13.358  1.00  0.00     0.100 A 
ATOM     27  O   UNL     1     -43.620  25.339  13.826  1.00  0.00    -0.289 OA
BRANCH  18  28
ATOM     28  O   UNL     1     -43.618  28.110   9.491  1.00  0.00    -0.502 OA
ATOM     29  H   UNL     1     -44.563  28.361   9.751  1.00  0.00     0.293 HD
ENDBRANCH  18  28
BRANCH  20  30
ATOM     30  O   UNL     1     -44.125  27.197  12.076  1.00  0.00    -0.504 OA
ATOM     31  H   UNL     1     -44.435  26.847  12.973  1.00  0.00     0.293 HD
ENDBRANCH  20  30
BRANCH  25  32
ATOM     32  C   UNL     1     -40.753  21.618  12.774  1.00  0.00     0.017 A 
ATOM     33  C   UNL     1     -40.818  21.126  14.092  1.00  0.00     0.012 A 
ATOM     34  C   UNL     1     -40.011  20.898  11.817  1.00  0.00     0.012 A 
ATOM     35  C   UNL     1     -40.176  19.932  14.436  1.00  0.00     0.001 A 
ATOM     36  C   UNL     1     -39.371  19.704  12.168  1.00  0.00     0.001 A 
ATOM     37  C   UNL     1     -39.458  19.220  13.474  1.00  0.00     0.000 A 
ENDBRANCH  25  32
ENDBRANCH   1  17
TORSDOF 9
ENDMDL
MODEL 2
REMARK VINA RESULT:    -0.065      1.060      2.689
REMARK INTER + INTRA:          -0.042
REMARK INTER:                   1.317
REMARK INTRA:                  -1.359
REMARK UNBOUND:                 0.048
REMARK SMILES O=C([O-])[C@H]1O[C@@H](Oc2cc3oc(-c4ccccc4)cc(=O)c3c(O)c2O)[C@H](O)[C@@H](O)[C@H]1O
REMARK SMILES IDX 7 1 6 2 4 3 31 4 5 5 29 6 27 7 2 8 1 9 3 10 32 11 30 13
REMARK SMILES IDX 28 15 8 17 25 18 9 19 23 20 10 21 22 22 11 23 20 24 12 25
REMARK SMILES IDX 19 26 21 27 26 28 24 30 13 32 14 33 18 34 15 35 17 36 16 37
REMARK H PARENT 32 12 30 14 28 16 26 29 24 31
REMARK Flexibility Score: inf
ROOT
ATOM      1  O   UNL     1     -41.385  26.170   8.071  1.00  0.00    -0.458 OA
ENDROOT
BRANCH   1   2
ATOM      2  C   UNL     1     -41.352  25.090   7.135  1.00  0.00     0.339 C 
ATOM      3  C   UNL     1     -38.992  25.118   6.796  1.00  0.00     0.199 C 
ATOM      4  C   UNL     1     -39.146  25.604   5.330  1.00  0.00     0.180 C 
ATOM      5  O   UNL     1     -40.125  24.375   7.227  1.00  0.00    -0.328 OA
ATOM      6  C   UNL     1     -40.481  26.344   5.068  1.00  0.00     0.181 C 
ATOM      7  C   UNL     1     -41.663  25.577   5.696  1.00  0.00     0.214 C 
BRANCH   3   8
ATOM      8  C   UNL     1     -38.572  26.149   7.823  1.00  0.00     0.073 C 
ATOM      9  O   UNL     1     -38.313  25.820   9.011  1.00  0.00    -0.547 OA
ATOM     10  O   UNL     1     -38.603  27.497   7.491  1.00  0.00    -0.547 OA
ENDBRANCH   3   8
BRANCH   4  11
ATOM     11  O   UNL     1     -38.010  26.303   4.875  1.00  0.00    -0.387 OA
ATOM     12  H   UNL     1     -37.957  26.238   3.889  1.00  0.00     0.211 HD
ENDBRANCH   4  11
BRANCH   6  13
ATOM     13  O   UNL     1     -40.457  27.685   5.495  1.00  0.00    -0.387 OA
ATOM     14  H   UNL     1     -40.821  28.251   4.770  1.00  0.00     0.211 HD
ENDBRANCH   6  13
BRANCH   7  15
ATOM     15  O   UNL     1     -42.043  24.498   4.875  1.00  0.00    -0.384 OA
ATOM     16  H   UNL     1     -41.231  24.155   4.421  1.00  0.00     0.211 HD
ENDBRANCH   7  15
ENDBRANCH   1   2
BRANCH   1  17
ATOM     17  C   UNL     1     -41.893  26.025   9.363  1.00  0.00     0.172 A 
ATOM     18  C   UNL     1     -42.764  26.986   9.908  1.00  0.00     0.201 A 
ATOM     19  C   UNL     1     -41.541  24.899  10.111  1.00  0.00     0.098 A 
ATOM     20  C   UNL     1     -43.248  26.835  11.221  1.00  0.00     0.176 A 
ATOM     21  C   UNL     1     -42.014  24.736  11.413  1.00  0.00     0.146 A 
ATOM     22  C   UNL     1     -42.870  25.705  11.986  1.00  0.00     0.111 A 
ATOM     23  O   UNL     1     -41.648  23.661  12.105  1.00  0.00    -0.456 OA
ATOM     24  C   UNL     1     -43.306  25.488  13.309  1.00  0.00     0.197 A 
ATOM     25  C   UNL     1     -42.050  23.423  13.351  1.00  0.00     0.138 A 
ATOM     26  C   UNL     1     -42.892  24.345  13.993  1.00  0.00     0.100 A 
ATOM     27  O   UNL     1     -44.062  26.311  13.896  1.00  0.00    -0.289 OA
BRANCH  18  28
ATOM     28  O   UNL     1     -43.170  28.087   9.151  1.00  0.00    -0.502 OA
ATOM     29  H   UNL     1     -43.132  28.098   8.140  1.00  0.00     0.293 HD
ENDBRANCH  18  28
BRANCH  20  30
ATOM     30  O   UNL     1     -44.106  27.797  11.760  1.00  0.00    -0.504 OA
ATOM     31  H   UNL     1     -44.377  28.630  11.254  1.00  0.00     0.293 HD
ENDBRANCH  20  30
BRANCH  25  32
ATOM     32  C   UNL     1     -41.579  22.189  14.031  1.00  0.00     0.017 A 
ATOM     33  C   UNL     1     -40.847  21.233  13.302  1.00  0.00     0.012 A 
ATOM     34  C   UNL     1     -41.870  21.932  15.385  1.00  0.00     0.012 A 
ATOM     35  C   UNL     1     -40.399  20.060  13.918  1.00  0.00     0.001 A 
ATOM     36  C   UNL     1     -41.419  20.757  15.996  1.00  0.00     0.001 A 
ATOM     37  C   UNL     1     -40.681  19.825  15.265  1.00  0.00     0.000 A 
ENDBRANCH  25  32
ENDBRANCH   1  17
TORSDOF 9
ENDMDL
MODEL 3
REMARK VINA RESULT:     1.084      2.461      7.340
REMARK INTER + INTRA:           1.545
REMARK INTER:                   2.181
REMARK INTRA:                  -0.636
REMARK UNBOUND:                 0.048
REMARK SMILES O=C([O-])[C@H]1O[C@@H](Oc2cc3oc(-c4ccccc4)cc(=O)c3c(O)c2O)[C@H](O)[C@@H](O)[C@H]1O
REMARK SMILES IDX 7 1 6 2 4 3 31 4 5 5 29 6 27 7 2 8 1 9 3 10 32 11 30 13
REMARK SMILES IDX 28 15 8 17 25 18 9 19 23 20 10 21 22 22 11 23 20 24 12 25
REMARK SMILES IDX 19 26 21 27 26 28 24 30 13 32 14 33 18 34 15 35 17 36 16 37
REMARK H PARENT 32 12 30 14 28 16 26 29 24 31
REMARK Flexibility Score: inf
ROOT
ATOM      1  O   UNL     1     -41.217  22.583  11.813  1.00  0.00    -0.458 OA
ENDROOT
BRANCH   1   2
ATOM      2  C   UNL     1     -40.254  22.622  12.869  1.00  0.00     0.339 C 
ATOM      3  C   UNL     1     -38.877  20.869  12.019  1.00  0.00     0.199 C 
ATOM      4  C   UNL     1     -39.249  19.925  13.193  1.00  0.00     0.180 C 
ATOM      5  O   UNL     1     -38.968  22.238  12.395  1.00  0.00    -0.328 OA
ATOM      6  C   UNL     1     -40.605  20.274  13.853  1.00  0.00     0.181 C 
ATOM      7  C   UNL     1     -40.720  21.794  14.093  1.00  0.00     0.214 C 
BRANCH   3   8
ATOM      8  C   UNL     1     -39.545  20.608  10.685  1.00  0.00     0.073 C 
ATOM      9  O   UNL     1     -40.254  19.584  10.498  1.00  0.00    -0.547 OA
ATOM     10  O   UNL     1     -39.264  21.437   9.606  1.00  0.00    -0.547 OA
ENDBRANCH   3   8
BRANCH   4  11
ATOM     11  O   UNL     1     -39.119  18.565  12.847  1.00  0.00    -0.387 OA
ATOM     12  H   UNL     1     -38.330  18.182  13.307  1.00  0.00     0.211 HD
ENDBRANCH   4  11
BRANCH   6  13
ATOM     13  O   UNL     1     -41.710  19.786  13.129  1.00  0.00    -0.387 OA
ATOM     14  H   UNL     1     -42.072  18.998  13.604  1.00  0.00     0.211 HD
ENDBRANCH   6  13
BRANCH   7  15
ATOM     15  O   UNL     1     -40.006  22.166  15.248  1.00  0.00    -0.384 OA
ATOM     16  H   UNL     1     -40.583  22.765  15.788  1.00  0.00     0.211 HD
ENDBRANCH   7  15
ENDBRANCH   1   2
BRANCH   1  17
ATOM     17  C   UNL     1     -41.349  23.615  10.882  1.00  0.00     0.172 A 
ATOM     18  C   UNL     1     -42.583  24.264  10.693  1.00  0.00     0.201 A 
ATOM     19  C   UNL     1     -40.231  24.013  10.146  1.00  0.00     0.098 A 
ATOM     20  C   UNL     1     -42.702  25.286   9.733  1.00  0.00     0.176 A 
ATOM     21  C   UNL     1     -40.334  25.026   9.191  1.00  0.00     0.146 A 
ATOM     22  C   UNL     1     -41.574  25.671   8.970  1.00  0.00     0.111 A 
ATOM     23  O   UNL     1     -39.256  25.372   8.495  1.00  0.00    -0.456 OA
ATOM     24  C   UNL     1     -41.616  26.679   7.985  1.00  0.00     0.197 A 
ATOM     25  C   UNL     1     -39.261  26.325   7.566  1.00  0.00     0.138 A 
ATOM     26  C   UNL     1     -40.457  27.005   7.280  1.00  0.00     0.100 A 
ATOM     27  O   UNL     1     -42.685  27.295   7.719  1.00  0.00    -0.289 OA
BRANCH  18  28
ATOM     28  O   UNL     1     -43.695  23.914  11.462  1.00  0.00    -0.502 OA
ATOM     29  H   UNL     1     -43.637  23.743  12.458  1.00  0.00     0.293 HD
ENDBRANCH  18  28
BRANCH  20  30
ATOM     30  O   UNL     1     -43.933  25.921   9.543  1.00  0.00    -0.504 OA
ATOM     31  H   UNL     1     -44.160  26.426   8.696  1.00  0.00     0.293 HD
ENDBRANCH  20  30
BRANCH  25  32
ATOM     32  C   UNL     1     -37.998  26.631   6.849  1.00  0.00     0.017 A 
ATOM     33  C   UNL     1     -36.767  26.470   7.513  1.00  0.00     0.012 A 
ATOM     34  C   UNL     1     -37.995  27.108   5.523  1.00  0.00     0.012 A 
ATOM     35  C   UNL     1     -35.564  26.758   6.860  1.00  0.00     0.001 A 
ATOM     36  C   UNL     1     -36.788  27.394   4.875  1.00  0.00     0.001 A 
ATOM     37  C   UNL     1     -35.575  27.214   5.542  1.00  0.00     0.000 A 
ENDBRANCH  25  32
ENDBRANCH   1  17
TORSDOF 9
ENDMDL
MODEL 4
REMARK VINA RESULT:     1.207      2.130      7.299
REMARK INTER + INTRA:           1.714
REMARK INTER:                   2.214
REMARK INTRA:                  -0.500
REMARK UNBOUND:                 0.048
REMARK SMILES O=C([O-])[C@H]1O[C@@H](Oc2cc3oc(-c4ccccc4)cc(=O)c3c(O)c2O)[C@H](O)[C@@H](O)[C@H]1O
REMARK SMILES IDX 7 1 6 2 4 3 31 4 5 5 29 6 27 7 2 8 1 9 3 10 32 11 30 13
REMARK SMILES IDX 28 15 8 17 25 18 9 19 23 20 10 21 22 22 11 23 20 24 12 25
REMARK SMILES IDX 19 26 21 27 26 28 24 30 13 32 14 33 18 34 15 35 17 36 16 37
REMARK H PARENT 32 12 30 14 28 16 26 29 24 31
REMARK Flexibility Score: inf
ROOT
ATOM      1  O   UNL     1     -41.599  22.536  12.685  1.00  0.00    -0.458 OA
ENDROOT
BRANCH   1   2
ATOM      2  C   UNL     1     -40.655  22.477  13.757  1.00  0.00     0.339 C 
ATOM      3  C   UNL     1     -39.069  21.105  12.620  1.00  0.00     0.199 C 
ATOM      4  C   UNL     1     -39.331  19.908  13.573  1.00  0.00     0.180 C 
ATOM      5  O   UNL     1     -39.328  22.351  13.257  1.00  0.00    -0.328 OA
ATOM      6  C   UNL     1     -40.724  19.955  14.246  1.00  0.00     0.181 C 
ATOM      7  C   UNL     1     -41.025  21.372  14.779  1.00  0.00     0.214 C 
BRANCH   3   8
ATOM      8  C   UNL     1     -39.690  21.039  11.242  1.00  0.00     0.073 C 
ATOM      9  O   UNL     1     -40.360  20.037  10.873  1.00  0.00    -0.547 OA
ATOM     10  O   UNL     1     -39.408  22.035  10.315  1.00  0.00    -0.547 OA
ENDBRANCH   3   8
BRANCH   4  11
ATOM     11  O   UNL     1     -39.034  18.669  12.969  1.00  0.00    -0.387 OA
ATOM     12  H   UNL     1     -39.628  18.533  12.189  1.00  0.00     0.211 HD
ENDBRANCH   4  11
BRANCH   6  13
ATOM     13  O   UNL     1     -41.756  19.495  13.406  1.00  0.00    -0.387 OA
ATOM     14  H   UNL     1     -42.212  18.741  13.855  1.00  0.00     0.211 HD
ENDBRANCH   6  13
BRANCH   7  15
ATOM     15  O   UNL     1     -40.370  21.587  16.006  1.00  0.00    -0.384 OA
ATOM     16  H   UNL     1     -40.508  20.787  16.574  1.00  0.00     0.211 HD
ENDBRANCH   7  15
ENDBRANCH   1   2
BRANCH   1  17
ATOM     17  C   UNL     1     -41.848  23.710  11.971  1.00  0.00     0.172 A 
ATOM     18  C   UNL     1     -42.858  24.602  12.377  1.00  0.00     0.201 A 
ATOM     19  C   UNL     1     -41.067  24.003  10.850  1.00  0.00     0.098 A 
ATOM     20  C   UNL     1     -43.109  25.769  11.631  1.00  0.00     0.176 A 
ATOM     21  C   UNL     1     -41.305  25.156  10.102  1.00  0.00     0.146 A 
ATOM     22  C   UNL     1     -42.333  26.051  10.481  1.00  0.00     0.111 A 
ATOM     23  O   UNL     1     -40.556  25.400   9.031  1.00  0.00    -0.456 OA
ATOM     24  C   UNL     1     -42.531  27.193   9.679  1.00  0.00     0.197 A 
ATOM     25  C   UNL     1     -40.711  26.473   8.260  1.00  0.00     0.138 A 
ATOM     26  C   UNL     1     -41.718  27.403   8.564  1.00  0.00     0.100 A 
ATOM     27  O   UNL     1     -43.433  28.035   9.943  1.00  0.00    -0.289 OA
BRANCH  18  28
ATOM     28  O   UNL     1     -43.607  24.350  13.528  1.00  0.00    -0.502 OA
ATOM     29  H   UNL     1     -43.849  23.414  13.828  1.00  0.00     0.293 HD
ENDBRANCH  18  28
BRANCH  20  30
ATOM     30  O   UNL     1     -44.119  26.647  12.034  1.00  0.00    -0.504 OA
ATOM     31  H   UNL     1     -43.970  27.644  12.125  1.00  0.00     0.293 HD
ENDBRANCH  20  30
BRANCH  25  32
ATOM     32  C   UNL     1     -39.817  26.645   7.086  1.00  0.00     0.017 A 
ATOM     33  C   UNL     1     -39.038  27.813   6.974  1.00  0.00     0.012 A 
ATOM     34  C   UNL     1     -39.745  25.681   6.061  1.00  0.00     0.012 A 
ATOM     35  C   UNL     1     -38.194  28.000   5.876  1.00  0.00     0.001 A 
ATOM     36  C   UNL     1     -38.898  25.875   4.965  1.00  0.00     0.001 A 
ATOM     37  C   UNL     1     -38.120  27.030   4.875  1.00  0.00     0.000 A 
ENDBRANCH  25  32
ENDBRANCH   1  17
TORSDOF 9
ENDMDL
MODEL 5
REMARK VINA RESULT:     1.739      1.291      2.478
REMARK INTER + INTRA:           2.448
REMARK INTER:                   1.409
REMARK INTRA:                   1.039
REMARK UNBOUND:                 0.048
REMARK SMILES O=C([O-])[C@H]1O[C@@H](Oc2cc3oc(-c4ccccc4)cc(=O)c3c(O)c2O)[C@H](O)[C@@H](O)[C@H]1O
REMARK SMILES IDX 7 1 6 2 4 3 31 4 5 5 29 6 27 7 2 8 1 9 3 10 32 11 30 13
REMARK SMILES IDX 28 15 8 17 25 18 9 19 23 20 10 21 22 22 11 23 20 24 12 25
REMARK SMILES IDX 19 26 21 27 26 28 24 30 13 32 14 33 18 34 15 35 17 36 16 37
REMARK H PARENT 32 12 30 14 28 16 26 29 24 31
REMARK Flexibility Score: inf
ROOT
ATOM      1  O   UNL     1     -40.335  25.624   7.484  1.00  0.00    -0.458 OA
ENDROOT
BRANCH   1   2
ATOM      2  C   UNL     1     -40.578  24.659   6.458  1.00  0.00     0.339 C 
ATOM      3  C   UNL     1     -41.669  26.156   4.956  1.00  0.00     0.199 C 
ATOM      4  C   UNL     1     -43.033  25.437   5.133  1.00  0.00     0.180 C 
ATOM      5  O   UNL     1     -40.576  25.273   5.174  1.00  0.00    -0.328 OA
ATOM      6  C   UNL     1     -43.147  24.663   6.469  1.00  0.00     0.181 C 
ATOM      7  C   UNL     1     -41.867  23.845   6.737  1.00  0.00     0.214 C 
BRANCH   3   8
ATOM      8  C   UNL     1     -41.483  27.471   5.684  1.00  0.00     0.073 C 
ATOM      9  O   UNL     1     -42.466  28.106   6.149  1.00  0.00    -0.547 OA
ATOM     10  O   UNL     1     -40.225  28.058   5.724  1.00  0.00    -0.547 OA
ENDBRANCH   3   8
BRANCH   4  11
ATOM     11  O   UNL     1     -44.125  26.289   4.875  1.00  0.00    -0.387 OA
ATOM     12  H   UNL     1     -44.548  26.032   4.017  1.00  0.00     0.211 HD
ENDBRANCH   4  11
BRANCH   6  13
ATOM     13  O   UNL     1     -43.461  25.495   7.560  1.00  0.00    -0.387 OA
ATOM     14  H   UNL     1     -44.404  25.779   7.477  1.00  0.00     0.211 HD
ENDBRANCH   6  13
BRANCH   7  15
ATOM     15  O   UNL     1     -41.877  22.653   5.989  1.00  0.00    -0.384 OA
ATOM     16  H   UNL     1     -41.904  21.891   6.623  1.00  0.00     0.211 HD
ENDBRANCH   7  15
ENDBRANCH   1   2
BRANCH   1  17
ATOM     17  C   UNL     1     -40.932  25.543   8.743  1.00  0.00     0.172 A 
ATOM     18  C   UNL     1     -41.778  26.568   9.208  1.00  0.00     0.201 A 
ATOM     19  C   UNL     1     -40.697  24.419   9.538  1.00  0.00     0.098 A 
ATOM     20  C   UNL     1     -42.353  26.480  10.489  1.00  0.00     0.176 A 
ATOM     21  C   UNL     1     -41.261  24.318  10.810  1.00  0.00     0.146 A 
ATOM     22  C   UNL     1     -42.093  25.351  11.303  1.00  0.00     0.111 A 
ATOM     23  O   UNL     1     -41.005  23.243  11.549  1.00  0.00    -0.456 OA
ATOM     24  C   UNL     1     -42.624  25.195  12.599  1.00  0.00     0.197 A 
ATOM     25  C   UNL     1     -41.499  23.062  12.771  1.00  0.00     0.138 A 
ATOM     26  C   UNL     1     -42.324  24.049  13.335  1.00  0.00     0.100 A 
ATOM     27  O   UNL     1     -43.366  26.076  13.117  1.00  0.00    -0.289 OA
BRANCH  18  28
ATOM     28  O   UNL     1     -42.067  27.670   8.401  1.00  0.00    -0.502 OA
ATOM     29  H   UNL     1     -41.368  28.126   7.830  1.00  0.00     0.293 HD
ENDBRANCH  18  28
BRANCH  20  30
ATOM     30  O   UNL     1     -43.185  27.504  10.949  1.00  0.00    -0.504 OA
ATOM     31  H   UNL     1     -42.854  28.243  11.557  1.00  0.00     0.293 HD
ENDBRANCH  20  30
BRANCH  25  32
ATOM     32  C   UNL     1     -41.148  21.822  13.508  1.00  0.00     0.017 A 
ATOM     33  C   UNL     1     -41.466  21.715  14.876  1.00  0.00     0.012 A 
ATOM     34  C   UNL     1     -40.476  20.753  12.883  1.00  0.00     0.012 A 
ATOM     35  C   UNL     1     -41.139  20.559  15.592  1.00  0.00     0.001 A 
ATOM     36  C   UNL     1     -40.152  19.600  13.605  1.00  0.00     0.001 A 
ATOM     37  C   UNL     1     -40.488  19.501  14.956  1.00  0.00     0.000 A 
ENDBRANCH  25  32
ENDBRANCH   1  17
TORSDOF 9
ENDMDL
