MODEL 1
REMARK VINA RESULT:    -4.799      0.000      0.000
REMARK INTER + INTRA:          -4.939
REMARK INTER:                  -4.939
REMARK INTRA:                   0.000
REMARK UNBOUND:                 0.000
REMARK SMILES Oc1ccc2[nH]ccc2c1
REMARK SMILES IDX 3 1 4 2 5 3 9 4 8 5 7 6 6 7 10 8 2 9 1 11
REMARK H PARENT 6 10 1 12
REMARK Flexibility Score: inf
ROOT
ATOM      1  C   UNL     1     137.497 139.741 139.753  1.00  0.00     0.048 A 
ATOM      2  C   UNL     1     138.724 139.256 139.263  1.00  0.00     0.030 A 
ATOM      3  C   UNL     1     139.764 139.079 140.174  1.00  0.00     0.046 A 
ATOM      4  C   UNL     1     139.611 139.364 141.505  1.00  0.00     0.003 A 
ATOM      5  C   UNL     1     140.809 139.085 142.125  1.00  0.00     0.028 A 
ATOM      6  C   UNL     1     141.647 138.633 141.111  1.00  0.00     0.083 A 
ATOM      7  N   UNL     1     141.004 138.631 139.920  1.00  0.00    -0.361 N 
ATOM      8  C   UNL     1     138.411 139.846 142.022  1.00  0.00     0.056 A 
ATOM      9  C   UNL     1     137.338 140.037 141.130  1.00  0.00     0.116 A 
ATOM     10  H   UNL     1     141.396 138.340 138.998  1.00  0.00     0.166 HD
ENDROOT
BRANCH   9  11
ATOM     11  O   UNL     1     136.124 140.517 141.614  1.00  0.00    -0.508 OA
ATOM     12  H   UNL     1     136.071 141.373 142.153  1.00  0.00     0.293 HD
ENDBRANCH   9  11
TORSDOF 1
ENDMDL
MODEL 2
REMARK VINA RESULT:    -4.795      2.543      3.611
REMARK INTER + INTRA:          -4.935
REMARK INTER:                  -4.935
REMARK INTRA:                   0.000
REMARK UNBOUND:                 0.000
REMARK SMILES Oc1ccc2[nH]ccc2c1
REMARK SMILES IDX 3 1 4 2 5 3 9 4 8 5 7 6 6 7 10 8 2 9 1 11
REMARK H PARENT 6 10 1 12
REMARK Flexibility Score: inf
ROOT
ATOM      1  C   UNL     1     141.037 139.002 139.865  1.00  0.00     0.048 A 
ATOM      2  C   UNL     1     139.830 139.503 139.344  1.00  0.00     0.030 A 
ATOM      3  C   UNL     1     138.754 139.646 140.218  1.00  0.00     0.046 A 
ATOM      4  C   UNL     1     138.854 139.315 141.543  1.00  0.00     0.003 A 
ATOM      5  C   UNL     1     137.632 139.570 142.124  1.00  0.00     0.028 A 
ATOM      6  C   UNL     1     136.833 140.056 141.095  1.00  0.00     0.083 A 
ATOM      7  N   UNL     1     137.523 140.101 139.931  1.00  0.00    -0.361 N 
ATOM      8  C   UNL     1     140.034 138.817 142.091  1.00  0.00     0.056 A 
ATOM      9  C   UNL     1     141.142 138.659 141.236  1.00  0.00     0.116 A 
ATOM     10  H   UNL     1     137.167 140.423 139.004  1.00  0.00     0.166 HD
ENDROOT
BRANCH   9  11
ATOM     11  O   UNL     1     142.338 138.165 141.751  1.00  0.00    -0.508 OA
ATOM     12  H   UNL     1     143.219 138.640 141.591  1.00  0.00     0.293 HD
ENDBRANCH   9  11
TORSDOF 1
ENDMDL
MODEL 3
REMARK VINA RESULT:    -4.768      2.214      2.547
REMARK INTER + INTRA:          -4.908
REMARK INTER:                  -4.908
REMARK INTRA:                   0.000
REMARK UNBOUND:                 0.000
REMARK SMILES Oc1ccc2[nH]ccc2c1
REMARK SMILES IDX 3 1 4 2 5 3 9 4 8 5 7 6 6 7 10 8 2 9 1 11
REMARK H PARENT 6 10 1 12
REMARK Flexibility Score: inf
ROOT
ATOM      1  C   UNL     1     138.988 137.492 139.893  1.00  0.00     0.048 A 
ATOM      2  C   UNL     1     139.531 138.684 139.379  1.00  0.00     0.030 A 
ATOM      3  C   UNL     1     139.639 139.774 140.242  1.00  0.00     0.046 A 
ATOM      4  C   UNL     1     139.234 139.702 141.548  1.00  0.00     0.003 A 
ATOM      5  C   UNL     1     139.472 140.931 142.121  1.00  0.00     0.028 A 
ATOM      6  C   UNL     1     140.023 141.706 141.106  1.00  0.00     0.083 A 
ATOM      7  N   UNL     1     140.124 140.994 139.959  1.00  0.00    -0.361 N 
ATOM      8  C   UNL     1     138.692 138.537 142.088  1.00  0.00     0.056 A 
ATOM      9  C   UNL     1     138.568 137.416 141.244  1.00  0.00     0.116 A 
ATOM     10  H   UNL     1     140.501 141.329 139.046  1.00  0.00     0.166 HD
ENDROOT
BRANCH   9  11
ATOM     11  O   UNL     1     138.032 136.235 141.752  1.00  0.00    -0.508 OA
ATOM     12  H   UNL     1     137.871 136.111 142.745  1.00  0.00     0.293 HD
ENDBRANCH   9  11
TORSDOF 1
ENDMDL
MODEL 4
REMARK VINA RESULT:    -4.751      2.231      2.563
REMARK INTER + INTRA:          -4.890
REMARK INTER:                  -4.890
REMARK INTRA:                   0.000
REMARK UNBOUND:                 0.000
REMARK SMILES Oc1ccc2[nH]ccc2c1
REMARK SMILES IDX 3 1 4 2 5 3 9 4 8 5 7 6 6 7 10 8 2 9 1 11
REMARK H PARENT 6 10 1 12
REMARK Flexibility Score: inf
ROOT
ATOM      1  C   UNL     1     139.763 141.035 139.869  1.00  0.00     0.048 A 
ATOM      2  C   UNL     1     139.290 139.825 139.330  1.00  0.00     0.030 A 
ATOM      3  C   UNL     1     139.080 138.761 140.205  1.00  0.00     0.046 A 
ATOM      4  C   UNL     1     139.322 138.874 141.548  1.00  0.00     0.003 A 
ATOM      5  C   UNL     1     139.019 137.661 142.125  1.00  0.00     0.028 A 
ATOM      6  C   UNL     1     138.598 136.853 141.074  1.00  0.00     0.083 A 
ATOM      7  N   UNL     1     138.636 137.529 139.902  1.00  0.00    -0.361 N 
ATOM      8  C   UNL     1     139.791 140.058 142.114  1.00  0.00     0.056 A 
ATOM      9  C   UNL     1     140.014 141.154 141.259  1.00  0.00     0.116 A 
ATOM     10  H   UNL     1     138.374 137.165 138.960  1.00  0.00     0.166 HD
ENDROOT
BRANCH   9  11
ATOM     11  O   UNL     1     140.482 142.353 141.792  1.00  0.00    -0.508 OA
ATOM     12  H   UNL     1     140.255 142.634 142.739  1.00  0.00     0.293 HD
ENDBRANCH   9  11
TORSDOF 1
ENDMDL
MODEL 5
REMARK VINA RESULT:    -4.562      2.180      3.227
REMARK INTER + INTRA:          -4.695
REMARK INTER:                  -4.695
REMARK INTRA:                   0.000
REMARK UNBOUND:                 0.000
REMARK SMILES Oc1ccc2[nH]ccc2c1
REMARK SMILES IDX 3 1 4 2 5 3 9 4 8 5 7 6 6 7 10 8 2 9 1 11
REMARK H PARENT 6 10 1 12
REMARK Flexibility Score: inf
ROOT
ATOM      1  C   UNL     1     139.789 138.148 141.711  1.00  0.00     0.048 A 
ATOM      2  C   UNL     1     140.704 138.954 141.009  1.00  0.00     0.030 A 
ATOM      3  C   UNL     1     140.584 139.017 139.622  1.00  0.00     0.046 A 
ATOM      4  C   UNL     1     139.613 138.324 138.951  1.00  0.00     0.003 A 
ATOM      5  C   UNL     1     139.765 138.597 137.609  1.00  0.00     0.028 A 
ATOM      6  C   UNL     1     140.849 139.465 137.535  1.00  0.00     0.083 A 
ATOM      7  N   UNL     1     141.346 139.720 138.767  1.00  0.00    -0.361 N 
ATOM      8  C   UNL     1     138.692 137.517 139.615  1.00  0.00     0.056 A 
ATOM      9  C   UNL     1     138.783 137.430 141.018  1.00  0.00     0.116 A 
ATOM     10  H   UNL     1     142.156 140.335 139.001  1.00  0.00     0.166 HD
ENDROOT
BRANCH   9  11
ATOM     11  O   UNL     1     137.878 136.633 141.713  1.00  0.00    -0.508 OA
ATOM     12  H   UNL     1     138.105 135.681 141.979  1.00  0.00     0.293 HD
ENDBRANCH   9  11
TORSDOF 1
ENDMDL
MODEL 6
REMARK VINA RESULT:    -4.554      2.019      2.614
REMARK INTER + INTRA:          -4.687
REMARK INTER:                  -4.687
REMARK INTRA:                   0.000
REMARK UNBOUND:                 0.000
REMARK SMILES Oc1ccc2[nH]ccc2c1
REMARK SMILES IDX 3 1 4 2 5 3 9 4 8 5 7 6 6 7 10 8 2 9 1 11
REMARK H PARENT 6 10 1 12
REMARK Flexibility Score: inf
ROOT
ATOM      1  C   UNL     1     139.982 140.198 138.295  1.00  0.00     0.048 A 
ATOM      2  C   UNL     1     140.668 139.326 139.161  1.00  0.00     0.030 A 
ATOM      3  C   UNL     1     139.937 138.709 140.175  1.00  0.00     0.046 A 
ATOM      4  C   UNL     1     138.596 138.934 140.336  1.00  0.00     0.003 A 
ATOM      5  C   UNL     1     138.179 138.184 141.413  1.00  0.00     0.028 A 
ATOM      6  C   UNL     1     139.320 137.525 141.862  1.00  0.00     0.083 A 
ATOM      7  N   UNL     1     140.392 137.849 141.102  1.00  0.00    -0.361 N 
ATOM      8  C   UNL     1     137.888 139.790 139.496  1.00  0.00     0.056 A 
ATOM      9  C   UNL     1     138.594 140.432 138.460  1.00  0.00     0.116 A 
ATOM     10  H   UNL     1     141.369 137.500 141.217  1.00  0.00     0.166 HD
ENDROOT
BRANCH   9  11
ATOM     11  O   UNL     1     137.916 141.294 137.603  1.00  0.00    -0.508 OA
ATOM     12  H   UNL     1     137.071 141.006 137.123  1.00  0.00     0.293 HD
ENDBRANCH   9  11
TORSDOF 1
ENDMDL
MODEL 7
REMARK VINA RESULT:    -4.536      2.042      2.755
REMARK INTER + INTRA:          -4.668
REMARK INTER:                  -4.668
REMARK INTRA:                   0.000
REMARK UNBOUND:                 0.000
REMARK SMILES Oc1ccc2[nH]ccc2c1
REMARK SMILES IDX 3 1 4 2 5 3 9 4 8 5 7 6 6 7 10 8 2 9 1 11
REMARK H PARENT 6 10 1 12
REMARK Flexibility Score: inf
ROOT
ATOM      1  C   UNL     1     138.667 139.131 141.029  1.00  0.00     0.048 A 
ATOM      2  C   UNL     1     139.060 138.142 140.108  1.00  0.00     0.030 A 
ATOM      3  C   UNL     1     139.791 138.546 138.992  1.00  0.00     0.046 A 
ATOM      4  C   UNL     1     140.123 139.858 138.786  1.00  0.00     0.003 A 
ATOM      5  C   UNL     1     140.836 139.922 137.609  1.00  0.00     0.028 A 
ATOM      6  C   UNL     1     140.901 138.610 137.151  1.00  0.00     0.083 A 
ATOM      7  N   UNL     1     140.261 137.772 138.000  1.00  0.00    -0.361 N 
ATOM      8  C   UNL     1     139.751 140.862 139.677  1.00  0.00     0.056 A 
ATOM      9  C   UNL     1     139.011 140.490 140.816  1.00  0.00     0.116 A 
ATOM     10  H   UNL     1     140.156 136.739 137.900  1.00  0.00     0.166 HD
ENDROOT
BRANCH   9  11
ATOM     11  O   UNL     1     138.622 141.468 141.729  1.00  0.00    -0.508 OA
ATOM     12  H   UNL     1     138.601 141.283 142.725  1.00  0.00     0.293 HD
ENDBRANCH   9  11
TORSDOF 1
ENDMDL
MODEL 8
REMARK VINA RESULT:    -4.512      2.429      3.739
REMARK INTER + INTRA:          -4.644
REMARK INTER:                  -4.644
REMARK INTRA:                   0.000
REMARK UNBOUND:                 0.000
REMARK SMILES Oc1ccc2[nH]ccc2c1
REMARK SMILES IDX 3 1 4 2 5 3 9 4 8 5 7 6 6 7 10 8 2 9 1 11
REMARK H PARENT 6 10 1 12
REMARK Flexibility Score: inf
ROOT
ATOM      1  C   UNL     1     139.480 138.871 141.086  1.00  0.00     0.048 A 
ATOM      2  C   UNL     1     138.586 138.267 140.183  1.00  0.00     0.030 A 
ATOM      3  C   UNL     1     138.245 138.977 139.032  1.00  0.00     0.046 A 
ATOM      4  C   UNL     1     138.755 140.221 138.776  1.00  0.00     0.003 A 
ATOM      5  C   UNL     1     138.227 140.643 137.576  1.00  0.00     0.028 A 
ATOM      6  C   UNL     1     137.403 139.604 137.155  1.00  0.00     0.083 A 
ATOM      7  N   UNL     1     137.417 138.587 138.049  1.00  0.00    -0.361 N 
ATOM      8  C   UNL     1     139.642 140.847 139.649  1.00  0.00     0.056 A 
ATOM      9  C   UNL     1     140.008 140.160 140.822  1.00  0.00     0.116 A 
ATOM     10  H   UNL     1     136.890 137.689 137.983  1.00  0.00     0.166 HD
ENDROOT
BRANCH   9  11
ATOM     11  O   UNL     1     140.894 140.757 141.716  1.00  0.00    -0.508 OA
ATOM     12  H   UNL     1     141.593 140.214 142.209  1.00  0.00     0.293 HD
ENDBRANCH   9  11
TORSDOF 1
ENDMDL
MODEL 9
REMARK VINA RESULT:    -4.504      2.513      3.800
REMARK INTER + INTRA:          -4.636
REMARK INTER:                  -4.636
REMARK INTRA:                   0.000
REMARK UNBOUND:                 0.000
REMARK SMILES Oc1ccc2[nH]ccc2c1
REMARK SMILES IDX 3 1 4 2 5 3 9 4 8 5 7 6 6 7 10 8 2 9 1 11
REMARK H PARENT 6 10 1 12
REMARK Flexibility Score: inf
ROOT
ATOM      1  C   UNL     1     140.131 139.847 141.057  1.00  0.00     0.048 A 
ATOM      2  C   UNL     1     139.656 140.789 140.126  1.00  0.00     0.030 A 
ATOM      3  C   UNL     1     138.881 140.322 139.066  1.00  0.00     0.046 A 
ATOM      4  C   UNL     1     138.584 138.993 138.921  1.00  0.00     0.003 A 
ATOM      5  C   UNL     1     137.812 138.865 137.788  1.00  0.00     0.028 A 
ATOM      6  C   UNL     1     137.677 140.157 137.291  1.00  0.00     0.083 A 
ATOM      7  N   UNL     1     138.332 141.045 138.075  1.00  0.00    -0.361 N 
ATOM      8  C   UNL     1     139.039 138.035 139.824  1.00  0.00     0.056 A 
ATOM      9  C   UNL     1     139.825 138.471 140.908  1.00  0.00     0.116 A 
ATOM     10  H   UNL     1     138.395 142.077 137.935  1.00  0.00     0.166 HD
ENDROOT
BRANCH   9  11
ATOM     11  O   UNL     1     140.296 137.540 141.830  1.00  0.00    -0.508 OA
ATOM     12  H   UNL     1     140.897 136.774 141.548  1.00  0.00     0.293 HD
ENDBRANCH   9  11
TORSDOF 1
ENDMDL
