MODEL 1
REMARK VINA RESULT:    28.241      0.000      0.000
REMARK INTER + INTRA:          42.656
REMARK INTER:                  43.100
REMARK INTRA:                  -0.444
REMARK UNBOUND:                -0.444
REMARK SMILES COc1cc(C=CC(=O)CC(=O)C=Cc2ccc(O)c(OC)c2)ccc1O
REMARK SMILES IDX 10 1 8 2 9 3 7 4 6 5 5 6 3 7 26 8 4 9 25 10 24 11 2 12 1 13
REMARK SMILES IDX 27 14 11 16 12 17 13 18 14 19 15 20 23 21 16 22 20 23 17 24
REMARK SMILES IDX 18 25 21 26 22 27 19 28
REMARK H PARENT 27 15 19 29
REMARK Flexibility Score: inf
ROOT
ATOM      1  C   UNL     1     -12.738  -0.588  12.666  1.00  0.00     0.160 C 
ENDROOT
BRANCH   1   2
ATOM      2  C   UNL     1     -14.201  -0.907  12.750  1.00  0.00     0.163 C 
ATOM      3  O   UNL     1     -14.976  -0.098  13.329  1.00  0.00    -0.294 OA
BRANCH   2   4
ATOM      4  C   UNL     1     -14.721  -2.146  12.129  1.00  0.00     0.048 C 
ATOM      5  C   UNL     1     -15.326  -3.147  12.789  1.00  0.00     0.012 C 
BRANCH   5   6
ATOM      6  C   UNL     1     -15.406  -3.271  14.259  1.00  0.00    -0.022 A 
ATOM      7  C   UNL     1     -16.659  -2.926  16.326  1.00  0.00     0.161 A 
ATOM      8  C   UNL     1     -15.636  -3.576  17.044  1.00  0.00     0.157 A 
ATOM      9  C   UNL     1     -16.538  -2.788  14.929  1.00  0.00     0.058 A 
ATOM     10  C   UNL     1     -14.525  -4.092  16.369  1.00  0.00     0.051 A 
ATOM     11  C   UNL     1     -14.412  -3.951  14.987  1.00  0.00     0.012 A 
BRANCH   7  12
ATOM     12  O   UNL     1     -17.776  -2.444  17.029  1.00  0.00    -0.493 OA
ATOM     13  C   UNL     1     -19.125  -2.589  16.598  1.00  0.00     0.278 C 
ENDBRANCH   7  12
BRANCH   8  14
ATOM     14  O   UNL     1     -15.710  -3.725  18.429  1.00  0.00    -0.504 OA
ATOM     15  H   UNL     1     -16.222  -4.482  18.866  1.00  0.00     0.293 HD
ENDBRANCH   8  14
ENDBRANCH   5   6
ENDBRANCH   2   4
ENDBRANCH   1   2
BRANCH   1  16
ATOM     16  C   UNL     1     -12.022  -1.163  13.849  1.00  0.00     0.163 C 
ATOM     17  O   UNL     1     -12.161  -2.386  14.119  1.00  0.00    -0.294 OA
BRANCH  16  18
ATOM     18  C   UNL     1     -11.127  -0.309  14.659  1.00  0.00     0.048 C 
ATOM     19  C   UNL     1     -10.234  -0.824  15.517  1.00  0.00     0.012 C 
BRANCH  19  20
ATOM     20  C   UNL     1      -9.326   0.004  16.348  1.00  0.00    -0.022 A 
ATOM     21  C   UNL     1      -8.051  -0.499  16.660  1.00  0.00     0.058 A 
ATOM     22  C   UNL     1      -9.714   1.251  16.871  1.00  0.00     0.012 A 
ATOM     23  C   UNL     1      -7.160   0.243  17.462  1.00  0.00     0.161 A 
ATOM     24  C   UNL     1      -8.836   1.989  17.667  1.00  0.00     0.051 A 
ATOM     25  C   UNL     1      -7.561   1.490  17.962  1.00  0.00     0.157 A 
BRANCH  23  26
ATOM     26  O   UNL     1      -5.876  -0.226  17.784  1.00  0.00    -0.493 OA
ATOM     27  C   UNL     1      -5.558  -0.965  18.960  1.00  0.00     0.278 C 
ENDBRANCH  23  26
BRANCH  25  28
ATOM     28  O   UNL     1      -6.687   2.227  18.760  1.00  0.00    -0.504 OA
ATOM     29  H   UNL     1      -6.403   3.167  18.508  1.00  0.00     0.293 HD
ENDBRANCH  25  28
ENDBRANCH  19  20
ENDBRANCH  16  18
ENDBRANCH   1  16
TORSDOF 10
ENDMDL
MODEL 2
REMARK VINA RESULT:    28.421      1.369      2.298
REMARK INTER + INTRA:          42.931
REMARK INTER:                  42.922
REMARK INTRA:                   0.009
REMARK UNBOUND:                -0.444
REMARK SMILES COc1cc(C=CC(=O)CC(=O)C=Cc2ccc(O)c(OC)c2)ccc1O
REMARK SMILES IDX 10 1 8 2 9 3 7 4 6 5 5 6 3 7 26 8 4 9 25 10 24 11 2 12 1 13
REMARK SMILES IDX 27 14 11 16 12 17 13 18 14 19 15 20 23 21 16 22 20 23 17 24
REMARK SMILES IDX 18 25 21 26 22 27 19 28
REMARK H PARENT 27 15 19 29
REMARK Flexibility Score: inf
ROOT
ATOM      1  C   UNL     1     -13.106  -2.264  13.895  1.00  0.00     0.160 C 
ENDROOT
BRANCH   1   2
ATOM      2  C   UNL     1     -14.582  -2.275  13.632  1.00  0.00     0.163 C 
ATOM      3  O   UNL     1     -15.143  -3.358  13.311  1.00  0.00    -0.294 OA
BRANCH   2   4
ATOM      4  C   UNL     1     -15.366  -1.028  13.783  1.00  0.00     0.048 C 
ATOM      5  C   UNL     1     -16.350  -0.836  14.676  1.00  0.00     0.012 C 
BRANCH   5   6
ATOM      6  C   UNL     1     -16.945  -1.888  15.527  1.00  0.00    -0.022 A 
ATOM      7  C   UNL     1     -16.683  -3.538  17.307  1.00  0.00     0.161 A 
ATOM      8  C   UNL     1     -18.060  -3.827  17.229  1.00  0.00     0.157 A 
ATOM      9  C   UNL     1     -16.136  -2.557  16.457  1.00  0.00     0.058 A 
ATOM     10  C   UNL     1     -18.872  -3.131  16.327  1.00  0.00     0.051 A 
ATOM     11  C   UNL     1     -18.324  -2.162  15.489  1.00  0.00     0.012 A 
BRANCH   7  12
ATOM     12  O   UNL     1     -15.900  -4.234  18.242  1.00  0.00    -0.493 OA
ATOM     13  C   UNL     1     -14.517  -3.991  18.477  1.00  0.00     0.278 C 
ENDBRANCH   7  12
BRANCH   8  14
ATOM     14  O   UNL     1     -18.640  -4.799  18.044  1.00  0.00    -0.504 OA
ATOM     15  H   UNL     1     -19.313  -4.569  18.765  1.00  0.00     0.293 HD
ENDBRANCH   8  14
ENDBRANCH   5   6
ENDBRANCH   2   4
ENDBRANCH   1   2
BRANCH   1  16
ATOM     16  C   UNL     1     -12.519  -0.959  13.453  1.00  0.00     0.163 C 
ATOM     17  O   UNL     1     -12.829  -0.495  12.324  1.00  0.00    -0.294 OA
BRANCH  16  18
ATOM     18  C   UNL     1     -11.624  -0.207  14.357  1.00  0.00     0.048 C 
ATOM     19  C   UNL     1     -10.630  -0.800  15.034  1.00  0.00     0.012 C 
BRANCH  19  20
ATOM     20  C   UNL     1      -9.719  -0.077  15.953  1.00  0.00    -0.022 A 
ATOM     21  C   UNL     1      -8.435  -0.602  16.183  1.00  0.00     0.058 A 
ATOM     22  C   UNL     1     -10.111   1.089  16.637  1.00  0.00     0.012 A 
ATOM     23  C   UNL     1      -7.540   0.040  17.063  1.00  0.00     0.161 A 
ATOM     24  C   UNL     1      -9.229   1.727  17.510  1.00  0.00     0.051 A 
ATOM     25  C   UNL     1      -7.945   1.208  17.723  1.00  0.00     0.157 A 
BRANCH  23  26
ATOM     26  O   UNL     1      -6.248  -0.453  17.306  1.00  0.00    -0.493 OA
ATOM     27  C   UNL     1      -5.792  -0.935  18.568  1.00  0.00     0.278 C 
ENDBRANCH  23  26
BRANCH  25  28
ATOM     28  O   UNL     1      -7.068   1.846  18.599  1.00  0.00    -0.504 OA
ATOM     29  H   UNL     1      -7.382   2.221  19.486  1.00  0.00     0.293 HD
ENDBRANCH  25  28
ENDBRANCH  19  20
ENDBRANCH  16  18
ENDBRANCH   1  16
TORSDOF 10
ENDMDL
MODEL 3
REMARK VINA RESULT:    29.293      5.668     12.135
REMARK INTER + INTRA:          44.261
REMARK INTER:                  44.521
REMARK INTRA:                  -0.260
REMARK UNBOUND:                -0.444
REMARK SMILES COc1cc(C=CC(=O)CC(=O)C=Cc2ccc(O)c(OC)c2)ccc1O
REMARK SMILES IDX 10 1 8 2 9 3 7 4 6 5 5 6 3 7 26 8 4 9 25 10 24 11 2 12 1 13
REMARK SMILES IDX 27 14 11 16 12 17 13 18 14 19 15 20 23 21 16 22 20 23 17 24
REMARK SMILES IDX 18 25 21 26 22 27 19 28
REMARK H PARENT 27 15 19 29
REMARK Flexibility Score: inf
ROOT
ATOM      1  C   UNL     1      -2.101  -3.842  19.121  1.00  0.00     0.160 C 
ENDROOT
BRANCH   1   2
ATOM      2  C   UNL     1      -0.609  -3.859  19.265  1.00  0.00     0.163 C 
ATOM      3  O   UNL     1       0.044  -2.803  19.043  1.00  0.00    -0.294 OA
BRANCH   2   4
ATOM      4  C   UNL     1       0.075  -5.100  19.694  1.00  0.00     0.048 C 
ATOM      5  C   UNL     1       0.479  -6.084  18.875  1.00  0.00     0.012 C 
BRANCH   5   6
ATOM      6  C   UNL     1       0.143  -6.187  17.440  1.00  0.00    -0.022 A 
ATOM      7  C   UNL     1      -1.549  -6.437  15.697  1.00  0.00     0.161 A 
ATOM      8  C   UNL     1      -0.546  -6.293  14.717  1.00  0.00     0.157 A 
ATOM      9  C   UNL     1      -1.193  -6.372  17.059  1.00  0.00     0.058 A 
ATOM     10  C   UNL     1       0.781  -6.070  15.099  1.00  0.00     0.051 A 
ATOM     11  C   UNL     1       1.124  -6.008  16.448  1.00  0.00     0.012 A 
BRANCH   7  12
ATOM     12  O   UNL     1      -2.876  -6.631  15.281  1.00  0.00    -0.493 OA
ATOM     13  C   UNL     1      -3.571  -5.780  14.376  1.00  0.00     0.278 C 
ENDBRANCH   7  12
BRANCH   8  14
ATOM     14  O   UNL     1      -0.852  -6.362  13.358  1.00  0.00    -0.504 OA
ATOM     15  H   UNL     1      -1.768  -6.126  12.996  1.00  0.00     0.293 HD
ENDBRANCH   8  14
ENDBRANCH   5   6
ENDBRANCH   2   4
ENDBRANCH   1   2
BRANCH   1  16
ATOM     16  C   UNL     1      -2.692  -2.826  20.051  1.00  0.00     0.163 C 
ATOM     17  O   UNL     1      -2.432  -2.893  21.281  1.00  0.00    -0.294 OA
BRANCH  16  18
ATOM     18  C   UNL     1      -3.532  -1.734  19.515  1.00  0.00     0.048 C 
ATOM     19  C   UNL     1      -4.833  -1.904  19.239  1.00  0.00     0.012 C 
BRANCH  19  20
ATOM     20  C   UNL     1      -5.702  -0.832  18.697  1.00  0.00    -0.022 A 
ATOM     21  C   UNL     1      -6.570  -1.139  17.635  1.00  0.00     0.058 A 
ATOM     22  C   UNL     1      -5.652   0.491  19.176  1.00  0.00     0.012 A 
ATOM     23  C   UNL     1      -7.401  -0.149  17.073  1.00  0.00     0.161 A 
ATOM     24  C   UNL     1      -6.471   1.475  18.621  1.00  0.00     0.051 A 
ATOM     25  C   UNL     1      -7.346   1.160  17.575  1.00  0.00     0.157 A 
BRANCH  23  26
ATOM     26  O   UNL     1      -8.287  -0.425  16.019  1.00  0.00    -0.493 OA
ATOM     27  C   UNL     1      -9.680  -0.678  16.180  1.00  0.00     0.278 C 
ENDBRANCH  23  26
BRANCH  25  28
ATOM     28  O   UNL     1      -8.161   2.145  17.020  1.00  0.00    -0.504 OA
ATOM     29  H   UNL     1      -7.857   2.705  16.232  1.00  0.00     0.293 HD
ENDBRANCH  25  28
ENDBRANCH  19  20
ENDBRANCH  16  18
ENDBRANCH   1  16
TORSDOF 10
ENDMDL
MODEL 4
REMARK VINA RESULT:    30.605      5.706     12.759
REMARK INTER + INTRA:          46.264
REMARK INTER:                  44.952
REMARK INTRA:                   1.311
REMARK UNBOUND:                -0.444
REMARK SMILES COc1cc(C=CC(=O)CC(=O)C=Cc2ccc(O)c(OC)c2)ccc1O
REMARK SMILES IDX 10 1 8 2 9 3 7 4 6 5 5 6 3 7 26 8 4 9 25 10 24 11 2 12 1 13
REMARK SMILES IDX 27 14 11 16 12 17 13 18 14 19 15 20 23 21 16 22 20 23 17 24
REMARK SMILES IDX 18 25 21 26 22 27 19 28
REMARK H PARENT 27 15 19 29
REMARK Flexibility Score: inf
ROOT
ATOM      1  C   UNL     1      -2.445  -1.332  19.094  1.00  0.00     0.160 C 
ENDROOT
BRANCH   1   2
ATOM      2  C   UNL     1      -1.324  -2.280  19.397  1.00  0.00     0.163 C 
ATOM      3  O   UNL     1      -1.588  -3.485  19.657  1.00  0.00    -0.294 OA
BRANCH   2   4
ATOM      4  C   UNL     1       0.077  -1.801  19.360  1.00  0.00     0.048 C 
ATOM      5  C   UNL     1       1.118  -2.493  18.872  1.00  0.00     0.012 C 
BRANCH   5   6
ATOM      6  C   UNL     1       1.082  -3.913  18.467  1.00  0.00    -0.022 A 
ATOM      7  C   UNL     1       1.111  -5.586  16.688  1.00  0.00     0.161 A 
ATOM      8  C   UNL     1       1.110  -6.606  17.660  1.00  0.00     0.157 A 
ATOM      9  C   UNL     1       1.107  -4.239  17.104  1.00  0.00     0.058 A 
ATOM     10  C   UNL     1       1.124  -6.278  19.020  1.00  0.00     0.051 A 
ATOM     11  C   UNL     1       1.120  -4.944  19.423  1.00  0.00     0.012 A 
BRANCH   7  12
ATOM     12  O   UNL     1       1.125  -5.947  15.331  1.00  0.00    -0.493 OA
ATOM     13  C   UNL     1       0.173  -6.808  14.714  1.00  0.00     0.278 C 
ENDBRANCH   7  12
BRANCH   8  14
ATOM     14  O   UNL     1       1.103  -7.951  17.292  1.00  0.00    -0.504 OA
ATOM     15  H   UNL     1       0.247  -8.450  17.080  1.00  0.00     0.293 HD
ENDBRANCH   8  14
ENDBRANCH   5   6
ENDBRANCH   2   4
ENDBRANCH   1   2
BRANCH   1  16
ATOM     16  C   UNL     1      -3.690  -1.773  19.800  1.00  0.00     0.163 C 
ATOM     17  O   UNL     1      -3.592  -2.442  20.862  1.00  0.00    -0.294 OA
BRANCH  16  18
ATOM     18  C   UNL     1      -5.016  -1.381  19.275  1.00  0.00     0.048 C 
ATOM     19  C   UNL     1      -5.216  -0.220  18.636  1.00  0.00     0.012 C 
BRANCH  19  20
ATOM     20  C   UNL     1      -6.532   0.205  18.103  1.00  0.00    -0.022 A 
ATOM     21  C   UNL     1      -7.315  -0.735  17.410  1.00  0.00     0.058 A 
ATOM     22  C   UNL     1      -7.002   1.526  18.225  1.00  0.00     0.012 A 
ATOM     23  C   UNL     1      -8.565  -0.373  16.869  1.00  0.00     0.161 A 
ATOM     24  C   UNL     1      -8.239   1.889  17.690  1.00  0.00     0.051 A 
ATOM     25  C   UNL     1      -9.022   0.945  17.015  1.00  0.00     0.157 A 
BRANCH  23  26
ATOM     26  O   UNL     1      -9.376  -1.290  16.181  1.00  0.00    -0.493 OA
ATOM     27  C   UNL     1     -10.033  -1.019  14.945  1.00  0.00     0.278 C 
ENDBRANCH  23  26
BRANCH  25  28
ATOM     28  O   UNL     1     -10.255   1.311  16.477  1.00  0.00    -0.504 OA
ATOM     29  H   UNL     1     -11.060   1.489  17.068  1.00  0.00     0.293 HD
ENDBRANCH  25  28
ENDBRANCH  19  20
ENDBRANCH  16  18
ENDBRANCH   1  16
TORSDOF 10
ENDMDL
MODEL 5
REMARK VINA RESULT:    30.754     11.803     13.795
REMARK INTER + INTRA:          46.490
REMARK INTER:                  45.170
REMARK INTRA:                   1.320
REMARK UNBOUND:                -0.444
REMARK SMILES COc1cc(C=CC(=O)CC(=O)C=Cc2ccc(O)c(OC)c2)ccc1O
REMARK SMILES IDX 10 1 8 2 9 3 7 4 6 5 5 6 3 7 26 8 4 9 25 10 24 11 2 12 1 13
REMARK SMILES IDX 27 14 11 16 12 17 13 18 14 19 15 20 23 21 16 22 20 23 17 24
REMARK SMILES IDX 18 25 21 26 22 27 19 28
REMARK H PARENT 27 15 19 29
REMARK Flexibility Score: inf
ROOT
ATOM      1  C   UNL     1     -16.890 -12.021  16.941  1.00  0.00     0.160 C 
ENDROOT
BRANCH   1   2
ATOM      2  C   UNL     1     -18.264 -12.034  16.344  1.00  0.00     0.163 C 
ATOM      3  O   UNL     1     -19.125 -12.838  16.796  1.00  0.00    -0.294 OA
BRANCH   2   4
ATOM      4  C   UNL     1     -18.605 -11.088  15.258  1.00  0.00     0.048 C 
ATOM      5  C   UNL     1     -19.038 -11.437  14.035  1.00  0.00     0.012 C 
BRANCH   5   6
ATOM      6  C   UNL     1     -19.067 -12.815  13.504  1.00  0.00    -0.022 A 
ATOM      7  C   UNL     1     -18.925 -14.326  11.591  1.00  0.00     0.161 A 
ATOM      8  C   UNL     1     -19.022 -15.427  12.466  1.00  0.00     0.157 A 
ATOM      9  C   UNL     1     -18.938 -13.022  12.124  1.00  0.00     0.058 A 
ATOM     10  C   UNL     1     -19.112 -15.220  13.846  1.00  0.00     0.051 A 
ATOM     11  C   UNL     1     -19.124 -13.927  14.365  1.00  0.00     0.012 A 
BRANCH   7  12
ATOM     12  O   UNL     1     -18.808 -14.568  10.213  1.00  0.00    -0.493 OA
ATOM     13  C   UNL     1     -18.381 -13.602   9.258  1.00  0.00     0.278 C 
ENDBRANCH   7  12
BRANCH   8  14
ATOM     14  O   UNL     1     -19.024 -16.735  11.981  1.00  0.00    -0.504 OA
ATOM     15  H   UNL     1     -18.179 -17.199  11.671  1.00  0.00     0.293 HD
ENDBRANCH   8  14
ENDBRANCH   5   6
ENDBRANCH   2   4
ENDBRANCH   1   2
BRANCH   1  16
ATOM     16  C   UNL     1     -16.571 -13.365  17.520  1.00  0.00     0.163 C 
ATOM     17  O   UNL     1     -17.132 -14.388  17.045  1.00  0.00    -0.294 OA
BRANCH  16  18
ATOM     18  C   UNL     1     -15.574 -13.487  18.605  1.00  0.00     0.048 C 
ATOM     19  C   UNL     1     -14.433 -14.174  18.451  1.00  0.00     0.012 C 
BRANCH  19  20
ATOM     20  C   UNL     1     -13.416 -14.321  19.519  1.00  0.00    -0.022 A 
ATOM     21  C   UNL     1     -13.150 -13.220  20.353  1.00  0.00     0.058 A 
ATOM     22  C   UNL     1     -12.675 -15.504  19.696  1.00  0.00     0.012 A 
ATOM     23  C   UNL     1     -12.178 -13.305  21.371  1.00  0.00     0.161 A 
ATOM     24  C   UNL     1     -11.710 -15.592  20.701  1.00  0.00     0.051 A 
ATOM     25  C   UNL     1     -11.462 -14.498  21.539  1.00  0.00     0.157 A 
BRANCH  23  26
ATOM     26  O   UNL     1     -11.896 -12.228  22.227  1.00  0.00    -0.493 OA
ATOM     27  C   UNL     1     -12.790 -11.149  22.489  1.00  0.00     0.278 C 
ENDBRANCH  23  26
BRANCH  25  28
ATOM     28  O   UNL     1     -10.495 -14.587  22.540  1.00  0.00    -0.504 OA
ATOM     29  H   UNL     1      -9.987 -13.771  22.861  1.00  0.00     0.293 HD
ENDBRANCH  25  28
ENDBRANCH  19  20
ENDBRANCH  16  18
ENDBRANCH   1  16
TORSDOF 10
ENDMDL
