MODEL 1
REMARK VINA RESULT:    -4.591      0.000      0.000
REMARK INTER + INTRA:         -10.111
REMARK INTER:                  -8.617
REMARK INTRA:                  -1.494
REMARK UNBOUND:                -1.494
REMARK SMILES O=C([O-])CCCCCCCCCCCCCCC(=O)[O-]
REMARK SMILES IDX 10 1 9 2 8 3 7 4 6 5 5 6 4 7 2 8 1 9 3 10 11 11 12 12 13 13
REMARK SMILES IDX 14 14 15 15 16 16 17 17 18 18 19 19 20 20
REMARK H PARENT
REMARK Flexibility Score: inf
ROOT
ATOM      1  C   UNL     1      -9.898   5.846   7.865  1.00  0.00     0.000 C 
ENDROOT
BRANCH   1   2
ATOM      2  C   UNL     1      -9.140   5.739   6.526  1.00  0.00     0.000 C 
BRANCH   2   3
ATOM      3  C   UNL     1      -9.235   6.976   5.614  1.00  0.00     0.000 C 
BRANCH   3   4
ATOM      4  C   UNL     1      -8.430   8.174   6.147  1.00  0.00     0.000 C 
BRANCH   4   5
ATOM      5  C   UNL     1      -7.953   9.108   5.024  1.00  0.00     0.000 C 
BRANCH   5   6
ATOM      6  C   UNL     1      -7.900  10.583   5.460  1.00  0.00     0.006 C 
BRANCH   6   7
ATOM      7  C   UNL     1      -6.477  11.152   5.402  1.00  0.00     0.053 C 
BRANCH   7   8
ATOM      8  C   UNL     1      -5.702  10.835   6.645  1.00  0.00     0.041 C 
ATOM      9  O   UNL     1      -4.486  10.515   6.570  1.00  0.00    -0.550 OA
ATOM     10  O   UNL     1      -6.314  10.929   7.888  1.00  0.00    -0.550 OA
ENDBRANCH   7   8
ENDBRANCH   6   7
ENDBRANCH   5   6
ENDBRANCH   4   5
ENDBRANCH   3   4
ENDBRANCH   2   3
ENDBRANCH   1   2
BRANCH   1  11
ATOM     11  C   UNL     1     -10.620   4.563   8.317  1.00  0.00     0.000 C 
BRANCH  11  12
ATOM     12  C   UNL     1     -11.414   3.895   7.182  1.00  0.00     0.000 C 
BRANCH  12  13
ATOM     13  C   UNL     1     -12.732   4.625   6.874  1.00  0.00     0.000 C 
BRANCH  13  14
ATOM     14  C   UNL     1     -12.700   5.367   5.529  1.00  0.00     0.000 C 
BRANCH  14  15
ATOM     15  C   UNL     1     -13.943   6.257   5.366  1.00  0.00     0.000 C 
BRANCH  15  16
ATOM     16  C   UNL     1     -13.593   7.713   5.013  1.00  0.00     0.006 C 
BRANCH  16  17
ATOM     17  C   UNL     1     -12.554   8.359   5.944  1.00  0.00     0.053 C 
BRANCH  17  18
ATOM     18  C   UNL     1     -12.393   9.824   5.675  1.00  0.00     0.041 C 
ATOM     19  O   UNL     1     -11.378  10.438   6.095  1.00  0.00    -0.550 OA
ATOM     20  O   UNL     1     -13.382  10.519   4.990  1.00  0.00    -0.550 OA
ENDBRANCH  17  18
ENDBRANCH  16  17
ENDBRANCH  15  16
ENDBRANCH  14  15
ENDBRANCH  13  14
ENDBRANCH  12  13
ENDBRANCH  11  12
ENDBRANCH   1  11
TORSDOF 15
ENDMDL
MODEL 2
REMARK VINA RESULT:    -4.553     16.526     18.268
REMARK INTER + INTRA:         -10.039
REMARK INTER:                  -9.033
REMARK INTRA:                  -1.006
REMARK UNBOUND:                -1.494
REMARK SMILES O=C([O-])CCCCCCCCCCCCCCC(=O)[O-]
REMARK SMILES IDX 10 1 9 2 8 3 7 4 6 5 5 6 4 7 2 8 1 9 3 10 11 11 12 12 13 13
REMARK SMILES IDX 14 14 15 15 16 16 17 17 18 18 19 19 20 20
REMARK H PARENT
REMARK Flexibility Score: inf
ROOT
ATOM      1  C   UNL     1     -14.281  -0.627 -11.125  1.00  0.00     0.000 C 
ENDROOT
BRANCH   1   2
ATOM      2  C   UNL     1     -15.027  -1.644 -10.237  1.00  0.00     0.000 C 
BRANCH   2   3
ATOM      3  C   UNL     1     -14.295  -2.978 -10.005  1.00  0.00     0.000 C 
BRANCH   3   4
ATOM      4  C   UNL     1     -13.011  -3.107 -10.842  1.00  0.00     0.000 C 
BRANCH   4   5
ATOM      5  C   UNL     1     -11.750  -3.222  -9.971  1.00  0.00     0.000 C 
BRANCH   5   6
ATOM      6  C   UNL     1     -11.013  -1.879  -9.812  1.00  0.00     0.006 C 
BRANCH   6   7
ATOM      7  C   UNL     1      -9.893  -1.954  -8.767  1.00  0.00     0.053 C 
BRANCH   7   8
ATOM      8  C   UNL     1      -9.589  -3.370  -8.381  1.00  0.00     0.041 C 
ATOM      9  O   UNL     1      -8.727  -4.030  -9.019  1.00  0.00    -0.550 OA
ATOM     10  O   UNL     1     -10.233  -3.947  -7.294  1.00  0.00    -0.550 OA
ENDBRANCH   7   8
ENDBRANCH   6   7
ENDBRANCH   5   6
ENDBRANCH   4   5
ENDBRANCH   3   4
ENDBRANCH   2   3
ENDBRANCH   1   2
BRANCH   1  11
ATOM     11  C   UNL     1     -13.751   0.621 -10.393  1.00  0.00     0.000 C 
BRANCH  11  12
ATOM     12  C   UNL     1     -14.674   1.079  -9.252  1.00  0.00     0.000 C 
BRANCH  12  13
ATOM     13  C   UNL     1     -14.741   2.609  -9.124  1.00  0.00     0.000 C 
BRANCH  13  14
ATOM     14  C   UNL     1     -14.424   3.101  -7.703  1.00  0.00     0.000 C 
BRANCH  14  15
ATOM     15  C   UNL     1     -13.350   4.200  -7.731  1.00  0.00     0.000 C 
BRANCH  15  16
ATOM     16  C   UNL     1     -13.003   4.661  -9.158  1.00  0.00     0.006 C 
BRANCH  16  17
ATOM     17  C   UNL     1     -11.624   4.197  -9.656  1.00  0.00     0.053 C 
BRANCH  17  18
ATOM     18  C   UNL     1     -10.967   3.256  -8.693  1.00  0.00     0.041 C 
ATOM     19  O   UNL     1     -10.285   3.705  -7.735  1.00  0.00    -0.550 OA
ATOM     20  O   UNL     1     -11.081   1.884  -8.873  1.00  0.00    -0.550 OA
ENDBRANCH  17  18
ENDBRANCH  16  17
ENDBRANCH  15  16
ENDBRANCH  14  15
ENDBRANCH  13  14
ENDBRANCH  12  13
ENDBRANCH  11  12
ENDBRANCH   1  11
TORSDOF 15
ENDMDL
MODEL 3
REMARK VINA RESULT:    -4.546      1.528      2.204
REMARK INTER + INTRA:         -10.026
REMARK INTER:                  -8.897
REMARK INTRA:                  -1.129
REMARK UNBOUND:                -1.494
REMARK SMILES O=C([O-])CCCCCCCCCCCCCCC(=O)[O-]
REMARK SMILES IDX 10 1 9 2 8 3 7 4 6 5 5 6 4 7 2 8 1 9 3 10 11 11 12 12 13 13
REMARK SMILES IDX 14 14 15 15 16 16 17 17 18 18 19 19 20 20
REMARK H PARENT
REMARK Flexibility Score: inf
ROOT
ATOM      1  C   UNL     1      -9.141   5.761   6.575  1.00  0.00     0.000 C 
ENDROOT
BRANCH   1   2
ATOM      2  C   UNL     1      -9.198   7.042   5.717  1.00  0.00     0.000 C 
BRANCH   2   3
ATOM      3  C   UNL     1      -8.345   8.216   6.230  1.00  0.00     0.000 C 
BRANCH   3   4
ATOM      4  C   UNL     1      -8.015   9.240   5.130  1.00  0.00     0.000 C 
BRANCH   4   5
ATOM      5  C   UNL     1      -8.574  10.637   5.440  1.00  0.00     0.000 C 
BRANCH   5   6
ATOM      6  C   UNL     1      -7.500  11.601   5.977  1.00  0.00     0.006 C 
BRANCH   6   7
ATOM      7  C   UNL     1      -6.114  11.306   5.392  1.00  0.00     0.053 C 
BRANCH   7   8
ATOM      8  C   UNL     1      -5.068  11.216   6.462  1.00  0.00     0.041 C 
ATOM      9  O   UNL     1      -3.982  10.619   6.239  1.00  0.00    -0.550 OA
ATOM     10  O   UNL     1      -5.281  11.822   7.693  1.00  0.00    -0.550 OA
ENDBRANCH   7   8
ENDBRANCH   6   7
ENDBRANCH   5   6
ENDBRANCH   4   5
ENDBRANCH   3   4
ENDBRANCH   2   3
ENDBRANCH   1   2
BRANCH   1  11
ATOM     11  C   UNL     1      -9.810   5.867   7.959  1.00  0.00     0.000 C 
BRANCH  11  12
ATOM     12  C   UNL     1     -10.277   4.505   8.500  1.00  0.00     0.000 C 
BRANCH  12  13
ATOM     13  C   UNL     1     -11.155   3.739   7.497  1.00  0.00     0.000 C 
BRANCH  13  14
ATOM     14  C   UNL     1     -12.517   4.411   7.265  1.00  0.00     0.000 C 
BRANCH  14  15
ATOM     15  C   UNL     1     -12.643   4.907   5.816  1.00  0.00     0.000 C 
BRANCH  15  16
ATOM     16  C   UNL     1     -13.043   6.390   5.724  1.00  0.00     0.006 C 
BRANCH  16  17
ATOM     17  C   UNL     1     -14.318   6.652   4.905  1.00  0.00     0.053 C 
BRANCH  17  18
ATOM     18  C   UNL     1     -14.016   7.294   3.586  1.00  0.00     0.041 C 
ATOM     19  O   UNL     1     -13.984   8.548   3.484  1.00  0.00    -0.550 OA
ATOM     20  O   UNL     1     -13.804   6.506   2.461  1.00  0.00    -0.550 OA
ENDBRANCH  17  18
ENDBRANCH  16  17
ENDBRANCH  15  16
ENDBRANCH  14  15
ENDBRANCH  13  14
ENDBRANCH  12  13
ENDBRANCH  11  12
ENDBRANCH   1  11
TORSDOF 15
ENDMDL
MODEL 4
REMARK VINA RESULT:    -4.530      2.354      3.686
REMARK INTER + INTRA:          -9.996
REMARK INTER:                  -8.610
REMARK INTRA:                  -1.386
REMARK UNBOUND:                -1.494
REMARK SMILES O=C([O-])CCCCCCCCCCCCCCC(=O)[O-]
REMARK SMILES IDX 10 1 9 2 8 3 7 4 6 5 5 6 4 7 2 8 1 9 3 10 11 11 12 12 13 13
REMARK SMILES IDX 14 14 15 15 16 16 17 17 18 18 19 19 20 20
REMARK H PARENT
REMARK Flexibility Score: inf
ROOT
ATOM      1  C   UNL     1      -9.378   7.091   5.769  1.00  0.00     0.000 C 
ENDROOT
BRANCH   1   2
ATOM      2  C   UNL     1      -8.357   8.188   6.132  1.00  0.00     0.000 C 
BRANCH   2   3
ATOM      3  C   UNL     1      -7.959   9.126   4.977  1.00  0.00     0.000 C 
BRANCH   3   4
ATOM      4  C   UNL     1      -7.040  10.273   5.429  1.00  0.00     0.000 C 
BRANCH   4   5
ATOM      5  C   UNL     1      -7.766  11.291   6.323  1.00  0.00     0.000 C 
BRANCH   5   6
ATOM      6  C   UNL     1      -8.914  12.011   5.593  1.00  0.00     0.006 C 
BRANCH   6   7
ATOM      7  C   UNL     1     -10.263  11.806   6.293  1.00  0.00     0.053 C 
BRANCH   7   8
ATOM      8  C   UNL     1     -11.216  11.022   5.444  1.00  0.00     0.041 C 
ATOM      9  O   UNL     1     -11.621  11.489   4.347  1.00  0.00    -0.550 OA
ATOM     10  O   UNL     1     -11.628   9.758   5.849  1.00  0.00    -0.550 OA
ENDBRANCH   7   8
ENDBRANCH   6   7
ENDBRANCH   5   6
ENDBRANCH   4   5
ENDBRANCH   3   4
ENDBRANCH   2   3
ENDBRANCH   1   2
BRANCH   1  11
ATOM     11  C   UNL     1      -9.183   5.746   6.493  1.00  0.00     0.000 C 
BRANCH  11  12
ATOM     12  C   UNL     1      -9.940   5.671   7.829  1.00  0.00     0.000 C 
BRANCH  12  13
ATOM     13  C   UNL     1     -10.653   4.324   8.031  1.00  0.00     0.000 C 
BRANCH  13  14
ATOM     14  C   UNL     1     -11.443   3.878   6.790  1.00  0.00     0.000 C 
BRANCH  14  15
ATOM     15  C   UNL     1     -12.690   4.753   6.592  1.00  0.00     0.000 C 
BRANCH  15  16
ATOM     16  C   UNL     1     -12.709   5.469   5.230  1.00  0.00     0.006 C 
BRANCH  16  17
ATOM     17  C   UNL     1     -14.050   6.137   4.884  1.00  0.00     0.053 C 
BRANCH  17  18
ATOM     18  C   UNL     1     -13.944   7.015   3.675  1.00  0.00     0.041 C 
ATOM     19  O   UNL     1     -13.967   8.267   3.798  1.00  0.00    -0.550 OA
ATOM     20  O   UNL     1     -13.853   6.449   2.409  1.00  0.00    -0.550 OA
ENDBRANCH  17  18
ENDBRANCH  16  17
ENDBRANCH  15  16
ENDBRANCH  14  15
ENDBRANCH  13  14
ENDBRANCH  12  13
ENDBRANCH  11  12
ENDBRANCH   1  11
TORSDOF 15
ENDMDL
MODEL 5
REMARK VINA RESULT:    -4.529      0.916      5.673
REMARK INTER + INTRA:          -9.995
REMARK INTER:                  -8.606
REMARK INTRA:                  -1.389
REMARK UNBOUND:                -1.494
REMARK SMILES O=C([O-])CCCCCCCCCCCCCCC(=O)[O-]
REMARK SMILES IDX 10 1 9 2 8 3 7 4 6 5 5 6 4 7 2 8 1 9 3 10 11 11 12 12 13 13
REMARK SMILES IDX 14 14 15 15 16 16 17 17 18 18 19 19 20 20
REMARK H PARENT
REMARK Flexibility Score: inf
ROOT
ATOM      1  C   UNL     1     -11.227   3.874   6.901  1.00  0.00     0.000 C 
ENDROOT
BRANCH   1   2
ATOM      2  C   UNL     1     -12.692   4.350   6.830  1.00  0.00     0.000 C 
BRANCH   2   3
ATOM      3  C   UNL     1     -12.905   5.735   6.192  1.00  0.00     0.000 C 
BRANCH   3   4
ATOM      4  C   UNL     1     -12.702   5.728   4.667  1.00  0.00     0.000 C 
BRANCH   4   5
ATOM      5  C   UNL     1     -13.738   6.592   3.932  1.00  0.00     0.000 C 
BRANCH   5   6
ATOM      6  C   UNL     1     -14.344   7.686   4.829  1.00  0.00     0.006 C 
BRANCH   6   7
ATOM      7  C   UNL     1     -13.969   9.096   4.355  1.00  0.00     0.053 C 
BRANCH   7   8
ATOM      8  C   UNL     1     -12.918   9.712   5.226  1.00  0.00     0.041 C 
ATOM      9  O   UNL     1     -12.598   9.169   6.316  1.00  0.00    -0.550 OA
ATOM     10  O   UNL     1     -12.268  10.870   4.817  1.00  0.00    -0.550 OA
ENDBRANCH   7   8
ENDBRANCH   6   7
ENDBRANCH   5   6
ENDBRANCH   4   5
ENDBRANCH   3   4
ENDBRANCH   2   3
ENDBRANCH   1   2
BRANCH   1  11
ATOM     11  C   UNL     1     -10.465   4.280   8.176  1.00  0.00     0.000 C 
BRANCH  11  12
ATOM     12  C   UNL     1      -9.868   5.695   8.089  1.00  0.00     0.000 C 
BRANCH  12  13
ATOM     13  C   UNL     1      -9.160   5.956   6.750  1.00  0.00     0.000 C 
BRANCH  13  14
ATOM     14  C   UNL     1      -9.600   7.274   6.093  1.00  0.00     0.000 C 
BRANCH  14  15
ATOM     15  C   UNL     1      -8.432   7.922   5.332  1.00  0.00     0.000 C 
BRANCH  15  16
ATOM     16  C   UNL     1      -8.464   9.460   5.386  1.00  0.00     0.006 C 
BRANCH  16  17
ATOM     17  C   UNL     1      -7.098  10.130   5.163  1.00  0.00     0.053 C 
BRANCH  17  18
ATOM     18  C   UNL     1      -6.419  10.465   6.456  1.00  0.00     0.041 C 
ATOM     19  O   UNL     1      -7.091  10.888   7.432  1.00  0.00    -0.550 OA
ATOM     20  O   UNL     1      -5.040  10.340   6.571  1.00  0.00    -0.550 OA
ENDBRANCH  17  18
ENDBRANCH  16  17
ENDBRANCH  15  16
ENDBRANCH  14  15
ENDBRANCH  13  14
ENDBRANCH  12  13
ENDBRANCH  11  12
ENDBRANCH   1  11
TORSDOF 15
ENDMDL
MODEL 6
REMARK VINA RESULT:    -4.422      0.972      1.710
REMARK INTER + INTRA:          -9.793
REMARK INTER:                  -8.297
REMARK INTRA:                  -1.496
REMARK UNBOUND:                -1.494
REMARK SMILES O=C([O-])CCCCCCCCCCCCCCC(=O)[O-]
REMARK SMILES IDX 10 1 9 2 8 3 7 4 6 5 5 6 4 7 2 8 1 9 3 10 11 11 12 12 13 13
REMARK SMILES IDX 14 14 15 15 16 16 17 17 18 18 19 19 20 20
REMARK H PARENT
REMARK Flexibility Score: inf
ROOT
ATOM      1  C   UNL     1     -10.758   4.496   8.294  1.00  0.00     0.000 C 
ENDROOT
BRANCH   1   2
ATOM      2  C   UNL     1      -9.890   5.731   7.978  1.00  0.00     0.000 C 
BRANCH   2   3
ATOM      3  C   UNL     1      -9.221   5.729   6.592  1.00  0.00     0.000 C 
BRANCH   3   4
ATOM      4  C   UNL     1      -9.455   7.035   5.814  1.00  0.00     0.000 C 
BRANCH   4   5
ATOM      5  C   UNL     1      -8.392   8.102   6.121  1.00  0.00     0.000 C 
BRANCH   5   6
ATOM      6  C   UNL     1      -8.181   9.083   4.953  1.00  0.00     0.006 C 
BRANCH   6   7
ATOM      7  C   UNL     1      -7.143  10.162   5.286  1.00  0.00     0.053 C 
BRANCH   7   8
ATOM      8  C   UNL     1      -7.519  10.934   6.513  1.00  0.00     0.041 C 
ATOM      9  O   UNL     1      -8.522  11.696   6.501  1.00  0.00    -0.550 OA
ATOM     10  O   UNL     1      -6.782  10.785   7.681  1.00  0.00    -0.550 OA
ENDBRANCH   7   8
ENDBRANCH   6   7
ENDBRANCH   5   6
ENDBRANCH   4   5
ENDBRANCH   3   4
ENDBRANCH   2   3
ENDBRANCH   1   2
BRANCH   1  11
ATOM     11  C   UNL     1     -11.509   3.895   7.091  1.00  0.00     0.000 C 
BRANCH  11  12
ATOM     12  C   UNL     1     -12.839   4.611   6.800  1.00  0.00     0.000 C 
BRANCH  12  13
ATOM     13  C   UNL     1     -12.785   5.462   5.521  1.00  0.00     0.000 C 
BRANCH  13  14
ATOM     14  C   UNL     1     -14.056   6.299   5.310  1.00  0.00     0.000 C 
BRANCH  14  15
ATOM     15  C   UNL     1     -13.762   7.530   4.438  1.00  0.00     0.000 C 
BRANCH  15  16
ATOM     16  C   UNL     1     -13.762   8.844   5.238  1.00  0.00     0.006 C 
BRANCH  16  17
ATOM     17  C   UNL     1     -12.505   9.064   6.096  1.00  0.00     0.053 C 
BRANCH  17  18
ATOM     18  C   UNL     1     -11.957  10.450   5.944  1.00  0.00     0.041 C 
ATOM     19  O   UNL     1     -11.773  11.172   6.958  1.00  0.00    -0.550 OA
ATOM     20  O   UNL     1     -11.681  10.955   4.680  1.00  0.00    -0.550 OA
ENDBRANCH  17  18
ENDBRANCH  16  17
ENDBRANCH  15  16
ENDBRANCH  14  15
ENDBRANCH  13  14
ENDBRANCH  12  13
ENDBRANCH  11  12
ENDBRANCH   1  11
TORSDOF 15
ENDMDL
MODEL 7
REMARK VINA RESULT:    -4.386      1.674      7.017
REMARK INTER + INTRA:          -9.726
REMARK INTER:                  -8.535
REMARK INTRA:                  -1.191
REMARK UNBOUND:                -1.494
REMARK SMILES O=C([O-])CCCCCCCCCCCCCCC(=O)[O-]
REMARK SMILES IDX 10 1 9 2 8 3 7 4 6 5 5 6 4 7 2 8 1 9 3 10 11 11 12 12 13 13
REMARK SMILES IDX 14 14 15 15 16 16 17 17 18 18 19 19 20 20
REMARK H PARENT
REMARK Flexibility Score: inf
ROOT
ATOM      1  C   UNL     1      -9.835   6.125   8.249  1.00  0.00     0.000 C 
ENDROOT
BRANCH   1   2
ATOM      2  C   UNL     1     -10.420   4.793   8.762  1.00  0.00     0.000 C 
BRANCH   2   3
ATOM      3  C   UNL     1     -10.948   3.842   7.673  1.00  0.00     0.000 C 
BRANCH   3   4
ATOM      4  C   UNL     1     -12.410   4.128   7.288  1.00  0.00     0.000 C 
BRANCH   4   5
ATOM      5  C   UNL     1     -12.545   4.679   5.860  1.00  0.00     0.000 C 
BRANCH   5   6
ATOM      6  C   UNL     1     -13.179   6.081   5.822  1.00  0.00     0.006 C 
BRANCH   6   7
ATOM      7  C   UNL     1     -14.342   6.163   4.826  1.00  0.00     0.053 C 
BRANCH   7   8
ATOM      8  C   UNL     1     -14.020   7.059   3.669  1.00  0.00     0.041 C 
ATOM      9  O   UNL     1     -13.809   6.570   2.528  1.00  0.00    -0.550 OA
ATOM     10  O   UNL     1     -13.988   8.436   3.844  1.00  0.00    -0.550 OA
ENDBRANCH   7   8
ENDBRANCH   6   7
ENDBRANCH   5   6
ENDBRANCH   4   5
ENDBRANCH   3   4
ENDBRANCH   2   3
ENDBRANCH   1   2
BRANCH   1  11
ATOM     11  C   UNL     1      -9.003   6.023   6.956  1.00  0.00     0.000 C 
BRANCH  11  12
ATOM     12  C   UNL     1      -9.526   6.938   5.837  1.00  0.00     0.000 C 
BRANCH  12  13
ATOM     13  C   UNL     1      -8.424   7.823   5.233  1.00  0.00     0.000 C 
BRANCH  13  14
ATOM     14  C   UNL     1      -8.664   9.321   5.477  1.00  0.00     0.000 C 
BRANCH  14  15
ATOM     15  C   UNL     1      -7.527   9.928   6.313  1.00  0.00     0.000 C 
BRANCH  15  16
ATOM     16  C   UNL     1      -7.105  11.325   5.823  1.00  0.00     0.006 C 
BRANCH  16  17
ATOM     17  C   UNL     1      -5.672  11.396   5.269  1.00  0.00     0.053 C 
BRANCH  17  18
ATOM     18  C   UNL     1      -4.645  11.272   6.353  1.00  0.00     0.041 C 
ATOM     19  O   UNL     1      -3.577  10.639   6.143  1.00  0.00    -0.550 OA
ATOM     20  O   UNL     1      -4.882  11.827   7.604  1.00  0.00    -0.550 OA
ENDBRANCH  17  18
ENDBRANCH  16  17
ENDBRANCH  15  16
ENDBRANCH  14  15
ENDBRANCH  13  14
ENDBRANCH  12  13
ENDBRANCH  11  12
ENDBRANCH   1  11
TORSDOF 15
ENDMDL
MODEL 8
REMARK VINA RESULT:    -4.375      1.298      1.941
REMARK INTER + INTRA:          -9.706
REMARK INTER:                  -8.653
REMARK INTRA:                  -1.053
REMARK UNBOUND:                -1.494
REMARK SMILES O=C([O-])CCCCCCCCCCCCCCC(=O)[O-]
REMARK SMILES IDX 10 1 9 2 8 3 7 4 6 5 5 6 4 7 2 8 1 9 3 10 11 11 12 12 13 13
REMARK SMILES IDX 14 14 15 15 16 16 17 17 18 18 19 19 20 20
REMARK H PARENT
REMARK Flexibility Score: inf
ROOT
ATOM      1  C   UNL     1     -10.749   4.356   8.202  1.00  0.00     0.000 C 
ENDROOT
BRANCH   1   2
ATOM      2  C   UNL     1      -9.872   5.608   7.993  1.00  0.00     0.000 C 
BRANCH   2   3
ATOM      3  C   UNL     1      -9.331   5.802   6.565  1.00  0.00     0.000 C 
BRANCH   3   4
ATOM      4  C   UNL     1      -9.657   7.189   5.986  1.00  0.00     0.000 C 
BRANCH   4   5
ATOM      5  C   UNL     1      -8.434   7.859   5.339  1.00  0.00     0.000 C 
BRANCH   5   6
ATOM      6  C   UNL     1      -8.485   9.395   5.422  1.00  0.00     0.006 C 
BRANCH   6   7
ATOM      7  C   UNL     1      -7.109  10.033   5.196  1.00  0.00     0.053 C 
BRANCH   7   8
ATOM      8  C   UNL     1      -6.496  10.500   6.481  1.00  0.00     0.041 C 
ATOM      9  O   UNL     1      -5.262  10.359   6.684  1.00  0.00    -0.550 OA
ATOM     10  O   UNL     1      -7.285  11.125   7.439  1.00  0.00    -0.550 OA
ENDBRANCH   7   8
ENDBRANCH   6   7
ENDBRANCH   5   6
ENDBRANCH   4   5
ENDBRANCH   3   4
ENDBRANCH   2   3
ENDBRANCH   1   2
BRANCH   1  11
ATOM     11  C   UNL     1     -11.529   3.885   6.960  1.00  0.00     0.000 C 
BRANCH  11  12
ATOM     12  C   UNL     1     -12.855   4.639   6.768  1.00  0.00     0.000 C 
BRANCH  12  13
ATOM     13  C   UNL     1     -12.925   5.378   5.422  1.00  0.00     0.000 C 
BRANCH  13  14
ATOM     14  C   UNL     1     -14.174   6.264   5.294  1.00  0.00     0.000 C 
BRANCH  14  15
ATOM     15  C   UNL     1     -13.950   7.379   4.261  1.00  0.00     0.000 C 
BRANCH  15  16
ATOM     16  C   UNL     1     -13.606   8.733   4.907  1.00  0.00     0.006 C 
BRANCH  16  17
ATOM     17  C   UNL     1     -14.292   9.942   4.249  1.00  0.00     0.053 C 
BRANCH  17  18
ATOM     18  C   UNL     1     -13.423  10.584   3.211  1.00  0.00     0.041 C 
ATOM     19  O   UNL     1     -13.594  10.323   1.992  1.00  0.00    -0.550 OA
ATOM     20  O   UNL     1     -12.402  11.445   3.594  1.00  0.00    -0.550 OA
ENDBRANCH  17  18
ENDBRANCH  16  17
ENDBRANCH  15  16
ENDBRANCH  14  15
ENDBRANCH  13  14
ENDBRANCH  12  13
ENDBRANCH  11  12
ENDBRANCH   1  11
TORSDOF 15
ENDMDL
MODEL 9
REMARK VINA RESULT:    -3.803     16.503     18.156
REMARK INTER + INTRA:          -8.632
REMARK INTER:                  -7.563
REMARK INTRA:                  -1.068
REMARK UNBOUND:                -1.494
REMARK SMILES O=C([O-])CCCCCCCCCCCCCCC(=O)[O-]
REMARK SMILES IDX 10 1 9 2 8 3 7 4 6 5 5 6 4 7 2 8 1 9 3 10 11 11 12 12 13 13
REMARK SMILES IDX 14 14 15 15 16 16 17 17 18 18 19 19 20 20
REMARK H PARENT
REMARK Flexibility Score: inf
ROOT
ATOM      1  C   UNL     1     -14.652  -1.194 -10.792  1.00  0.00     0.000 C 
ENDROOT
BRANCH   1   2
ATOM      2  C   UNL     1     -13.952  -2.568 -10.803  1.00  0.00     0.000 C 
BRANCH   2   3
ATOM      3  C   UNL     1     -12.457  -2.550 -10.434  1.00  0.00     0.000 C 
BRANCH   3   4
ATOM      4  C   UNL     1     -11.693  -1.391 -11.097  1.00  0.00     0.000 C 
BRANCH   4   5
ATOM      5  C   UNL     1     -10.274  -1.222 -10.533  1.00  0.00     0.000 C 
BRANCH   5   6
ATOM      6  C   UNL     1      -9.697  -2.535  -9.973  1.00  0.00     0.006 C 
BRANCH   6   7
ATOM      7  C   UNL     1      -9.526  -2.490  -8.450  1.00  0.00     0.053 C 
BRANCH   7   8
ATOM      8  C   UNL     1      -9.532  -3.862  -7.849  1.00  0.00     0.041 C 
ATOM      9  O   UNL     1     -10.210  -4.099  -6.815  1.00  0.00    -0.550 OA
ATOM     10  O   UNL     1      -8.815  -4.887  -8.453  1.00  0.00    -0.550 OA
ENDBRANCH   7   8
ENDBRANCH   6   7
ENDBRANCH   5   6
ENDBRANCH   4   5
ENDBRANCH   3   4
ENDBRANCH   2   3
ENDBRANCH   1   2
BRANCH   1  11
ATOM     11  C   UNL     1     -15.125  -0.708  -9.409  1.00  0.00     0.000 C 
BRANCH  11  12
ATOM     12  C   UNL     1     -15.118   0.824  -9.281  1.00  0.00     0.000 C 
BRANCH  12  13
ATOM     13  C   UNL     1     -13.965   1.477 -10.060  1.00  0.00     0.000 C 
BRANCH  13  14
ATOM     14  C   UNL     1     -12.588   1.176  -9.448  1.00  0.00     0.000 C 
BRANCH  14  15
ATOM     15  C   UNL     1     -11.528   2.154  -9.978  1.00  0.00     0.000 C 
BRANCH  15  16
ATOM     16  C   UNL     1     -11.744   3.595  -9.484  1.00  0.00     0.006 C 
BRANCH  16  17
ATOM     17  C   UNL     1     -11.368   3.823  -8.010  1.00  0.00     0.053 C 
BRANCH  17  18
ATOM     18  C   UNL     1     -12.494   4.430  -7.231  1.00  0.00     0.041 C 
ATOM     19  O   UNL     1     -12.361   4.663  -6.001  1.00  0.00    -0.550 OA
ATOM     20  O   UNL     1     -13.703   4.708  -7.857  1.00  0.00    -0.550 OA
ENDBRANCH  17  18
ENDBRANCH  16  17
ENDBRANCH  15  16
ENDBRANCH  14  15
ENDBRANCH  13  14
ENDBRANCH  12  13
ENDBRANCH  11  12
ENDBRANCH   1  11
TORSDOF 15
ENDMDL
