MODEL 1
REMARK VINA RESULT:    -3.275      0.000      0.000
REMARK INTER + INTRA:          -3.899
REMARK INTER:                  -3.658
REMARK INTRA:                  -0.241
REMARK UNBOUND:                -0.241
REMARK SMILES COc1cc(C)ccc1C(C)C
REMARK SMILES IDX 6 1 5 2 4 3 3 4 9 5 8 6 7 7 2 8 1 9 10 10 11 11 12 12
REMARK H PARENT
REMARK Flexibility Score: inf
ROOT
ATOM      1  C   UNL     1      77.960   4.170  63.338  1.00  0.00     0.044 C 
ATOM      2  C   UNL     1      78.563   3.653  64.611  1.00  0.00    -0.047 A 
ATOM      3  C   UNL     1      77.740   3.277  65.680  1.00  0.00     0.050 A 
ATOM      4  C   UNL     1      78.291   2.756  66.868  1.00  0.00     0.122 A 
ATOM      5  C   UNL     1      79.693   2.601  66.974  1.00  0.00    -0.003 A 
ATOM      6  C   UNL     1      80.507   2.964  65.883  1.00  0.00     0.008 A 
ATOM      7  C   UNL     1      79.947   3.478  64.713  1.00  0.00     0.004 A 
ENDROOT
BRANCH   4   8
ATOM      8  O   UNL     1      77.476   2.385  67.951  1.00  0.00    -0.496 OA
ATOM      9  C   UNL     1      76.054   2.462  67.963  1.00  0.00     0.278 C 
ENDBRANCH   4   8
BRANCH   5  10
ATOM     10  C   UNL     1      80.329   2.042  68.241  1.00  0.00     0.017 C 
ATOM     11  C   UNL     1      81.312   0.912  67.912  1.00  0.00     0.012 C 
ATOM     12  C   UNL     1      81.013   3.150  69.052  1.00  0.00     0.012 C 
ENDBRANCH   5  10
TORSDOF 2
ENDMDL
MODEL 2
REMARK VINA RESULT:    -3.182      1.598      3.155
REMARK INTER + INTRA:          -3.795
REMARK INTER:                  -3.556
REMARK INTRA:                  -0.239
REMARK UNBOUND:                -0.241
REMARK SMILES COc1cc(C)ccc1C(C)C
REMARK SMILES IDX 6 1 5 2 4 3 3 4 9 5 8 6 7 7 2 8 1 9 10 10 11 11 12 12
REMARK H PARENT
REMARK Flexibility Score: inf
ROOT
ATOM      1  C   UNL     1      75.180   3.217  66.012  1.00  0.00     0.044 C 
ATOM      2  C   UNL     1      76.617   2.992  66.378  1.00  0.00    -0.047 A 
ATOM      3  C   UNL     1      77.638   3.368  65.496  1.00  0.00     0.050 A 
ATOM      4  C   UNL     1      78.993   3.195  65.843  1.00  0.00     0.122 A 
ATOM      5  C   UNL     1      79.323   2.645  67.104  1.00  0.00    -0.003 A 
ATOM      6  C   UNL     1      78.286   2.290  67.989  1.00  0.00     0.008 A 
ATOM      7  C   UNL     1      76.949   2.468  67.632  1.00  0.00     0.004 A 
ENDROOT
BRANCH   4   8
ATOM      8  O   UNL     1      80.026   3.560  64.963  1.00  0.00    -0.496 OA
ATOM      9  C   UNL     1      79.852   4.338  63.783  1.00  0.00     0.278 C 
ENDBRANCH   4   8
BRANCH   5  10
ATOM     10  C   UNL     1      80.775   2.441  67.518  1.00  0.00     0.017 C 
ATOM     11  C   UNL     1      81.094   3.207  68.807  1.00  0.00     0.012 C 
ATOM     12  C   UNL     1      81.104   0.950  67.665  1.00  0.00     0.012 C 
ENDBRANCH   5  10
TORSDOF 2
ENDMDL
MODEL 3
REMARK VINA RESULT:    -3.179     19.327     20.473
REMARK INTER + INTRA:          -3.791
REMARK INTER:                  -3.547
REMARK INTRA:                  -0.245
REMARK UNBOUND:                -0.241
REMARK SMILES COc1cc(C)ccc1C(C)C
REMARK SMILES IDX 6 1 5 2 4 3 3 4 9 5 8 6 7 7 2 8 1 9 10 10 11 11 12 12
REMARK H PARENT
REMARK Flexibility Score: inf
ROOT
ATOM      1  C   UNL     1      72.899  -9.950  51.104  1.00  0.00     0.044 C 
ATOM      2  C   UNL     1      71.655  -9.584  51.858  1.00  0.00    -0.047 A 
ATOM      3  C   UNL     1      71.221 -10.375  52.930  1.00  0.00     0.050 A 
ATOM      4  C   UNL     1      70.074 -10.022  53.670  1.00  0.00     0.122 A 
ATOM      5  C   UNL     1      69.363  -8.847  53.331  1.00  0.00    -0.003 A 
ATOM      6  C   UNL     1      69.824  -8.050  52.265  1.00  0.00     0.008 A 
ATOM      7  C   UNL     1      70.960  -8.412  51.542  1.00  0.00     0.004 A 
ENDROOT
BRANCH   4   8
ATOM      8  O   UNL     1      69.623 -10.813  54.741  1.00  0.00    -0.496 OA
ATOM      9  C   UNL     1      70.172 -10.792  56.055  1.00  0.00     0.278 C 
ENDBRANCH   4   8
BRANCH   5  10
ATOM     10  C   UNL     1      68.119  -8.430  54.106  1.00  0.00     0.017 C 
ATOM     11  C   UNL     1      68.090  -6.913  54.328  1.00  0.00     0.012 C 
ATOM     12  C   UNL     1      66.843  -8.909  53.402  1.00  0.00     0.012 C 
ENDBRANCH   5  10
TORSDOF 2
ENDMDL
MODEL 4
REMARK VINA RESULT:    -3.164     17.150     19.669
REMARK INTER + INTRA:          -3.775
REMARK INTER:                  -3.541
REMARK INTRA:                  -0.234
REMARK UNBOUND:                -0.241
REMARK SMILES COc1cc(C)ccc1C(C)C
REMARK SMILES IDX 6 1 5 2 4 3 3 4 9 5 8 6 7 7 2 8 1 9 10 10 11 11 12 12
REMARK H PARENT
REMARK Flexibility Score: inf
ROOT
ATOM      1  C   UNL     1      64.356   3.695  49.671  1.00  0.00     0.044 C 
ATOM      2  C   UNL     1      65.179   4.557  50.583  1.00  0.00    -0.047 A 
ATOM      3  C   UNL     1      64.572   5.246  51.641  1.00  0.00     0.050 A 
ATOM      4  C   UNL     1      65.339   6.030  52.527  1.00  0.00     0.122 A 
ATOM      5  C   UNL     1      66.741   6.109  52.349  1.00  0.00    -0.003 A 
ATOM      6  C   UNL     1      67.339   5.394  51.294  1.00  0.00     0.008 A 
ATOM      7  C   UNL     1      66.567   4.622  50.425  1.00  0.00     0.004 A 
ENDROOT
BRANCH   4   8
ATOM      8  O   UNL     1      64.740   6.734  53.586  1.00  0.00    -0.496 OA
ATOM      9  C   UNL     1      64.416   6.173  54.854  1.00  0.00     0.278 C 
ENDBRANCH   4   8
BRANCH   5  10
ATOM     10  C   UNL     1      67.605   6.945  53.285  1.00  0.00     0.017 C 
ATOM     11  C   UNL     1      68.787   6.128  53.820  1.00  0.00     0.012 C 
ATOM     12  C   UNL     1      68.087   8.227  52.594  1.00  0.00     0.012 C 
ENDBRANCH   5  10
TORSDOF 2
ENDMDL
MODEL 5
REMARK VINA RESULT:    -3.161      1.609      4.064
REMARK INTER + INTRA:          -3.772
REMARK INTER:                  -3.546
REMARK INTRA:                  -0.225
REMARK UNBOUND:                -0.241
REMARK SMILES COc1cc(C)ccc1C(C)C
REMARK SMILES IDX 6 1 5 2 4 3 3 4 9 5 8 6 7 7 2 8 1 9 10 10 11 11 12 12
REMARK H PARENT
REMARK Flexibility Score: inf
ROOT
ATOM      1  C   UNL     1      79.399   2.367  69.125  1.00  0.00     0.044 C 
ATOM      2  C   UNL     1      79.353   2.612  67.646  1.00  0.00    -0.047 A 
ATOM      3  C   UNL     1      78.122   2.743  66.990  1.00  0.00     0.050 A 
ATOM      4  C   UNL     1      78.065   3.010  65.607  1.00  0.00     0.122 A 
ATOM      5  C   UNL     1      79.269   3.158  64.878  1.00  0.00    -0.003 A 
ATOM      6  C   UNL     1      80.498   3.045  65.555  1.00  0.00     0.008 A 
ATOM      7  C   UNL     1      80.539   2.781  66.924  1.00  0.00     0.004 A 
ENDROOT
BRANCH   4   8
ATOM      8  O   UNL     1      76.836   3.133  64.936  1.00  0.00    -0.496 OA
ATOM      9  C   UNL     1      76.078   4.335  64.844  1.00  0.00     0.278 C 
ENDBRANCH   4   8
BRANCH   5  10
ATOM     10  C   UNL     1      79.250   3.447  63.382  1.00  0.00     0.017 C 
ATOM     11  C   UNL     1      80.061   4.706  63.053  1.00  0.00     0.012 C 
ATOM     12  C   UNL     1      79.754   2.241  62.580  1.00  0.00     0.012 C 
ENDBRANCH   5  10
TORSDOF 2
ENDMDL
MODEL 6
REMARK VINA RESULT:    -3.161     19.736     21.016
REMARK INTER + INTRA:          -3.772
REMARK INTER:                  -3.532
REMARK INTRA:                  -0.240
REMARK UNBOUND:                -0.241
REMARK SMILES COc1cc(C)ccc1C(C)C
REMARK SMILES IDX 6 1 5 2 4 3 3 4 9 5 8 6 7 7 2 8 1 9 10 10 11 11 12 12
REMARK H PARENT
REMARK Flexibility Score: inf
ROOT
ATOM      1  C   UNL     1      69.107  -8.968  54.798  1.00  0.00     0.044 C 
ATOM      2  C   UNL     1      69.936  -9.129  53.557  1.00  0.00    -0.047 A 
ATOM      3  C   UNL     1      69.951  -8.122  52.583  1.00  0.00     0.050 A 
ATOM      4  C   UNL     1      70.753  -8.243  51.431  1.00  0.00     0.122 A 
ATOM      5  C   UNL     1      71.560  -9.393  51.264  1.00  0.00    -0.003 A 
ATOM      6  C   UNL     1      71.551 -10.387  52.262  1.00  0.00     0.008 A 
ATOM      7  C   UNL     1      70.752 -10.253  53.397  1.00  0.00     0.004 A 
ENDROOT
BRANCH   4   8
ATOM      8  O   UNL     1      70.769  -7.244  50.442  1.00  0.00    -0.496 OA
ATOM      9  C   UNL     1      69.995  -6.049  50.482  1.00  0.00     0.278 C 
ENDBRANCH   4   8
BRANCH   5  10
ATOM     10  C   UNL     1      72.441  -9.563  50.032  1.00  0.00     0.017 C 
ATOM     11  C   UNL     1      73.890  -9.871  50.429  1.00  0.00     0.012 C 
ATOM     12  C   UNL     1      71.883 -10.643  49.098  1.00  0.00     0.012 C 
ENDBRANCH   5  10
TORSDOF 2
ENDMDL
MODEL 7
REMARK VINA RESULT:    -3.152     11.926     13.659
REMARK INTER + INTRA:          -3.761
REMARK INTER:                  -3.529
REMARK INTRA:                  -0.232
REMARK UNBOUND:                -0.241
REMARK SMILES COc1cc(C)ccc1C(C)C
REMARK SMILES IDX 6 1 5 2 4 3 3 4 9 5 8 6 7 7 2 8 1 9 10 10 11 11 12 12
REMARK H PARENT
REMARK Flexibility Score: inf
ROOT
ATOM      1  C   UNL     1      69.108  -8.798  68.714  1.00  0.00     0.044 C 
ATOM      2  C   UNL     1      70.412  -8.583  68.005  1.00  0.00    -0.047 A 
ATOM      3  C   UNL     1      70.781  -9.413  66.938  1.00  0.00     0.050 A 
ATOM      4  C   UNL     1      71.986  -9.199  66.240  1.00  0.00     0.122 A 
ATOM      5  C   UNL     1      72.825  -8.124  66.616  1.00  0.00    -0.003 A 
ATOM      6  C   UNL     1      72.431  -7.285  67.676  1.00  0.00     0.008 A 
ATOM      7  C   UNL     1      71.235  -7.509  68.358  1.00  0.00     0.004 A 
ENDROOT
BRANCH   4   8
ATOM      8  O   UNL     1      72.372 -10.031  65.174  1.00  0.00    -0.496 OA
ATOM      9  C   UNL     1      71.930  -9.885  63.828  1.00  0.00     0.278 C 
ENDBRANCH   4   8
BRANCH   5  10
ATOM     10  C   UNL     1      74.137  -7.859  65.886  1.00  0.00     0.017 C 
ATOM     11  C   UNL     1      74.343  -6.357  65.651  1.00  0.00     0.012 C 
ATOM     12  C   UNL     1      75.324  -8.467  66.643  1.00  0.00     0.012 C 
ENDBRANCH   5  10
TORSDOF 2
ENDMDL
MODEL 8
REMARK VINA RESULT:    -3.139     18.130     20.994
REMARK INTER + INTRA:          -3.747
REMARK INTER:                  -3.507
REMARK INTRA:                  -0.239
REMARK UNBOUND:                -0.241
REMARK SMILES COc1cc(C)ccc1C(C)C
REMARK SMILES IDX 6 1 5 2 4 3 3 4 9 5 8 6 7 7 2 8 1 9 10 10 11 11 12 12
REMARK H PARENT
REMARK Flexibility Score: inf
ROOT
ATOM      1  C   UNL     1      67.541   6.722  53.790  1.00  0.00     0.044 C 
ATOM      2  C   UNL     1      66.781   6.068  52.674  1.00  0.00    -0.047 A 
ATOM      3  C   UNL     1      67.466   5.459  51.615  1.00  0.00     0.050 A 
ATOM      4  C   UNL     1      66.765   4.809  50.579  1.00  0.00     0.122 A 
ATOM      5  C   UNL     1      65.351   4.763  50.619  1.00  0.00    -0.003 A 
ATOM      6  C   UNL     1      64.677   5.361  51.701  1.00  0.00     0.008 A 
ATOM      7  C   UNL     1      65.384   6.000  52.719  1.00  0.00     0.004 A 
ENDROOT
BRANCH   4   8
ATOM      8  O   UNL     1      67.441   4.203  49.506  1.00  0.00    -0.496 OA
ATOM      9  C   UNL     1      68.849   3.999  49.444  1.00  0.00     0.278 C 
ENDBRANCH   4   8
BRANCH   5  10
ATOM     10  C   UNL     1      64.556   4.071  49.519  1.00  0.00     0.017 C 
ATOM     11  C   UNL     1      63.856   2.815  50.052  1.00  0.00     0.012 C 
ATOM     12  C   UNL     1      63.550   5.032  48.875  1.00  0.00     0.012 C 
ENDBRANCH   5  10
TORSDOF 2
ENDMDL
MODEL 9
REMARK VINA RESULT:    -3.008     19.887     20.777
REMARK INTER + INTRA:          -3.600
REMARK INTER:                  -3.358
REMARK INTRA:                  -0.242
REMARK UNBOUND:                -0.241
REMARK SMILES COc1cc(C)ccc1C(C)C
REMARK SMILES IDX 6 1 5 2 4 3 3 4 9 5 8 6 7 7 2 8 1 9 10 10 11 11 12 12
REMARK H PARENT
REMARK Flexibility Score: inf
ROOT
ATOM      1  C   UNL     1      69.153  -5.559  51.751  1.00  0.00     0.044 C 
ATOM      2  C   UNL     1      70.003  -6.778  51.550  1.00  0.00    -0.047 A 
ATOM      3  C   UNL     1      69.999  -7.806  52.502  1.00  0.00     0.050 A 
ATOM      4  C   UNL     1      70.765  -8.974  52.307  1.00  0.00     0.122 A 
ATOM      5  C   UNL     1      71.536  -9.111  51.129  1.00  0.00    -0.003 A 
ATOM      6  C   UNL     1      71.513  -8.079  50.172  1.00  0.00     0.008 A 
ATOM      7  C   UNL     1      70.751  -6.929  50.377  1.00  0.00     0.004 A 
ENDROOT
BRANCH   4   8
ATOM      8  O   UNL     1      70.777 -10.008  53.260  1.00  0.00    -0.496 OA
ATOM      9  C   UNL     1      69.682 -10.346  54.106  1.00  0.00     0.278 C 
ENDBRANCH   4   8
BRANCH   5  10
ATOM     10  C   UNL     1      72.377 -10.357  50.882  1.00  0.00     0.017 C 
ATOM     11  C   UNL     1      71.877 -11.124  49.651  1.00  0.00     0.012 C 
ATOM     12  C   UNL     1      73.863 -10.004  50.746  1.00  0.00     0.012 C 
ENDBRANCH   5  10
TORSDOF 2
ENDMDL
