MODEL 1
REMARK VINA RESULT:    91.339      0.000      0.000
REMARK INTER + INTRA:          96.679
REMARK INTER:                  96.679
REMARK INTRA:                   0.000
REMARK UNBOUND:                 0.000
REMARK SMILES CC1(C)[C@H](O)CC[C@]2(C)[C@@H]1CC[C@@]1(C)[C@@H]2C=CC2=C(O)C(=O)C(=O)[C@@]21C
REMARK SMILES IDX 1 1 2 2 10 3 11 4 12 5 13 6 15 7 8 8 7 9 6 10 4 11 9 12
REMARK SMILES IDX 16 13 17 14 18 15 19 16 21 17 22 18 23 19 24 20 25 21 26 22
REMARK SMILES IDX 14 23 3 24 5 25 20 27
REMARK H PARENT 5 26 20 28
REMARK Flexibility Score: inf
ROOT
ATOM      1  C   UNL     1      14.053  10.622  25.800  1.00  0.00     0.014 C 
ATOM      2  C   UNL     1      15.555  10.788  26.152  1.00  0.00    -0.006 C 
ATOM      3  C   UNL     1      16.350  11.186  24.830  1.00  0.00     0.004 C 
ATOM      4  C   UNL     1      15.837  12.498  24.172  1.00  0.00     0.005 C 
ATOM      5  C   UNL     1      16.854  13.269  23.309  1.00  0.00     0.009 C 
ATOM      6  C   UNL     1      17.910  12.426  22.530  1.00  0.00    -0.009 C 
ATOM      7  C   UNL     1      18.526  11.236  23.426  1.00  0.00     0.025 C 
ATOM      8  C   UNL     1      17.912  11.100  24.904  1.00  0.00    -0.022 C 
ATOM      9  C   UNL     1      18.302   9.720  25.539  1.00  0.00     0.010 C 
ATOM     10  C   UNL     1      17.593   9.404  26.860  1.00  0.00     0.033 C 
ATOM     11  C   UNL     1      16.071   9.409  26.667  1.00  0.00     0.120 C 
ATOM     12  C   UNL     1      18.508  12.243  25.804  1.00  0.00     0.012 C 
ATOM     13  C   UNL     1      18.756   9.918  22.663  1.00  0.00    -0.022 C 
ATOM     14  C   UNL     1      18.761   9.823  21.333  1.00  0.00     0.005 C 
ATOM     15  C   UNL     1      18.273  10.935  20.535  1.00  0.00     0.012 C 
ATOM     16  C   UNL     1      18.665  11.254  19.298  1.00  0.00     0.171 C 
ATOM     17  C   UNL     1      18.058  12.508  18.917  1.00  0.00     0.264 C 
ATOM     18  O   UNL     1      18.214  13.109  17.822  1.00  0.00    -0.282 OA
ATOM     19  C   UNL     1      17.253  12.952  20.034  1.00  0.00     0.217 C 
ATOM     20  O   UNL     1      16.570  14.010  20.050  1.00  0.00    -0.289 OA
ATOM     21  C   UNL     1      17.310  11.918  21.137  1.00  0.00     0.069 C 
ATOM     22  C   UNL     1      15.926  11.237  21.209  1.00  0.00     0.026 C 
ATOM     23  C   UNL     1      19.088  13.407  22.220  1.00  0.00     0.013 C 
ATOM     24  C   UNL     1      15.640  11.841  27.297  1.00  0.00     0.014 C 
ENDROOT
BRANCH  11  25
ATOM     25  O   UNL     1      15.444   9.060  27.876  1.00  0.00    -0.393 OA
ATOM     26  H   UNL     1      15.555   9.828  28.495  1.00  0.00     0.210 HD
ENDBRANCH  11  25
BRANCH  16  27
ATOM     27  O   UNL     1      19.557  10.537  18.505  1.00  0.00    -0.504 OA
ATOM     28  H   UNL     1      19.900   9.622  18.775  1.00  0.00     0.293 HD
ENDBRANCH  16  27
TORSDOF 2
ENDMDL
MODEL 2
REMARK VINA RESULT:    91.652      3.551      5.566
REMARK INTER + INTRA:          97.010
REMARK INTER:                  97.010
REMARK INTRA:                   0.000
REMARK UNBOUND:                 0.000
REMARK SMILES CC1(C)[C@H](O)CC[C@]2(C)[C@@H]1CC[C@@]1(C)[C@@H]2C=CC2=C(O)C(=O)C(=O)[C@@]21C
REMARK SMILES IDX 1 1 2 2 10 3 11 4 12 5 13 6 15 7 8 8 7 9 6 10 4 11 9 12
REMARK SMILES IDX 16 13 17 14 18 15 19 16 21 17 22 18 23 19 24 20 25 21 26 22
REMARK SMILES IDX 14 23 3 24 5 25 20 27
REMARK H PARENT 5 26 20 28
REMARK Flexibility Score: inf
ROOT
ATOM      1  C   UNL     1      14.852  13.497  18.112  1.00  0.00     0.014 C 
ATOM      2  C   UNL     1      15.649  13.872  19.390  1.00  0.00    -0.006 C 
ATOM      3  C   UNL     1      16.886  12.879  19.532  1.00  0.00     0.004 C 
ATOM      4  C   UNL     1      17.847  12.911  18.310  1.00  0.00     0.005 C 
ATOM      5  C   UNL     1      19.306  12.496  18.581  1.00  0.00     0.009 C 
ATOM      6  C   UNL     1      19.545  11.404  19.670  1.00  0.00    -0.009 C 
ATOM      7  C   UNL     1      18.639  11.639  20.982  1.00  0.00     0.025 C 
ATOM      8  C   UNL     1      17.634  12.890  20.909  1.00  0.00    -0.022 C 
ATOM      9  C   UNL     1      16.565  12.808  22.052  1.00  0.00     0.010 C 
ATOM     10  C   UNL     1      15.435  13.837  21.944  1.00  0.00     0.033 C 
ATOM     11  C   UNL     1      14.695  13.682  20.609  1.00  0.00     0.120 C 
ATOM     12  C   UNL     1      18.462  14.213  21.101  1.00  0.00     0.012 C 
ATOM     13  C   UNL     1      18.072  10.349  21.603  1.00  0.00    -0.022 C 
ATOM     14  C   UNL     1      18.518   9.127  21.311  1.00  0.00     0.005 C 
ATOM     15  C   UNL     1      19.397   8.941  20.168  1.00  0.00     0.012 C 
ATOM     16  C   UNL     1      20.326   7.992  20.029  1.00  0.00     0.171 C 
ATOM     17  C   UNL     1      21.085   8.242  18.827  1.00  0.00     0.264 C 
ATOM     18  O   UNL     1      22.044   7.551  18.393  1.00  0.00    -0.282 OA
ATOM     19  C   UNL     1      20.552   9.445  18.226  1.00  0.00     0.217 C 
ATOM     20  O   UNL     1      20.970   9.957  17.154  1.00  0.00    -0.289 OA
ATOM     21  C   UNL     1      19.381   9.941  19.046  1.00  0.00     0.069 C 
ATOM     22  C   UNL     1      18.099   9.701  18.221  1.00  0.00     0.026 C 
ATOM     23  C   UNL     1      21.034  11.575  20.118  1.00  0.00     0.013 C 
ATOM     24  C   UNL     1      16.038  15.374  19.258  1.00  0.00     0.014 C 
ENDROOT
BRANCH  11  25
ATOM     25  O   UNL     1      13.627  14.596  20.557  1.00  0.00    -0.393 OA
ATOM     26  H   UNL     1      13.230  14.528  19.649  1.00  0.00     0.210 HD
ENDBRANCH  11  25
BRANCH  16  27
ATOM     27  O   UNL     1      20.576   6.948  20.917  1.00  0.00    -0.504 OA
ATOM     28  H   UNL     1      21.203   6.186  20.688  1.00  0.00     0.293 HD
ENDBRANCH  16  27
TORSDOF 2
ENDMDL
MODEL 3
REMARK VINA RESULT:    92.938      1.675      6.594
REMARK INTER + INTRA:          98.371
REMARK INTER:                  98.371
REMARK INTRA:                   0.000
REMARK UNBOUND:                 0.000
REMARK SMILES CC1(C)[C@H](O)CC[C@]2(C)[C@@H]1CC[C@@]1(C)[C@@H]2C=CC2=C(O)C(=O)C(=O)[C@@]21C
REMARK SMILES IDX 1 1 2 2 10 3 11 4 12 5 13 6 15 7 8 8 7 9 6 10 4 11 9 12
REMARK SMILES IDX 16 13 17 14 18 15 19 16 21 17 22 18 23 19 24 20 25 21 26 22
REMARK SMILES IDX 14 23 3 24 5 25 20 27
REMARK H PARENT 5 26 20 28
REMARK Flexibility Score: inf
ROOT
ATOM      1  C   UNL     1      17.687  15.016  19.152  1.00  0.00     0.014 C 
ATOM      2  C   UNL     1      17.767  13.498  18.838  1.00  0.00    -0.006 C 
ATOM      3  C   UNL     1      17.400  12.683  20.156  1.00  0.00     0.004 C 
ATOM      4  C   UNL     1      15.985  13.009  20.710  1.00  0.00     0.005 C 
ATOM      5  C   UNL     1      15.314  11.908  21.553  1.00  0.00     0.009 C 
ATOM      6  C   UNL     1      16.247  11.006  22.419  1.00  0.00    -0.009 C 
ATOM      7  C   UNL     1      17.572  10.554  21.622  1.00  0.00     0.025 C 
ATOM      8  C   UNL     1      17.719  11.148  20.137  1.00  0.00    -0.022 C 
ATOM      9  C   UNL     1      19.181  10.954  19.605  1.00  0.00     0.010 C 
ATOM     10  C   UNL     1      19.480  11.673  18.286  1.00  0.00     0.033 C 
ATOM     11  C   UNL     1      19.239  13.181  18.430  1.00  0.00     0.120 C 
ATOM     12  C   UNL     1      16.740  10.370  19.184  1.00  0.00     0.012 C 
ATOM     13  C   UNL     1      18.854  10.538  22.476  1.00  0.00    -0.022 C 
ATOM     14  C   UNL     1      18.858  10.576  23.808  1.00  0.00     0.005 C 
ATOM     15  C   UNL     1      17.634  10.912  24.517  1.00  0.00     0.012 C 
ATOM     16  C   UNL     1      17.291  10.504  25.742  1.00  0.00     0.171 C 
ATOM     17  C   UNL     1      15.939  10.927  26.022  1.00  0.00     0.264 C 
ATOM     18  O   UNL     1      15.293  10.707  27.079  1.00  0.00    -0.282 OA
ATOM     19  C   UNL     1      15.460  11.632  24.853  1.00  0.00     0.217 C 
ATOM     20  O   UNL     1      14.317  12.150  24.747  1.00  0.00    -0.289 OA
ATOM     21  C   UNL     1      16.564  11.705  23.822  1.00  0.00     0.069 C 
ATOM     22  C   UNL     1      17.039  13.172  23.751  1.00  0.00     0.026 C 
ATOM     23  C   UNL     1      15.429   9.703  22.702  1.00  0.00     0.013 C 
ATOM     24  C   UNL     1      16.820  13.234  17.630  1.00  0.00     0.014 C 
ENDROOT
BRANCH  11  25
ATOM     25  O   UNL     1      19.575  13.827  17.227  1.00  0.00    -0.393 OA
ATOM     26  H   UNL     1      20.488  13.525  16.979  1.00  0.00     0.210 HD
ENDBRANCH  11  25
BRANCH  16  27
ATOM     27  O   UNL     1      18.075   9.745  26.608  1.00  0.00    -0.504 OA
ATOM     28  H   UNL     1      18.353  10.087  27.520  1.00  0.00     0.293 HD
ENDBRANCH  16  27
TORSDOF 2
ENDMDL
MODEL 4
REMARK VINA RESULT:    93.295      2.683      4.450
REMARK INTER + INTRA:          98.749
REMARK INTER:                  98.749
REMARK INTRA:                   0.000
REMARK UNBOUND:                 0.000
REMARK SMILES CC1(C)[C@H](O)CC[C@]2(C)[C@@H]1CC[C@@]1(C)[C@@H]2C=CC2=C(O)C(=O)C(=O)[C@@]21C
REMARK SMILES IDX 1 1 2 2 10 3 11 4 12 5 13 6 15 7 8 8 7 9 6 10 4 11 9 12
REMARK SMILES IDX 16 13 17 14 18 15 19 16 21 17 22 18 23 19 24 20 25 21 26 22
REMARK SMILES IDX 14 23 3 24 5 25 20 27
REMARK H PARENT 5 26 20 28
REMARK Flexibility Score: inf
ROOT
ATOM      1  C   UNL     1      16.384  14.086  25.097  1.00  0.00     0.014 C 
ATOM      2  C   UNL     1      15.320  13.594  24.081  1.00  0.00    -0.006 C 
ATOM      3  C   UNL     1      16.066  12.979  22.815  1.00  0.00     0.004 C 
ATOM      4  C   UNL     1      17.011  11.797  23.169  1.00  0.00     0.005 C 
ATOM      5  C   UNL     1      17.286  10.785  22.041  1.00  0.00     0.009 C 
ATOM      6  C   UNL     1      17.323  11.337  20.582  1.00  0.00    -0.009 C 
ATOM      7  C   UNL     1      16.133  12.385  20.294  1.00  0.00     0.025 C 
ATOM      8  C   UNL     1      15.183  12.709  21.549  1.00  0.00    -0.022 C 
ATOM      9  C   UNL     1      14.315  13.984  21.270  1.00  0.00     0.010 C 
ATOM     10  C   UNL     1      13.532  14.500  22.482  1.00  0.00     0.033 C 
ATOM     11  C   UNL     1      14.488  14.836  23.634  1.00  0.00     0.120 C 
ATOM     12  C   UNL     1      14.214  11.492  21.774  1.00  0.00     0.012 C 
ATOM     13  C   UNL     1      16.541  13.588  19.423  1.00  0.00    -0.022 C 
ATOM     14  C   UNL     1      17.659  13.633  18.699  1.00  0.00     0.005 C 
ATOM     15  C   UNL     1      18.693  12.635  18.917  1.00  0.00     0.012 C 
ATOM     16  C   UNL     1      19.568  12.191  18.011  1.00  0.00     0.171 C 
ATOM     17  C   UNL     1      20.323  11.097  18.576  1.00  0.00     0.264 C 
ATOM     18  O   UNL     1      21.226  10.438  17.998  1.00  0.00    -0.282 OA
ATOM     19  C   UNL     1      19.832  10.888  19.920  1.00  0.00     0.217 C 
ATOM     20  O   UNL     1      20.271  10.015  20.716  1.00  0.00    -0.289 OA
ATOM     21  C   UNL     1      18.771  11.919  20.236  1.00  0.00     0.069 C 
ATOM     22  C   UNL     1      19.367  12.900  21.268  1.00  0.00     0.026 C 
ATOM     23  C   UNL     1      17.064  10.102  19.657  1.00  0.00     0.013 C 
ATOM     24  C   UNL     1      14.399  12.591  24.837  1.00  0.00     0.014 C 
ENDROOT
BRANCH  11  25
ATOM     25  O   UNL     1      13.755  15.361  24.713  1.00  0.00    -0.393 OA
ATOM     26  H   UNL     1      12.803  15.395  24.431  1.00  0.00     0.210 HD
ENDBRANCH  11  25
BRANCH  16  27
ATOM     27  O   UNL     1      19.713  12.658  16.706  1.00  0.00    -0.504 OA
ATOM     28  H   UNL     1      19.765  13.647  16.492  1.00  0.00     0.293 HD
ENDBRANCH  16  27
TORSDOF 2
ENDMDL
