MODEL 1
REMARK VINA RESULT:    -4.797      0.000      0.000
REMARK INTER + INTRA:          -5.342
REMARK INTER:                  -5.078
REMARK INTRA:                  -0.265
REMARK UNBOUND:                -0.265
REMARK SMILES C=C1CC[C@]2(C(C)C)C[C@H]12
REMARK SMILES IDX 5 1 4 2 3 3 2 4 1 5 10 6 9 7 6 8 7 9 8 10
REMARK H PARENT
REMARK Flexibility Score: inf
ROOT
ATOM      1  C   UNL     1       9.954   5.563  27.817  1.00  0.00    -0.020 C 
ATOM      2  C   UNL     1       9.193   6.546  28.725  1.00  0.00     0.012 C 
ATOM      3  C   UNL     1       9.384   6.073  30.167  1.00  0.00     0.031 C 
ATOM      4  C   UNL     1      10.158   4.804  30.058  1.00  0.00    -0.074 C 
ATOM      5  C   UNL     1      10.479   4.050  31.113  1.00  0.00     0.008 C 
ATOM      6  C   UNL     1      10.535   4.444  28.665  1.00  0.00     0.021 C 
ATOM      7  C   UNL     1       9.381   4.152  27.712  1.00  0.00     0.016 C 
ENDROOT
BRANCH   1   8
ATOM      8  C   UNL     1      10.822   6.056  26.634  1.00  0.00    -0.011 C 
ATOM      9  C   UNL     1      10.492   7.513  26.301  1.00  0.00     0.008 C 
ATOM     10  C   UNL     1      12.320   5.891  26.924  1.00  0.00     0.008 C 
ENDBRANCH   1   8
TORSDOF 1
ENDMDL
MODEL 2
REMARK VINA RESULT:    -4.718      0.869      3.871
REMARK INTER + INTRA:          -5.258
REMARK INTER:                  -4.949
REMARK INTRA:                  -0.309
REMARK UNBOUND:                -0.265
REMARK SMILES C=C1CC[C@]2(C(C)C)C[C@H]12
REMARK SMILES IDX 5 1 4 2 3 3 2 4 1 5 10 6 9 7 6 8 7 9 8 10
REMARK H PARENT
REMARK Flexibility Score: inf
ROOT
ATOM      1  C   UNL     1      10.089   5.263  28.622  1.00  0.00    -0.020 C 
ATOM      2  C   UNL     1      11.622   5.118  28.613  1.00  0.00     0.012 C 
ATOM      3  C   UNL     1      12.147   5.925  27.425  1.00  0.00     0.031 C 
ATOM      4  C   UNL     1      10.928   6.433  26.733  1.00  0.00    -0.074 C 
ATOM      5  C   UNL     1      10.971   7.144  25.603  1.00  0.00     0.008 C 
ATOM      6  C   UNL     1       9.655   6.069  27.409  1.00  0.00     0.021 C 
ATOM      7  C   UNL     1       9.336   4.580  27.483  1.00  0.00     0.016 C 
ENDROOT
BRANCH   1   8
ATOM      8  C   UNL     1       9.304   5.508  29.933  1.00  0.00    -0.011 C 
ATOM      9  C   UNL     1      10.057   4.912  31.125  1.00  0.00     0.008 C 
ATOM     10  C   UNL     1       9.028   7.000  30.156  1.00  0.00     0.008 C 
ENDBRANCH   1   8
TORSDOF 1
ENDMDL
MODEL 3
REMARK VINA RESULT:    -4.617     13.060     15.349
REMARK INTER + INTRA:          -5.152
REMARK INTER:                  -4.867
REMARK INTRA:                  -0.285
REMARK UNBOUND:                -0.265
REMARK SMILES C=C1CC[C@]2(C(C)C)C[C@H]12
REMARK SMILES IDX 5 1 4 2 3 3 2 4 1 5 10 6 9 7 6 8 7 9 8 10
REMARK H PARENT
REMARK Flexibility Score: inf
ROOT
ATOM      1  C   UNL     1       7.273   6.464  14.515  1.00  0.00    -0.020 C 
ATOM      2  C   UNL     1       8.256   7.554  14.050  1.00  0.00     0.012 C 
ATOM      3  C   UNL     1       8.245   7.554  12.520  1.00  0.00     0.031 C 
ATOM      4  C   UNL     1       7.345   6.427  12.141  1.00  0.00    -0.074 C 
ATOM      5  C   UNL     1       7.120   6.065  10.875  1.00  0.00     0.008 C 
ATOM      6  C   UNL     1       6.726   5.732  13.300  1.00  0.00     0.021 C 
ATOM      7  C   UNL     1       7.686   5.019  14.246  1.00  0.00     0.016 C 
ENDROOT
BRANCH   1   8
ATOM      8  C   UNL     1       6.285   6.705  15.681  1.00  0.00    -0.011 C 
ATOM      9  C   UNL     1       6.755   7.878  16.544  1.00  0.00     0.008 C 
ATOM     10  C   UNL     1       4.857   6.943  15.172  1.00  0.00     0.008 C 
ENDBRANCH   1   8
TORSDOF 1
ENDMDL
MODEL 4
REMARK VINA RESULT:    -4.600     13.223     15.169
REMARK INTER + INTRA:          -5.134
REMARK INTER:                  -4.842
REMARK INTRA:                  -0.292
REMARK UNBOUND:                -0.265
REMARK SMILES C=C1CC[C@]2(C(C)C)C[C@H]12
REMARK SMILES IDX 5 1 4 2 3 3 2 4 1 5 10 6 9 7 6 8 7 9 8 10
REMARK H PARENT
REMARK Flexibility Score: inf
ROOT
ATOM      1  C   UNL     1       6.811   6.488  13.334  1.00  0.00    -0.020 C 
ATOM      2  C   UNL     1       5.294   6.648  13.542  1.00  0.00     0.012 C 
ATOM      3  C   UNL     1       5.085   7.201  14.953  1.00  0.00     0.031 C 
ATOM      4  C   UNL     1       6.449   7.262  15.550  1.00  0.00    -0.074 C 
ATOM      5  C   UNL     1       6.681   7.646  16.808  1.00  0.00     0.008 C 
ATOM      6  C   UNL     1       7.534   6.847  14.621  1.00  0.00     0.021 C 
ATOM      7  C   UNL     1       7.497   5.397  14.151  1.00  0.00     0.016 C 
ENDROOT
BRANCH   1   8
ATOM      8  C   UNL     1       7.498   6.910  12.013  1.00  0.00    -0.011 C 
ATOM      9  C   UNL     1       6.476   6.969  10.875  1.00  0.00     0.008 C 
ATOM     10  C   UNL     1       8.226   8.253  12.159  1.00  0.00     0.008 C 
ENDBRANCH   1   8
TORSDOF 1
ENDMDL
MODEL 5
REMARK VINA RESULT:    -4.254      5.273      8.033
REMARK INTER + INTRA:          -4.768
REMARK INTER:                  -4.556
REMARK INTRA:                  -0.211
REMARK UNBOUND:                -0.265
REMARK SMILES C=C1CC[C@]2(C(C)C)C[C@H]12
REMARK SMILES IDX 5 1 4 2 3 3 2 4 1 5 10 6 9 7 6 8 7 9 8 10
REMARK H PARENT
REMARK Flexibility Score: inf
ROOT
ATOM      1  C   UNL     1      15.518   8.385  24.640  1.00  0.00    -0.020 C 
ATOM      2  C   UNL     1      16.255   7.261  23.889  1.00  0.00     0.012 C 
ATOM      3  C   UNL     1      17.740   7.378  24.240  1.00  0.00     0.031 C 
ATOM      4  C   UNL     1      17.840   8.596  25.094  1.00  0.00    -0.074 C 
ATOM      5  C   UNL     1      18.998   9.069  25.561  1.00  0.00     0.008 C 
ATOM      6  C   UNL     1      16.532   9.247  25.373  1.00  0.00     0.021 C 
ATOM      7  C   UNL     1      15.792   9.810  24.166  1.00  0.00     0.016 C 
ENDROOT
BRANCH   1   8
ATOM      8  C   UNL     1      14.173   8.133  25.361  1.00  0.00    -0.011 C 
ATOM      9  C   UNL     1      13.125   7.619  24.371  1.00  0.00     0.008 C 
ATOM     10  C   UNL     1      14.334   7.158  26.535  1.00  0.00     0.008 C 
ENDBRANCH   1   8
TORSDOF 1
ENDMDL
MODEL 6
REMARK VINA RESULT:    -4.204      1.601      2.200
REMARK INTER + INTRA:          -4.715
REMARK INTER:                  -4.409
REMARK INTRA:                  -0.306
REMARK UNBOUND:                -0.265
REMARK SMILES C=C1CC[C@]2(C(C)C)C[C@H]12
REMARK SMILES IDX 5 1 4 2 3 3 2 4 1 5 10 6 9 7 6 8 7 9 8 10
REMARK H PARENT
REMARK Flexibility Score: inf
ROOT
ATOM      1  C   UNL     1      10.393   6.565  27.731  1.00  0.00    -0.020 C 
ATOM      2  C   UNL     1      10.394   8.105  27.738  1.00  0.00     0.012 C 
ATOM      3  C   UNL     1       9.795   8.553  29.073  1.00  0.00     0.031 C 
ATOM      4  C   UNL     1       9.386   7.292  29.755  1.00  0.00    -0.074 C 
ATOM      5  C   UNL     1       8.764   7.268  30.937  1.00  0.00     0.008 C 
ATOM      6  C   UNL     1       9.722   6.058  28.996  1.00  0.00     0.021 C 
ATOM      7  C   UNL     1       9.027   5.888  27.650  1.00  0.00     0.016 C 
ENDROOT
BRANCH   1   8
ATOM      8  C   UNL     1      11.608   5.755  27.219  1.00  0.00    -0.011 C 
ATOM      9  C   UNL     1      12.406   6.575  26.202  1.00  0.00     0.008 C 
ATOM     10  C   UNL     1      12.509   5.296  28.374  1.00  0.00     0.008 C 
ENDBRANCH   1   8
TORSDOF 1
ENDMDL
MODEL 7
REMARK VINA RESULT:    -4.190     12.738     14.677
REMARK INTER + INTRA:          -4.699
REMARK INTER:                  -4.388
REMARK INTRA:                  -0.311
REMARK UNBOUND:                -0.265
REMARK SMILES C=C1CC[C@]2(C(C)C)C[C@H]12
REMARK SMILES IDX 5 1 4 2 3 3 2 4 1 5 10 6 9 7 6 8 7 9 8 10
REMARK H PARENT
REMARK Flexibility Score: inf
ROOT
ATOM      1  C   UNL     1       6.138   6.875  13.861  1.00  0.00    -0.020 C 
ATOM      2  C   UNL     1       6.743   8.256  14.175  1.00  0.00     0.012 C 
ATOM      3  C   UNL     1       6.388   8.587  15.626  1.00  0.00     0.031 C 
ATOM      4  C   UNL     1       5.527   7.458  16.081  1.00  0.00    -0.074 C 
ATOM      5  C   UNL     1       4.964   7.409  17.291  1.00  0.00     0.008 C 
ATOM      6  C   UNL     1       5.341   6.392  15.061  1.00  0.00     0.021 C 
ATOM      7  C   UNL     1       4.615   6.803  13.785  1.00  0.00     0.016 C 
ENDROOT
BRANCH   1   8
ATOM      8  C   UNL     1       6.930   5.801  13.078  1.00  0.00    -0.011 C 
ATOM      9  C   UNL     1       7.814   6.459  12.015  1.00  0.00     0.008 C 
ATOM     10  C   UNL     1       7.770   4.923  14.015  1.00  0.00     0.008 C 
ENDBRANCH   1   8
TORSDOF 1
ENDMDL
MODEL 8
REMARK VINA RESULT:    -4.129      6.028      7.642
REMARK INTER + INTRA:          -4.635
REMARK INTER:                  -4.354
REMARK INTRA:                  -0.280
REMARK UNBOUND:                -0.265
REMARK SMILES C=C1CC[C@]2(C(C)C)C[C@H]12
REMARK SMILES IDX 5 1 4 2 3 3 2 4 1 5 10 6 9 7 6 8 7 9 8 10
REMARK H PARENT
REMARK Flexibility Score: inf
ROOT
ATOM      1  C   UNL     1      14.446   8.731  24.239  1.00  0.00    -0.020 C 
ATOM      2  C   UNL     1      15.094  10.125  24.323  1.00  0.00     0.012 C 
ATOM      3  C   UNL     1      16.608   9.917  24.405  1.00  0.00     0.031 C 
ATOM      4  C   UNL     1      16.792   8.439  24.459  1.00  0.00    -0.074 C 
ATOM      5  C   UNL     1      17.986   7.854  24.592  1.00  0.00     0.008 C 
ATOM      6  C   UNL     1      15.524   7.668  24.360  1.00  0.00     0.021 C 
ATOM      7  C   UNL     1      14.527   7.868  25.495  1.00  0.00     0.016 C 
ENDROOT
BRANCH   1   8
ATOM      8  C   UNL     1      13.286   8.432  23.258  1.00  0.00    -0.011 C 
ATOM      9  C   UNL     1      12.223   9.531  23.340  1.00  0.00     0.008 C 
ATOM     10  C   UNL     1      13.791   8.271  21.818  1.00  0.00     0.008 C 
ENDBRANCH   1   8
TORSDOF 1
ENDMDL
MODEL 9
REMARK VINA RESULT:    -4.099      1.076      3.880
REMARK INTER + INTRA:          -4.603
REMARK INTER:                  -4.292
REMARK INTRA:                  -0.311
REMARK UNBOUND:                -0.265
REMARK SMILES C=C1CC[C@]2(C(C)C)C[C@H]12
REMARK SMILES IDX 5 1 4 2 3 3 2 4 1 5 10 6 9 7 6 8 7 9 8 10
REMARK H PARENT
REMARK Flexibility Score: inf
ROOT
ATOM      1  C   UNL     1      11.003   5.649  28.095  1.00  0.00    -0.020 C 
ATOM      2  C   UNL     1      10.355   7.042  28.190  1.00  0.00     0.012 C 
ATOM      3  C   UNL     1      10.559   7.730  26.839  1.00  0.00     0.031 C 
ATOM      4  C   UNL     1      11.381   6.778  26.040  1.00  0.00    -0.074 C 
ATOM      5  C   UNL     1      11.820   7.045  24.807  1.00  0.00     0.008 C 
ATOM      6  C   UNL     1      11.680   5.501  26.743  1.00  0.00     0.021 C 
ATOM      7  C   UNL     1      12.526   5.613  28.006  1.00  0.00     0.016 C 
ENDROOT
BRANCH   1   8
ATOM      8  C   UNL     1      10.305   4.388  28.661  1.00  0.00    -0.011 C 
ATOM      9  C   UNL     1       9.428   4.757  29.860  1.00  0.00     0.008 C 
ATOM     10  C   UNL     1       9.480   3.668  27.585  1.00  0.00     0.008 C 
ENDBRANCH   1   8
TORSDOF 1
ENDMDL
