MODEL 1
REMARK VINA RESULT:    -5.267      0.000      0.000
REMARK INTER + INTRA:          -7.403
REMARK INTER:                  -8.039
REMARK INTRA:                   0.636
REMARK UNBOUND:                 0.636
REMARK SMILES CC1=CCC[C@H](C)C(=O)C[C@H](C(C)C)C(=O)C1
REMARK SMILES IDX 8 1 9 2 6 3 7 4 5 5 4 6 3 7 2 8 1 9 10 11 11 12 15 13 16 14
REMARK SMILES IDX 17 15 12 17 13 18 14 19
REMARK H PARENT
REMARK Flexibility Score: 70.00
ROOT
ATOM      1  C   UNL     1       4.114  13.047  31.651  1.00  0.00     0.136 C 
ATOM      2  O   UNL     1       4.511  13.380  32.759  1.00  0.00    -0.299 OA
ENDROOT
BRANCH   1   3
ATOM      3  C   UNL     1       3.443  11.696  31.459  1.00  0.00     0.053 C 
ATOM      4  C   UNL     1       4.149  10.615  32.292  1.00  0.00     0.016 C 
BRANCH   3   5
ATOM      5  C   UNL     1       1.939  11.774  31.819  1.00  0.00     0.015 C 
BRANCH   5   6
ATOM      6  C   UNL     1       1.383  13.209  31.720  1.00  0.00     0.028 C 
BRANCH   6   7
ATOM      7  C   UNL     1       0.313  13.313  30.663  1.00  0.00    -0.028 C 
ATOM      8  C   UNL     1       0.496  13.844  29.430  1.00  0.00    -0.070 CG0
ATOM      9  C   UNL     1      -0.694  13.920  28.509  1.00  0.00     0.039 C 
ATOM     10  G   UNL     1       1.843  14.361  28.943  1.00  0.00     0.000 G0
ENDBRANCH   6   7
ENDBRANCH   5   6
ENDBRANCH   3   5
ENDBRANCH   1   3
BRANCH   1  11
ATOM     11  C   UNL     1       4.282  14.001  30.490  1.00  0.00     0.087 C 
BRANCH  11  12
ATOM     12  C   UNL     1       4.241  13.316  29.093  1.00  0.00     0.066 C 
BRANCH  12  13
ATOM     13  C   UNL     1       2.819  13.301  28.549  1.00  0.00     0.140 C 
ATOM     14  O   UNL     1       2.447  12.368  27.851  1.00  0.00    -0.299 OA
BRANCH  13  15
ATOM     15  C   UNL     1       1.841  14.389  28.914  1.00  0.00     0.106 CG0
ATOM     16  G   UNL     1       0.524  13.829  29.433  1.00  0.00     0.000 G0
ENDBRANCH  13  15
ENDBRANCH  12  13
BRANCH  12  17
ATOM     17  C   UNL     1       5.247  13.904  28.048  1.00  0.00    -0.006 C 
ATOM     18  C   UNL     1       4.550  14.418  26.774  1.00  0.00     0.008 C 
ATOM     19  C   UNL     1       6.064  15.058  28.663  1.00  0.00     0.008 C 
ENDBRANCH  12  17
ENDBRANCH  11  12
ENDBRANCH   1  11
TORSDOF 1
ENDMDL
MODEL 2
REMARK VINA RESULT:    -5.053      2.108      3.593
REMARK INTER + INTRA:          -7.075
REMARK INTER:                  -7.727
REMARK INTRA:                   0.652
REMARK UNBOUND:                 0.636
REMARK SMILES CC1=CCC[C@H](C)C(=O)C[C@H](C(C)C)C(=O)C1
REMARK SMILES IDX 8 1 9 2 6 3 7 4 5 5 4 6 3 7 2 8 1 9 10 11 11 12 15 13 16 14
REMARK SMILES IDX 17 15 12 17 13 18 14 19
REMARK H PARENT
REMARK Flexibility Score: 70.00
ROOT
ATOM      1  C   UNL     1       1.107  13.494  29.484  1.00  0.00     0.136 C 
ATOM      2  O   UNL     1       0.284  12.883  28.817  1.00  0.00    -0.299 OA
ENDROOT
BRANCH   1   3
ATOM      3  C   UNL     1       0.927  13.614  30.989  1.00  0.00     0.053 C 
ATOM      4  C   UNL     1      -0.340  12.876  31.446  1.00  0.00     0.016 C 
BRANCH   3   5
ATOM      5  C   UNL     1       2.175  13.081  31.735  1.00  0.00     0.015 C 
BRANCH   5   6
ATOM      6  C   UNL     1       2.171  11.545  31.867  1.00  0.00     0.028 C 
BRANCH   6   7
ATOM      7  C   UNL     1       3.500  10.955  31.469  1.00  0.00    -0.028 C 
ATOM      8  C   UNL     1       3.812  10.530  30.221  1.00  0.00    -0.070 CG0
ATOM      9  C   UNL     1       5.171   9.916  30.001  1.00  0.00     0.039 C 
ATOM     10  G   UNL     1       2.855  10.646  29.042  1.00  0.00     0.000 G0
ENDBRANCH   6   7
ENDBRANCH   5   6
ENDBRANCH   3   5
ENDBRANCH   1   3
BRANCH   1  11
ATOM     11  C   UNL     1       2.307  14.105  28.796  1.00  0.00     0.087 C 
BRANCH  11  12
ATOM     12  C   UNL     1       3.546  13.166  28.725  1.00  0.00     0.066 C 
BRANCH  12  13
ATOM     13  C   UNL     1       3.158  11.815  28.139  1.00  0.00     0.140 C 
ATOM     14  O   UNL     1       3.145  11.662  26.925  1.00  0.00    -0.299 OA
BRANCH  13  15
ATOM     15  C   UNL     1       2.853  10.644  29.038  1.00  0.00     0.106 CG0
ATOM     16  G   UNL     1       3.826  10.545  30.205  1.00  0.00     0.000 G0
ENDBRANCH  13  15
ENDBRANCH  12  13
BRANCH  12  17
ATOM     17  C   UNL     1       4.785  13.775  27.986  1.00  0.00    -0.006 C 
ATOM     18  C   UNL     1       4.389  14.650  26.782  1.00  0.00     0.008 C 
ATOM     19  C   UNL     1       5.636  14.622  28.953  1.00  0.00     0.008 C 
ENDBRANCH  12  17
ENDBRANCH  11  12
ENDBRANCH   1  11
TORSDOF 1
ENDMDL
MODEL 3
REMARK VINA RESULT:    -4.599      1.270      1.642
REMARK INTER + INTRA:          -6.383
REMARK INTER:                  -7.037
REMARK INTRA:                   0.654
REMARK UNBOUND:                 0.636
REMARK SMILES CC1=CCC[C@H](C)C(=O)C[C@H](C(C)C)C(=O)C1
REMARK SMILES IDX 8 1 9 2 6 3 7 4 5 5 4 6 3 7 2 8 1 9 10 11 11 12 15 13 16 14
REMARK SMILES IDX 17 15 12 17 13 18 14 19
REMARK H PARENT
REMARK Flexibility Score: 70.00
ROOT
ATOM      1  C   UNL     1       4.101  11.281  30.175  1.00  0.00     0.136 C 
ATOM      2  O   UNL     1       4.021  10.199  29.611  1.00  0.00    -0.299 OA
ENDROOT
BRANCH   1   3
ATOM      3  C   UNL     1       3.459  11.474  31.540  1.00  0.00     0.053 C 
ATOM      4  C   UNL     1       3.807  12.855  32.116  1.00  0.00     0.016 C 
BRANCH   3   5
ATOM      5  C   UNL     1       1.924  11.283  31.456  1.00  0.00     0.015 C 
BRANCH   5   6
ATOM      6  C   UNL     1       1.148  12.549  31.870  1.00  0.00     0.028 C 
BRANCH   6   7
ATOM      7  C   UNL     1       0.173  12.971  30.801  1.00  0.00    -0.028 C 
ATOM      8  C   UNL     1       0.509  13.629  29.665  1.00  0.00    -0.070 CG0
ATOM      9  C   UNL     1      -0.597  14.024  28.721  1.00  0.00     0.039 C 
ATOM     10  G   UNL     1       1.947  13.981  29.307  1.00  0.00     0.000 G0
ENDBRANCH   6   7
ENDBRANCH   5   6
ENDBRANCH   3   5
ENDBRANCH   1   3
BRANCH   1  11
ATOM     11  C   UNL     1       4.857  12.407  29.508  1.00  0.00     0.087 C 
BRANCH  11  12
ATOM     12  C   UNL     1       4.142  13.002  28.261  1.00  0.00     0.066 C 
BRANCH  12  13
ATOM     13  C   UNL     1       2.631  12.975  28.449  1.00  0.00     0.140 C 
ATOM     14  O   UNL     1       1.972  12.081  27.937  1.00  0.00    -0.299 OA
BRANCH  13  15
ATOM     15  C   UNL     1       1.943  14.000  29.315  1.00  0.00     0.106 CG0
ATOM     16  G   UNL     1       0.508  13.608  29.640  1.00  0.00     0.000 G0
ENDBRANCH  13  15
ENDBRANCH  12  13
BRANCH  12  17
ATOM     17  C   UNL     1       4.640  14.425  27.840  1.00  0.00    -0.006 C 
ATOM     18  C   UNL     1       6.073  14.721  28.322  1.00  0.00     0.008 C 
ATOM     19  C   UNL     1       4.590  14.593  26.309  1.00  0.00     0.008 C 
ENDBRANCH  12  17
ENDBRANCH  11  12
ENDBRANCH   1  11
TORSDOF 1
ENDMDL
MODEL 4
REMARK VINA RESULT:    -4.540      1.935      3.123
REMARK INTER + INTRA:          -6.292
REMARK INTER:                  -6.430
REMARK INTRA:                   0.138
REMARK UNBOUND:                 0.636
REMARK SMILES CC1=CCC[C@H](C)C(=O)C[C@H](C(C)C)C(=O)C1
REMARK SMILES IDX 8 1 9 2 6 3 7 4 5 5 4 6 3 7 2 8 1 9 10 11 11 12 15 13 16 14
REMARK SMILES IDX 17 15 12 17 13 18 14 19
REMARK H PARENT
REMARK Flexibility Score: 70.00
ROOT
ATOM      1  C   UNL     1       3.688  11.177  28.728  1.00  0.00     0.136 C 
ATOM      2  O   UNL     1       2.861  11.364  27.847  1.00  0.00    -0.299 OA
ENDROOT
BRANCH   1   3
ATOM      3  C   UNL     1       3.601   9.933  29.598  1.00  0.00     0.053 C 
ATOM      4  C   UNL     1       4.768   9.883  30.596  1.00  0.00     0.016 C 
BRANCH   3   5
ATOM      5  C   UNL     1       2.242   9.875  30.338  1.00  0.00     0.015 C 
BRANCH   5   6
ATOM      6  C   UNL     1       2.295  10.547  31.724  1.00  0.00     0.028 C 
BRANCH   6   7
ATOM      7  C   UNL     1       1.681  11.924  31.693  1.00  0.00    -0.028 C 
ATOM      8  C   UNL     1       2.382  13.082  31.736  1.00  0.00    -0.070 CG0
ATOM      9  C   UNL     1       1.610  14.376  31.748  1.00  0.00     0.039 C 
ATOM     10  G   UNL     1       3.904  13.129  31.771  1.00  0.00     0.000 G0
ENDBRANCH   6   7
ENDBRANCH   5   6
ENDBRANCH   3   5
ENDBRANCH   1   3
BRANCH   1  11
ATOM     11  C   UNL     1       4.799  12.184  28.924  1.00  0.00     0.087 C 
BRANCH  11  12
ATOM     12  C   UNL     1       4.302  13.633  29.199  1.00  0.00     0.066 C 
BRANCH  12  13
ATOM     13  C   UNL     1       4.490  13.990  30.667  1.00  0.00     0.140 C 
ATOM     14  O   UNL     1       5.080  15.018  30.970  1.00  0.00    -0.299 OA
BRANCH  13  15
ATOM     15  C   UNL     1       3.901  13.126  31.753  1.00  0.00     0.106 CG0
ATOM     16  G   UNL     1       2.378  13.126  31.726  1.00  0.00     0.000 G0
ENDBRANCH  13  15
ENDBRANCH  12  13
BRANCH  12  17
ATOM     17  C   UNL     1       4.920  14.723  28.261  1.00  0.00    -0.006 C 
ATOM     18  C   UNL     1       6.458  14.765  28.328  1.00  0.00     0.008 C 
ATOM     19  C   UNL     1       4.496  14.491  26.797  1.00  0.00     0.008 C 
ENDBRANCH  12  17
ENDBRANCH  11  12
ENDBRANCH   1  11
TORSDOF 1
ENDMDL
MODEL 5
REMARK VINA RESULT:    -4.502      1.724      3.762
REMARK INTER + INTRA:          -6.234
REMARK INTER:                  -7.086
REMARK INTRA:                   0.852
REMARK UNBOUND:                 0.636
REMARK SMILES CC1=CCC[C@H](C)C(=O)C[C@H](C(C)C)C(=O)C1
REMARK SMILES IDX 8 1 9 2 6 3 7 4 5 5 4 6 3 7 2 8 1 9 10 11 11 12 15 13 16 14
REMARK SMILES IDX 17 15 12 17 13 18 14 19
REMARK H PARENT
REMARK Flexibility Score: 70.00
ROOT
ATOM      1  C   UNL     1       4.510  13.668  28.724  1.00  0.00     0.136 C 
ATOM      2  O   UNL     1       5.643  13.438  28.325  1.00  0.00    -0.299 OA
ENDROOT
BRANCH   1   3
ATOM      3  C   UNL     1       3.397  13.952  27.727  1.00  0.00     0.053 C 
ATOM      4  C   UNL     1       3.793  13.478  26.320  1.00  0.00     0.016 C 
BRANCH   3   5
ATOM      5  C   UNL     1       2.073  13.289  28.179  1.00  0.00     0.015 C 
BRANCH   5   6
ATOM      6  C   UNL     1       1.099  14.296  28.822  1.00  0.00     0.028 C 
BRANCH   6   7
ATOM      7  C   UNL     1       0.141  13.611  29.765  1.00  0.00    -0.028 C 
ATOM      8  C   UNL     1       0.446  13.224  31.027  1.00  0.00    -0.070 CG0
ATOM      9  C   UNL     1      -0.613  12.504  31.821  1.00  0.00     0.039 C 
ATOM     10  G   UNL     1       1.802  13.486  31.669  1.00  0.00     0.000 G0
ENDBRANCH   6   7
ENDBRANCH   5   6
ENDBRANCH   3   5
ENDBRANCH   1   3
BRANCH   1  11
ATOM     11  C   UNL     1       4.232  13.648  30.210  1.00  0.00     0.087 C 
BRANCH  11  12
ATOM     12  C   UNL     1       3.921  12.233  30.779  1.00  0.00     0.066 C 
BRANCH  12  13
ATOM     13  C   UNL     1       2.703  12.281  31.691  1.00  0.00     0.140 C 
ATOM     14  O   UNL     1       2.486  11.356  32.462  1.00  0.00    -0.299 OA
BRANCH  13  15
ATOM     15  C   UNL     1       1.795  13.485  31.702  1.00  0.00     0.106 CG0
ATOM     16  G   UNL     1       0.452  13.199  31.044  1.00  0.00     0.000 G0
ENDBRANCH  13  15
ENDBRANCH  12  13
BRANCH  12  17
ATOM     17  C   UNL     1       3.781  11.110  29.696  1.00  0.00    -0.006 C 
ATOM     18  C   UNL     1       4.986  10.151  29.674  1.00  0.00     0.008 C 
ATOM     19  C   UNL     1       2.498  10.287  29.923  1.00  0.00     0.008 C 
ENDBRANCH  12  17
ENDBRANCH  11  12
ENDBRANCH   1  11
TORSDOF 1
ENDMDL
MODEL 6
REMARK VINA RESULT:    -4.210      1.541      3.990
REMARK INTER + INTRA:          -5.789
REMARK INTER:                  -6.564
REMARK INTRA:                   0.775
REMARK UNBOUND:                 0.636
REMARK SMILES CC1=CCC[C@H](C)C(=O)C[C@H](C(C)C)C(=O)C1
REMARK SMILES IDX 8 1 9 2 6 3 7 4 5 5 4 6 3 7 2 8 1 9 10 11 11 12 15 13 16 14
REMARK SMILES IDX 17 15 12 17 13 18 14 19
REMARK H PARENT
REMARK Flexibility Score: 70.00
ROOT
ATOM      1  C   UNL     1       4.122  13.341  32.125  1.00  0.00     0.136 C 
ATOM      2  O   UNL     1       4.852  12.887  32.996  1.00  0.00    -0.299 OA
ENDROOT
BRANCH   1   3
ATOM      3  C   UNL     1       4.596  14.506  31.270  1.00  0.00     0.053 C 
ATOM      4  C   UNL     1       5.580  15.390  32.051  1.00  0.00     0.016 C 
BRANCH   3   5
ATOM      5  C   UNL     1       5.236  13.997  29.955  1.00  0.00     0.015 C 
BRANCH   5   6
ATOM      6  C   UNL     1       4.584  14.617  28.703  1.00  0.00     0.028 C 
BRANCH   6   7
ATOM      7  C   UNL     1       4.475  13.612  27.584  1.00  0.00    -0.028 C 
ATOM      8  C   UNL     1       3.369  12.879  27.310  1.00  0.00    -0.070 CG0
ATOM      9  C   UNL     1       3.444  11.879  26.186  1.00  0.00     0.039 C 
ATOM     10  G   UNL     1       2.067  13.024  28.086  1.00  0.00     0.000 G0
ENDBRANCH   6   7
ENDBRANCH   5   6
ENDBRANCH   3   5
ENDBRANCH   1   3
BRANCH   1  11
ATOM     11  C   UNL     1       2.764  12.717  31.902  1.00  0.00     0.087 C 
BRANCH  11  12
ATOM     12  C   UNL     1       1.980  13.314  30.698  1.00  0.00     0.066 C 
BRANCH  12  13
ATOM     13  C   UNL     1       2.137  12.429  29.468  1.00  0.00     0.140 C 
ATOM     14  O   UNL     1       2.276  11.221  29.604  1.00  0.00    -0.299 OA
BRANCH  13  15
ATOM     15  C   UNL     1       2.060  13.015  28.081  1.00  0.00     0.106 CG0
ATOM     16  G   UNL     1       3.371  12.871  27.321  1.00  0.00     0.000 G0
ENDBRANCH  13  15
ENDBRANCH  12  13
BRANCH  12  17
ATOM     17  C   UNL     1       0.474  13.625  30.989  1.00  0.00    -0.006 C 
ATOM     18  C   UNL     1      -0.419  13.468  29.744  1.00  0.00     0.008 C 
ATOM     19  C   UNL     1      -0.069  12.711  32.105  1.00  0.00     0.008 C 
ENDBRANCH  12  17
ENDBRANCH  11  12
ENDBRANCH   1  11
TORSDOF 1
ENDMDL
MODEL 7
REMARK VINA RESULT:    -4.178      2.170      3.943
REMARK INTER + INTRA:          -5.740
REMARK INTER:                  -6.855
REMARK INTRA:                   1.115
REMARK UNBOUND:                 0.636
REMARK SMILES CC1=CCC[C@H](C)C(=O)C[C@H](C(C)C)C(=O)C1
REMARK SMILES IDX 8 1 9 2 6 3 7 4 5 5 4 6 3 7 2 8 1 9 10 11 11 12 15 13 16 14
REMARK SMILES IDX 17 15 12 17 13 18 14 19
REMARK H PARENT
REMARK Flexibility Score: 70.00
ROOT
ATOM      1  C   UNL     1       3.558  13.096  28.464  1.00  0.00     0.136 C 
ATOM      2  O   UNL     1       2.839  14.026  28.126  1.00  0.00    -0.299 OA
ENDROOT
BRANCH   1   3
ATOM      3  C   UNL     1       3.276  11.693  27.949  1.00  0.00     0.053 C 
ATOM      4  C   UNL     1       3.191  11.682  26.416  1.00  0.00     0.016 C 
BRANCH   3   5
ATOM      5  C   UNL     1       4.354  10.699  28.448  1.00  0.00     0.015 C 
BRANCH   5   6
ATOM      6  C   UNL     1       3.914   9.938  29.715  1.00  0.00     0.028 C 
BRANCH   6   7
ATOM      7  C   UNL     1       2.579  10.430  30.216  1.00  0.00    -0.028 C 
ATOM      8  C   UNL     1       2.415  11.387  31.162  1.00  0.00    -0.070 CG0
ATOM      9  C   UNL     1       1.011  11.727  31.588  1.00  0.00     0.039 C 
ATOM     10  G   UNL     1       3.582  12.126  31.803  1.00  0.00     0.000 G0
ENDBRANCH   6   7
ENDBRANCH   5   6
ENDBRANCH   3   5
ENDBRANCH   1   3
BRANCH   1  11
ATOM     11  C   UNL     1       4.731  13.365  29.378  1.00  0.00     0.087 C 
BRANCH  11  12
ATOM     12  C   UNL     1       4.407  14.318  30.565  1.00  0.00     0.066 C 
BRANCH  12  13
ATOM     13  C   UNL     1       3.492  13.628  31.567  1.00  0.00     0.140 C 
ATOM     14  O   UNL     1       2.634  14.276  32.151  1.00  0.00    -0.299 OA
BRANCH  13  15
ATOM     15  C   UNL     1       3.586  12.142  31.802  1.00  0.00     0.106 CG0
ATOM     16  G   UNL     1       2.418  11.386  31.183  1.00  0.00     0.000 G0
ENDBRANCH  13  15
ENDBRANCH  12  13
BRANCH  12  17
ATOM     17  C   UNL     1       5.663  14.936  31.268  1.00  0.00    -0.006 C 
ATOM     18  C   UNL     1       6.458  15.877  30.345  1.00  0.00     0.008 C 
ATOM     19  C   UNL     1       5.254  15.714  32.534  1.00  0.00     0.008 C 
ENDBRANCH  12  17
ENDBRANCH  11  12
ENDBRANCH   1  11
TORSDOF 1
ENDMDL
MODEL 8
REMARK VINA RESULT:    -4.152      1.626      2.399
REMARK INTER + INTRA:          -5.700
REMARK INTER:                  -5.777
REMARK INTRA:                   0.077
REMARK UNBOUND:                 0.636
REMARK SMILES CC1=CCC[C@H](C)C(=O)C[C@H](C(C)C)C(=O)C1
REMARK SMILES IDX 8 1 9 2 6 3 7 4 5 5 4 6 3 7 2 8 1 9 10 11 11 12 15 13 16 14
REMARK SMILES IDX 17 15 12 17 13 18 14 19
REMARK H PARENT
REMARK Flexibility Score: 70.00
ROOT
ATOM      1  C   UNL     1       4.263  12.190  30.282  1.00  0.00     0.136 C 
ATOM      2  O   UNL     1       4.405  12.574  31.435  1.00  0.00    -0.299 OA
ENDROOT
BRANCH   1   3
ATOM      3  C   UNL     1       4.202  10.701  29.980  1.00  0.00     0.053 C 
ATOM      4  C   UNL     1       5.615  10.105  29.894  1.00  0.00     0.016 C 
BRANCH   3   5
ATOM      5  C   UNL     1       3.355   9.960  31.044  1.00  0.00     0.015 C 
BRANCH   5   6
ATOM      6  C   UNL     1       1.841  10.182  30.852  1.00  0.00     0.028 C 
BRANCH   6   7
ATOM      7  C   UNL     1       1.383  11.454  31.520  1.00  0.00    -0.028 C 
ATOM      8  C   UNL     1       0.876  12.528  30.868  1.00  0.00    -0.070 CG0
ATOM      9  C   UNL     1       0.513  13.743  31.682  1.00  0.00     0.039 C 
ATOM     10  G   UNL     1       0.661  12.556  29.360  1.00  0.00     0.000 G0
ENDBRANCH   6   7
ENDBRANCH   5   6
ENDBRANCH   3   5
ENDBRANCH   1   3
BRANCH   1  11
ATOM     11  C   UNL     1       4.131  13.212  29.176  1.00  0.00     0.087 C 
BRANCH  11  12
ATOM     12  C   UNL     1       2.985  12.912  28.167  1.00  0.00     0.066 C 
BRANCH  12  13
ATOM     13  C   UNL     1       1.665  13.475  28.676  1.00  0.00     0.140 C 
ATOM     14  O   UNL     1       1.396  14.653  28.487  1.00  0.00    -0.299 OA
BRANCH  13  15
ATOM     15  C   UNL     1       0.656  12.583  29.354  1.00  0.00     0.106 CG0
ATOM     16  G   UNL     1       0.865  12.520  30.861  1.00  0.00     0.000 G0
ENDBRANCH  13  15
ENDBRANCH  12  13
BRANCH  12  17
ATOM     17  C   UNL     1       3.273  13.369  26.697  1.00  0.00    -0.006 C 
ATOM     18  C   UNL     1       4.452  14.355  26.600  1.00  0.00     0.008 C 
ATOM     19  C   UNL     1       3.568  12.156  25.794  1.00  0.00     0.008 C 
ENDBRANCH  12  17
ENDBRANCH  11  12
ENDBRANCH   1  11
TORSDOF 1
ENDMDL
MODEL 9
REMARK VINA RESULT:    -4.144      1.925      2.819
REMARK INTER + INTRA:          -5.689
REMARK INTER:                  -6.077
REMARK INTRA:                   0.388
REMARK UNBOUND:                 0.636
REMARK SMILES CC1=CCC[C@H](C)C(=O)C[C@H](C(C)C)C(=O)C1
REMARK SMILES IDX 8 1 9 2 6 3 7 4 5 5 4 6 3 7 2 8 1 9 10 11 11 12 15 13 16 14
REMARK SMILES IDX 17 15 12 17 13 18 14 19
REMARK H PARENT
REMARK Flexibility Score: 70.00
ROOT
ATOM      1  C   UNL     1       3.295  12.188  31.725  1.00  0.00     0.136 C 
ATOM      2  O   UNL     1       2.183  11.796  32.049  1.00  0.00    -0.299 OA
ENDROOT
BRANCH   1   3
ATOM      3  C   UNL     1       4.495  11.263  31.857  1.00  0.00     0.053 C 
ATOM      4  C   UNL     1       4.480  10.544  33.215  1.00  0.00     0.016 C 
BRANCH   3   5
ATOM      5  C   UNL     1       4.531  10.242  30.693  1.00  0.00     0.015 C 
BRANCH   5   6
ATOM      6  C   UNL     1       3.178  10.133  29.963  1.00  0.00     0.028 C 
BRANCH   6   7
ATOM      7  C   UNL     1       3.337  10.333  28.477  1.00  0.00    -0.028 C 
ATOM      8  C   UNL     1       2.794  11.356  27.774  1.00  0.00    -0.070 CG0
ATOM      9  C   UNL     1       3.006  11.382  26.283  1.00  0.00     0.039 C 
ATOM     10  G   UNL     1       1.986  12.471  28.425  1.00  0.00     0.000 G0
ENDBRANCH   6   7
ENDBRANCH   5   6
ENDBRANCH   3   5
ENDBRANCH   1   3
BRANCH   1  11
ATOM     11  C   UNL     1       3.452  13.588  31.176  1.00  0.00     0.087 C 
BRANCH  11  12
ATOM     12  C   UNL     1       3.988  13.643  29.716  1.00  0.00     0.066 C 
BRANCH  12  13
ATOM     13  C   UNL     1       2.833  13.711  28.727  1.00  0.00     0.140 C 
ATOM     14  O   UNL     1       2.615  14.750  28.120  1.00  0.00    -0.299 OA
BRANCH  13  15
ATOM     15  C   UNL     1       1.994  12.492  28.436  1.00  0.00     0.106 CG0
ATOM     16  G   UNL     1       2.800  11.384  27.772  1.00  0.00     0.000 G0
ENDBRANCH  13  15
ENDBRANCH  12  13
BRANCH  12  17
ATOM     17  C   UNL     1       5.038  14.773  29.449  1.00  0.00    -0.006 C 
ATOM     18  C   UNL     1       5.862  15.128  30.700  1.00  0.00     0.008 C 
ATOM     19  C   UNL     1       6.005  14.365  28.320  1.00  0.00     0.008 C 
ENDBRANCH  12  17
ENDBRANCH  11  12
ENDBRANCH   1  11
TORSDOF 1
ENDMDL
