MODEL 1
REMARK VINA RESULT:    -3.365      0.000      0.000
REMARK INTER + INTRA:          -6.014
REMARK INTER:                  -5.135
REMARK INTRA:                  -0.879
REMARK UNBOUND:                -0.879
REMARK SMILES O=C([O-])CCCCCCCCC(=O)[O-]
REMARK SMILES IDX 7 1 6 2 5 3 4 4 2 5 1 6 3 7 8 8 9 9 10 10 11 11 12 12 13 13
REMARK SMILES IDX 14 14
REMARK H PARENT
REMARK Flexibility Score: inf
ROOT
ATOM      1  C   UNL     1     -20.467  39.089  93.888  1.00  0.00     0.000 C 
ENDROOT
BRANCH   1   2
ATOM      2  C   UNL     1     -21.125  37.980  93.054  1.00  0.00     0.000 C 
BRANCH   2   3
ATOM      3  C   UNL     1     -20.124  36.904  92.595  1.00  0.00     0.006 C 
BRANCH   3   4
ATOM      4  C   UNL     1     -18.880  37.461  91.882  1.00  0.00     0.053 C 
BRANCH   4   5
ATOM      5  C   UNL     1     -19.212  38.026  90.535  1.00  0.00     0.041 C 
ATOM      6  O   UNL     1     -19.101  39.263  90.322  1.00  0.00    -0.550 OA
ATOM      7  O   UNL     1     -19.675  37.192  89.525  1.00  0.00    -0.550 OA
ENDBRANCH   4   5
ENDBRANCH   3   4
ENDBRANCH   2   3
ENDBRANCH   1   2
BRANCH   1   8
ATOM      8  C   UNL     1     -20.613  40.453  93.203  1.00  0.00     0.000 C 
BRANCH   8   9
ATOM      9  C   UNL     1     -19.425  41.367  93.537  1.00  0.00     0.000 C 
BRANCH   9  10
ATOM     10  C   UNL     1     -18.150  40.579  93.879  1.00  0.00     0.006 C 
BRANCH  10  11
ATOM     11  C   UNL     1     -17.306  41.263  94.962  1.00  0.00     0.053 C 
BRANCH  11  12
ATOM     12  C   UNL     1     -17.860  40.969  96.319  1.00  0.00     0.041 C 
ATOM     13  O   UNL     1     -17.746  39.817  96.815  1.00  0.00    -0.550 OA
ATOM     14  O   UNL     1     -18.549  41.952  97.018  1.00  0.00    -0.550 OA
ENDBRANCH  11  12
ENDBRANCH  10  11
ENDBRANCH   9  10
ENDBRANCH   8   9
ENDBRANCH   1   8
TORSDOF 9
ENDMDL
MODEL 2
REMARK VINA RESULT:    -3.223      2.211      2.764
REMARK INTER + INTRA:          -5.798
REMARK INTER:                  -4.882
REMARK INTRA:                  -0.916
REMARK UNBOUND:                -0.879
REMARK SMILES O=C([O-])CCCCCCCCC(=O)[O-]
REMARK SMILES IDX 7 1 6 2 5 3 4 4 2 5 1 6 3 7 8 8 9 9 10 10 11 11 12 12 13 13
REMARK SMILES IDX 14 14
REMARK H PARENT
REMARK Flexibility Score: inf
ROOT
ATOM      1  C   UNL     1     -20.474  40.950  93.068  1.00  0.00     0.000 C 
ENDROOT
BRANCH   1   2
ATOM      2  C   UNL     1     -20.438  39.488  92.598  1.00  0.00     0.000 C 
BRANCH   2   3
ATOM      3  C   UNL     1     -19.556  39.283  91.352  1.00  0.00     0.006 C 
BRANCH   3   4
ATOM      4  C   UNL     1     -18.621  38.066  91.434  1.00  0.00     0.053 C 
BRANCH   4   5
ATOM      5  C   UNL     1     -17.571  38.235  92.490  1.00  0.00     0.041 C 
ATOM      6  O   UNL     1     -16.524  38.891  92.244  1.00  0.00    -0.550 OA
ATOM      7  O   UNL     1     -17.734  37.640  93.735  1.00  0.00    -0.550 OA
ENDBRANCH   4   5
ENDBRANCH   3   4
ENDBRANCH   2   3
ENDBRANCH   1   2
BRANCH   1   8
ATOM      8  C   UNL     1     -19.144  41.352  93.718  1.00  0.00     0.000 C 
BRANCH   8   9
ATOM      9  C   UNL     1     -18.998  40.717  95.109  1.00  0.00     0.000 C 
BRANCH   9  10
ATOM     10  C   UNL     1     -17.693  41.125  95.812  1.00  0.00     0.006 C 
BRANCH  10  11
ATOM     11  C   UNL     1     -16.517  41.267  94.837  1.00  0.00     0.053 C 
BRANCH  11  12
ATOM     12  C   UNL     1     -15.407  40.340  95.220  1.00  0.00     0.041 C 
ATOM     13  O   UNL     1     -14.213  40.636  94.953  1.00  0.00    -0.550 OA
ATOM     14  O   UNL     1     -15.694  39.124  95.827  1.00  0.00    -0.550 OA
ENDBRANCH  11  12
ENDBRANCH  10  11
ENDBRANCH   9  10
ENDBRANCH   8   9
ENDBRANCH   1   8
TORSDOF 9
ENDMDL
MODEL 3
REMARK VINA RESULT:    -3.195      1.848      5.693
REMARK INTER + INTRA:          -5.756
REMARK INTER:                  -5.276
REMARK INTRA:                  -0.480
REMARK UNBOUND:                -0.879
REMARK SMILES O=C([O-])CCCCCCCCC(=O)[O-]
REMARK SMILES IDX 7 1 6 2 5 3 4 4 2 5 1 6 3 7 8 8 9 9 10 10 11 11 12 12 13 13
REMARK SMILES IDX 14 14
REMARK H PARENT
REMARK Flexibility Score: inf
ROOT
ATOM      1  C   UNL     1     -19.234  41.342  93.666  1.00  0.00     0.000 C 
ENDROOT
BRANCH   1   2
ATOM      2  C   UNL     1     -19.114  40.799  95.098  1.00  0.00     0.000 C 
BRANCH   2   3
ATOM      3  C   UNL     1     -17.820  41.249  95.800  1.00  0.00     0.006 C 
BRANCH   3   4
ATOM      4  C   UNL     1     -16.581  41.271  94.890  1.00  0.00     0.053 C 
BRANCH   4   5
ATOM      5  C   UNL     1     -15.577  40.231  95.283  1.00  0.00     0.041 C 
ATOM      6  O   UNL     1     -14.368  40.359  94.953  1.00  0.00    -0.550 OA
ATOM      7  O   UNL     1     -15.983  39.103  95.985  1.00  0.00    -0.550 OA
ENDBRANCH   4   5
ENDBRANCH   3   4
ENDBRANCH   2   3
ENDBRANCH   1   2
BRANCH   1   8
ATOM      8  C   UNL     1     -20.615  41.033  93.075  1.00  0.00     0.000 C 
BRANCH   8   9
ATOM      9  C   UNL     1     -20.620  39.669  92.371  1.00  0.00     0.000 C 
BRANCH   9  10
ATOM     10  C   UNL     1     -19.241  39.285  91.813  1.00  0.00     0.006 C 
BRANCH  10  11
ATOM     11  C   UNL     1     -19.316  38.723  90.387  1.00  0.00     0.053 C 
BRANCH  11  12
ATOM     12  C   UNL     1     -19.228  37.230  90.409  1.00  0.00     0.041 C 
ATOM     13  O   UNL     1     -18.368  36.635  89.708  1.00  0.00    -0.550 OA
ATOM     14  O   UNL     1     -20.130  36.491  91.164  1.00  0.00    -0.550 OA
ENDBRANCH  11  12
ENDBRANCH  10  11
ENDBRANCH   9  10
ENDBRANCH   8   9
ENDBRANCH   1   8
TORSDOF 9
ENDMDL
MODEL 4
REMARK VINA RESULT:    -3.178      0.572      5.864
REMARK INTER + INTRA:          -5.729
REMARK INTER:                  -4.893
REMARK INTRA:                  -0.836
REMARK UNBOUND:                -0.879
REMARK SMILES O=C([O-])CCCCCCCCC(=O)[O-]
REMARK SMILES IDX 7 1 6 2 5 3 4 4 2 5 1 6 3 7 8 8 9 9 10 10 11 11 12 12 13 13
REMARK SMILES IDX 14 14
REMARK H PARENT
REMARK Flexibility Score: inf
ROOT
ATOM      1  C   UNL     1     -19.577  41.275  93.361  1.00  0.00     0.000 C 
ENDROOT
BRANCH   1   2
ATOM      2  C   UNL     1     -18.257  40.510  93.538  1.00  0.00     0.000 C 
BRANCH   2   3
ATOM      3  C   UNL     1     -17.303  41.190  94.537  1.00  0.00     0.006 C 
BRANCH   3   4
ATOM      4  C   UNL     1     -17.121  40.424  95.858  1.00  0.00     0.053 C 
BRANCH   4   5
ATOM      5  C   UNL     1     -18.235  40.695  96.822  1.00  0.00     0.041 C 
ATOM      6  O   UNL     1     -18.655  39.781  97.580  1.00  0.00    -0.550 OA
ATOM      7  O   UNL     1     -18.833  41.949  96.860  1.00  0.00    -0.550 OA
ENDBRANCH   4   5
ENDBRANCH   3   4
ENDBRANCH   2   3
ENDBRANCH   1   2
BRANCH   1   8
ATOM      8  C   UNL     1     -20.774  40.316  93.372  1.00  0.00     0.000 C 
BRANCH   8   9
ATOM      9  C   UNL     1     -20.330  38.886  93.713  1.00  0.00     0.000 C 
BRANCH   9  10
ATOM     10  C   UNL     1     -20.746  37.865  92.643  1.00  0.00     0.006 C 
BRANCH  10  11
ATOM     11  C   UNL     1     -19.544  37.243  91.921  1.00  0.00     0.053 C 
BRANCH  11  12
ATOM     12  C   UNL     1     -19.394  37.832  90.554  1.00  0.00     0.041 C 
ATOM     13  O   UNL     1     -19.177  39.064  90.415  1.00  0.00    -0.550 OA
ATOM     14  O   UNL     1     -19.545  37.029  89.430  1.00  0.00    -0.550 OA
ENDBRANCH  11  12
ENDBRANCH  10  11
ENDBRANCH   9  10
ENDBRANCH   8   9
ENDBRANCH   1   8
TORSDOF 9
ENDMDL
MODEL 5
REMARK VINA RESULT:    -3.142      2.270      5.079
REMARK INTER + INTRA:          -5.674
REMARK INTER:                  -4.741
REMARK INTRA:                  -0.933
REMARK UNBOUND:                -0.879
REMARK SMILES O=C([O-])CCCCCCCCC(=O)[O-]
REMARK SMILES IDX 7 1 6 2 5 3 4 4 2 5 1 6 3 7 8 8 9 9 10 10 11 11 12 12 13 13
REMARK SMILES IDX 14 14
REMARK H PARENT
REMARK Flexibility Score: inf
ROOT
ATOM      1  C   UNL     1     -18.894  41.429  93.763  1.00  0.00     0.000 C 
ENDROOT
BRANCH   1   2
ATOM      2  C   UNL     1     -18.872  41.004  95.239  1.00  0.00     0.000 C 
BRANCH   2   3
ATOM      3  C   UNL     1     -17.445  40.837  95.792  1.00  0.00     0.006 C 
BRANCH   3   4
ATOM      4  C   UNL     1     -16.335  41.249  94.810  1.00  0.00     0.053 C 
BRANCH   4   5
ATOM      5  C   UNL     1     -15.081  40.456  95.017  1.00  0.00     0.041 C 
ATOM      6  O   UNL     1     -15.137  39.296  95.505  1.00  0.00    -0.550 OA
ATOM      7  O   UNL     1     -13.847  41.012  94.704  1.00  0.00    -0.550 OA
ENDBRANCH   4   5
ENDBRANCH   3   4
ENDBRANCH   2   3
ENDBRANCH   1   2
BRANCH   1   8
ATOM      8  C   UNL     1     -20.307  41.316  93.179  1.00  0.00     0.000 C 
BRANCH   8   9
ATOM      9  C   UNL     1     -20.629  39.865  92.794  1.00  0.00     0.000 C 
BRANCH   9  10
ATOM     10  C   UNL     1     -19.603  39.269  91.818  1.00  0.00     0.006 C 
BRANCH  10  11
ATOM     11  C   UNL     1     -19.050  37.919  92.293  1.00  0.00     0.053 C 
BRANCH  11  12
ATOM     12  C   UNL     1     -17.659  38.080  92.817  1.00  0.00     0.041 C 
ATOM     13  O   UNL     1     -16.873  38.909  92.286  1.00  0.00    -0.550 OA
ATOM     14  O   UNL     1     -17.211  37.279  93.859  1.00  0.00    -0.550 OA
ENDBRANCH  11  12
ENDBRANCH  10  11
ENDBRANCH   9  10
ENDBRANCH   8   9
ENDBRANCH   1   8
TORSDOF 9
ENDMDL
MODEL 6
REMARK VINA RESULT:    -3.131      1.713      5.486
REMARK INTER + INTRA:          -5.658
REMARK INTER:                  -4.763
REMARK INTRA:                  -0.895
REMARK UNBOUND:                -0.879
REMARK SMILES O=C([O-])CCCCCCCCC(=O)[O-]
REMARK SMILES IDX 7 1 6 2 5 3 4 4 2 5 1 6 3 7 8 8 9 9 10 10 11 11 12 12 13 13
REMARK SMILES IDX 14 14
REMARK H PARENT
REMARK Flexibility Score: inf
ROOT
ATOM      1  C   UNL     1     -17.682  40.855  94.144  1.00  0.00     0.000 C 
ENDROOT
BRANCH   1   2
ATOM      2  C   UNL     1     -17.275  41.219  95.579  1.00  0.00     0.000 C 
BRANCH   2   3
ATOM      3  C   UNL     1     -18.483  41.520  96.485  1.00  0.00     0.006 C 
BRANCH   3   4
ATOM      4  C   UNL     1     -18.854  40.377  97.444  1.00  0.00     0.053 C 
BRANCH   4   5
ATOM      5  C   UNL     1     -19.540  39.250  96.735  1.00  0.00     0.041 C 
ATOM      6  O   UNL     1     -18.898  38.209  96.431  1.00  0.00    -0.550 OA
ATOM      7  O   UNL     1     -20.878  39.362  96.380  1.00  0.00    -0.550 OA
ENDBRANCH   4   5
ENDBRANCH   3   4
ENDBRANCH   2   3
ENDBRANCH   1   2
BRANCH   1   8
ATOM      8  C   UNL     1     -18.929  41.635  93.711  1.00  0.00     0.000 C 
BRANCH   8   9
ATOM      9  C   UNL     1     -20.041  40.683  93.248  1.00  0.00     0.000 C 
BRANCH   9  10
ATOM     10  C   UNL     1     -19.516  39.278  92.912  1.00  0.00     0.006 C 
BRANCH  10  11
ATOM     11  C   UNL     1     -19.475  39.008  91.403  1.00  0.00     0.053 C 
BRANCH  11  12
ATOM     12  C   UNL     1     -18.270  38.195  91.050  1.00  0.00     0.041 C 
ATOM     13  O   UNL     1     -17.139  38.505  91.509  1.00  0.00    -0.550 OA
ATOM     14  O   UNL     1     -18.386  37.123  90.175  1.00  0.00    -0.550 OA
ENDBRANCH  11  12
ENDBRANCH  10  11
ENDBRANCH   9  10
ENDBRANCH   8   9
ENDBRANCH   1   8
TORSDOF 9
ENDMDL
MODEL 7
REMARK VINA RESULT:    -3.103     18.029     20.123
REMARK INTER + INTRA:          -5.615
REMARK INTER:                  -4.618
REMARK INTRA:                  -0.997
REMARK UNBOUND:                -0.879
REMARK SMILES O=C([O-])CCCCCCCCC(=O)[O-]
REMARK SMILES IDX 7 1 6 2 5 3 4 4 2 5 1 6 3 7 8 8 9 9 10 10 11 11 12 12 13 13
REMARK SMILES IDX 14 14
REMARK H PARENT
REMARK Flexibility Score: inf
ROOT
ATOM      1  C   UNL     1      -4.573  29.747 106.860  1.00  0.00     0.000 C 
ENDROOT
BRANCH   1   2
ATOM      2  C   UNL     1      -5.700  29.146 107.712  1.00  0.00     0.000 C 
BRANCH   2   3
ATOM      3  C   UNL     1      -7.066  29.174 107.003  1.00  0.00     0.006 C 
BRANCH   3   4
ATOM      4  C   UNL     1      -7.804  30.519 107.107  1.00  0.00     0.053 C 
BRANCH   4   5
ATOM      5  C   UNL     1      -9.207  30.431 106.588  1.00  0.00     0.041 C 
ATOM      6  O   UNL     1      -9.825  29.333 106.616  1.00  0.00    -0.550 OA
ATOM      7  O   UNL     1      -9.820  31.552 106.044  1.00  0.00    -0.550 OA
ENDBRANCH   4   5
ENDBRANCH   3   4
ENDBRANCH   2   3
ENDBRANCH   1   2
BRANCH   1   8
ATOM      8  C   UNL     1      -4.069  31.064 107.463  1.00  0.00     0.000 C 
BRANCH   8   9
ATOM      9  C   UNL     1      -4.457  32.259 106.579  1.00  0.00     0.000 C 
BRANCH   9  10
ATOM     10  C   UNL     1      -4.384  31.934 105.079  1.00  0.00     0.006 C 
BRANCH  10  11
ATOM     11  C   UNL     1      -5.457  32.666 104.264  1.00  0.00     0.053 C 
BRANCH  11  12
ATOM     12  C   UNL     1      -6.559  31.727 103.889  1.00  0.00     0.041 C 
ATOM     13  O   UNL     1      -6.357  30.484 103.877  1.00  0.00    -0.550 OA
ATOM     14  O   UNL     1      -7.797  32.225 103.505  1.00  0.00    -0.550 OA
ENDBRANCH  11  12
ENDBRANCH  10  11
ENDBRANCH   9  10
ENDBRANCH   8   9
ENDBRANCH   1   8
TORSDOF 9
ENDMDL
MODEL 8
REMARK VINA RESULT:    -3.020      1.736      2.140
REMARK INTER + INTRA:          -5.488
REMARK INTER:                  -4.775
REMARK INTRA:                  -0.713
REMARK UNBOUND:                -0.879
REMARK SMILES O=C([O-])CCCCCCCCC(=O)[O-]
REMARK SMILES IDX 7 1 6 2 5 3 4 4 2 5 1 6 3 7 8 8 9 9 10 10 11 11 12 12 13 13
REMARK SMILES IDX 14 14
REMARK H PARENT
REMARK Flexibility Score: inf
ROOT
ATOM      1  C   UNL     1     -21.125  40.432  93.011  1.00  0.00     0.000 C 
ENDROOT
BRANCH   1   2
ATOM      2  C   UNL     1     -20.852  39.098  93.720  1.00  0.00     0.000 C 
BRANCH   2   3
ATOM      3  C   UNL     1     -20.699  37.921  92.739  1.00  0.00     0.006 C 
BRANCH   3   4
ATOM      4  C   UNL     1     -19.246  37.613  92.344  1.00  0.00     0.053 C 
BRANCH   4   5
ATOM      5  C   UNL     1     -18.998  37.856  90.886  1.00  0.00     0.041 C 
ATOM      6  O   UNL     1     -18.460  36.964  90.177  1.00  0.00    -0.550 OA
ATOM      7  O   UNL     1     -19.331  39.079  90.318  1.00  0.00    -0.550 OA
ENDBRANCH   4   5
ENDBRANCH   3   4
ENDBRANCH   2   3
ENDBRANCH   1   2
BRANCH   1   8
ATOM      8  C   UNL     1     -19.867  41.310  92.988  1.00  0.00     0.000 C 
BRANCH   8   9
ATOM      9  C   UNL     1     -19.042  41.124  94.270  1.00  0.00     0.000 C 
BRANCH   9  10
ATOM     10  C   UNL     1     -17.614  40.631  93.989  1.00  0.00     0.006 C 
BRANCH  10  11
ATOM     11  C   UNL     1     -16.606  41.113  95.040  1.00  0.00     0.053 C 
BRANCH  11  12
ATOM     12  C   UNL     1     -15.309  40.382  94.893  1.00  0.00     0.041 C 
ATOM     13  O   UNL     1     -15.278  39.125  94.963  1.00  0.00    -0.550 OA
ATOM     14  O   UNL     1     -14.125  41.090  94.730  1.00  0.00    -0.550 OA
ENDBRANCH  11  12
ENDBRANCH  10  11
ENDBRANCH   9  10
ENDBRANCH   8   9
ENDBRANCH   1   8
TORSDOF 9
ENDMDL
MODEL 9
REMARK VINA RESULT:    -2.569      2.018      5.297
REMARK INTER + INTRA:          -4.799
REMARK INTER:                  -3.839
REMARK INTRA:                  -0.961
REMARK UNBOUND:                -0.879
REMARK SMILES O=C([O-])CCCCCCCCC(=O)[O-]
REMARK SMILES IDX 7 1 6 2 5 3 4 4 2 5 1 6 3 7 8 8 9 9 10 10 11 11 12 12 13 13
REMARK SMILES IDX 14 14
REMARK H PARENT
REMARK Flexibility Score: inf
ROOT
ATOM      1  C   UNL     1     -16.372  39.660  95.007  1.00  0.00     0.000 C 
ENDROOT
BRANCH   1   2
ATOM      2  C   UNL     1     -16.842  41.116  95.148  1.00  0.00     0.000 C 
BRANCH   2   3
ATOM      3  C   UNL     1     -18.375  41.244  95.218  1.00  0.00     0.006 C 
BRANCH   3   4
ATOM      4  C   UNL     1     -19.053  41.470  93.857  1.00  0.00     0.053 C 
BRANCH   4   5
ATOM      5  C   UNL     1     -20.097  40.434  93.572  1.00  0.00     0.041 C 
ATOM      6  O   UNL     1     -20.030  39.300  94.117  1.00  0.00    -0.550 OA
ATOM      7  O   UNL     1     -21.125  40.709  92.679  1.00  0.00    -0.550 OA
ENDBRANCH   4   5
ENDBRANCH   3   4
ENDBRANCH   2   3
ENDBRANCH   1   2
BRANCH   1   8
ATOM      8  C   UNL     1     -15.303  39.531  93.915  1.00  0.00     0.000 C 
BRANCH   8   9
ATOM      9  C   UNL     1     -15.704  38.475  92.874  1.00  0.00     0.000 C 
BRANCH   9  10
ATOM     10  C   UNL     1     -17.001  38.837  92.133  1.00  0.00     0.006 C 
BRANCH  10  11
ATOM     11  C   UNL     1     -17.915  37.624  91.916  1.00  0.00     0.053 C 
BRANCH  11  12
ATOM     12  C   UNL     1     -18.921  37.914  90.847  1.00  0.00     0.041 C 
ATOM     13  O   UNL     1     -19.111  39.096  90.458  1.00  0.00    -0.550 OA
ATOM     14  O   UNL     1     -19.687  36.884  90.316  1.00  0.00    -0.550 OA
ENDBRANCH  11  12
ENDBRANCH  10  11
ENDBRANCH   9  10
ENDBRANCH   8   9
ENDBRANCH   1   8
TORSDOF 9
ENDMDL
