MODEL 1
REMARK VINA RESULT:    -2.376      0.000      0.000
REMARK INTER + INTRA:          -2.191
REMARK INTER:                  -2.932
REMARK INTRA:                   0.740
REMARK UNBOUND:                 0.740
REMARK SMILES CC1=CC=CC(C)(C)CC1=O
REMARK SMILES IDX 1 1 2 2 3 3 10 4 11 5 9 6 4 8 5 9 6 10 7 11 8 12
REMARK H PARENT
REMARK Flexibility Score: 80.00
ROOT
ATOM      1  C   UNL     1      -7.941  -4.917  -6.853  1.00  0.00     0.048 C 
ATOM      2  C   UNL     1      -8.272  -5.121  -5.395  1.00  0.00    -0.008 C 
ATOM      3  C   UNL     1      -8.394  -6.392  -4.952  1.00  0.00     0.007 C 
ENDROOT
BRANCH   2   4
ATOM      4  C   UNL     1      -8.364  -3.907  -4.545  1.00  0.00     0.159 C 
ATOM      5  O   UNL     1      -7.965  -2.806  -5.015  1.00  0.00    -0.295 OA
BRANCH   4   6
ATOM      6  C   UNL     1      -8.919  -3.911  -3.155  1.00  0.00     0.091 CG0
ATOM      7  G   UNL     1      -8.150  -4.845  -2.194  1.00  0.00     0.000 G0
ENDBRANCH   4   6
ENDBRANCH   2   4
BRANCH   3   8
ATOM      8  C   UNL     1      -8.683  -6.902  -3.592  1.00  0.00    -0.003 C 
ATOM      9  C   UNL     1      -8.574  -6.274  -2.414  1.00  0.00    -0.020 C 
BRANCH   9  10
ATOM     10  C   UNL     1      -8.143  -4.843  -2.196  1.00  0.00    -0.010 CG0
ATOM     11  C   UNL     1      -6.609  -4.726  -2.339  1.00  0.00     0.016 C 
ATOM     12  C   UNL     1      -8.520  -4.437  -0.754  1.00  0.00     0.016 C 
ATOM     13  G   UNL     1      -8.905  -3.916  -3.170  1.00  0.00     0.000 G0
ENDBRANCH   9  10
ENDBRANCH   3   8
TORSDOF 0
ENDMDL
MODEL 2
REMARK VINA RESULT:    -1.956      1.417      2.393
REMARK INTER + INTRA:          -1.673
REMARK INTER:                  -2.684
REMARK INTRA:                   1.011
REMARK UNBOUND:                 0.740
REMARK SMILES CC1=CC=CC(C)(C)CC1=O
REMARK SMILES IDX 1 1 2 2 3 3 10 4 11 5 9 6 4 8 5 9 6 10 7 11 8 12
REMARK H PARENT
REMARK Flexibility Score: 80.00
ROOT
ATOM      1  C   UNL     1      -7.729  -5.016  -6.850  1.00  0.00     0.048 C 
ATOM      2  C   UNL     1      -8.091  -4.878  -5.390  1.00  0.00    -0.008 C 
ATOM      3  C   UNL     1      -8.553  -3.681  -4.970  1.00  0.00     0.007 C 
ENDROOT
BRANCH   2   4
ATOM      4  C   UNL     1      -7.981  -6.096  -4.548  1.00  0.00     0.159 C 
ATOM      5  O   UNL     1      -7.350  -7.092  -5.000  1.00  0.00    -0.295 OA
BRANCH   4   6
ATOM      6  C   UNL     1      -8.569  -6.208  -3.176  1.00  0.00     0.091 CG0
ATOM      7  G   UNL     1      -8.048  -5.130  -2.199  1.00  0.00     0.000 G0
ENDBRANCH   4   6
ENDBRANCH   2   4
BRANCH   3   8
ATOM      8  C   UNL     1      -9.005  -3.254  -3.626  1.00  0.00    -0.003 C 
ATOM      9  C   UNL     1      -8.823  -3.856  -2.443  1.00  0.00    -0.020 C 
BRANCH   9  10
ATOM     10  C   UNL     1      -8.065  -5.138  -2.196  1.00  0.00    -0.010 CG0
ATOM     11  C   UNL     1      -8.225  -5.571  -0.721  1.00  0.00     0.016 C 
ATOM     12  C   UNL     1      -6.565  -4.871  -2.455  1.00  0.00     0.016 C 
ATOM     13  G   UNL     1      -8.538  -6.223  -3.190  1.00  0.00     0.000 G0
ENDBRANCH   9  10
ENDBRANCH   3   8
TORSDOF 0
ENDMDL
MODEL 3
REMARK VINA RESULT:    -1.907     17.584     18.755
REMARK INTER + INTRA:          -1.613
REMARK INTER:                  -2.361
REMARK INTRA:                   0.748
REMARK UNBOUND:                 0.740
REMARK SMILES CC1=CC=CC(C)(C)CC1=O
REMARK SMILES IDX 1 1 2 2 3 3 10 4 11 5 9 6 4 8 5 9 6 10 7 11 8 12
REMARK H PARENT
REMARK Flexibility Score: 80.00
ROOT
ATOM      1  C   UNL     1       9.625  -4.003  -8.842  1.00  0.00     0.048 C 
ATOM      2  C   UNL     1      10.098  -3.753  -7.430  1.00  0.00    -0.008 C 
ATOM      3  C   UNL     1      10.397  -2.481  -7.086  1.00  0.00     0.007 C 
ENDROOT
BRANCH   2   4
ATOM      4  C   UNL     1      10.124  -4.917  -6.509  1.00  0.00     0.159 C 
ATOM      5  O   UNL     1       9.600  -6.001  -6.886  1.00  0.00    -0.295 OA
BRANCH   4   6
ATOM      6  C   UNL     1      10.756  -4.883  -5.152  1.00  0.00     0.091 CG0
ATOM      7  G   UNL     1      10.160  -3.795  -4.230  1.00  0.00     0.000 G0
ENDBRANCH   4   6
ENDBRANCH   2   4
BRANCH   3   8
ATOM      8  C   UNL     1      10.854  -1.929  -5.790  1.00  0.00    -0.003 C 
ATOM      9  C   UNL     1      10.759  -2.461  -4.565  1.00  0.00    -0.020 C 
BRANCH   9  10
ATOM     10  C   UNL     1      10.167  -3.806  -4.214  1.00  0.00    -0.010 CG0
ATOM     11  C   UNL     1       8.624  -3.731  -4.255  1.00  0.00     0.016 C 
ATOM     12  C   UNL     1      10.590  -4.159  -2.770  1.00  0.00     0.016 C 
ATOM     13  G   UNL     1      10.737  -4.887  -5.159  1.00  0.00     0.000 G0
ENDBRANCH   9  10
ENDBRANCH   3   8
TORSDOF 0
ENDMDL
MODEL 4
REMARK VINA RESULT:    -1.842      2.012      3.836
REMARK INTER + INTRA:          -1.532
REMARK INTER:                  -2.263
REMARK INTRA:                   0.730
REMARK UNBOUND:                 0.740
REMARK SMILES CC1=CC=CC(C)(C)CC1=O
REMARK SMILES IDX 1 1 2 2 3 3 10 4 11 5 9 6 4 8 5 9 6 10 7 11 8 12
REMARK H PARENT
REMARK Flexibility Score: 80.00
ROOT
ATOM      1  C   UNL     1      -7.515  -3.112  -2.377  1.00  0.00     0.048 C 
ATOM      2  C   UNL     1      -8.034  -3.875  -3.572  1.00  0.00    -0.008 C 
ATOM      3  C   UNL     1      -8.093  -3.224  -4.754  1.00  0.00     0.007 C 
ENDROOT
BRANCH   2   4
ATOM      4  C   UNL     1      -8.369  -5.307  -3.365  1.00  0.00     0.159 C 
ATOM      5  O   UNL     1      -8.020  -5.863  -2.288  1.00  0.00    -0.295 OA
BRANCH   4   6
ATOM      6  C   UNL     1      -9.117  -6.133  -4.366  1.00  0.00     0.091 CG0
ATOM      7  G   UNL     1      -8.402  -6.231  -5.732  1.00  0.00     0.000 G0
ENDBRANCH   4   6
ENDBRANCH   2   4
BRANCH   3   8
ATOM      8  C   UNL     1      -8.527  -3.708  -6.085  1.00  0.00    -0.003 C 
ATOM      9  C   UNL     1      -8.662  -4.966  -6.524  1.00  0.00    -0.020 C 
BRANCH   9  10
ATOM     10  C   UNL     1      -8.421  -6.226  -5.726  1.00  0.00    -0.010 CG0
ATOM     11  C   UNL     1      -6.905  -6.504  -5.623  1.00  0.00     0.016 C 
ATOM     12  C   UNL     1      -9.074  -7.408  -6.477  1.00  0.00     0.016 C 
ATOM     13  G   UNL     1      -9.099  -6.102  -4.342  1.00  0.00     0.000 G0
ENDBRANCH   9  10
ENDBRANCH   3   8
TORSDOF 0
ENDMDL
MODEL 5
REMARK VINA RESULT:    -1.584     17.668     18.885
REMARK INTER + INTRA:          -1.215
REMARK INTER:                  -1.987
REMARK INTRA:                   0.772
REMARK UNBOUND:                 0.740
REMARK SMILES CC1=CC=CC(C)(C)CC1=O
REMARK SMILES IDX 1 1 2 2 3 3 10 4 11 5 9 6 4 8 5 9 6 10 7 11 8 12
REMARK H PARENT
REMARK Flexibility Score: 80.00
ROOT
ATOM      1  C   UNL     1      10.811  -6.953  -6.625  1.00  0.00     0.048 C 
ATOM      2  C   UNL     1      10.757  -5.539  -6.099  1.00  0.00    -0.008 C 
ATOM      3  C   UNL     1      10.585  -4.543  -6.996  1.00  0.00     0.007 C 
ENDROOT
BRANCH   2   4
ATOM      4  C   UNL     1      10.823  -5.362  -4.626  1.00  0.00     0.159 C 
ATOM      5  O   UNL     1      10.726  -6.380  -3.887  1.00  0.00    -0.295 OA
BRANCH   4   6
ATOM      6  C   UNL     1      11.012  -4.034  -3.961  1.00  0.00     0.091 CG0
ATOM      7  G   UNL     1       9.909  -3.011  -4.317  1.00  0.00     0.000 G0
ENDBRANCH   4   6
ENDBRANCH   2   4
BRANCH   3   8
ATOM      8  C   UNL     1      10.470  -3.082  -6.784  1.00  0.00    -0.003 C 
ATOM      9  C   UNL     1      10.169  -2.412  -5.664  1.00  0.00    -0.020 C 
BRANCH   9  10
ATOM     10  C   UNL     1       9.895  -3.013  -4.305  1.00  0.00    -0.010 CG0
ATOM     11  C   UNL     1       8.483  -3.640  -4.280  1.00  0.00     0.016 C 
ATOM     12  C   UNL     1       9.932  -1.877  -3.258  1.00  0.00     0.016 C 
ATOM     13  G   UNL     1      11.005  -4.028  -3.952  1.00  0.00     0.000 G0
ENDBRANCH   9  10
ENDBRANCH   3   8
TORSDOF 0
ENDMDL
MODEL 6
REMARK VINA RESULT:    -1.231     17.650     18.738
REMARK INTER + INTRA:          -0.778
REMARK INTER:                  -1.819
REMARK INTRA:                   1.041
REMARK UNBOUND:                 0.740
REMARK SMILES CC1=CC=CC(C)(C)CC1=O
REMARK SMILES IDX 1 1 2 2 3 3 10 4 11 5 9 6 4 8 5 9 6 10 7 11 8 12
REMARK H PARENT
REMARK Flexibility Score: 80.00
ROOT
ATOM      1  C   UNL     1       9.606  -4.407  -8.647  1.00  0.00     0.048 C 
ATOM      2  C   UNL     1      10.084  -4.324  -7.218  1.00  0.00    -0.008 C 
ATOM      3  C   UNL     1      10.488  -5.468  -6.625  1.00  0.00     0.007 C 
ENDROOT
BRANCH   2   4
ATOM      4  C   UNL     1      10.140  -2.974  -6.601  1.00  0.00     0.159 C 
ATOM      5  O   UNL     1       9.525  -2.025  -7.160  1.00  0.00    -0.295 OA
BRANCH   4   6
ATOM      6  C   UNL     1      10.882  -2.674  -5.335  1.00  0.00     0.091 CG0
ATOM      7  G   UNL     1      10.389  -3.505  -4.129  1.00  0.00     0.000 G0
ENDBRANCH   4   6
ENDBRANCH   2   4
BRANCH   3   8
ATOM      8  C   UNL     1      11.023  -5.696  -5.263  1.00  0.00    -0.003 C 
ATOM      9  C   UNL     1      11.005  -4.880  -4.201  1.00  0.00    -0.020 C 
BRANCH   9  10
ATOM     10  C   UNL     1      10.389  -3.502  -4.138  1.00  0.00    -0.010 CG0
ATOM     11  C   UNL     1      10.718  -2.838  -2.782  1.00  0.00     0.016 C 
ATOM     12  C   UNL     1       8.854  -3.653  -4.235  1.00  0.00     0.016 C 
ATOM     13  G   UNL     1      10.866  -2.663  -5.344  1.00  0.00     0.000 G0
ENDBRANCH   9  10
ENDBRANCH   3   8
TORSDOF 0
ENDMDL
MODEL 7
REMARK VINA RESULT:    -1.230     16.948     17.922
REMARK INTER + INTRA:          -0.777
REMARK INTER:                  -1.523
REMARK INTRA:                   0.746
REMARK UNBOUND:                 0.740
REMARK SMILES CC1=CC=CC(C)(C)CC1=O
REMARK SMILES IDX 1 1 2 2 3 3 10 4 11 5 9 6 4 8 5 9 6 10 7 11 8 12
REMARK H PARENT
REMARK Flexibility Score: 80.00
ROOT
ATOM      1  C   UNL     1       9.482  -3.688  -6.675  1.00  0.00     0.048 C 
ATOM      2  C   UNL     1       9.564  -3.954  -5.192  1.00  0.00    -0.008 C 
ATOM      3  C   UNL     1      10.435  -4.897  -4.772  1.00  0.00     0.007 C 
ENDROOT
BRANCH   2   4
ATOM      4  C   UNL     1       8.730  -3.103  -4.305  1.00  0.00     0.159 C 
ATOM      5  O   UNL     1       8.154  -2.094  -4.797  1.00  0.00    -0.295 OA
BRANCH   4   6
ATOM      6  C   UNL     1       8.521  -3.384  -2.849  1.00  0.00     0.091 CG0
ATOM      7  G   UNL     1       9.838  -3.431  -2.042  1.00  0.00     0.000 G0
ENDBRANCH   4   6
ENDBRANCH   2   4
BRANCH   3   8
ATOM      8  C   UNL     1      10.752  -5.355  -3.399  1.00  0.00    -0.003 C 
ATOM      9  C   UNL     1      10.521  -4.744  -2.230  1.00  0.00    -0.020 C 
BRANCH   9  10
ATOM     10  C   UNL     1       9.835  -3.413  -2.034  1.00  0.00    -0.010 CG0
ATOM     11  C   UNL     1      10.804  -2.262  -2.386  1.00  0.00     0.016 C 
ATOM     12  C   UNL     1       9.456  -3.278  -0.542  1.00  0.00     0.016 C 
ATOM     13  G   UNL     1       8.533  -3.371  -2.866  1.00  0.00     0.000 G0
ENDBRANCH   9  10
ENDBRANCH   3   8
TORSDOF 0
ENDMDL
MODEL 8
REMARK VINA RESULT:    -1.185     17.494     18.737
REMARK INTER + INTRA:          -0.721
REMARK INTER:                  -1.751
REMARK INTRA:                   1.029
REMARK UNBOUND:                 0.740
REMARK SMILES CC1=CC=CC(C)(C)CC1=O
REMARK SMILES IDX 1 1 2 2 3 3 10 4 11 5 9 6 4 8 5 9 6 10 7 11 8 12
REMARK H PARENT
REMARK Flexibility Score: 80.00
ROOT
ATOM      1  C   UNL     1       9.881  -6.273  -0.794  1.00  0.00     0.048 C 
ATOM      2  C   UNL     1       9.982  -5.021  -1.633  1.00  0.00    -0.008 C 
ATOM      3  C   UNL     1       9.576  -3.860  -1.076  1.00  0.00     0.007 C 
ENDROOT
BRANCH   2   4
ATOM      4  C   UNL     1      10.592  -5.158  -2.980  1.00  0.00     0.159 C 
ATOM      5  O   UNL     1      10.706  -6.310  -3.481  1.00  0.00    -0.295 OA
BRANCH   4   6
ATOM      6  C   UNL     1      11.072  -3.995  -3.791  1.00  0.00     0.091 CG0
ATOM      7  G   UNL     1       9.959  -2.971  -4.108  1.00  0.00     0.000 G0
ENDBRANCH   4   6
ENDBRANCH   2   4
BRANCH   3   8
ATOM      8  C   UNL     1       9.577  -2.487  -1.633  1.00  0.00    -0.003 C 
ATOM      9  C   UNL     1       9.751  -2.089  -2.900  1.00  0.00    -0.020 C 
BRANCH   9  10
ATOM     10  C   UNL     1       9.966  -2.982  -4.099  1.00  0.00    -0.010 CG0
ATOM     11  C   UNL     1      10.290  -2.125  -5.344  1.00  0.00     0.016 C 
ATOM     12  C   UNL     1       8.652  -3.747  -4.375  1.00  0.00     0.016 C 
ATOM     13  G   UNL     1      11.068  -4.018  -3.786  1.00  0.00     0.000 G0
ENDBRANCH   9  10
ENDBRANCH   3   8
TORSDOF 0
ENDMDL
MODEL 9
REMARK VINA RESULT:    -1.136     15.503     17.027
REMARK INTER + INTRA:          -0.661
REMARK INTER:                  -1.425
REMARK INTRA:                   0.764
REMARK UNBOUND:                 0.740
REMARK SMILES CC1=CC=CC(C)(C)CC1=O
REMARK SMILES IDX 1 1 2 2 3 3 10 4 11 5 9 6 4 8 5 9 6 10 7 11 8 12
REMARK H PARENT
REMARK Flexibility Score: 80.00
ROOT
ATOM      1  C   UNL     1       5.684  -4.281  -0.943  1.00  0.00     0.048 C 
ATOM      2  C   UNL     1       6.959  -3.586  -1.357  1.00  0.00    -0.008 C 
ATOM      3  C   UNL     1       7.997  -3.616  -0.493  1.00  0.00     0.007 C 
ENDROOT
BRANCH   2   4
ATOM      4  C   UNL     1       6.992  -2.988  -2.715  1.00  0.00     0.159 C 
ATOM      5  O   UNL     1       6.054  -3.249  -3.517  1.00  0.00    -0.295 OA
BRANCH   4   6
ATOM      6  C   UNL     1       8.080  -2.074  -3.189  1.00  0.00     0.091 CG0
ATOM      7  G   UNL     1       9.483  -2.721  -3.144  1.00  0.00     0.000 G0
ENDBRANCH   4   6
ENDBRANCH   2   4
BRANCH   3   8
ATOM      8  C   UNL     1       9.362  -3.056  -0.627  1.00  0.00    -0.003 C 
ATOM      9  C   UNL     1      10.015  -2.680  -1.734  1.00  0.00    -0.020 C 
BRANCH   9  10
ATOM     10  C   UNL     1       9.483  -2.715  -3.147  1.00  0.00    -0.010 CG0
ATOM     11  C   UNL     1       9.490  -4.167  -3.677  1.00  0.00     0.016 C 
ATOM     12  C   UNL     1      10.423  -1.876  -4.040  1.00  0.00     0.016 C 
ATOM     13  G   UNL     1       8.078  -2.073  -3.190  1.00  0.00     0.000 G0
ENDBRANCH   9  10
ENDBRANCH   3   8
TORSDOF 0
ENDMDL
