MODEL 1
REMARK VINA RESULT:    -6.587      0.000      0.000
REMARK INTER + INTRA:          -7.165
REMARK INTER:                  -7.165
REMARK INTRA:                   0.000
REMARK UNBOUND:                 0.000
REMARK SMILES Cc1cc(O)c2c(c1)C(=O)c1cc(O)cc(O)c1C2=O
REMARK SMILES IDX 1 1 2 2 8 3 7 4 6 5 4 6 3 7 19 8 20 9 18 10 11 11 9 12 10 13
REMARK SMILES IDX 12 14 13 15 15 16 16 17 5 18 17 20 14 22
REMARK H PARENT 5 19 17 21 14 23
REMARK Flexibility Score: inf
ROOT
ATOM      1  C   UNL     1     -30.927  18.078  57.521  1.00  0.00     0.044 C 
ATOM      2  C   UNL     1     -31.875  16.923  57.661  1.00  0.00    -0.047 A 
ATOM      3  C   UNL     1     -32.604  16.471  56.557  1.00  0.00     0.016 A 
ATOM      4  C   UNL     1     -33.529  15.422  56.688  1.00  0.00     0.038 A 
ATOM      5  C   UNL     1     -33.749  14.828  57.953  1.00  0.00     0.076 A 
ATOM      6  C   UNL     1     -32.960  15.252  59.057  1.00  0.00     0.127 A 
ATOM      7  C   UNL     1     -32.066  16.316  58.906  1.00  0.00     0.050 A 
ATOM      8  C   UNL     1     -34.847  13.829  58.085  1.00  0.00     0.201 C 
ATOM      9  O   UNL     1     -35.351  13.588  59.214  1.00  0.00    -0.288 OA
ATOM     10  C   UNL     1     -35.430  13.197  56.873  1.00  0.00     0.076 A 
ATOM     11  C   UNL     1     -35.156  13.755  55.606  1.00  0.00     0.041 A 
ATOM     12  C   UNL     1     -34.266  14.933  55.498  1.00  0.00     0.194 C 
ATOM     13  O   UNL     1     -34.122  15.510  54.385  1.00  0.00    -0.289 OA
ATOM     14  C   UNL     1     -35.731  13.191  54.455  1.00  0.00     0.059 A 
ATOM     15  C   UNL     1     -36.566  12.077  54.551  1.00  0.00     0.120 A 
ATOM     16  C   UNL     1     -36.834  11.516  55.802  1.00  0.00     0.093 A 
ATOM     17  C   UNL     1     -36.272  12.063  56.962  1.00  0.00     0.131 A 
ENDROOT
BRANCH   6  18
ATOM     18  O   UNL     1     -33.003  14.629  60.307  1.00  0.00    -0.507 OA
ATOM     19  H   UNL     1     -32.182  14.352  60.825  1.00  0.00     0.293 HD
ENDBRANCH   6  18
BRANCH  17  20
ATOM     20  O   UNL     1     -36.545  11.475  58.198  1.00  0.00    -0.507 OA
ATOM     21  H   UNL     1     -36.315  10.507  58.390  1.00  0.00     0.293 HD
ENDBRANCH  17  20
BRANCH  15  22
ATOM     22  O   UNL     1     -37.125  11.536  53.396  1.00  0.00    -0.508 OA
ATOM     23  H   UNL     1     -37.233  12.085  52.550  1.00  0.00     0.293 HD
ENDBRANCH  15  22
TORSDOF 3
ENDMDL
MODEL 2
REMARK VINA RESULT:    -5.178      1.781      3.720
REMARK INTER + INTRA:          -5.632
REMARK INTER:                  -5.632
REMARK INTRA:                   0.000
REMARK UNBOUND:                 0.000
REMARK SMILES Cc1cc(O)c2c(c1)C(=O)c1cc(O)cc(O)c1C2=O
REMARK SMILES IDX 1 1 2 2 8 3 7 4 6 5 4 6 3 7 19 8 20 9 18 10 11 11 9 12 10 13
REMARK SMILES IDX 12 14 13 15 15 16 16 17 5 18 17 20 14 22
REMARK H PARENT 5 19 17 21 14 23
REMARK Flexibility Score: inf
ROOT
ATOM      1  C   UNL     1     -29.415  17.562  57.539  1.00  0.00     0.044 C 
ATOM      2  C   UNL     1     -30.757  16.957  57.241  1.00  0.00    -0.047 A 
ATOM      3  C   UNL     1     -31.344  16.066  58.145  1.00  0.00     0.016 A 
ATOM      4  C   UNL     1     -32.577  15.458  57.855  1.00  0.00     0.038 A 
ATOM      5  C   UNL     1     -33.224  15.725  56.626  1.00  0.00     0.076 A 
ATOM      6  C   UNL     1     -32.650  16.678  55.741  1.00  0.00     0.127 A 
ATOM      7  C   UNL     1     -31.410  17.248  56.040  1.00  0.00     0.050 A 
ATOM      8  C   UNL     1     -34.447  14.944  56.286  1.00  0.00     0.201 C 
ATOM      9  O   UNL     1     -34.813  14.832  55.086  1.00  0.00    -0.288 OA
ATOM     10  C   UNL     1     -35.176  14.199  57.346  1.00  0.00     0.076 A 
ATOM     11  C   UNL     1     -34.551  13.990  58.593  1.00  0.00     0.041 A 
ATOM     12  C   UNL     1     -33.201  14.544  58.842  1.00  0.00     0.194 C 
ATOM     13  O   UNL     1     -32.588  14.251  59.906  1.00  0.00    -0.289 OA
ATOM     14  C   UNL     1     -35.212  13.254  59.591  1.00  0.00     0.059 A 
ATOM     15  C   UNL     1     -36.486  12.734  59.363  1.00  0.00     0.120 A 
ATOM     16  C   UNL     1     -37.114  12.946  58.132  1.00  0.00     0.093 A 
ATOM     17  C   UNL     1     -36.471  13.675  57.124  1.00  0.00     0.131 A 
ENDROOT
BRANCH   6  18
ATOM     18  O   UNL     1     -33.287  17.113  54.575  1.00  0.00    -0.507 OA
ATOM     19  H   UNL     1     -32.797  17.478  53.771  1.00  0.00     0.293 HD
ENDBRANCH   6  18
BRANCH  17  20
ATOM     20  O   UNL     1     -37.125  13.883  55.909  1.00  0.00    -0.507 OA
ATOM     21  H   UNL     1     -37.125  14.788  55.451  1.00  0.00     0.293 HD
ENDBRANCH  17  20
BRANCH  15  22
ATOM     22  O   UNL     1     -37.122  12.009  60.368  1.00  0.00    -0.508 OA
ATOM     23  H   UNL     1     -38.100  11.752  60.299  1.00  0.00     0.293 HD
ENDBRANCH  15  22
TORSDOF 3
ENDMDL
MODEL 3
REMARK VINA RESULT:    -4.963      1.194      5.488
REMARK INTER + INTRA:          -5.398
REMARK INTER:                  -5.398
REMARK INTRA:                   0.000
REMARK UNBOUND:                 0.000
REMARK SMILES Cc1cc(O)c2c(c1)C(=O)c1cc(O)cc(O)c1C2=O
REMARK SMILES IDX 1 1 2 2 8 3 7 4 6 5 4 6 3 7 19 8 20 9 18 10 11 11 9 12 10 13
REMARK SMILES IDX 12 14 13 15 15 16 16 17 5 18 17 20 14 22
REMARK H PARENT 5 19 17 21 14 23
REMARK Flexibility Score: inf
ROOT
ATOM      1  C   UNL     1     -37.125  11.634  53.269  1.00  0.00     0.044 C 
ATOM      2  C   UNL     1     -36.469  12.153  54.515  1.00  0.00    -0.047 A 
ATOM      3  C   UNL     1     -35.532  13.188  54.439  1.00  0.00     0.016 A 
ATOM      4  C   UNL     1     -34.877  13.649  55.594  1.00  0.00     0.038 A 
ATOM      5  C   UNL     1     -35.145  13.047  56.846  1.00  0.00     0.076 A 
ATOM      6  C   UNL     1     -36.143  12.038  56.923  1.00  0.00     0.127 A 
ATOM      7  C   UNL     1     -36.760  11.578  55.756  1.00  0.00     0.050 A 
ATOM      8  C   UNL     1     -34.320  13.454  58.018  1.00  0.00     0.201 C 
ATOM      9  O   UNL     1     -34.220  12.693  59.017  1.00  0.00    -0.288 OA
ATOM     10  C   UNL     1     -33.518  14.705  57.968  1.00  0.00     0.076 A 
ATOM     11  C   UNL     1     -33.307  15.337  56.725  1.00  0.00     0.041 A 
ATOM     12  C   UNL     1     -33.914  14.772  55.499  1.00  0.00     0.194 C 
ATOM     13  O   UNL     1     -33.622  15.260  54.372  1.00  0.00    -0.289 OA
ATOM     14  C   UNL     1     -32.519  16.499  56.657  1.00  0.00     0.059 A 
ATOM     15  C   UNL     1     -31.949  17.039  57.810  1.00  0.00     0.120 A 
ATOM     16  C   UNL     1     -32.162  16.421  59.045  1.00  0.00     0.093 A 
ATOM     17  C   UNL     1     -32.943  15.262  59.135  1.00  0.00     0.131 A 
ENDROOT
BRANCH   6  18
ATOM     18  O   UNL     1     -36.577  11.488  58.132  1.00  0.00    -0.507 OA
ATOM     19  H   UNL     1     -37.545  11.452  58.417  1.00  0.00     0.293 HD
ENDBRANCH   6  18
BRANCH  17  20
ATOM     20  O   UNL     1     -33.151  14.672  60.382  1.00  0.00    -0.507 OA
ATOM     21  H   UNL     1     -33.803  15.061  61.054  1.00  0.00     0.293 HD
ENDBRANCH  17  20
BRANCH  15  22
ATOM     22  O   UNL     1     -31.172  18.191  57.718  1.00  0.00    -0.508 OA
ATOM     23  H   UNL     1     -30.168  18.167  57.855  1.00  0.00     0.293 HD
ENDBRANCH  15  22
TORSDOF 3
ENDMDL
MODEL 4
REMARK VINA RESULT:    -4.721      1.702      5.486
REMARK INTER + INTRA:          -5.134
REMARK INTER:                  -5.134
REMARK INTRA:                   0.000
REMARK UNBOUND:                 0.000
REMARK SMILES Cc1cc(O)c2c(c1)C(=O)c1cc(O)cc(O)c1C2=O
REMARK SMILES IDX 1 1 2 2 8 3 7 4 6 5 4 6 3 7 19 8 20 9 18 10 11 11 9 12 10 13
REMARK SMILES IDX 12 14 13 15 15 16 16 17 5 18 17 20 14 22
REMARK H PARENT 5 19 17 21 14 23
REMARK Flexibility Score: inf
ROOT
ATOM      1  C   UNL     1     -37.123  10.876  56.634  1.00  0.00     0.044 C 
ATOM      2  C   UNL     1     -36.270  11.984  57.179  1.00  0.00    -0.047 A 
ATOM      3  C   UNL     1     -35.292  12.580  56.375  1.00  0.00     0.016 A 
ATOM      4  C   UNL     1     -34.456  13.585  56.889  1.00  0.00     0.038 A 
ATOM      5  C   UNL     1     -34.581  13.986  58.241  1.00  0.00     0.076 A 
ATOM      6  C   UNL     1     -35.617  13.418  59.031  1.00  0.00     0.127 A 
ATOM      7  C   UNL     1     -36.418  12.401  58.505  1.00  0.00     0.050 A 
ATOM      8  C   UNL     1     -33.577  14.938  58.792  1.00  0.00     0.201 C 
ATOM      9  O   UNL     1     -33.384  15.005  60.035  1.00  0.00    -0.288 OA
ATOM     10  C   UNL     1     -32.717  15.731  57.875  1.00  0.00     0.076 A 
ATOM     11  C   UNL     1     -32.645  15.366  56.514  1.00  0.00     0.041 A 
ATOM     12  C   UNL     1     -33.450  14.230  56.012  1.00  0.00     0.194 C 
ATOM     13  O   UNL     1     -33.291  13.822  54.828  1.00  0.00    -0.289 OA
ATOM     14  C   UNL     1     -31.806  16.083  55.643  1.00  0.00     0.059 A 
ATOM     15  C   UNL     1     -31.049  17.158  56.109  1.00  0.00     0.120 A 
ATOM     16  C   UNL     1     -31.124  17.528  57.455  1.00  0.00     0.093 A 
ATOM     17  C   UNL     1     -31.952  16.826  58.340  1.00  0.00     0.131 A 
ENDROOT
BRANCH   6  18
ATOM     18  O   UNL     1     -35.910  13.853  60.327  1.00  0.00    -0.507 OA
ATOM     19  H   UNL     1     -36.821  13.772  60.754  1.00  0.00     0.293 HD
ENDBRANCH   6  18
BRANCH  17  20
ATOM     20  O   UNL     1     -32.018  17.225  59.676  1.00  0.00    -0.507 OA
ATOM     21  H   UNL     1     -32.178  16.560  60.424  1.00  0.00     0.293 HD
ENDBRANCH  17  20
BRANCH  15  22
ATOM     22  O   UNL     1     -30.226  17.853  55.227  1.00  0.00    -0.508 OA
ATOM     23  H   UNL     1     -30.585  18.598  54.641  1.00  0.00     0.293 HD
ENDBRANCH  15  22
TORSDOF 3
ENDMDL
MODEL 5
REMARK VINA RESULT:    -4.439      1.755      6.214
REMARK INTER + INTRA:          -4.828
REMARK INTER:                  -4.828
REMARK INTRA:                   0.000
REMARK UNBOUND:                 0.000
REMARK SMILES Cc1cc(O)c2c(c1)C(=O)c1cc(O)cc(O)c1C2=O
REMARK SMILES IDX 1 1 2 2 8 3 7 4 6 5 4 6 3 7 19 8 20 9 18 10 11 11 9 12 10 13
REMARK SMILES IDX 12 14 13 15 15 16 16 17 5 18 17 20 14 22
REMARK H PARENT 5 19 17 21 14 23
REMARK Flexibility Score: inf
ROOT
ATOM      1  C   UNL     1     -37.124  10.883  57.879  1.00  0.00     0.044 C 
ATOM      2  C   UNL     1     -36.360  12.036  57.296  1.00  0.00    -0.047 A 
ATOM      3  C   UNL     1     -35.219  12.522  57.941  1.00  0.00     0.016 A 
ATOM      4  C   UNL     1     -34.523  13.631  57.430  1.00  0.00     0.038 A 
ATOM      5  C   UNL     1     -34.992  14.283  56.264  1.00  0.00     0.076 A 
ATOM      6  C   UNL     1     -36.117  13.744  55.582  1.00  0.00     0.127 A 
ATOM      7  C   UNL     1     -36.806  12.657  56.126  1.00  0.00     0.050 A 
ATOM      8  C   UNL     1     -34.323  15.545  55.842  1.00  0.00     0.201 C 
ATOM      9  O   UNL     1     -34.927  16.364  55.099  1.00  0.00    -0.288 OA
ATOM     10  C   UNL     1     -32.986  15.900  56.387  1.00  0.00     0.076 A 
ATOM     11  C   UNL     1     -32.495  15.204  57.511  1.00  0.00     0.041 A 
ATOM     12  C   UNL     1     -33.294  14.110  58.107  1.00  0.00     0.194 C 
ATOM     13  O   UNL     1     -32.918  13.573  59.186  1.00  0.00    -0.289 OA
ATOM     14  C   UNL     1     -31.249  15.554  58.060  1.00  0.00     0.059 A 
ATOM     15  C   UNL     1     -30.489  16.581  57.499  1.00  0.00     0.120 A 
ATOM     16  C   UNL     1     -30.968  17.268  56.380  1.00  0.00     0.093 A 
ATOM     17  C   UNL     1     -32.207  16.936  55.818  1.00  0.00     0.131 A 
ENDROOT
BRANCH   6  18
ATOM     18  O   UNL     1     -36.563  14.230  54.351  1.00  0.00    -0.507 OA
ATOM     19  H   UNL     1     -37.528  14.203  54.053  1.00  0.00     0.293 HD
ENDBRANCH   6  18
BRANCH  17  20
ATOM     20  O   UNL     1     -32.655  17.629  54.693  1.00  0.00    -0.507 OA
ATOM     21  H   UNL     1     -33.267  18.433  54.771  1.00  0.00     0.293 HD
ENDBRANCH  17  20
BRANCH  15  22
ATOM     22  O   UNL     1     -29.258  16.910  58.061  1.00  0.00    -0.508 OA
ATOM     23  H   UNL     1     -29.125  16.944  59.066  1.00  0.00     0.293 HD
ENDBRANCH  15  22
TORSDOF 3
ENDMDL
MODEL 6
REMARK VINA RESULT:    -4.247      2.702      6.119
REMARK INTER + INTRA:          -4.619
REMARK INTER:                  -4.619
REMARK INTRA:                   0.000
REMARK UNBOUND:                 0.000
REMARK SMILES Cc1cc(O)c2c(c1)C(=O)c1cc(O)cc(O)c1C2=O
REMARK SMILES IDX 1 1 2 2 8 3 7 4 6 5 4 6 3 7 19 8 20 9 18 10 11 11 9 12 10 13
REMARK SMILES IDX 12 14 13 15 15 16 16 17 5 18 17 20 14 22
REMARK H PARENT 5 19 17 21 14 23
REMARK Flexibility Score: inf
ROOT
ATOM      1  C   UNL     1     -37.033  11.518  56.216  1.00  0.00     0.044 C 
ATOM      2  C   UNL     1     -35.650  12.094  56.307  1.00  0.00    -0.047 A 
ATOM      3  C   UNL     1     -35.470  13.471  56.472  1.00  0.00     0.016 A 
ATOM      4  C   UNL     1     -34.179  14.026  56.511  1.00  0.00     0.038 A 
ATOM      5  C   UNL     1     -33.047  13.192  56.357  1.00  0.00     0.076 A 
ATOM      6  C   UNL     1     -33.238  11.788  56.251  1.00  0.00     0.127 A 
ATOM      7  C   UNL     1     -34.531  11.263  56.188  1.00  0.00     0.050 A 
ATOM      8  C   UNL     1     -31.706  13.834  56.246  1.00  0.00     0.201 C 
ATOM      9  O   UNL     1     -30.751  13.214  55.708  1.00  0.00    -0.288 OA
ATOM     10  C   UNL     1     -31.518  15.247  56.664  1.00  0.00     0.076 A 
ATOM     11  C   UNL     1     -32.653  16.058  56.878  1.00  0.00     0.041 A 
ATOM     12  C   UNL     1     -34.008  15.484  56.722  1.00  0.00     0.194 C 
ATOM     13  O   UNL     1     -35.020  16.235  56.788  1.00  0.00    -0.289 OA
ATOM     14  C   UNL     1     -32.490  17.407  57.236  1.00  0.00     0.059 A 
ATOM     15  C   UNL     1     -31.215  17.953  57.390  1.00  0.00     0.120 A 
ATOM     16  C   UNL     1     -30.088  17.152  57.186  1.00  0.00     0.093 A 
ATOM     17  C   UNL     1     -30.228  15.805  56.828  1.00  0.00     0.131 A 
ENDROOT
BRANCH   6  18
ATOM     18  O   UNL     1     -32.179  10.875  56.241  1.00  0.00    -0.507 OA
ATOM     19  H   UNL     1     -32.018  10.194  56.969  1.00  0.00     0.293 HD
ENDBRANCH   6  18
BRANCH  17  20
ATOM     20  O   UNL     1     -29.086  15.024  56.644  1.00  0.00    -0.507 OA
ATOM     21  H   UNL     1     -28.303  15.347  56.088  1.00  0.00     0.293 HD
ENDBRANCH  17  20
BRANCH  15  22
ATOM     22  O   UNL     1     -31.079  19.292  57.745  1.00  0.00    -0.508 OA
ATOM     23  H   UNL     1     -30.282  19.621  58.278  1.00  0.00     0.293 HD
ENDBRANCH  15  22
TORSDOF 3
ENDMDL
MODEL 7
REMARK VINA RESULT:    -3.978      3.605      6.298
REMARK INTER + INTRA:          -4.326
REMARK INTER:                  -4.326
REMARK INTRA:                   0.000
REMARK UNBOUND:                 0.000
REMARK SMILES Cc1cc(O)c2c(c1)C(=O)c1cc(O)cc(O)c1C2=O
REMARK SMILES IDX 1 1 2 2 8 3 7 4 6 5 4 6 3 7 19 8 20 9 18 10 11 11 9 12 10 13
REMARK SMILES IDX 12 14 13 15 15 16 16 17 5 18 17 20 14 22
REMARK H PARENT 5 19 17 21 14 23
REMARK Flexibility Score: inf
ROOT
ATOM      1  C   UNL     1     -26.000  21.723  55.971  1.00  0.00     0.044 C 
ATOM      2  C   UNL     1     -27.067  20.885  56.613  1.00  0.00    -0.047 A 
ATOM      3  C   UNL     1     -27.880  20.058  55.831  1.00  0.00     0.016 A 
ATOM      4  C   UNL     1     -28.913  19.306  56.416  1.00  0.00     0.038 A 
ATOM      5  C   UNL     1     -29.155  19.401  57.807  1.00  0.00     0.076 A 
ATOM      6  C   UNL     1     -28.286  20.196  58.602  1.00  0.00     0.127 A 
ATOM      7  C   UNL     1     -27.284  20.956  57.993  1.00  0.00     0.050 A 
ATOM      8  C   UNL     1     -30.353  18.713  58.365  1.00  0.00     0.201 C 
ATOM      9  O   UNL     1     -30.843  19.087  59.463  1.00  0.00    -0.288 OA
ATOM     10  C   UNL     1     -31.045  17.660  57.575  1.00  0.00     0.076 A 
ATOM     11  C   UNL     1     -30.753  17.528  56.201  1.00  0.00     0.041 A 
ATOM     12  C   UNL     1     -29.740  18.407  55.576  1.00  0.00     0.194 C 
ATOM     13  O   UNL     1     -29.569  18.378  54.325  1.00  0.00    -0.289 OA
ATOM     14  C   UNL     1     -31.427  16.562  55.434  1.00  0.00     0.059 A 
ATOM     15  C   UNL     1     -32.378  15.727  56.020  1.00  0.00     0.120 A 
ATOM     16  C   UNL     1     -32.665  15.849  57.382  1.00  0.00     0.093 A 
ATOM     17  C   UNL     1     -32.006  16.806  58.165  1.00  0.00     0.131 A 
ENDROOT
BRANCH   6  18
ATOM     18  O   UNL     1     -28.357  20.237  59.997  1.00  0.00    -0.507 OA
ATOM     19  H   UNL     1     -28.456  21.090  60.529  1.00  0.00     0.293 HD
ENDBRANCH   6  18
BRANCH  17  20
ATOM     20  O   UNL     1     -32.302  16.897  59.525  1.00  0.00    -0.507 OA
ATOM     21  H   UNL     1     -32.441  16.073  60.098  1.00  0.00     0.293 HD
ENDBRANCH  17  20
BRANCH  15  22
ATOM     22  O   UNL     1     -33.033  14.778  55.239  1.00  0.00    -0.508 OA
ATOM     23  H   UNL     1     -33.832  15.023  54.664  1.00  0.00     0.293 HD
ENDBRANCH  15  22
TORSDOF 3
ENDMDL
MODEL 8
REMARK VINA RESULT:    -3.972      2.361      2.775
REMARK INTER + INTRA:          -4.320
REMARK INTER:                  -4.320
REMARK INTRA:                   0.000
REMARK UNBOUND:                 0.000
REMARK SMILES Cc1cc(O)c2c(c1)C(=O)c1cc(O)cc(O)c1C2=O
REMARK SMILES IDX 1 1 2 2 8 3 7 4 6 5 4 6 3 7 19 8 20 9 18 10 11 11 9 12 10 13
REMARK SMILES IDX 12 14 13 15 15 16 16 17 5 18 17 20 14 22
REMARK H PARENT 5 19 17 21 14 23
REMARK Flexibility Score: inf
ROOT
ATOM      1  C   UNL     1     -30.743  19.430  57.316  1.00  0.00     0.044 C 
ATOM      2  C   UNL     1     -31.020  17.983  57.030  1.00  0.00    -0.047 A 
ATOM      3  C   UNL     1     -32.331  17.545  56.818  1.00  0.00     0.016 A 
ATOM      4  C   UNL     1     -32.607  16.185  56.596  1.00  0.00     0.038 A 
ATOM      5  C   UNL     1     -31.554  15.239  56.612  1.00  0.00     0.076 A 
ATOM      6  C   UNL     1     -30.219  15.701  56.768  1.00  0.00     0.127 A 
ATOM      7  C   UNL     1     -29.974  17.055  57.013  1.00  0.00     0.050 A 
ATOM      8  C   UNL     1     -31.901  13.792  56.531  1.00  0.00     0.201 C 
ATOM      9  O   UNL     1     -31.090  12.923  56.947  1.00  0.00    -0.288 OA
ATOM     10  C   UNL     1     -33.249  13.373  56.066  1.00  0.00     0.076 A 
ATOM     11  C   UNL     1     -34.280  14.334  55.991  1.00  0.00     0.041 A 
ATOM     12  C   UNL     1     -33.998  15.745  56.337  1.00  0.00     0.194 C 
ATOM     13  O   UNL     1     -34.945  16.578  56.395  1.00  0.00    -0.289 OA
ATOM     14  C   UNL     1     -35.570  13.944  55.590  1.00  0.00     0.059 A 
ATOM     15  C   UNL     1     -35.839  12.616  55.258  1.00  0.00     0.120 A 
ATOM     16  C   UNL     1     -34.819  11.663  55.323  1.00  0.00     0.093 A 
ATOM     17  C   UNL     1     -33.528  12.030  55.721  1.00  0.00     0.131 A 
ENDROOT
BRANCH   6  18
ATOM     18  O   UNL     1     -29.106  14.864  56.653  1.00  0.00    -0.507 OA
ATOM     19  H   UNL     1     -28.795  14.240  57.384  1.00  0.00     0.293 HD
ENDBRANCH   6  18
BRANCH  17  20
ATOM     20  O   UNL     1     -32.525  11.061  55.764  1.00  0.00    -0.507 OA
ATOM     21  H   UNL     1     -31.546  11.301  55.659  1.00  0.00     0.293 HD
ENDBRANCH  17  20
BRANCH  15  22
ATOM     22  O   UNL     1     -37.125  12.254  54.863  1.00  0.00    -0.508 OA
ATOM     23  H   UNL     1     -37.853  12.059  55.541  1.00  0.00     0.293 HD
ENDBRANCH  15  22
TORSDOF 3
ENDMDL
MODEL 9
REMARK VINA RESULT:    -3.913      4.139      8.500
REMARK INTER + INTRA:          -4.256
REMARK INTER:                  -4.256
REMARK INTRA:                   0.000
REMARK UNBOUND:                 0.000
REMARK SMILES Cc1cc(O)c2c(c1)C(=O)c1cc(O)cc(O)c1C2=O
REMARK SMILES IDX 1 1 2 2 8 3 7 4 6 5 4 6 3 7 19 8 20 9 18 10 11 11 9 12 10 13
REMARK SMILES IDX 12 14 13 15 15 16 16 17 5 18 17 20 14 22
REMARK H PARENT 5 19 17 21 14 23
REMARK Flexibility Score: inf
ROOT
ATOM      1  C   UNL     1     -33.752  15.367  59.320  1.00  0.00     0.044 C 
ATOM      2  C   UNL     1     -32.703  15.971  58.432  1.00  0.00    -0.047 A 
ATOM      3  C   UNL     1     -31.997  17.104  58.848  1.00  0.00     0.016 A 
ATOM      4  C   UNL     1     -31.046  17.706  58.005  1.00  0.00     0.038 A 
ATOM      5  C   UNL     1     -30.815  17.180  56.712  1.00  0.00     0.076 A 
ATOM      6  C   UNL     1     -31.493  15.993  56.323  1.00  0.00     0.127 A 
ATOM      7  C   UNL     1     -32.453  15.430  57.168  1.00  0.00     0.050 A 
ATOM      8  C   UNL     1     -29.918  17.933  55.792  1.00  0.00     0.201 C 
ATOM      9  O   UNL     1     -29.999  17.761  54.547  1.00  0.00    -0.288 OA
ATOM     10  C   UNL     1     -29.004  18.976  56.327  1.00  0.00     0.076 A 
ATOM     11  C   UNL     1     -29.200  19.453  57.641  1.00  0.00     0.041 A 
ATOM     12  C   UNL     1     -30.281  18.884  58.477  1.00  0.00     0.194 C 
ATOM     13  O   UNL     1     -30.539  19.395  59.602  1.00  0.00    -0.289 OA
ATOM     14  C   UNL     1     -28.368  20.466  58.148  1.00  0.00     0.059 A 
ATOM     15  C   UNL     1     -27.344  21.001  57.366  1.00  0.00     0.120 A 
ATOM     16  C   UNL     1     -27.141  20.527  56.067  1.00  0.00     0.093 A 
ATOM     17  C   UNL     1     -27.960  19.519  55.542  1.00  0.00     0.131 A 
ENDROOT
BRANCH   6  18
ATOM     18  O   UNL     1     -31.224  15.321  55.127  1.00  0.00    -0.507 OA
ATOM     19  H   UNL     1     -31.602  14.413  54.896  1.00  0.00     0.293 HD
ENDBRANCH   6  18
BRANCH  17  20
ATOM     20  O   UNL     1     -27.727  19.054  54.247  1.00  0.00    -0.507 OA
ATOM     21  H   UNL     1     -26.926  18.475  54.024  1.00  0.00     0.293 HD
ENDBRANCH  17  20
BRANCH  15  22
ATOM     22  O   UNL     1     -26.532  22.004  57.890  1.00  0.00    -0.508 OA
ATOM     23  H   UNL     1     -26.924  22.830  58.328  1.00  0.00     0.293 HD
ENDBRANCH  15  22
TORSDOF 3
ENDMDL
