MODEL 1
REMARK VINA RESULT:    -4.437      0.000      0.000
REMARK INTER + INTRA:          -7.201
REMARK INTER:                  -6.772
REMARK INTRA:                  -0.429
REMARK UNBOUND:                -0.429
REMARK SMILES CC1=CCC[C@@H](C)C(=O)C[C@@H](C(C)C)C(=O)C1
REMARK SMILES IDX 8 1 9 2 6 3 7 4 5 5 4 6 3 7 2 8 1 9 10 11 11 12 15 13 16 14
REMARK SMILES IDX 17 15 12 17 13 18 14 19
REMARK H PARENT
REMARK Flexibility Score: 70.00
ROOT
ATOM      1  C   UNL     1     -19.469 -49.811  27.094  1.00  0.00     0.136 C 
ATOM      2  O   UNL     1     -20.117 -48.922  26.560  1.00  0.00    -0.299 OA
ENDROOT
BRANCH   1   3
ATOM      3  C   UNL     1     -19.036 -51.000  26.257  1.00  0.00     0.053 C 
ATOM      4  C   UNL     1     -18.357 -50.538  24.963  1.00  0.00     0.016 C 
BRANCH   3   5
ATOM      5  C   UNL     1     -20.216 -51.943  25.957  1.00  0.00     0.015 C 
BRANCH   5   6
ATOM      6  C   UNL     1     -20.205 -53.188  26.864  1.00  0.00     0.028 C 
BRANCH   6   7
ATOM      7  C   UNL     1     -21.370 -53.163  27.818  1.00  0.00    -0.028 C 
ATOM      8  C   UNL     1     -21.258 -53.075  29.164  1.00  0.00    -0.070 CG0
ATOM      9  C   UNL     1     -22.526 -53.000  29.977  1.00  0.00     0.039 C 
ATOM     10  G   UNL     1     -19.917 -53.064  29.884  1.00  0.00     0.000 G0
ENDBRANCH   6   7
ENDBRANCH   5   6
ENDBRANCH   3   5
ENDBRANCH   1   3
BRANCH   1  11
ATOM     11  C   UNL     1     -19.158 -49.696  28.570  1.00  0.00     0.087 C 
BRANCH  11  12
ATOM     12  C   UNL     1     -18.484 -50.979  29.130  1.00  0.00     0.066 C 
BRANCH  12  13
ATOM     13  C   UNL     1     -19.376 -51.672  30.150  1.00  0.00     0.140 C 
ATOM     14  O   UNL     1     -19.612 -51.127  31.220  1.00  0.00    -0.299 OA
BRANCH  13  15
ATOM     15  C   UNL     1     -19.913 -53.060  29.902  1.00  0.00     0.106 CG0
ATOM     16  G   UNL     1     -21.254 -53.038  29.182  1.00  0.00     0.000 G0
ENDBRANCH  13  15
ENDBRANCH  12  13
BRANCH  12  17
ATOM     17  C   UNL     1     -17.063 -50.726  29.728  1.00  0.00    -0.006 C 
ATOM     18  C   UNL     1     -16.017 -51.676  29.124  1.00  0.00     0.008 C 
ATOM     19  C   UNL     1     -16.581 -49.268  29.603  1.00  0.00     0.008 C 
ENDBRANCH  12  17
ENDBRANCH  11  12
ENDBRANCH   1  11
TORSDOF 1
ENDMDL
MODEL 2
REMARK VINA RESULT:    -4.336      4.548      7.001
REMARK INTER + INTRA:          -7.046
REMARK INTER:                  -6.661
REMARK INTRA:                  -0.385
REMARK UNBOUND:                -0.429
REMARK SMILES CC1=CCC[C@@H](C)C(=O)C[C@@H](C(C)C)C(=O)C1
REMARK SMILES IDX 8 1 9 2 6 3 7 4 5 5 4 6 3 7 2 8 1 9 10 11 11 12 15 13 16 14
REMARK SMILES IDX 17 15 12 17 13 18 14 19
REMARK H PARENT
REMARK Flexibility Score: 70.00
ROOT
ATOM      1  C   UNL     1     -22.891 -54.637  25.397  1.00  0.00     0.136 C 
ATOM      2  O   UNL     1     -21.935 -55.202  25.908  1.00  0.00    -0.299 OA
ENDROOT
BRANCH   1   3
ATOM      3  C   UNL     1     -22.633 -53.575  24.345  1.00  0.00     0.053 C 
ATOM      4  C   UNL     1     -22.138 -54.209  23.039  1.00  0.00     0.016 C 
BRANCH   3   5
ATOM      5  C   UNL     1     -21.645 -52.505  24.849  1.00  0.00     0.015 C 
BRANCH   5   6
ATOM      6  C   UNL     1     -22.371 -51.292  25.457  1.00  0.00     0.028 C 
BRANCH   6   7
ATOM      7  C   UNL     1     -22.406 -51.389  26.960  1.00  0.00    -0.028 C 
ATOM      8  C   UNL     1     -23.530 -51.576  27.692  1.00  0.00    -0.070 CG0
ATOM      9  C   UNL     1     -23.387 -51.714  29.186  1.00  0.00     0.039 C 
ATOM     10  G   UNL     1     -24.919 -51.638  27.073  1.00  0.00     0.000 G0
ENDBRANCH   6   7
ENDBRANCH   5   6
ENDBRANCH   3   5
ENDBRANCH   1   3
BRANCH   1  11
ATOM     11  C   UNL     1     -24.284 -55.003  25.861  1.00  0.00     0.087 C 
BRANCH  11  12
ATOM     12  C   UNL     1     -25.290 -53.832  25.681  1.00  0.00     0.066 C 
BRANCH  12  13
ATOM     13  C   UNL     1     -25.446 -53.036  26.969  1.00  0.00     0.140 C 
ATOM     14  O   UNL     1     -26.065 -53.517  27.909  1.00  0.00    -0.299 OA
BRANCH  13  15
ATOM     15  C   UNL     1     -24.923 -51.626  27.083  1.00  0.00     0.106 CG0
ATOM     16  G   UNL     1     -23.515 -51.580  27.661  1.00  0.00     0.000 G0
ENDBRANCH  13  15
ENDBRANCH  12  13
BRANCH  12  17
ATOM     17  C   UNL     1     -26.684 -54.287  25.145  1.00  0.00    -0.006 C 
ATOM     18  C   UNL     1     -27.212 -53.334  24.061  1.00  0.00     0.008 C 
ATOM     19  C   UNL     1     -26.715 -55.738  24.627  1.00  0.00     0.008 C 
ENDBRANCH  12  17
ENDBRANCH  11  12
ENDBRANCH   1  11
TORSDOF 1
ENDMDL
MODEL 3
REMARK VINA RESULT:    -4.314      1.740      3.826
REMARK INTER + INTRA:          -7.013
REMARK INTER:                  -6.581
REMARK INTRA:                  -0.433
REMARK UNBOUND:                -0.429
REMARK SMILES CC1=CCC[C@@H](C)C(=O)C[C@@H](C(C)C)C(=O)C1
REMARK SMILES IDX 8 1 9 2 6 3 7 4 5 5 4 6 3 7 2 8 1 9 10 11 11 12 15 13 16 14
REMARK SMILES IDX 17 15 12 17 13 18 14 19
REMARK H PARENT
REMARK Flexibility Score: 70.00
ROOT
ATOM      1  C   UNL     1     -17.203 -51.542  28.686  1.00  0.00     0.136 C 
ATOM      2  O   UNL     1     -16.065 -51.989  28.651  1.00  0.00    -0.299 OA
ENDROOT
BRANCH   1   3
ATOM      3  C   UNL     1     -17.622 -50.710  29.884  1.00  0.00     0.053 C 
ATOM      4  C   UNL     1     -16.823 -49.404  29.948  1.00  0.00     0.016 C 
BRANCH   3   5
ATOM      5  C   UNL     1     -17.493 -51.503  31.198  1.00  0.00     0.015 C 
BRANCH   5   6
ATOM      6  C   UNL     1     -18.502 -52.664  31.273  1.00  0.00     0.028 C 
BRANCH   6   7
ATOM      7  C   UNL     1     -19.910 -52.140  31.395  1.00  0.00    -0.028 C 
ATOM      8  C   UNL     1     -20.857 -52.257  30.436  1.00  0.00    -0.070 CG0
ATOM      9  C   UNL     1     -22.238 -51.733  30.737  1.00  0.00     0.039 C 
ATOM     10  G   UNL     1     -20.583 -52.876  29.072  1.00  0.00     0.000 G0
ENDBRANCH   6   7
ENDBRANCH   5   6
ENDBRANCH   3   5
ENDBRANCH   1   3
BRANCH   1  11
ATOM     11  C   UNL     1     -18.145 -51.866  27.548  1.00  0.00     0.087 C 
BRANCH  11  12
ATOM     12  C   UNL     1     -19.445 -51.015  27.601  1.00  0.00     0.066 C 
BRANCH  12  13
ATOM     13  C   UNL     1     -20.655 -51.875  27.935  1.00  0.00     0.140 C 
ATOM     14  O   UNL     1     -21.708 -51.701  27.337  1.00  0.00    -0.299 OA
BRANCH  13  15
ATOM     15  C   UNL     1     -20.608 -52.887  29.053  1.00  0.00     0.106 CG0
ATOM     16  G   UNL     1     -20.840 -52.250  30.416  1.00  0.00     0.000 G0
ENDBRANCH  13  15
ENDBRANCH  12  13
BRANCH  12  17
ATOM     17  C   UNL     1     -19.701 -50.190  26.299  1.00  0.00    -0.006 C 
ATOM     18  C   UNL     1     -19.639 -48.678  26.566  1.00  0.00     0.008 C 
ATOM     19  C   UNL     1     -18.766 -50.555  25.131  1.00  0.00     0.008 C 
ENDBRANCH  12  17
ENDBRANCH  11  12
ENDBRANCH   1  11
TORSDOF 1
ENDMDL
MODEL 4
REMARK VINA RESULT:    -4.245      5.076      7.019
REMARK INTER + INTRA:          -6.907
REMARK INTER:                  -6.510
REMARK INTRA:                  -0.397
REMARK UNBOUND:                -0.429
REMARK SMILES CC1=CCC[C@@H](C)C(=O)C[C@@H](C(C)C)C(=O)C1
REMARK SMILES IDX 8 1 9 2 6 3 7 4 5 5 4 6 3 7 2 8 1 9 10 11 11 12 15 13 16 14
REMARK SMILES IDX 17 15 12 17 13 18 14 19
REMARK H PARENT
REMARK Flexibility Score: 70.00
ROOT
ATOM      1  C   UNL     1     -25.896 -53.337  24.130  1.00  0.00     0.136 C 
ATOM      2  O   UNL     1     -26.540 -52.977  23.154  1.00  0.00    -0.299 OA
ENDROOT
BRANCH   1   3
ATOM      3  C   UNL     1     -26.622 -54.041  25.261  1.00  0.00     0.053 C 
ATOM      4  C   UNL     1     -27.168 -55.397  24.799  1.00  0.00     0.016 C 
BRANCH   3   5
ATOM      5  C   UNL     1     -27.744 -53.164  25.849  1.00  0.00     0.015 C 
BRANCH   5   6
ATOM      6  C   UNL     1     -27.189 -52.048  26.753  1.00  0.00     0.028 C 
BRANCH   6   7
ATOM      7  C   UNL     1     -26.396 -52.631  27.895  1.00  0.00    -0.028 C 
ATOM      8  C   UNL     1     -25.067 -52.451  28.076  1.00  0.00    -0.070 CG0
ATOM      9  C   UNL     1     -24.433 -53.050  29.305  1.00  0.00     0.039 C 
ATOM     10  G   UNL     1     -24.193 -51.687  27.092  1.00  0.00     0.000 G0
ENDBRANCH   6   7
ENDBRANCH   5   6
ENDBRANCH   3   5
ENDBRANCH   1   3
BRANCH   1  11
ATOM     11  C   UNL     1     -24.415 -53.035  24.175  1.00  0.00     0.087 C 
BRANCH  11  12
ATOM     12  C   UNL     1     -23.724 -53.664  25.416  1.00  0.00     0.066 C 
BRANCH  12  13
ATOM     13  C   UNL     1     -23.218 -52.591  26.370  1.00  0.00     0.140 C 
ATOM     14  O   UNL     1     -22.020 -52.497  26.598  1.00  0.00    -0.299 OA
BRANCH  13  15
ATOM     15  C   UNL     1     -24.176 -51.689  27.108  1.00  0.00     0.106 CG0
ATOM     16  G   UNL     1     -25.063 -52.460  28.075  1.00  0.00     0.000 G0
ENDBRANCH  13  15
ENDBRANCH  12  13
BRANCH  12  17
ATOM     17  C   UNL     1     -22.576 -54.659  25.052  1.00  0.00    -0.006 C 
ATOM     18  C   UNL     1     -22.985 -56.116  25.319  1.00  0.00     0.008 C 
ATOM     19  C   UNL     1     -22.056 -54.516  23.609  1.00  0.00     0.008 C 
ENDBRANCH  12  17
ENDBRANCH  11  12
ENDBRANCH   1  11
TORSDOF 1
ENDMDL
MODEL 5
REMARK VINA RESULT:    -4.052      3.230      5.442
REMARK INTER + INTRA:          -6.613
REMARK INTER:                  -6.526
REMARK INTRA:                  -0.087
REMARK UNBOUND:                -0.429
REMARK SMILES CC1=CCC[C@@H](C)C(=O)C[C@@H](C(C)C)C(=O)C1
REMARK SMILES IDX 8 1 9 2 6 3 7 4 5 5 4 6 3 7 2 8 1 9 10 11 11 12 15 13 16 14
REMARK SMILES IDX 17 15 12 17 13 18 14 19
REMARK H PARENT
REMARK Flexibility Score: 70.00
ROOT
ATOM      1  C   UNL     1     -21.209 -53.194  23.831  1.00  0.00     0.136 C 
ATOM      2  O   UNL     1     -21.772 -53.660  22.851  1.00  0.00    -0.299 OA
ENDROOT
BRANCH   1   3
ATOM      3  C   UNL     1     -20.423 -51.906  23.677  1.00  0.00     0.053 C 
ATOM      4  C   UNL     1     -19.272 -52.085  22.680  1.00  0.00     0.016 C 
BRANCH   3   5
ATOM      5  C   UNL     1     -19.905 -51.391  25.033  1.00  0.00     0.015 C 
BRANCH   5   6
ATOM      6  C   UNL     1     -20.850 -50.344  25.651  1.00  0.00     0.028 C 
BRANCH   6   7
ATOM      7  C   UNL     1     -20.779 -50.383  27.156  1.00  0.00    -0.028 C 
ATOM      8  C   UNL     1     -21.658 -51.040  27.949  1.00  0.00    -0.070 CG0
ATOM      9  C   UNL     1     -21.412 -51.033  29.436  1.00  0.00     0.039 C 
ATOM     10  G   UNL     1     -22.882 -51.764  27.406  1.00  0.00     0.000 G0
ENDBRANCH   6   7
ENDBRANCH   5   6
ENDBRANCH   3   5
ENDBRANCH   1   3
BRANCH   1  11
ATOM     11  C   UNL     1     -21.299 -53.942  25.143  1.00  0.00     0.087 C 
BRANCH  11  12
ATOM     12  C   UNL     1     -22.712 -53.839  25.782  1.00  0.00     0.066 C 
BRANCH  12  13
ATOM     13  C   UNL     1     -22.644 -53.236  27.179  1.00  0.00     0.140 C 
ATOM     14  O   UNL     1     -22.443 -53.962  28.144  1.00  0.00    -0.299 OA
BRANCH  13  15
ATOM     15  C   UNL     1     -22.902 -51.768  27.408  1.00  0.00     0.106 CG0
ATOM     16  G   UNL     1     -21.675 -51.046  27.948  1.00  0.00     0.000 G0
ENDBRANCH  13  15
ENDBRANCH  12  13
BRANCH  12  17
ATOM     17  C   UNL     1     -23.484 -55.196  25.808  1.00  0.00    -0.006 C 
ATOM     18  C   UNL     1     -24.955 -55.018  25.399  1.00  0.00     0.008 C 
ATOM     19  C   UNL     1     -22.834 -56.304  24.958  1.00  0.00     0.008 C 
ENDBRANCH  12  17
ENDBRANCH  11  12
ENDBRANCH   1  11
TORSDOF 1
ENDMDL
MODEL 6
REMARK VINA RESULT:    -4.044      1.840      4.040
REMARK INTER + INTRA:          -6.601
REMARK INTER:                  -6.399
REMARK INTRA:                  -0.202
REMARK UNBOUND:                -0.429
REMARK SMILES CC1=CCC[C@@H](C)C(=O)C[C@@H](C(C)C)C(=O)C1
REMARK SMILES IDX 8 1 9 2 6 3 7 4 5 5 4 6 3 7 2 8 1 9 10 11 11 12 15 13 16 14
REMARK SMILES IDX 17 15 12 17 13 18 14 19
REMARK H PARENT
REMARK Flexibility Score: 70.00
ROOT
ATOM      1  C   UNL     1     -19.105 -50.726  26.138  1.00  0.00     0.136 C 
ATOM      2  O   UNL     1     -18.445 -50.455  25.144  1.00  0.00    -0.299 OA
ENDROOT
BRANCH   1   3
ATOM      3  C   UNL     1     -19.388 -49.627  27.146  1.00  0.00     0.053 C 
ATOM      4  C   UNL     1     -19.512 -48.267  26.450  1.00  0.00     0.016 C 
BRANCH   3   5
ATOM      5  C   UNL     1     -18.320 -49.587  28.255  1.00  0.00     0.015 C 
BRANCH   5   6
ATOM      6  C   UNL     1     -18.392 -50.823  29.170  1.00  0.00     0.028 C 
BRANCH   6   7
ATOM      7  C   UNL     1     -19.687 -50.842  29.941  1.00  0.00    -0.028 C 
ATOM      8  C   UNL     1     -20.580 -51.858  29.915  1.00  0.00    -0.070 CG0
ATOM      9  C   UNL     1     -21.801 -51.751  30.794  1.00  0.00     0.039 C 
ATOM     10  G   UNL     1     -20.412 -53.086  29.031  1.00  0.00     0.000 G0
ENDBRANCH   6   7
ENDBRANCH   5   6
ENDBRANCH   3   5
ENDBRANCH   1   3
BRANCH   1  11
ATOM     11  C   UNL     1     -19.580 -52.149  26.327  1.00  0.00     0.087 C 
BRANCH  11  12
ATOM     12  C   UNL     1     -21.098 -52.223  26.653  1.00  0.00     0.066 C 
BRANCH  12  13
ATOM     13  C   UNL     1     -21.360 -53.101  27.868  1.00  0.00     0.140 C 
ATOM     14  O   UNL     1     -22.382 -53.772  27.923  1.00  0.00    -0.299 OA
BRANCH  13  15
ATOM     15  C   UNL     1     -20.422 -53.099  29.049  1.00  0.00     0.106 CG0
ATOM     16  G   UNL     1     -20.572 -51.847  29.901  1.00  0.00     0.000 G0
ENDBRANCH  13  15
ENDBRANCH  12  13
BRANCH  12  17
ATOM     17  C   UNL     1     -21.972 -52.685  25.443  1.00  0.00    -0.006 C 
ATOM     18  C   UNL     1     -22.658 -51.495  24.753  1.00  0.00     0.008 C 
ATOM     19  C   UNL     1     -21.209 -53.525  24.402  1.00  0.00     0.008 C 
ENDBRANCH  12  17
ENDBRANCH  11  12
ENDBRANCH   1  11
TORSDOF 1
ENDMDL
MODEL 7
REMARK VINA RESULT:    -4.038      3.880      6.450
REMARK INTER + INTRA:          -6.591
REMARK INTER:                  -6.345
REMARK INTRA:                  -0.246
REMARK UNBOUND:                -0.429
REMARK SMILES CC1=CCC[C@@H](C)C(=O)C[C@@H](C(C)C)C(=O)C1
REMARK SMILES IDX 8 1 9 2 6 3 7 4 5 5 4 6 3 7 2 8 1 9 10 11 11 12 15 13 16 14
REMARK SMILES IDX 17 15 12 17 13 18 14 19
REMARK H PARENT
REMARK Flexibility Score: 70.00
ROOT
ATOM      1  C   UNL     1     -24.853 -54.648  25.777  1.00  0.00     0.136 C 
ATOM      2  O   UNL     1     -26.039 -54.674  25.481  1.00  0.00    -0.299 OA
ENDROOT
BRANCH   1   3
ATOM      3  C   UNL     1     -23.835 -55.111  24.752  1.00  0.00     0.053 C 
ATOM      4  C   UNL     1     -22.701 -55.893  25.423  1.00  0.00     0.016 C 
BRANCH   3   5
ATOM      5  C   UNL     1     -23.282 -53.931  23.929  1.00  0.00     0.015 C 
BRANCH   5   6
ATOM      6  C   UNL     1     -21.847 -53.561  24.345  1.00  0.00     0.028 C 
BRANCH   6   7
ATOM      7  C   UNL     1     -21.732 -52.082  24.611  1.00  0.00    -0.028 C 
ATOM      8  C   UNL     1     -21.807 -51.515  25.838  1.00  0.00    -0.070 CG0
ATOM      9  C   UNL     1     -21.611 -50.024  25.941  1.00  0.00     0.039 C 
ATOM     10  G   UNL     1     -22.094 -52.312  27.102  1.00  0.00     0.000 G0
ENDBRANCH   6   7
ENDBRANCH   5   6
ENDBRANCH   3   5
ENDBRANCH   1   3
BRANCH   1  11
ATOM     11  C   UNL     1     -24.462 -54.184  27.163  1.00  0.00     0.087 C 
BRANCH  11  12
ATOM     12  C   UNL     1     -24.711 -52.664  27.366  1.00  0.00     0.066 C 
BRANCH  12  13
ATOM     13  C   UNL     1     -23.427 -51.939  27.741  1.00  0.00     0.140 C 
ATOM     14  O   UNL     1     -23.467 -50.994  28.518  1.00  0.00    -0.299 OA
BRANCH  13  15
ATOM     15  C   UNL     1     -22.108 -52.309  27.108  1.00  0.00     0.106 CG0
ATOM     16  G   UNL     1     -21.830 -51.504  25.847  1.00  0.00     0.000 G0
ENDBRANCH  13  15
ENDBRANCH  12  13
BRANCH  12  17
ATOM     17  C   UNL     1     -25.840 -52.351  28.400  1.00  0.00    -0.006 C 
ATOM     18  C   UNL     1     -26.936 -51.463  27.790  1.00  0.00     0.008 C 
ATOM     19  C   UNL     1     -26.473 -53.603  29.035  1.00  0.00     0.008 C 
ENDBRANCH  12  17
ENDBRANCH  11  12
ENDBRANCH   1  11
TORSDOF 1
ENDMDL
MODEL 8
REMARK VINA RESULT:    -4.012      4.117      5.824
REMARK INTER + INTRA:          -6.552
REMARK INTER:                  -6.114
REMARK INTRA:                  -0.438
REMARK UNBOUND:                -0.429
REMARK SMILES CC1=CCC[C@@H](C)C(=O)C[C@@H](C(C)C)C(=O)C1
REMARK SMILES IDX 8 1 9 2 6 3 7 4 5 5 4 6 3 7 2 8 1 9 10 11 11 12 15 13 16 14
REMARK SMILES IDX 17 15 12 17 13 18 14 19
REMARK H PARENT
REMARK Flexibility Score: 70.00
ROOT
ATOM      1  C   UNL     1     -24.010 -53.371  25.031  1.00  0.00     0.136 C 
ATOM      2  O   UNL     1     -24.372 -53.123  23.889  1.00  0.00    -0.299 OA
ENDROOT
BRANCH   1   3
ATOM      3  C   UNL     1     -24.116 -54.797  25.536  1.00  0.00     0.053 C 
ATOM      4  C   UNL     1     -23.361 -55.761  24.614  1.00  0.00     0.016 C 
BRANCH   3   5
ATOM      5  C   UNL     1     -25.585 -55.231  25.706  1.00  0.00     0.015 C 
BRANCH   5   6
ATOM      6  C   UNL     1     -26.102 -54.970  27.133  1.00  0.00     0.028 C 
BRANCH   6   7
ATOM      7  C   UNL     1     -26.874 -53.677  27.192  1.00  0.00    -0.028 C 
ATOM      8  C   UNL     1     -26.537 -52.617  27.963  1.00  0.00    -0.070 CG0
ATOM      9  C   UNL     1     -27.381 -51.372  27.862  1.00  0.00     0.039 C 
ATOM     10  G   UNL     1     -25.361 -52.636  28.929  1.00  0.00     0.000 G0
ENDBRANCH   6   7
ENDBRANCH   5   6
ENDBRANCH   3   5
ENDBRANCH   1   3
BRANCH   1  11
ATOM     11  C   UNL     1     -23.502 -52.236  25.893  1.00  0.00     0.087 C 
BRANCH  11  12
ATOM     12  C   UNL     1     -23.232 -52.685  27.356  1.00  0.00     0.066 C 
BRANCH  12  13
ATOM     13  C   UNL     1     -24.136 -51.949  28.335  1.00  0.00     0.140 C 
ATOM     14  O   UNL     1     -23.838 -50.823  28.709  1.00  0.00    -0.299 OA
BRANCH  13  15
ATOM     15  C   UNL     1     -25.356 -52.616  28.922  1.00  0.00     0.106 CG0
ATOM     16  G   UNL     1     -26.536 -52.603  27.960  1.00  0.00     0.000 G0
ENDBRANCH  13  15
ENDBRANCH  12  13
BRANCH  12  17
ATOM     17  C   UNL     1     -21.736 -52.548  27.783  1.00  0.00    -0.006 C 
ATOM     18  C   UNL     1     -21.396 -53.475  28.960  1.00  0.00     0.008 C 
ATOM     19  C   UNL     1     -20.733 -52.769  26.635  1.00  0.00     0.008 C 
ENDBRANCH  12  17
ENDBRANCH  11  12
ENDBRANCH   1  11
TORSDOF 1
ENDMDL
MODEL 9
REMARK VINA RESULT:    -3.847      2.042      3.252
REMARK INTER + INTRA:          -6.300
REMARK INTER:                  -6.177
REMARK INTRA:                  -0.123
REMARK UNBOUND:                -0.429
REMARK SMILES CC1=CCC[C@@H](C)C(=O)C[C@@H](C(C)C)C(=O)C1
REMARK SMILES IDX 8 1 9 2 6 3 7 4 5 5 4 6 3 7 2 8 1 9 10 11 11 12 15 13 16 14
REMARK SMILES IDX 17 15 12 17 13 18 14 19
REMARK H PARENT
REMARK Flexibility Score: 70.00
ROOT
ATOM      1  C   UNL     1     -19.122 -50.069  28.835  1.00  0.00     0.136 C 
ATOM      2  O   UNL     1     -18.173 -49.842  29.572  1.00  0.00    -0.299 OA
ENDROOT
BRANCH   1   3
ATOM      3  C   UNL     1     -18.955 -49.847  27.343  1.00  0.00     0.053 C 
ATOM      4  C   UNL     1     -20.099 -48.990  26.788  1.00  0.00     0.016 C 
BRANCH   3   5
ATOM      5  C   UNL     1     -18.843 -51.180  26.580  1.00  0.00     0.015 C 
BRANCH   5   6
ATOM      6  C   UNL     1     -19.888 -51.291  25.455  1.00  0.00     0.028 C 
BRANCH   6   7
ATOM      7  C   UNL     1     -20.548 -52.646  25.471  1.00  0.00    -0.028 C 
ATOM      8  C   UNL     1     -21.572 -52.991  26.285  1.00  0.00    -0.070 CG0
ATOM      9  C   UNL     1     -22.164 -54.370  26.134  1.00  0.00     0.039 C 
ATOM     10  G   UNL     1     -22.136 -52.059  27.348  1.00  0.00     0.000 G0
ENDBRANCH   6   7
ENDBRANCH   5   6
ENDBRANCH   3   5
ENDBRANCH   1   3
BRANCH   1  11
ATOM     11  C   UNL     1     -20.425 -50.530  29.450  1.00  0.00     0.087 C 
BRANCH  11  12
ATOM     12  C   UNL     1     -20.556 -52.078  29.455  1.00  0.00     0.066 C 
BRANCH  12  13
ATOM     13  C   UNL     1     -21.830 -52.526  28.752  1.00  0.00     0.140 C 
ATOM     14  O   UNL     1     -22.574 -53.330  29.298  1.00  0.00    -0.299 OA
BRANCH  13  15
ATOM     15  C   UNL     1     -22.155 -52.062  27.354  1.00  0.00     0.106 CG0
ATOM     16  G   UNL     1     -21.573 -52.985  26.292  1.00  0.00     0.000 G0
ENDBRANCH  13  15
ENDBRANCH  12  13
BRANCH  12  17
ATOM     17  C   UNL     1     -20.468 -52.706  30.882  1.00  0.00    -0.006 C 
ATOM     18  C   UNL     1     -19.030 -53.124  31.229  1.00  0.00     0.008 C 
ATOM     19  C   UNL     1     -21.037 -51.810  31.998  1.00  0.00     0.008 C 
ENDBRANCH  12  17
ENDBRANCH  11  12
ENDBRANCH   1  11
TORSDOF 1
ENDMDL
