MODEL 1
REMARK VINA RESULT:     1.670      0.000      0.000
REMARK INTER + INTRA:           1.994
REMARK INTER:                   2.060
REMARK INTRA:                  -0.066
REMARK UNBOUND:                -0.066
REMARK SMILES CC(C)=CCC[C@H](C)c1ccc(C)cc1
REMARK SMILES IDX 6 1 7 2 8 3 9 4 13 5 12 6 11 7 14 8 10 9 15 10 5 11 4 12
REMARK SMILES IDX 2 13 1 14 3 15
REMARK H PARENT
REMARK Flexibility Score: inf
ROOT
ATOM      1  C   UNL     1      19.673 -15.448  20.290  1.00  0.00     0.012 C 
ENDROOT
BRANCH   1   2
ATOM      2  C   UNL     1      18.325 -14.875  19.800  1.00  0.00     0.016 C 
ATOM      3  C   UNL     1      17.122 -15.569  20.459  1.00  0.00     0.013 C 
BRANCH   2   4
ATOM      4  C   UNL     1      18.227 -14.971  18.288  1.00  0.00    -0.045 A 
ATOM      5  C   UNL     1      17.917 -15.259  13.990  1.00  0.00     0.044 C 
ATOM      6  C   UNL     1      18.021 -15.128  15.480  1.00  0.00    -0.051 A 
ATOM      7  C   UNL     1      19.274 -14.973  16.090  1.00  0.00     0.004 A 
ATOM      8  C   UNL     1      16.875 -15.229  16.281  1.00  0.00     0.004 A 
ATOM      9  C   UNL     1      19.377 -14.887  17.480  1.00  0.00     0.004 A 
ATOM     10  C   UNL     1      16.975 -15.144  17.673  1.00  0.00     0.004 A 
ENDBRANCH   2   4
ENDBRANCH   1   2
BRANCH   1  11
ATOM     11  C   UNL     1      19.885 -15.258  21.800  1.00  0.00     0.028 C 
BRANCH  11  12
ATOM     12  C   UNL     1      19.505 -16.509  22.553  1.00  0.00    -0.028 C 
ATOM     13  C   UNL     1      18.448 -16.606  23.389  1.00  0.00    -0.080 C 
ATOM     14  C   UNL     1      17.491 -15.456  23.607  1.00  0.00     0.039 C 
ATOM     15  C   UNL     1      18.216 -17.910  24.106  1.00  0.00     0.039 C 
ENDBRANCH  11  12
ENDBRANCH   1  11
TORSDOF 4
ENDMDL
MODEL 2
REMARK VINA RESULT:     3.304      1.242      2.542
REMARK INTER + INTRA:           4.011
REMARK INTER:                   3.722
REMARK INTRA:                   0.288
REMARK UNBOUND:                -0.066
REMARK SMILES CC(C)=CCC[C@H](C)c1ccc(C)cc1
REMARK SMILES IDX 6 1 7 2 8 3 9 4 13 5 12 6 11 7 14 8 10 9 15 10 5 11 4 12
REMARK SMILES IDX 2 13 1 14 3 15
REMARK H PARENT
REMARK Flexibility Score: inf
ROOT
ATOM      1  C   UNL     1      20.317 -16.111  22.680  1.00  0.00     0.012 C 
ENDROOT
BRANCH   1   2
ATOM      2  C   UNL     1      19.395 -14.915  22.351  1.00  0.00     0.016 C 
ATOM      3  C   UNL     1      18.127 -14.899  23.220  1.00  0.00     0.013 C 
BRANCH   2   4
ATOM      4  C   UNL     1      19.026 -14.920  20.878  1.00  0.00    -0.045 A 
ATOM      5  C   UNL     1      17.943 -14.948  16.697  1.00  0.00     0.044 C 
ATOM      6  C   UNL     1      18.321 -14.907  18.148  1.00  0.00    -0.051 A 
ATOM      7  C   UNL     1      19.668 -14.970  18.530  1.00  0.00     0.004 A 
ATOM      8  C   UNL     1      17.327 -14.876  19.136  1.00  0.00     0.004 A 
ATOM      9  C   UNL     1      20.020 -14.969  19.882  1.00  0.00     0.004 A 
ATOM     10  C   UNL     1      17.676 -14.875  20.490  1.00  0.00     0.004 A 
ENDBRANCH   2   4
ENDBRANCH   1   2
BRANCH   1  11
ATOM     11  C   UNL     1      19.873 -16.873  23.937  1.00  0.00     0.028 C 
BRANCH  11  12
ATOM     12  C   UNL     1      19.128 -18.130  23.564  1.00  0.00    -0.028 C 
ATOM     13  C   UNL     1      17.787 -18.275  23.641  1.00  0.00    -0.080 C 
ATOM     14  C   UNL     1      16.882 -17.142  24.067  1.00  0.00     0.039 C 
ATOM     15  C   UNL     1      17.186 -19.607  23.273  1.00  0.00     0.039 C 
ENDBRANCH  11  12
ENDBRANCH   1  11
TORSDOF 4
ENDMDL
MODEL 3
REMARK VINA RESULT:     3.322     15.373     17.041
REMARK INTER + INTRA:           4.033
REMARK INTER:                   4.669
REMARK INTRA:                  -0.636
REMARK UNBOUND:                -0.066
REMARK SMILES CC(C)=CCC[C@H](C)c1ccc(C)cc1
REMARK SMILES IDX 6 1 7 2 8 3 9 4 13 5 12 6 11 7 14 8 10 9 15 10 5 11 4 12
REMARK SMILES IDX 2 13 1 14 3 15
REMARK H PARENT
REMARK Flexibility Score: inf
ROOT
ATOM      1  C   UNL     1      27.010 -29.122  20.309  1.00  0.00     0.012 C 
ENDROOT
BRANCH   1   2
ATOM      2  C   UNL     1      26.811 -27.598  20.461  1.00  0.00     0.016 C 
ATOM      3  C   UNL     1      25.988 -26.999  19.308  1.00  0.00     0.013 C 
BRANCH   2   4
ATOM      4  C   UNL     1      28.153 -26.897  20.573  1.00  0.00    -0.045 A 
ATOM      5  C   UNL     1      31.971 -24.908  20.926  1.00  0.00     0.044 C 
ATOM      6  C   UNL     1      30.659 -25.622  20.788  1.00  0.00    -0.051 A 
ATOM      7  C   UNL     1      29.822 -25.356  19.695  1.00  0.00     0.004 A 
ATOM      8  C   UNL     1      30.228 -26.508  21.784  1.00  0.00     0.004 A 
ATOM      9  C   UNL     1      28.583 -25.992  19.583  1.00  0.00     0.004 A 
ATOM     10  C   UNL     1      28.988 -27.146  21.675  1.00  0.00     0.004 A 
ENDBRANCH   2   4
ENDBRANCH   1   2
BRANCH   1  11
ATOM     11  C   UNL     1      27.766 -29.495  19.025  1.00  0.00     0.028 C 
BRANCH  11  12
ATOM     12  C   UNL     1      27.282 -30.818  18.485  1.00  0.00    -0.028 C 
ATOM     13  C   UNL     1      28.072 -31.731  17.878  1.00  0.00    -0.080 C 
ATOM     14  C   UNL     1      29.563 -31.528  17.731  1.00  0.00     0.039 C 
ATOM     15  C   UNL     1      27.439 -32.992  17.352  1.00  0.00     0.039 C 
ENDBRANCH  11  12
ENDBRANCH   1  11
TORSDOF 4
ENDMDL
MODEL 4
REMARK VINA RESULT:     3.395     15.386     17.049
REMARK INTER + INTRA:           4.123
REMARK INTER:                   4.751
REMARK INTRA:                  -0.628
REMARK UNBOUND:                -0.066
REMARK SMILES CC(C)=CCC[C@H](C)c1ccc(C)cc1
REMARK SMILES IDX 6 1 7 2 8 3 9 4 13 5 12 6 11 7 14 8 10 9 15 10 5 11 4 12
REMARK SMILES IDX 2 13 1 14 3 15
REMARK H PARENT
REMARK Flexibility Score: inf
ROOT
ATOM      1  C   UNL     1      27.014 -29.139  20.304  1.00  0.00     0.012 C 
ENDROOT
BRANCH   1   2
ATOM      2  C   UNL     1      26.817 -27.615  20.464  1.00  0.00     0.016 C 
ATOM      3  C   UNL     1      25.993 -27.009  19.316  1.00  0.00     0.013 C 
BRANCH   2   4
ATOM      4  C   UNL     1      28.160 -26.916  20.578  1.00  0.00    -0.045 A 
ATOM      5  C   UNL     1      31.981 -24.923  20.865  1.00  0.00     0.044 C 
ATOM      6  C   UNL     1      30.641 -25.592  20.781  1.00  0.00    -0.051 A 
ATOM      7  C   UNL     1      30.240 -26.498  21.772  1.00  0.00     0.004 A 
ATOM      8  C   UNL     1      29.807 -25.369  19.676  1.00  0.00     0.004 A 
ATOM      9  C   UNL     1      29.008 -27.150  21.677  1.00  0.00     0.004 A 
ATOM     10  C   UNL     1      28.574 -26.020  19.578  1.00  0.00     0.004 A 
ENDBRANCH   2   4
ENDBRANCH   1   2
BRANCH   1  11
ATOM     11  C   UNL     1      27.775 -29.506  19.021  1.00  0.00     0.028 C 
BRANCH  11  12
ATOM     12  C   UNL     1      27.306 -30.834  18.482  1.00  0.00    -0.028 C 
ATOM     13  C   UNL     1      28.105 -31.738  17.875  1.00  0.00    -0.080 C 
ATOM     14  C   UNL     1      29.593 -31.518  17.725  1.00  0.00     0.039 C 
ATOM     15  C   UNL     1      27.486 -33.006  17.349  1.00  0.00     0.039 C 
ENDBRANCH  11  12
ENDBRANCH   1  11
TORSDOF 4
ENDMDL
MODEL 5
REMARK VINA RESULT:     4.565      1.832      3.338
REMARK INTER + INTRA:           5.566
REMARK INTER:                   4.360
REMARK INTRA:                   1.206
REMARK UNBOUND:                -0.066
REMARK SMILES CC(C)=CCC[C@H](C)c1ccc(C)cc1
REMARK SMILES IDX 6 1 7 2 8 3 9 4 13 5 12 6 11 7 14 8 10 9 15 10 5 11 4 12
REMARK SMILES IDX 2 13 1 14 3 15
REMARK H PARENT
REMARK Flexibility Score: inf
ROOT
ATOM      1  C   UNL     1      19.917 -15.605  21.684  1.00  0.00     0.012 C 
ENDROOT
BRANCH   1   2
ATOM      2  C   UNL     1      18.568 -14.946  21.319  1.00  0.00     0.016 C 
ATOM      3  C   UNL     1      17.381 -15.604  22.043  1.00  0.00     0.013 C 
BRANCH   2   4
ATOM      4  C   UNL     1      18.353 -14.976  19.817  1.00  0.00    -0.045 A 
ATOM      5  C   UNL     1      17.775 -15.044  15.537  1.00  0.00     0.044 C 
ATOM      6  C   UNL     1      17.978 -15.051  17.023  1.00  0.00    -0.051 A 
ATOM      7  C   UNL     1      16.877 -15.128  17.886  1.00  0.00     0.004 A 
ATOM      8  C   UNL     1      19.265 -14.911  17.561  1.00  0.00     0.004 A 
ATOM      9  C   UNL     1      17.061 -15.098  19.271  1.00  0.00     0.004 A 
ATOM     10  C   UNL     1      19.453 -14.881  18.946  1.00  0.00     0.004 A 
ENDBRANCH   2   4
ENDBRANCH   1   2
BRANCH   1  11
ATOM     11  C   UNL     1      20.614 -14.913  22.865  1.00  0.00     0.028 C 
BRANCH  11  12
ATOM     12  C   UNL     1      22.109 -14.899  22.668  1.00  0.00    -0.028 C 
ATOM     13  C   UNL     1      22.721 -14.912  21.463  1.00  0.00    -0.080 C 
ATOM     14  C   UNL     1      21.941 -14.885  20.169  1.00  0.00     0.039 C 
ATOM     15  C   UNL     1      24.227 -14.938  21.422  1.00  0.00     0.039 C 
ENDBRANCH  11  12
ENDBRANCH   1  11
TORSDOF 4
ENDMDL
