MODEL 1
REMARK VINA RESULT:    -4.981      0.000      0.000
REMARK INTER + INTRA:         -16.845
REMARK INTER:                 -13.135
REMARK INTRA:                  -3.710
REMARK UNBOUND:                -3.710
REMARK SMILES CCCCCCCCCCCCCCCCCCCCCCCCCCCCCC(=O)[O-]
REMARK SMILES IDX 16 1 17 2 18 3 19 4 20 5 21 6 22 7 23 8 24 9 25 10 26 11
REMARK SMILES IDX 27 12 28 13 29 14 30 15 31 16 32 17 15 18 14 19 13 20 12 21
REMARK SMILES IDX 11 22 10 23 9 24 8 25 7 26 6 27 5 28 4 29 3 30 2 31 1 32
REMARK H PARENT
REMARK Flexibility Score: inf
ROOT
ATOM      1  C   UNL     1       6.468   9.602 -14.757  1.00  0.00     0.000 C 
ENDROOT
BRANCH   1   2
ATOM      2  C   UNL     1       6.530   9.961 -13.259  1.00  0.00     0.000 C 
BRANCH   2   3
ATOM      3  C   UNL     1       7.611   9.211 -12.453  1.00  0.00     0.000 C 
BRANCH   3   4
ATOM      4  C   UNL     1       7.885   9.778 -11.046  1.00  0.00     0.000 C 
BRANCH   4   5
ATOM      5  C   UNL     1       8.848  10.978 -11.010  1.00  0.00     0.000 C 
BRANCH   5   6
ATOM      6  C   UNL     1       8.118  12.326 -10.878  1.00  0.00     0.000 C 
BRANCH   6   7
ATOM      7  C   UNL     1       8.439  13.297 -12.028  1.00  0.00     0.000 C 
BRANCH   7   8
ATOM      8  C   UNL     1       7.259  13.612 -12.966  1.00  0.00     0.000 C 
BRANCH   8   9
ATOM      9  C   UNL     1       5.962  12.889 -12.565  1.00  0.00     0.000 C 
BRANCH   9  10
ATOM     10  C   UNL     1       4.734  13.394 -13.344  1.00  0.00     0.000 C 
BRANCH  10  11
ATOM     11  C   UNL     1       3.560  12.396 -13.433  1.00  0.00     0.000 C 
BRANCH  11  12
ATOM     12  C   UNL     1       2.818  12.370 -14.783  1.00  0.00     0.000 C 
BRANCH  12  13
ATOM     13  C   UNL     1       1.405  11.757 -14.743  1.00  0.00     0.006 C 
BRANCH  13  14
ATOM     14  C   UNL     1       1.369  10.253 -15.079  1.00  0.00     0.053 C 
BRANCH  14  15
ATOM     15  C   UNL     1       1.442   9.997 -16.554  1.00  0.00     0.041 C 
ATOM     16  O   UNL     1       1.647   8.832 -16.987  1.00  0.00    -0.550 OA
ATOM     17  O   UNL     1       1.315  11.048 -17.452  1.00  0.00    -0.550 OA
ENDBRANCH  14  15
ENDBRANCH  13  14
ENDBRANCH  12  13
ENDBRANCH  11  12
ENDBRANCH  10  11
ENDBRANCH   9  10
ENDBRANCH   8   9
ENDBRANCH   7   8
ENDBRANCH   6   7
ENDBRANCH   5   6
ENDBRANCH   4   5
ENDBRANCH   3   4
ENDBRANCH   2   3
ENDBRANCH   1   2
BRANCH   1  18
ATOM     18  C   UNL     1       5.821  10.670 -15.662  1.00  0.00     0.000 C 
BRANCH  18  19
ATOM     19  C   UNL     1       6.798  11.700 -16.257  1.00  0.00     0.000 C 
BRANCH  19  20
ATOM     20  C   UNL     1       6.144  13.072 -16.501  1.00  0.00     0.000 C 
BRANCH  20  21
ATOM     21  C   UNL     1       5.457  13.164 -17.879  1.00  0.00     0.000 C 
BRANCH  21  22
ATOM     22  C   UNL     1       4.140  13.960 -17.864  1.00  0.00     0.000 C 
BRANCH  22  23
ATOM     23  C   UNL     1       4.154  15.124 -16.850  1.00  0.00     0.000 C 
BRANCH  23  24
ATOM     24  C   UNL     1       2.921  16.029 -16.993  1.00  0.00    -0.000 C 
BRANCH  24  25
ATOM     25  C   UNL     1       1.611  15.229 -16.841  1.00  0.00    -0.000 C 
BRANCH  25  26
ATOM     26  C   UNL     1       0.371  16.132 -16.683  1.00  0.00    -0.000 C 
BRANCH  26  27
ATOM     27  C   UNL     1       0.700  17.584 -16.292  1.00  0.00    -0.000 C 
BRANCH  27  28
ATOM     28  C   UNL     1      -0.490  18.322 -15.657  1.00  0.00    -0.000 C 
BRANCH  28  29
ATOM     29  C   UNL     1      -0.897  17.726 -14.300  1.00  0.00    -0.000 C 
BRANCH  29  30
ATOM     30  C   UNL     1      -2.366  17.266 -14.276  1.00  0.00    -0.000 C 
BRANCH  30  31
ATOM     31  C   UNL     1      -3.186  17.849 -15.437  1.00  0.00    -0.003 C 
ATOM     32  C   UNL     1      -4.665  18.027 -15.090  1.00  0.00     0.004 C 
ENDBRANCH  30  31
ENDBRANCH  29  30
ENDBRANCH  28  29
ENDBRANCH  27  28
ENDBRANCH  26  27
ENDBRANCH  25  26
ENDBRANCH  24  25
ENDBRANCH  23  24
ENDBRANCH  22  23
ENDBRANCH  21  22
ENDBRANCH  20  21
ENDBRANCH  19  20
ENDBRANCH  18  19
ENDBRANCH   1  18
TORSDOF 28
ENDMDL
MODEL 2
REMARK VINA RESULT:    -4.131      2.668      8.555
REMARK INTER + INTRA:         -14.603
REMARK INTER:                 -11.497
REMARK INTRA:                  -3.106
REMARK UNBOUND:                -3.710
REMARK SMILES CCCCCCCCCCCCCCCCCCCCCCCCCCCCCC(=O)[O-]
REMARK SMILES IDX 16 1 17 2 18 3 19 4 20 5 21 6 22 7 23 8 24 9 25 10 26 11
REMARK SMILES IDX 27 12 28 13 29 14 30 15 31 16 32 17 15 18 14 19 13 20 12 21
REMARK SMILES IDX 11 22 10 23 9 24 8 25 7 26 6 27 5 28 4 29 3 30 2 31 1 32
REMARK H PARENT
REMARK Flexibility Score: inf
ROOT
ATOM      1  C   UNL     1       1.260  10.458 -14.710  1.00  0.00     0.000 C 
ENDROOT
BRANCH   1   2
ATOM      2  C   UNL     1       1.044  11.968 -14.488  1.00  0.00     0.000 C 
BRANCH   2   3
ATOM      3  C   UNL     1       0.236  12.680 -15.593  1.00  0.00     0.000 C 
BRANCH   3   4
ATOM      4  C   UNL     1       0.782  12.491 -17.023  1.00  0.00     0.000 C 
BRANCH   4   5
ATOM      5  C   UNL     1       0.873  13.783 -17.853  1.00  0.00     0.000 C 
BRANCH   5   6
ATOM      6  C   UNL     1       2.323  14.255 -18.067  1.00  0.00     0.000 C 
BRANCH   6   7
ATOM      7  C   UNL     1       2.886  15.027 -16.862  1.00  0.00     0.000 C 
BRANCH   7   8
ATOM      8  C   UNL     1       3.483  16.409 -17.190  1.00  0.00     0.000 C 
BRANCH   8   9
ATOM      9  C   UNL     1       2.615  17.574 -16.687  1.00  0.00     0.000 C 
BRANCH   9  10
ATOM     10  C   UNL     1       1.596  18.053 -17.737  1.00  0.00     0.000 C 
BRANCH  10  11
ATOM     11  C   UNL     1       0.161  18.261 -17.209  1.00  0.00     0.000 C 
BRANCH  11  12
ATOM     12  C   UNL     1      -0.680  16.979 -17.061  1.00  0.00     0.000 C 
BRANCH  12  13
ATOM     13  C   UNL     1      -2.066  17.021 -17.732  1.00  0.00     0.006 C 
BRANCH  13  14
ATOM     14  C   UNL     1      -3.166  16.292 -16.936  1.00  0.00     0.053 C 
BRANCH  14  15
ATOM     15  C   UNL     1      -4.525  16.480 -17.538  1.00  0.00     0.041 C 
ATOM     16  O   UNL     1      -4.960  17.638 -17.776  1.00  0.00    -0.550 OA
ATOM     17  O   UNL     1      -5.328  15.379 -17.809  1.00  0.00    -0.550 OA
ENDBRANCH  14  15
ENDBRANCH  13  14
ENDBRANCH  12  13
ENDBRANCH  11  12
ENDBRANCH  10  11
ENDBRANCH   9  10
ENDBRANCH   8   9
ENDBRANCH   7   8
ENDBRANCH   6   7
ENDBRANCH   5   6
ENDBRANCH   4   5
ENDBRANCH   3   4
ENDBRANCH   2   3
ENDBRANCH   1   2
BRANCH   1  18
ATOM     18  C   UNL     1       2.544  10.084 -15.478  1.00  0.00     0.000 C 
BRANCH  18  19
ATOM     19  C   UNL     1       3.797  10.888 -15.085  1.00  0.00     0.000 C 
BRANCH  19  20
ATOM     20  C   UNL     1       4.334  11.758 -16.235  1.00  0.00     0.000 C 
BRANCH  20  21
ATOM     21  C   UNL     1       5.873  11.726 -16.332  1.00  0.00     0.000 C 
BRANCH  21  22
ATOM     22  C   UNL     1       6.533  13.108 -16.178  1.00  0.00     0.000 C 
BRANCH  22  23
ATOM     23  C   UNL     1       6.087  13.845 -14.896  1.00  0.00     0.000 C 
BRANCH  23  24
ATOM     24  C   UNL     1       6.689  13.216 -13.630  1.00  0.00    -0.000 C 
BRANCH  24  25
ATOM     25  C   UNL     1       7.756  14.131 -12.996  1.00  0.00    -0.000 C 
BRANCH  25  26
ATOM     26  C   UNL     1       7.909  13.912 -11.477  1.00  0.00    -0.000 C 
BRANCH  26  27
ATOM     27  C   UNL     1       9.125  13.050 -11.089  1.00  0.00    -0.000 C 
BRANCH  27  28
ATOM     28  C   UNL     1       8.747  11.815 -10.257  1.00  0.00    -0.000 C 
BRANCH  28  29
ATOM     29  C   UNL     1       9.063  10.496 -10.982  1.00  0.00    -0.000 C 
BRANCH  29  30
ATOM     30  C   UNL     1       7.841   9.564 -11.068  1.00  0.00    -0.000 C 
BRANCH  30  31
ATOM     31  C   UNL     1       7.549   9.103 -12.504  1.00  0.00    -0.003 C 
ATOM     32  C   UNL     1       6.510   9.974 -13.210  1.00  0.00     0.004 C 
ENDBRANCH  30  31
ENDBRANCH  29  30
ENDBRANCH  28  29
ENDBRANCH  27  28
ENDBRANCH  26  27
ENDBRANCH  25  26
ENDBRANCH  24  25
ENDBRANCH  23  24
ENDBRANCH  22  23
ENDBRANCH  21  22
ENDBRANCH  20  21
ENDBRANCH  19  20
ENDBRANCH  18  19
ENDBRANCH   1  18
TORSDOF 28
ENDMDL
MODEL 3
REMARK VINA RESULT:    -4.083      2.308      9.070
REMARK INTER + INTRA:         -14.478
REMARK INTER:                 -10.747
REMARK INTRA:                  -3.731
REMARK UNBOUND:                -3.710
REMARK SMILES CCCCCCCCCCCCCCCCCCCCCCCCCCCCCC(=O)[O-]
REMARK SMILES IDX 16 1 17 2 18 3 19 4 20 5 21 6 22 7 23 8 24 9 25 10 26 11
REMARK SMILES IDX 27 12 28 13 29 14 30 15 31 16 32 17 15 18 14 19 13 20 12 21
REMARK SMILES IDX 11 22 10 23 9 24 8 25 7 26 6 27 5 28 4 29 3 30 2 31 1 32
REMARK H PARENT
REMARK Flexibility Score: inf
ROOT
ATOM      1  C   UNL     1      -1.954  15.521 -17.004  1.00  0.00     0.000 C 
ENDROOT
BRANCH   1   2
ATOM      2  C   UNL     1      -2.274  16.936 -17.527  1.00  0.00     0.000 C 
BRANCH   2   3
ATOM      3  C   UNL     1      -2.953  17.870 -16.503  1.00  0.00     0.000 C 
BRANCH   3   4
ATOM      4  C   UNL     1      -2.892  17.387 -15.041  1.00  0.00     0.000 C 
BRANCH   4   5
ATOM      5  C   UNL     1      -1.939  18.187 -14.136  1.00  0.00     0.000 C 
BRANCH   5   6
ATOM      6  C   UNL     1      -0.455  17.918 -14.445  1.00  0.00     0.000 C 
BRANCH   6   7
ATOM      7  C   UNL     1       0.253  19.125 -15.084  1.00  0.00     0.000 C 
BRANCH   7   8
ATOM      8  C   UNL     1       0.622  18.955 -16.570  1.00  0.00     0.000 C 
BRANCH   8   9
ATOM      9  C   UNL     1       2.074  18.494 -16.780  1.00  0.00     0.000 C 
BRANCH   9  10
ATOM     10  C   UNL     1       2.271  17.732 -18.103  1.00  0.00     0.000 C 
BRANCH  10  11
ATOM     11  C   UNL     1       2.892  16.327 -17.962  1.00  0.00     0.000 C 
BRANCH  11  12
ATOM     12  C   UNL     1       3.561  16.034 -16.606  1.00  0.00     0.000 C 
BRANCH  12  13
ATOM     13  C   UNL     1       4.195  14.636 -16.475  1.00  0.00     0.006 C 
BRANCH  13  14
ATOM     14  C   UNL     1       5.182  14.291 -17.607  1.00  0.00     0.053 C 
BRANCH  14  15
ATOM     15  C   UNL     1       6.583  14.107 -17.106  1.00  0.00     0.041 C 
ATOM     16  O   UNL     1       7.438  13.511 -17.814  1.00  0.00    -0.550 OA
ATOM     17  O   UNL     1       6.939  14.565 -15.844  1.00  0.00    -0.550 OA
ENDBRANCH  14  15
ENDBRANCH  13  14
ENDBRANCH  12  13
ENDBRANCH  11  12
ENDBRANCH  10  11
ENDBRANCH   9  10
ENDBRANCH   8   9
ENDBRANCH   7   8
ENDBRANCH   6   7
ENDBRANCH   5   6
ENDBRANCH   4   5
ENDBRANCH   3   4
ENDBRANCH   2   3
ENDBRANCH   1   2
BRANCH   1  18
ATOM     18  C   UNL     1      -0.453  15.201 -16.853  1.00  0.00     0.000 C 
BRANCH  18  19
ATOM     19  C   UNL     1       0.083  14.120 -17.810  1.00  0.00     0.000 C 
BRANCH  19  20
ATOM     20  C   UNL     1       0.919  13.046 -17.090  1.00  0.00     0.000 C 
BRANCH  20  21
ATOM     21  C   UNL     1       0.647  13.003 -15.573  1.00  0.00     0.000 C 
BRANCH  21  22
ATOM     22  C   UNL     1       1.768  12.332 -14.760  1.00  0.00     0.000 C 
BRANCH  22  23
ATOM     23  C   UNL     1       2.443  11.169 -15.518  1.00  0.00     0.000 C 
BRANCH  23  24
ATOM     24  C   UNL     1       3.862  11.530 -15.984  1.00  0.00    -0.000 C 
BRANCH  24  25
ATOM     25  C   UNL     1       4.899  10.500 -15.491  1.00  0.00    -0.000 C 
BRANCH  25  26
ATOM     26  C   UNL     1       6.092  11.150 -14.762  1.00  0.00    -0.000 C 
BRANCH  26  27
ATOM     27  C   UNL     1       5.768  11.632 -13.336  1.00  0.00    -0.000 C 
BRANCH  27  28
ATOM     28  C   UNL     1       6.646  12.808 -12.882  1.00  0.00    -0.000 C 
BRANCH  28  29
ATOM     29  C   UNL     1       7.549  12.444 -11.690  1.00  0.00    -0.000 C 
BRANCH  29  30
ATOM     30  C   UNL     1       8.802  13.333 -11.608  1.00  0.00    -0.000 C 
BRANCH  30  31
ATOM     31  C   UNL     1       8.655  14.469 -10.585  1.00  0.00    -0.003 C 
ATOM     32  C   UNL     1       9.084  15.829 -11.138  1.00  0.00     0.004 C 
ENDBRANCH  30  31
ENDBRANCH  29  30
ENDBRANCH  28  29
ENDBRANCH  27  28
ENDBRANCH  26  27
ENDBRANCH  25  26
ENDBRANCH  24  25
ENDBRANCH  23  24
ENDBRANCH  22  23
ENDBRANCH  21  22
ENDBRANCH  20  21
ENDBRANCH  19  20
ENDBRANCH  18  19
ENDBRANCH   1  18
TORSDOF 28
ENDMDL
MODEL 4
REMARK VINA RESULT:    -4.019      3.230      9.247
REMARK INTER + INTRA:         -14.308
REMARK INTER:                 -11.646
REMARK INTRA:                  -2.662
REMARK UNBOUND:                -3.710
REMARK SMILES CCCCCCCCCCCCCCCCCCCCCCCCCCCCCC(=O)[O-]
REMARK SMILES IDX 16 1 17 2 18 3 19 4 20 5 21 6 22 7 23 8 24 9 25 10 26 11
REMARK SMILES IDX 27 12 28 13 29 14 30 15 31 16 32 17 15 18 14 19 13 20 12 21
REMARK SMILES IDX 11 22 10 23 9 24 8 25 7 26 6 27 5 28 4 29 3 30 2 31 1 32
REMARK H PARENT
REMARK Flexibility Score: inf
ROOT
ATOM      1  C   UNL     1       1.291  10.039 -15.254  1.00  0.00     0.000 C 
ENDROOT
BRANCH   1   2
ATOM      2  C   UNL     1       1.169  11.078 -14.122  1.00  0.00     0.000 C 
BRANCH   2   3
ATOM      3  C   UNL     1       0.184  12.232 -14.400  1.00  0.00     0.000 C 
BRANCH   3   4
ATOM      4  C   UNL     1       0.177  12.746 -15.854  1.00  0.00     0.000 C 
BRANCH   4   5
ATOM      5  C   UNL     1       0.966  14.047 -16.081  1.00  0.00     0.000 C 
BRANCH   5   6
ATOM      6  C   UNL     1       1.330  14.274 -17.559  1.00  0.00     0.000 C 
BRANCH   6   7
ATOM      7  C   UNL     1       1.377  15.763 -17.944  1.00  0.00     0.000 C 
BRANCH   7   8
ATOM      8  C   UNL     1       0.002  16.436 -18.116  1.00  0.00     0.000 C 
BRANCH   8   9
ATOM      9  C   UNL     1      -0.495  17.125 -16.834  1.00  0.00     0.000 C 
BRANCH   9  10
ATOM     10  C   UNL     1      -1.751  16.456 -16.247  1.00  0.00     0.000 C 
BRANCH  10  11
ATOM     11  C   UNL     1      -3.092  17.062 -16.711  1.00  0.00     0.000 C 
BRANCH  11  12
ATOM     12  C   UNL     1      -3.805  17.954 -15.678  1.00  0.00     0.000 C 
BRANCH  12  13
ATOM     13  C   UNL     1      -5.337  18.031 -15.822  1.00  0.00     0.006 C 
BRANCH  13  14
ATOM     14  C   UNL     1      -5.945  16.872 -16.635  1.00  0.00     0.053 C 
BRANCH  14  15
ATOM     15  C   UNL     1      -7.411  17.059 -16.886  1.00  0.00     0.041 C 
ATOM     16  O   UNL     1      -8.169  16.059 -16.999  1.00  0.00    -0.550 OA
ATOM     17  O   UNL     1      -7.938  18.336 -17.026  1.00  0.00    -0.550 OA
ENDBRANCH  14  15
ENDBRANCH  13  14
ENDBRANCH  12  13
ENDBRANCH  11  12
ENDBRANCH  10  11
ENDBRANCH   9  10
ENDBRANCH   8   9
ENDBRANCH   7   8
ENDBRANCH   6   7
ENDBRANCH   5   6
ENDBRANCH   4   5
ENDBRANCH   3   4
ENDBRANCH   2   3
ENDBRANCH   1   2
BRANCH   1  18
ATOM     18  C   UNL     1       2.550  10.173 -16.135  1.00  0.00     0.000 C 
BRANCH  18  19
ATOM     19  C   UNL     1       3.752  10.854 -15.456  1.00  0.00     0.000 C 
BRANCH  19  20
ATOM     20  C   UNL     1       4.266  12.077 -16.237  1.00  0.00     0.000 C 
BRANCH  20  21
ATOM     21  C   UNL     1       5.795  12.052 -16.436  1.00  0.00     0.000 C 
BRANCH  21  22
ATOM     22  C   UNL     1       6.494  13.362 -16.032  1.00  0.00     0.000 C 
BRANCH  22  23
ATOM     23  C   UNL     1       6.093  13.846 -14.622  1.00  0.00     0.000 C 
BRANCH  23  24
ATOM     24  C   UNL     1       6.827  13.071 -13.515  1.00  0.00    -0.000 C 
BRANCH  24  25
ATOM     25  C   UNL     1       7.766  13.990 -12.709  1.00  0.00    -0.000 C 
BRANCH  25  26
ATOM     26  C   UNL     1       8.129  13.413 -11.325  1.00  0.00    -0.000 C 
BRANCH  26  27
ATOM     27  C   UNL     1       8.947  12.110 -11.386  1.00  0.00    -0.000 C 
BRANCH  27  28
ATOM     28  C   UNL     1       8.366  10.992 -10.506  1.00  0.00    -0.000 C 
BRANCH  28  29
ATOM     29  C   UNL     1       8.418   9.616 -11.191  1.00  0.00    -0.000 C 
BRANCH  29  30
ATOM     30  C   UNL     1       7.209   9.370 -12.111  1.00  0.00    -0.000 C 
BRANCH  30  31
ATOM     31  C   UNL     1       7.586   8.613 -13.394  1.00  0.00    -0.003 C 
ATOM     32  C   UNL     1       6.776   9.063 -14.611  1.00  0.00     0.004 C 
ENDBRANCH  30  31
ENDBRANCH  29  30
ENDBRANCH  28  29
ENDBRANCH  27  28
ENDBRANCH  26  27
ENDBRANCH  25  26
ENDBRANCH  24  25
ENDBRANCH  23  24
ENDBRANCH  22  23
ENDBRANCH  21  22
ENDBRANCH  20  21
ENDBRANCH  19  20
ENDBRANCH  18  19
ENDBRANCH   1  18
TORSDOF 28
ENDMDL
MODEL 5
REMARK VINA RESULT:    -3.933     13.397     16.947
REMARK INTER + INTRA:         -14.082
REMARK INTER:                 -10.399
REMARK INTRA:                  -3.683
REMARK UNBOUND:                -3.710
REMARK SMILES CCCCCCCCCCCCCCCCCCCCCCCCCCCCCC(=O)[O-]
REMARK SMILES IDX 16 1 17 2 18 3 19 4 20 5 21 6 22 7 23 8 24 9 25 10 26 11
REMARK SMILES IDX 27 12 28 13 29 14 30 15 31 16 32 17 15 18 14 19 13 20 12 21
REMARK SMILES IDX 11 22 10 23 9 24 8 25 7 26 6 27 5 28 4 29 3 30 2 31 1 32
REMARK H PARENT
REMARK Flexibility Score: inf
ROOT
ATOM      1  C   UNL     1      -3.796   8.505  -7.685  1.00  0.00     0.000 C 
ENDROOT
BRANCH   1   2
ATOM      2  C   UNL     1      -4.864   9.195  -6.814  1.00  0.00     0.000 C 
BRANCH   2   3
ATOM      3  C   UNL     1      -5.757  10.209  -7.560  1.00  0.00     0.000 C 
BRANCH   3   4
ATOM      4  C   UNL     1      -5.090  10.900  -8.766  1.00  0.00     0.000 C 
BRANCH   4   5
ATOM      5  C   UNL     1      -6.068  11.573  -9.746  1.00  0.00     0.000 C 
BRANCH   5   6
ATOM      6  C   UNL     1      -6.871  10.558 -10.579  1.00  0.00     0.000 C 
BRANCH   6   7
ATOM      7  C   UNL     1      -6.082   9.273 -10.882  1.00  0.00     0.000 C 
BRANCH   7   8
ATOM      8  C   UNL     1      -6.898   7.969 -10.796  1.00  0.00     0.000 C 
BRANCH   8   9
ATOM      9  C   UNL     1      -7.912   7.969  -9.639  1.00  0.00     0.000 C 
BRANCH   9  10
ATOM     10  C   UNL     1      -8.750   6.680  -9.582  1.00  0.00     0.000 C 
BRANCH  10  11
ATOM     11  C   UNL     1     -10.278   6.889  -9.635  1.00  0.00     0.000 C 
BRANCH  11  12
ATOM     12  C   UNL     1     -11.125   5.690  -9.169  1.00  0.00     0.000 C 
BRANCH  12  13
ATOM     13  C   UNL     1     -10.765   5.133  -7.778  1.00  0.00     0.006 C 
BRANCH  13  14
ATOM     14  C   UNL     1     -10.820   6.185  -6.653  1.00  0.00     0.053 C 
BRANCH  14  15
ATOM     15  C   UNL     1      -9.544   6.248  -5.870  1.00  0.00     0.041 C 
ATOM     16  O   UNL     1      -9.401   5.553  -4.829  1.00  0.00    -0.550 OA
ATOM     17  O   UNL     1      -8.521   7.099  -6.269  1.00  0.00    -0.550 OA
ENDBRANCH  14  15
ENDBRANCH  13  14
ENDBRANCH  12  13
ENDBRANCH  11  12
ENDBRANCH  10  11
ENDBRANCH   9  10
ENDBRANCH   8   9
ENDBRANCH   7   8
ENDBRANCH   6   7
ENDBRANCH   5   6
ENDBRANCH   4   5
ENDBRANCH   3   4
ENDBRANCH   2   3
ENDBRANCH   1   2
BRANCH   1  18
ATOM     18  C   UNL     1      -3.322   7.129  -7.175  1.00  0.00     0.000 C 
BRANCH  18  19
ATOM     19  C   UNL     1      -4.445   6.116  -6.890  1.00  0.00     0.000 C 
BRANCH  19  20
ATOM     20  C   UNL     1      -5.573   6.163  -7.937  1.00  0.00     0.000 C 
BRANCH  20  21
ATOM     21  C   UNL     1      -5.447   5.046  -8.992  1.00  0.00     0.000 C 
BRANCH  21  22
ATOM     22  C   UNL     1      -6.234   3.771  -8.644  1.00  0.00     0.000 C 
BRANCH  22  23
ATOM     23  C   UNL     1      -7.583   3.676  -9.389  1.00  0.00     0.000 C 
BRANCH  23  24
ATOM     24  C   UNL     1      -8.368   2.413  -9.004  1.00  0.00    -0.000 C 
BRANCH  24  25
ATOM     25  C   UNL     1      -9.829   2.484  -9.492  1.00  0.00    -0.000 C 
BRANCH  25  26
ATOM     26  C   UNL     1     -10.533   1.112  -9.484  1.00  0.00    -0.000 C 
BRANCH  26  27
ATOM     27  C   UNL     1      -9.640  -0.046  -9.001  1.00  0.00    -0.000 C 
BRANCH  27  28
ATOM     28  C   UNL     1     -10.366  -1.012  -8.051  1.00  0.00    -0.000 C 
BRANCH  28  29
ATOM     29  C   UNL     1     -10.930  -0.305  -6.808  1.00  0.00    -0.000 C 
BRANCH  29  30
ATOM     30  C   UNL     1      -9.880   0.575  -6.105  1.00  0.00    -0.000 C 
BRANCH  30  31
ATOM     31  C   UNL     1     -10.417   1.971  -5.756  1.00  0.00    -0.003 C 
ATOM     32  C   UNL     1     -10.099   2.390  -4.320  1.00  0.00     0.004 C 
ENDBRANCH  30  31
ENDBRANCH  29  30
ENDBRANCH  28  29
ENDBRANCH  27  28
ENDBRANCH  26  27
ENDBRANCH  25  26
ENDBRANCH  24  25
ENDBRANCH  23  24
ENDBRANCH  22  23
ENDBRANCH  21  22
ENDBRANCH  20  21
ENDBRANCH  19  20
ENDBRANCH  18  19
ENDBRANCH   1  18
TORSDOF 28
ENDMDL
MODEL 6
REMARK VINA RESULT:    -3.746      2.657      5.353
REMARK INTER + INTRA:         -13.589
REMARK INTER:                 -10.520
REMARK INTRA:                  -3.069
REMARK UNBOUND:                -3.710
REMARK SMILES CCCCCCCCCCCCCCCCCCCCCCCCCCCCCC(=O)[O-]
REMARK SMILES IDX 16 1 17 2 18 3 19 4 20 5 21 6 22 7 23 8 24 9 25 10 26 11
REMARK SMILES IDX 27 12 28 13 29 14 30 15 31 16 32 17 15 18 14 19 13 20 12 21
REMARK SMILES IDX 11 22 10 23 9 24 8 25 7 26 6 27 5 28 4 29 3 30 2 31 1 32
REMARK H PARENT
REMARK Flexibility Score: inf
ROOT
ATOM      1  C   UNL     1       1.505  11.045 -15.751  1.00  0.00     0.000 C 
ENDROOT
BRANCH   1   2
ATOM      2  C   UNL     1       2.411  10.909 -14.512  1.00  0.00     0.000 C 
BRANCH   2   3
ATOM      3  C   UNL     1       2.666  12.224 -13.744  1.00  0.00     0.000 C 
BRANCH   3   4
ATOM      4  C   UNL     1       4.152  12.583 -13.543  1.00  0.00     0.000 C 
BRANCH   4   5
ATOM      5  C   UNL     1       4.819  13.264 -14.751  1.00  0.00     0.000 C 
BRANCH   5   6
ATOM      6  C   UNL     1       6.003  12.456 -15.313  1.00  0.00     0.000 C 
BRANCH   6   7
ATOM      7  C   UNL     1       5.608  11.030 -15.735  1.00  0.00     0.000 C 
BRANCH   7   8
ATOM      8  C   UNL     1       6.492   9.909 -15.156  1.00  0.00     0.000 C 
BRANCH   8   9
ATOM      9  C   UNL     1       6.503   9.885 -13.618  1.00  0.00     0.000 C 
BRANCH   9  10
ATOM     10  C   UNL     1       7.305   8.702 -13.046  1.00  0.00     0.000 C 
BRANCH  10  11
ATOM     11  C   UNL     1       8.288   9.065 -11.914  1.00  0.00     0.000 C 
BRANCH  11  12
ATOM     12  C   UNL     1       7.692   9.897 -10.763  1.00  0.00     0.000 C 
BRANCH  12  13
ATOM     13  C   UNL     1       8.611  11.002 -10.208  1.00  0.00     0.006 C 
BRANCH  13  14
ATOM     14  C   UNL     1       9.091  12.007 -11.272  1.00  0.00     0.053 C 
BRANCH  14  15
ATOM     15  C   UNL     1       8.230  13.233 -11.328  1.00  0.00     0.041 C 
ATOM     16  O   UNL     1       7.176  13.239 -12.017  1.00  0.00    -0.550 OA
ATOM     17  O   UNL     1       8.607  14.382 -10.644  1.00  0.00    -0.550 OA
ENDBRANCH  14  15
ENDBRANCH  13  14
ENDBRANCH  12  13
ENDBRANCH  11  12
ENDBRANCH  10  11
ENDBRANCH   9  10
ENDBRANCH   8   9
ENDBRANCH   7   8
ENDBRANCH   6   7
ENDBRANCH   5   6
ENDBRANCH   4   5
ENDBRANCH   3   4
ENDBRANCH   2   3
ENDBRANCH   1   2
BRANCH   1  18
ATOM     18  C   UNL     1       1.551  12.419 -16.451  1.00  0.00     0.000 C 
BRANCH  18  19
ATOM     19  C   UNL     1       2.656  12.574 -17.512  1.00  0.00     0.000 C 
BRANCH  19  20
ATOM     20  C   UNL     1       2.718  13.992 -18.107  1.00  0.00     0.000 C 
BRANCH  20  21
ATOM     21  C   UNL     1       2.618  15.091 -17.029  1.00  0.00     0.000 C 
BRANCH  21  22
ATOM     22  C   UNL     1       2.244  16.476 -17.587  1.00  0.00     0.000 C 
BRANCH  22  23
ATOM     23  C   UNL     1       0.746  16.597 -17.937  1.00  0.00     0.000 C 
BRANCH  23  24
ATOM     24  C   UNL     1      -0.023  15.300 -17.640  1.00  0.00    -0.000 C 
BRANCH  24  25
ATOM     25  C   UNL     1      -1.216  15.553 -16.696  1.00  0.00    -0.000 C 
BRANCH  25  26
ATOM     26  C   UNL     1      -0.783  16.058 -15.304  1.00  0.00    -0.000 C 
BRANCH  26  27
ATOM     27  C   UNL     1      -1.318  17.457 -14.952  1.00  0.00    -0.000 C 
BRANCH  27  28
ATOM     28  C   UNL     1      -2.843  17.489 -14.760  1.00  0.00    -0.000 C 
BRANCH  28  29
ATOM     29  C   UNL     1      -3.571  18.171 -15.931  1.00  0.00    -0.000 C 
BRANCH  29  30
ATOM     30  C   UNL     1      -4.484  17.201 -16.702  1.00  0.00    -0.000 C 
BRANCH  30  31
ATOM     31  C   UNL     1      -5.972  17.553 -16.561  1.00  0.00    -0.003 C 
ATOM     32  C   UNL     1      -6.214  18.785 -15.689  1.00  0.00     0.004 C 
ENDBRANCH  30  31
ENDBRANCH  29  30
ENDBRANCH  28  29
ENDBRANCH  27  28
ENDBRANCH  26  27
ENDBRANCH  25  26
ENDBRANCH  24  25
ENDBRANCH  23  24
ENDBRANCH  22  23
ENDBRANCH  21  22
ENDBRANCH  20  21
ENDBRANCH  19  20
ENDBRANCH  18  19
ENDBRANCH   1  18
TORSDOF 28
ENDMDL
MODEL 7
REMARK VINA RESULT:    -3.731     13.494     16.439
REMARK INTER + INTRA:         -13.548
REMARK INTER:                  -9.966
REMARK INTRA:                  -3.581
REMARK UNBOUND:                -3.710
REMARK SMILES CCCCCCCCCCCCCCCCCCCCCCCCCCCCCC(=O)[O-]
REMARK SMILES IDX 16 1 17 2 18 3 19 4 20 5 21 6 22 7 23 8 24 9 25 10 26 11
REMARK SMILES IDX 27 12 28 13 29 14 30 15 31 16 32 17 15 18 14 19 13 20 12 21
REMARK SMILES IDX 11 22 10 23 9 24 8 25 7 26 6 27 5 28 4 29 3 30 2 31 1 32
REMARK H PARENT
REMARK Flexibility Score: inf
ROOT
ATOM      1  C   UNL     1      -3.577   7.152  -6.784  1.00  0.00     0.000 C 
ENDROOT
BRANCH   1   2
ATOM      2  C   UNL     1      -4.795   6.272  -7.125  1.00  0.00     0.000 C 
BRANCH   2   3
ATOM      3  C   UNL     1      -5.128   6.175  -8.629  1.00  0.00     0.000 C 
BRANCH   3   4
ATOM      4  C   UNL     1      -6.578   5.761  -8.950  1.00  0.00     0.000 C 
BRANCH   4   5
ATOM      5  C   UNL     1      -6.881   4.266  -8.745  1.00  0.00     0.000 C 
BRANCH   5   6
ATOM      6  C   UNL     1      -8.013   3.756  -9.655  1.00  0.00     0.000 C 
BRANCH   6   7
ATOM      7  C   UNL     1      -8.983   2.807  -8.931  1.00  0.00     0.000 C 
BRANCH   7   8
ATOM      8  C   UNL     1     -10.343   2.608  -9.626  1.00  0.00     0.000 C 
BRANCH   8   9
ATOM      9  C   UNL     1     -11.075   1.338  -9.162  1.00  0.00     0.000 C 
BRANCH   9  10
ATOM     10  C   UNL     1     -10.226   0.065  -9.336  1.00  0.00     0.000 C 
BRANCH  10  11
ATOM     11  C   UNL     1      -9.474  -0.397  -8.070  1.00  0.00     0.000 C 
BRANCH  11  12
ATOM     12  C   UNL     1     -10.318  -0.448  -6.783  1.00  0.00     0.000 C 
BRANCH  12  13
ATOM     13  C   UNL     1      -9.882   0.528  -5.673  1.00  0.00     0.006 C 
BRANCH  13  14
ATOM     14  C   UNL     1     -10.522   1.925  -5.784  1.00  0.00     0.053 C 
BRANCH  14  15
ATOM     15  C   UNL     1     -10.355   2.731  -4.532  1.00  0.00     0.041 C 
ATOM     16  O   UNL     1      -9.837   2.212  -3.507  1.00  0.00    -0.550 OA
ATOM     17  O   UNL     1     -10.799   4.046  -4.483  1.00  0.00    -0.550 OA
ENDBRANCH  14  15
ENDBRANCH  13  14
ENDBRANCH  12  13
ENDBRANCH  11  12
ENDBRANCH  10  11
ENDBRANCH   9  10
ENDBRANCH   8   9
ENDBRANCH   7   8
ENDBRANCH   6   7
ENDBRANCH   5   6
ENDBRANCH   4   5
ENDBRANCH   3   4
ENDBRANCH   2   3
ENDBRANCH   1   2
BRANCH   1  18
ATOM     18  C   UNL     1      -3.416   8.417  -7.651  1.00  0.00     0.000 C 
BRANCH  18  19
ATOM     19  C   UNL     1      -4.117   9.675  -7.107  1.00  0.00     0.000 C 
BRANCH  19  20
ATOM     20  C   UNL     1      -5.610   9.735  -7.477  1.00  0.00     0.000 C 
BRANCH  20  21
ATOM     21  C   UNL     1      -5.939  10.910  -8.420  1.00  0.00     0.000 C 
BRANCH  21  22
ATOM     22  C   UNL     1      -5.358  10.751  -9.836  1.00  0.00     0.000 C 
BRANCH  22  23
ATOM     23  C   UNL     1      -5.479   9.309 -10.375  1.00  0.00     0.000 C 
BRANCH  23  24
ATOM     24  C   UNL     1      -6.701   9.136 -11.290  1.00  0.00    -0.000 C 
BRANCH  24  25
ATOM     25  C   UNL     1      -7.787  10.188 -10.988  1.00  0.00    -0.000 C 
BRANCH  25  26
ATOM     26  C   UNL     1      -9.159   9.560 -10.666  1.00  0.00    -0.000 C 
BRANCH  26  27
ATOM     27  C   UNL     1      -9.098   8.055 -10.349  1.00  0.00    -0.000 C 
BRANCH  27  28
ATOM     28  C   UNL     1     -10.486   7.419 -10.172  1.00  0.00    -0.000 C 
BRANCH  28  29
ATOM     29  C   UNL     1     -10.428   6.074  -9.429  1.00  0.00    -0.000 C 
BRANCH  29  30
ATOM     30  C   UNL     1     -11.098   6.137  -8.045  1.00  0.00    -0.000 C 
BRANCH  30  31
ATOM     31  C   UNL     1     -10.116   5.850  -6.899  1.00  0.00    -0.003 C 
ATOM     32  C   UNL     1      -8.993   6.884  -6.804  1.00  0.00     0.004 C 
ENDBRANCH  30  31
ENDBRANCH  29  30
ENDBRANCH  28  29
ENDBRANCH  27  28
ENDBRANCH  26  27
ENDBRANCH  25  26
ENDBRANCH  24  25
ENDBRANCH  23  24
ENDBRANCH  22  23
ENDBRANCH  21  22
ENDBRANCH  20  21
ENDBRANCH  19  20
ENDBRANCH  18  19
ENDBRANCH   1  18
TORSDOF 28
ENDMDL
MODEL 8
REMARK VINA RESULT:    -3.590      2.988      7.940
REMARK INTER + INTRA:         -13.178
REMARK INTER:                 -10.329
REMARK INTRA:                  -2.849
REMARK UNBOUND:                -3.710
REMARK SMILES CCCCCCCCCCCCCCCCCCCCCCCCCCCCCC(=O)[O-]
REMARK SMILES IDX 16 1 17 2 18 3 19 4 20 5 21 6 22 7 23 8 24 9 25 10 26 11
REMARK SMILES IDX 27 12 28 13 29 14 30 15 31 16 32 17 15 18 14 19 13 20 12 21
REMARK SMILES IDX 11 22 10 23 9 24 8 25 7 26 6 27 5 28 4 29 3 30 2 31 1 32
REMARK H PARENT
REMARK Flexibility Score: inf
ROOT
ATOM      1  C   UNL     1       1.479  11.769 -17.748  1.00  0.00     0.000 C 
ENDROOT
BRANCH   1   2
ATOM      2  C   UNL     1       2.331  10.680 -17.068  1.00  0.00     0.000 C 
BRANCH   2   3
ATOM      3  C   UNL     1       1.529   9.504 -16.469  1.00  0.00     0.000 C 
BRANCH   3   4
ATOM      4  C   UNL     1       0.710   9.850 -15.210  1.00  0.00     0.000 C 
BRANCH   4   5
ATOM      5  C   UNL     1       1.167  11.120 -14.472  1.00  0.00     0.000 C 
BRANCH   5   6
ATOM      6  C   UNL     1       0.016  12.110 -14.219  1.00  0.00     0.000 C 
BRANCH   6   7
ATOM      7  C   UNL     1       0.294  13.512 -14.789  1.00  0.00     0.000 C 
BRANCH   7   8
ATOM      8  C   UNL     1      -0.608  13.930 -15.965  1.00  0.00     0.000 C 
BRANCH   8   9
ATOM      9  C   UNL     1      -0.484  15.422 -16.318  1.00  0.00     0.000 C 
BRANCH   9  10
ATOM     10  C   UNL     1      -1.840  16.151 -16.311  1.00  0.00     0.000 C 
BRANCH  10  11
ATOM     11  C   UNL     1      -1.981  17.282 -17.350  1.00  0.00     0.000 C 
BRANCH  11  12
ATOM     12  C   UNL     1      -2.813  18.495 -16.895  1.00  0.00     0.000 C 
BRANCH  12  13
ATOM     13  C   UNL     1      -4.265  18.180 -16.487  1.00  0.00     0.006 C 
BRANCH  13  14
ATOM     14  C   UNL     1      -5.143  17.673 -17.647  1.00  0.00     0.053 C 
BRANCH  14  15
ATOM     15  C   UNL     1      -6.151  16.658 -17.198  1.00  0.00     0.041 C 
ATOM     16  O   UNL     1      -7.195  17.023 -16.596  1.00  0.00    -0.550 OA
ATOM     17  O   UNL     1      -5.923  15.305 -17.415  1.00  0.00    -0.550 OA
ENDBRANCH  14  15
ENDBRANCH  13  14
ENDBRANCH  12  13
ENDBRANCH  11  12
ENDBRANCH  10  11
ENDBRANCH   9  10
ENDBRANCH   8   9
ENDBRANCH   7   8
ENDBRANCH   6   7
ENDBRANCH   5   6
ENDBRANCH   4   5
ENDBRANCH   3   4
ENDBRANCH   2   3
ENDBRANCH   1   2
BRANCH   1  18
ATOM     18  C   UNL     1       2.228  13.073 -18.086  1.00  0.00     0.000 C 
BRANCH  18  19
ATOM     19  C   UNL     1       3.229  13.547 -17.017  1.00  0.00     0.000 C 
BRANCH  19  20
ATOM     20  C   UNL     1       4.556  14.044 -17.618  1.00  0.00     0.000 C 
BRANCH  20  21
ATOM     21  C   UNL     1       5.548  12.895 -17.893  1.00  0.00     0.000 C 
BRANCH  21  22
ATOM     22  C   UNL     1       6.946  13.126 -17.294  1.00  0.00     0.000 C 
BRANCH  22  23
ATOM     23  C   UNL     1       7.187  14.594 -16.882  1.00  0.00     0.000 C 
BRANCH  23  24
ATOM     24  C   UNL     1       6.716  14.876 -15.447  1.00  0.00    -0.000 C 
BRANCH  24  25
ATOM     25  C   UNL     1       7.878  14.771 -14.439  1.00  0.00    -0.000 C 
BRANCH  25  26
ATOM     26  C   UNL     1       7.444  14.181 -13.081  1.00  0.00    -0.000 C 
BRANCH  26  27
ATOM     27  C   UNL     1       6.439  13.021 -13.196  1.00  0.00    -0.000 C 
BRANCH  27  28
ATOM     28  C   UNL     1       5.046  13.473 -13.662  1.00  0.00    -0.000 C 
BRANCH  28  29
ATOM     29  C   UNL     1       4.050  12.306 -13.762  1.00  0.00    -0.000 C 
BRANCH  29  30
ATOM     30  C   UNL     1       4.750  10.935 -13.789  1.00  0.00    -0.000 C 
BRANCH  30  31
ATOM     31  C   UNL     1       4.970  10.411 -15.216  1.00  0.00    -0.003 C 
ATOM     32  C   UNL     1       6.449  10.266 -15.577  1.00  0.00     0.004 C 
ENDBRANCH  30  31
ENDBRANCH  29  30
ENDBRANCH  28  29
ENDBRANCH  27  28
ENDBRANCH  26  27
ENDBRANCH  25  26
ENDBRANCH  24  25
ENDBRANCH  23  24
ENDBRANCH  22  23
ENDBRANCH  21  22
ENDBRANCH  20  21
ENDBRANCH  19  20
ENDBRANCH  18  19
ENDBRANCH   1  18
TORSDOF 28
ENDMDL
MODEL 9
REMARK VINA RESULT:    -3.589      3.186      6.193
REMARK INTER + INTRA:         -13.174
REMARK INTER:                 -11.162
REMARK INTRA:                  -2.012
REMARK UNBOUND:                -3.710
REMARK SMILES CCCCCCCCCCCCCCCCCCCCCCCCCCCCCC(=O)[O-]
REMARK SMILES IDX 16 1 17 2 18 3 19 4 20 5 21 6 22 7 23 8 24 9 25 10 26 11
REMARK SMILES IDX 27 12 28 13 29 14 30 15 31 16 32 17 15 18 14 19 13 20 12 21
REMARK SMILES IDX 11 22 10 23 9 24 8 25 7 26 6 27 5 28 4 29 3 30 2 31 1 32
REMARK H PARENT
REMARK Flexibility Score: inf
ROOT
ATOM      1  C   UNL     1       1.253  11.205 -15.640  1.00  0.00     0.000 C 
ENDROOT
BRANCH   1   2
ATOM      2  C   UNL     1       2.517  11.083 -14.767  1.00  0.00     0.000 C 
BRANCH   2   3
ATOM      3  C   UNL     1       2.913  12.370 -14.012  1.00  0.00     0.000 C 
BRANCH   3   4
ATOM      4  C   UNL     1       4.420  12.694 -14.023  1.00  0.00     0.000 C 
BRANCH   4   5
ATOM      5  C   UNL     1       5.007  12.982 -15.416  1.00  0.00     0.000 C 
BRANCH   5   6
ATOM      6  C   UNL     1       6.036  11.927 -15.861  1.00  0.00     0.000 C 
BRANCH   6   7
ATOM      7  C   UNL     1       5.582  10.486 -15.569  1.00  0.00     0.000 C 
BRANCH   7   8
ATOM      8  C   UNL     1       6.542   9.664 -14.689  1.00  0.00     0.000 C 
BRANCH   8   9
ATOM      9  C   UNL     1       6.773  10.290 -13.303  1.00  0.00     0.000 C 
BRANCH   9  10
ATOM     10  C   UNL     1       7.275   9.270 -12.266  1.00  0.00     0.000 C 
BRANCH  10  11
ATOM     11  C   UNL     1       8.388   9.783 -11.329  1.00  0.00     0.000 C 
BRANCH  11  12
ATOM     12  C   UNL     1       8.027  11.026 -10.494  1.00  0.00     0.000 C 
BRANCH  12  13
ATOM     13  C   UNL     1       8.975  12.229 -10.663  1.00  0.00     0.006 C 
BRANCH  13  14
ATOM     14  C   UNL     1       8.525  13.229 -11.746  1.00  0.00     0.053 C 
BRANCH  14  15
ATOM     15  C   UNL     1       8.899  14.641 -11.408  1.00  0.00     0.041 C 
ATOM     16  O   UNL     1       9.116  14.972 -10.213  1.00  0.00    -0.550 OA
ATOM     17  O   UNL     1       8.978  15.601 -12.410  1.00  0.00    -0.550 OA
ENDBRANCH  14  15
ENDBRANCH  13  14
ENDBRANCH  12  13
ENDBRANCH  11  12
ENDBRANCH  10  11
ENDBRANCH   9  10
ENDBRANCH   8   9
ENDBRANCH   7   8
ENDBRANCH   6   7
ENDBRANCH   5   6
ENDBRANCH   4   5
ENDBRANCH   3   4
ENDBRANCH   2   3
ENDBRANCH   1   2
BRANCH   1  18
ATOM     18  C   UNL     1       0.847  12.645 -16.011  1.00  0.00     0.000 C 
BRANCH  18  19
ATOM     19  C   UNL     1       1.110  13.041 -17.476  1.00  0.00     0.000 C 
BRANCH  19  20
ATOM     20  C   UNL     1       0.309  14.280 -17.914  1.00  0.00     0.000 C 
BRANCH  20  21
ATOM     21  C   UNL     1       0.592  15.511 -17.029  1.00  0.00     0.000 C 
BRANCH  21  22
ATOM     22  C   UNL     1      -0.596  15.923 -16.142  1.00  0.00     0.000 C 
BRANCH  22  23
ATOM     23  C   UNL     1      -0.695  17.451 -15.946  1.00  0.00     0.000 C 
BRANCH  23  24
ATOM     24  C   UNL     1      -0.616  18.211 -17.279  1.00  0.00    -0.000 C 
BRANCH  24  25
ATOM     25  C   UNL     1      -2.016  18.611 -17.786  1.00  0.00    -0.000 C 
BRANCH  25  26
ATOM     26  C   UNL     1      -2.951  17.400 -17.986  1.00  0.00    -0.000 C 
BRANCH  26  27
ATOM     27  C   UNL     1      -4.057  17.282 -16.922  1.00  0.00    -0.000 C 
BRANCH  27  28
ATOM     28  C   UNL     1      -4.786  18.610 -16.659  1.00  0.00    -0.000 C 
BRANCH  28  29
ATOM     29  C   UNL     1      -5.969  18.452 -15.689  1.00  0.00    -0.000 C 
BRANCH  29  30
ATOM     30  C   UNL     1      -7.306  18.881 -16.318  1.00  0.00    -0.000 C 
BRANCH  30  31
ATOM     31  C   UNL     1      -7.836  17.860 -17.335  1.00  0.00    -0.003 C 
ATOM     32  C   UNL     1      -7.721  16.416 -16.845  1.00  0.00     0.004 C 
ENDBRANCH  30  31
ENDBRANCH  29  30
ENDBRANCH  28  29
ENDBRANCH  27  28
ENDBRANCH  26  27
ENDBRANCH  25  26
ENDBRANCH  24  25
ENDBRANCH  23  24
ENDBRANCH  22  23
ENDBRANCH  21  22
ENDBRANCH  20  21
ENDBRANCH  19  20
ENDBRANCH  18  19
ENDBRANCH   1  18
TORSDOF 28
ENDMDL
