MODEL 1
REMARK VINA RESULT:    -4.239      0.000      0.000
REMARK INTER + INTRA:          -7.373
REMARK INTER:                  -6.718
REMARK INTRA:                  -0.656
REMARK UNBOUND:                -0.656
REMARK SMILES CCCCCCCCCCCC(=O)[O-]
REMARK SMILES IDX 7 1 8 2 9 3 10 4 11 5 12 6 13 7 14 8 6 9 5 10 4 11 3 12 2 13
REMARK SMILES IDX 1 14
REMARK H PARENT
REMARK Flexibility Score: inf
ROOT
ATOM      1  C   UNL     1      24.889  18.970  24.785  1.00  0.00     0.000 C 
ENDROOT
BRANCH   1   2
ATOM      2  C   UNL     1      25.966  19.914  24.219  1.00  0.00     0.000 C 
BRANCH   2   3
ATOM      3  C   UNL     1      26.836  20.622  25.273  1.00  0.00     0.000 C 
BRANCH   3   4
ATOM      4  C   UNL     1      28.340  20.536  24.965  1.00  0.00     0.006 C 
BRANCH   4   5
ATOM      5  C   UNL     1      28.617  20.392  23.462  1.00  0.00     0.053 C 
BRANCH   5   6
ATOM      6  C   UNL     1      30.043  20.023  23.190  1.00  0.00     0.041 C 
ATOM      7  O   UNL     1      30.683  19.322  24.017  1.00  0.00    -0.550 OA
ATOM      8  O   UNL     1      30.674  20.477  22.039  1.00  0.00    -0.550 OA
ENDBRANCH   5   6
ENDBRANCH   4   5
ENDBRANCH   3   4
ENDBRANCH   2   3
ENDBRANCH   1   2
BRANCH   1   9
ATOM      9  C   UNL     1      24.345  19.431  26.148  1.00  0.00     0.000 C 
BRANCH   9  10
ATOM     10  C   UNL     1      22.909  19.975  26.054  1.00  0.00    -0.000 C 
BRANCH  10  11
ATOM     11  C   UNL     1      22.580  20.963  27.187  1.00  0.00    -0.000 C 
BRANCH  11  12
ATOM     12  C   UNL     1      22.689  22.434  26.748  1.00  0.00    -0.000 C 
BRANCH  12  13
ATOM     13  C   UNL     1      24.122  22.995  26.705  1.00  0.00    -0.003 C 
ATOM     14  C   UNL     1      24.198  24.471  27.091  1.00  0.00     0.004 C 
ENDBRANCH  12  13
ENDBRANCH  11  12
ENDBRANCH  10  11
ENDBRANCH   9  10
ENDBRANCH   1   9
TORSDOF 10
ENDMDL
MODEL 2
REMARK VINA RESULT:    -4.100     20.732     22.053
REMARK INTER + INTRA:          -7.152
REMARK INTER:                  -6.689
REMARK INTRA:                  -0.463
REMARK UNBOUND:                -0.656
REMARK SMILES CCCCCCCCCCCC(=O)[O-]
REMARK SMILES IDX 7 1 8 2 9 3 10 4 11 5 12 6 13 7 14 8 6 9 5 10 4 11 3 12 2 13
REMARK SMILES IDX 1 14
REMARK H PARENT
REMARK Flexibility Score: inf
ROOT
ATOM      1  C   UNL     1      16.655  33.480  11.379  1.00  0.00     0.000 C 
ENDROOT
BRANCH   1   2
ATOM      2  C   UNL     1      17.507  34.151  10.286  1.00  0.00     0.000 C 
BRANCH   2   3
ATOM      3  C   UNL     1      19.009  34.263  10.604  1.00  0.00     0.000 C 
BRANCH   3   4
ATOM      4  C   UNL     1      19.584  35.657  10.298  1.00  0.00     0.006 C 
BRANCH   4   5
ATOM      5  C   UNL     1      18.502  36.745  10.308  1.00  0.00     0.053 C 
BRANCH   5   6
ATOM      6  C   UNL     1      18.923  37.943  11.104  1.00  0.00     0.041 C 
ATOM      7  O   UNL     1      18.246  39.003  11.057  1.00  0.00    -0.550 OA
ATOM      8  O   UNL     1      20.078  37.897  11.873  1.00  0.00    -0.550 OA
ENDBRANCH   5   6
ENDBRANCH   4   5
ENDBRANCH   3   4
ENDBRANCH   2   3
ENDBRANCH   1   2
BRANCH   1   9
ATOM      9  C   UNL     1      15.199  33.243  10.942  1.00  0.00     0.000 C 
BRANCH   9  10
ATOM     10  C   UNL     1      14.184  33.723  11.995  1.00  0.00    -0.000 C 
BRANCH  10  11
ATOM     11  C   UNL     1      12.937  32.824  12.061  1.00  0.00    -0.000 C 
BRANCH  11  12
ATOM     12  C   UNL     1      13.226  31.369  11.654  1.00  0.00    -0.000 C 
BRANCH  12  13
ATOM     13  C   UNL     1      12.875  30.315  12.720  1.00  0.00    -0.003 C 
ATOM     14  C   UNL     1      13.887  29.172  12.786  1.00  0.00     0.004 C 
ENDBRANCH  12  13
ENDBRANCH  11  12
ENDBRANCH  10  11
ENDBRANCH   9  10
ENDBRANCH   1   9
TORSDOF 10
ENDMDL
MODEL 3
REMARK VINA RESULT:    -3.806      3.373      5.855
REMARK INTER + INTRA:          -6.687
REMARK INTER:                  -5.715
REMARK INTRA:                  -0.972
REMARK UNBOUND:                -0.656
REMARK SMILES CCCCCCCCCCCC(=O)[O-]
REMARK SMILES IDX 7 1 8 2 9 3 10 4 11 5 12 6 13 7 14 8 6 9 5 10 4 11 3 12 2 13
REMARK SMILES IDX 1 14
REMARK H PARENT
REMARK Flexibility Score: inf
ROOT
ATOM      1  C   UNL     1      23.943  18.875  26.713  1.00  0.00     0.000 C 
ENDROOT
BRANCH   1   2
ATOM      2  C   UNL     1      22.997  19.917  26.090  1.00  0.00     0.000 C 
BRANCH   2   3
ATOM      3  C   UNL     1      22.297  20.850  27.095  1.00  0.00     0.000 C 
BRANCH   3   4
ATOM      4  C   UNL     1      22.543  22.340  26.802  1.00  0.00     0.006 C 
BRANCH   4   5
ATOM      5  C   UNL     1      24.038  22.670  26.689  1.00  0.00     0.053 C 
BRANCH   5   6
ATOM      6  C   UNL     1      24.282  24.147  26.656  1.00  0.00     0.041 C 
ATOM      7  O   UNL     1      24.442  24.737  25.556  1.00  0.00    -0.550 OA
ATOM      8  O   UNL     1      24.363  24.867  27.841  1.00  0.00    -0.550 OA
ENDBRANCH   5   6
ENDBRANCH   4   5
ENDBRANCH   3   4
ENDBRANCH   2   3
ENDBRANCH   1   2
BRANCH   1   9
ATOM      9  C   UNL     1      25.356  18.910  26.106  1.00  0.00     0.000 C 
BRANCH   9  10
ATOM     10  C   UNL     1      25.344  19.262  24.608  1.00  0.00    -0.000 C 
BRANCH  10  11
ATOM     11  C   UNL     1      26.404  20.317  24.244  1.00  0.00    -0.000 C 
BRANCH  11  12
ATOM     12  C   UNL     1      27.171  20.842  25.470  1.00  0.00    -0.000 C 
BRANCH  12  13
ATOM     13  C   UNL     1      28.688  21.002  25.267  1.00  0.00    -0.003 C 
ATOM     14  C   UNL     1      29.203  20.288  24.018  1.00  0.00     0.004 C 
ENDBRANCH  12  13
ENDBRANCH  11  12
ENDBRANCH  10  11
ENDBRANCH   9  10
ENDBRANCH   1   9
TORSDOF 10
ENDMDL
MODEL 4
REMARK VINA RESULT:    -3.779      3.175      6.243
REMARK INTER + INTRA:          -6.644
REMARK INTER:                  -5.981
REMARK INTRA:                  -0.663
REMARK UNBOUND:                -0.656
REMARK SMILES CCCCCCCCCCCC(=O)[O-]
REMARK SMILES IDX 7 1 8 2 9 3 10 4 11 5 12 6 13 7 14 8 6 9 5 10 4 11 3 12 2 13
REMARK SMILES IDX 1 14
REMARK H PARENT
REMARK Flexibility Score: inf
ROOT
ATOM      1  C   UNL     1      25.260  19.237  25.914  1.00  0.00     0.000 C 
ENDROOT
BRANCH   1   2
ATOM      2  C   UNL     1      23.897  18.884  25.291  1.00  0.00     0.000 C 
BRANCH   2   3
ATOM      3  C   UNL     1      22.750  19.851  25.637  1.00  0.00     0.000 C 
BRANCH   3   4
ATOM      4  C   UNL     1      23.004  20.643  26.931  1.00  0.00     0.006 C 
BRANCH   4   5
ATOM      5  C   UNL     1      22.629  22.125  26.787  1.00  0.00     0.053 C 
BRANCH   5   6
ATOM      6  C   UNL     1      23.839  23.009  26.793  1.00  0.00     0.041 C 
ATOM      7  O   UNL     1      24.957  22.554  26.434  1.00  0.00    -0.550 OA
ATOM      8  O   UNL     1      23.738  24.325  27.223  1.00  0.00    -0.550 OA
ENDBRANCH   5   6
ENDBRANCH   4   5
ENDBRANCH   3   4
ENDBRANCH   2   3
ENDBRANCH   1   2
BRANCH   1   9
ATOM      9  C   UNL     1      26.434  19.031  24.942  1.00  0.00     0.000 C 
BRANCH   9  10
ATOM     10  C   UNL     1      27.028  20.362  24.449  1.00  0.00    -0.000 C 
BRANCH  10  11
ATOM     11  C   UNL     1      28.103  20.915  25.402  1.00  0.00    -0.000 C 
BRANCH  11  12
ATOM     12  C   UNL     1      29.482  21.053  24.731  1.00  0.00    -0.000 C 
BRANCH  12  13
ATOM     13  C   UNL     1      29.837  19.931  23.740  1.00  0.00    -0.003 C 
ATOM     14  C   UNL     1      30.398  20.456  22.419  1.00  0.00     0.004 C 
ENDBRANCH  12  13
ENDBRANCH  11  12
ENDBRANCH  10  11
ENDBRANCH   9  10
ENDBRANCH   1   9
TORSDOF 10
ENDMDL
MODEL 5
REMARK VINA RESULT:    -3.774     20.493     22.077
REMARK INTER + INTRA:          -6.636
REMARK INTER:                  -6.275
REMARK INTRA:                  -0.361
REMARK UNBOUND:                -0.656
REMARK SMILES CCCCCCCCCCCC(=O)[O-]
REMARK SMILES IDX 7 1 8 2 9 3 10 4 11 5 12 6 13 7 14 8 6 9 5 10 4 11 3 12 2 13
REMARK SMILES IDX 1 14
REMARK H PARENT
REMARK Flexibility Score: inf
ROOT
ATOM      1  C   UNL     1      16.783  33.499  11.395  1.00  0.00     0.000 C 
ENDROOT
BRANCH   1   2
ATOM      2  C   UNL     1      15.637  32.526  11.063  1.00  0.00     0.000 C 
BRANCH   2   3
ATOM      3  C   UNL     1      14.255  32.934  11.605  1.00  0.00     0.000 C 
BRANCH   3   4
ATOM      4  C   UNL     1      13.157  31.907  11.281  1.00  0.00     0.006 C 
BRANCH   4   5
ATOM      5  C   UNL     1      12.875  30.967  12.462  1.00  0.00     0.053 C 
BRANCH   5   6
ATOM      6  C   UNL     1      13.501  29.621  12.266  1.00  0.00     0.041 C 
ATOM      7  O   UNL     1      13.971  28.992  13.251  1.00  0.00    -0.550 OA
ATOM      8  O   UNL     1      13.593  29.073  10.993  1.00  0.00    -0.550 OA
ENDBRANCH   5   6
ENDBRANCH   4   5
ENDBRANCH   3   4
ENDBRANCH   2   3
ENDBRANCH   1   2
BRANCH   1   9
ATOM      9  C   UNL     1      17.545  33.976  10.146  1.00  0.00     0.000 C 
BRANCH   9  10
ATOM     10  C   UNL     1      18.018  35.435  10.268  1.00  0.00    -0.000 C 
BRANCH  10  11
ATOM     11  C   UNL     1      19.552  35.557  10.273  1.00  0.00    -0.000 C 
BRANCH  11  12
ATOM     12  C   UNL     1      20.035  37.016  10.359  1.00  0.00    -0.000 C 
BRANCH  12  13
ATOM     13  C   UNL     1      20.015  37.624  11.772  1.00  0.00    -0.003 C 
ATOM     14  C   UNL     1      19.218  38.926  11.851  1.00  0.00     0.004 C 
ENDBRANCH  12  13
ENDBRANCH  11  12
ENDBRANCH  10  11
ENDBRANCH   9  10
ENDBRANCH   1   9
TORSDOF 10
ENDMDL
MODEL 6
REMARK VINA RESULT:    -3.696      3.443      6.202
REMARK INTER + INTRA:          -6.512
REMARK INTER:                  -5.954
REMARK INTRA:                  -0.557
REMARK UNBOUND:                -0.656
REMARK SMILES CCCCCCCCCCCC(=O)[O-]
REMARK SMILES IDX 7 1 8 2 9 3 10 4 11 5 12 6 13 7 14 8 6 9 5 10 4 11 3 12 2 13
REMARK SMILES IDX 1 14
REMARK H PARENT
REMARK Flexibility Score: inf
ROOT
ATOM      1  C   UNL     1      24.236  18.969  26.359  1.00  0.00     0.000 C 
ENDROOT
BRANCH   1   2
ATOM      2  C   UNL     1      23.056  19.890  26.000  1.00  0.00     0.000 C 
BRANCH   2   3
ATOM      3  C   UNL     1      22.588  20.824  27.130  1.00  0.00     0.000 C 
BRANCH   3   4
ATOM      4  C   UNL     1      22.690  22.313  26.759  1.00  0.00     0.006 C 
BRANCH   4   5
ATOM      5  C   UNL     1      24.147  22.778  26.627  1.00  0.00     0.053 C 
BRANCH   5   6
ATOM      6  C   UNL     1      24.283  24.253  26.848  1.00  0.00     0.041 C 
ATOM      7  O   UNL     1      23.856  24.776  27.910  1.00  0.00    -0.550 OA
ATOM      8  O   UNL     1      24.855  25.055  25.869  1.00  0.00    -0.550 OA
ENDBRANCH   5   6
ENDBRANCH   4   5
ENDBRANCH   3   4
ENDBRANCH   2   3
ENDBRANCH   1   2
BRANCH   1   9
ATOM      9  C   UNL     1      25.460  19.181  25.452  1.00  0.00     0.000 C 
BRANCH   9  10
ATOM     10  C   UNL     1      26.402  20.275  25.983  1.00  0.00    -0.000 C 
BRANCH  10  11
ATOM     11  C   UNL     1      27.318  20.846  24.886  1.00  0.00    -0.000 C 
BRANCH  11  12
ATOM     12  C   UNL     1      28.378  19.838  24.407  1.00  0.00    -0.000 C 
BRANCH  12  13
ATOM     13  C   UNL     1      29.770  20.437  24.139  1.00  0.00    -0.003 C 
ATOM     14  C   UNL     1      30.157  20.412  22.661  1.00  0.00     0.004 C 
ENDBRANCH  12  13
ENDBRANCH  11  12
ENDBRANCH  10  11
ENDBRANCH   9  10
ENDBRANCH   1   9
TORSDOF 10
ENDMDL
MODEL 7
REMARK VINA RESULT:    -3.436      1.492      2.325
REMARK INTER + INTRA:          -6.099
REMARK INTER:                  -5.618
REMARK INTRA:                  -0.481
REMARK UNBOUND:                -0.656
REMARK SMILES CCCCCCCCCCCC(=O)[O-]
REMARK SMILES IDX 7 1 8 2 9 3 10 4 11 5 12 6 13 7 14 8 6 9 5 10 4 11 3 12 2 13
REMARK SMILES IDX 1 14
REMARK H PARENT
REMARK Flexibility Score: inf
ROOT
ATOM      1  C   UNL     1      25.914  19.154  25.355  1.00  0.00     0.000 C 
ENDROOT
BRANCH   1   2
ATOM      2  C   UNL     1      26.550  20.540  25.146  1.00  0.00     0.000 C 
BRANCH   2   3
ATOM      3  C   UNL     1      27.881  20.767  25.886  1.00  0.00     0.000 C 
BRANCH   3   4
ATOM      4  C   UNL     1      29.067  20.993  24.933  1.00  0.00     0.006 C 
BRANCH   4   5
ATOM      5  C   UNL     1      28.848  20.325  23.568  1.00  0.00     0.053 C 
BRANCH   5   6
ATOM      6  C   UNL     1      30.074  19.606  23.096  1.00  0.00     0.041 C 
ATOM      7  O   UNL     1      30.351  19.566  21.868  1.00  0.00    -0.550 OA
ATOM      8  O   UNL     1      30.896  18.956  24.008  1.00  0.00    -0.550 OA
ENDBRANCH   5   6
ENDBRANCH   4   5
ENDBRANCH   3   4
ENDBRANCH   2   3
ENDBRANCH   1   2
BRANCH   1   9
ATOM      9  C   UNL     1      24.753  18.875  24.385  1.00  0.00     0.000 C 
BRANCH   9  10
ATOM     10  C   UNL     1      23.390  19.289  24.965  1.00  0.00    -0.000 C 
BRANCH  10  11
ATOM     11  C   UNL     1      23.447  19.530  26.485  1.00  0.00    -0.000 C 
BRANCH  11  12
ATOM     12  C   UNL     1      22.689  20.797  26.918  1.00  0.00    -0.000 C 
BRANCH  12  13
ATOM     13  C   UNL     1      21.497  20.551  27.860  1.00  0.00    -0.003 C 
ATOM     14  C   UNL     1      21.808  19.542  28.966  1.00  0.00     0.004 C 
ENDBRANCH  12  13
ENDBRANCH  11  12
ENDBRANCH  10  11
ENDBRANCH   9  10
ENDBRANCH   1   9
TORSDOF 10
ENDMDL
MODEL 8
REMARK VINA RESULT:    -3.258     20.625     21.915
REMARK INTER + INTRA:          -5.818
REMARK INTER:                  -5.214
REMARK INTRA:                  -0.605
REMARK UNBOUND:                -0.656
REMARK SMILES CCCCCCCCCCCC(=O)[O-]
REMARK SMILES IDX 7 1 8 2 9 3 10 4 11 5 12 6 13 7 14 8 6 9 5 10 4 11 3 12 2 13
REMARK SMILES IDX 1 14
REMARK H PARENT
REMARK Flexibility Score: inf
ROOT
ATOM      1  C   UNL     1      14.222  33.504  11.903  1.00  0.00     0.000 C 
ENDROOT
BRANCH   1   2
ATOM      2  C   UNL     1      15.760  33.514  11.842  1.00  0.00     0.000 C 
BRANCH   2   3
ATOM      3  C   UNL     1      16.361  33.267  10.446  1.00  0.00     0.000 C 
BRANCH   3   4
ATOM      4  C   UNL     1      17.077  34.504   9.875  1.00  0.00     0.006 C 
BRANCH   4   5
ATOM      5  C   UNL     1      18.496  34.663  10.437  1.00  0.00     0.053 C 
BRANCH   5   6
ATOM      6  C   UNL     1      18.953  36.089  10.401  1.00  0.00     0.041 C 
ATOM      7  O   UNL     1      20.179  36.363  10.493  1.00  0.00    -0.550 OA
ATOM      8  O   UNL     1      18.025  37.117  10.295  1.00  0.00    -0.550 OA
ENDBRANCH   5   6
ENDBRANCH   4   5
ENDBRANCH   3   4
ENDBRANCH   2   3
ENDBRANCH   1   2
BRANCH   1   9
ATOM      9  C   UNL     1      13.567  33.468  10.511  1.00  0.00     0.000 C 
BRANCH   9  10
ATOM     10  C   UNL     1      12.876  32.125  10.222  1.00  0.00    -0.000 C 
BRANCH  10  11
ATOM     11  C   UNL     1      12.904  31.176  11.434  1.00  0.00    -0.000 C 
BRANCH  11  12
ATOM     12  C   UNL     1      13.345  29.748  11.066  1.00  0.00    -0.000 C 
BRANCH  12  13
ATOM     13  C   UNL     1      12.988  28.671  12.105  1.00  0.00    -0.003 C 
ATOM     14  C   UNL     1      13.879  28.717  13.345  1.00  0.00     0.004 C 
ENDBRANCH  12  13
ENDBRANCH  11  12
ENDBRANCH  10  11
ENDBRANCH   9  10
ENDBRANCH   1   9
TORSDOF 10
ENDMDL
