MODEL 1
REMARK VINA RESULT:    -6.285      0.000      0.000
REMARK INTER + INTRA:          -8.018
REMARK INTER:                  -7.754
REMARK INTRA:                  -0.264
REMARK UNBOUND:                -0.264
REMARK SMILES O=c1c(O)c(-c2cc(O)c(O)c(O)c2)oc2cc(O)cc(O)c12
REMARK SMILES IDX 5 1 3 2 2 3 1 4 23 5 21 6 20 7 18 8 17 9 16 10 15 11 6 12
REMARK SMILES IDX 7 13 8 14 14 15 10 16 12 17 9 18 11 20 13 22 4 24 22 26
REMARK SMILES IDX 19 28
REMARK H PARENT 9 19 11 21 13 23 4 25 22 27 19 29
REMARK Flexibility Score: inf
ROOT
ATOM      1  C   UNL     1      -5.524  -8.819   9.281  1.00  0.00     0.180 A 
ATOM      2  C   UNL     1      -6.207  -7.960  10.160  1.00  0.00     0.208 A 
ATOM      3  C   UNL     1      -7.579  -8.161  10.379  1.00  0.00     0.238 A 
ATOM      4  O   UNL     1      -8.196  -7.356  11.125  1.00  0.00    -0.285 OA
ATOM      5  C   UNL     1      -8.248  -9.227   9.731  1.00  0.00     0.111 A 
ATOM      6  C   UNL     1      -9.626  -9.548   9.910  1.00  0.00     0.134 A 
ATOM      7  C   UNL     1     -10.213 -10.543   9.119  1.00  0.00     0.093 A 
ATOM      8  C   UNL     1      -9.454 -11.273   8.200  1.00  0.00     0.123 A 
ATOM      9  C   UNL     1      -8.095 -11.007   8.060  1.00  0.00     0.094 A 
ATOM     10  C   UNL     1      -7.489  -9.996   8.810  1.00  0.00     0.146 A 
ATOM     11  O   UNL     1      -6.192  -9.769   8.638  1.00  0.00    -0.452 OA
ENDROOT
BRANCH   1  12
ATOM     12  C   UNL     1      -4.073  -8.685   9.019  1.00  0.00     0.029 A 
ATOM     13  C   UNL     1      -3.634  -8.320   7.737  1.00  0.00     0.062 A 
ATOM     14  C   UNL     1      -2.268  -8.206   7.455  1.00  0.00     0.162 A 
ATOM     15  C   UNL     1      -3.121  -8.972  10.011  1.00  0.00     0.062 A 
ATOM     16  C   UNL     1      -1.320  -8.474   8.457  1.00  0.00     0.200 A 
ATOM     17  C   UNL     1      -1.750  -8.862   9.737  1.00  0.00     0.162 A 
BRANCH  14  18
ATOM     18  O   UNL     1      -1.874  -7.827   6.171  1.00  0.00    -0.504 OA
ATOM     19  H   UNL     1      -2.495  -7.334   5.541  1.00  0.00     0.293 HD
ENDBRANCH  14  18
BRANCH  16  20
ATOM     20  O   UNL     1       0.040  -8.355   8.168  1.00  0.00    -0.502 OA
ATOM     21  H   UNL     1       0.374  -8.014   7.275  1.00  0.00     0.293 HD
ENDBRANCH  16  20
BRANCH  17  22
ATOM     22  O   UNL     1      -0.814  -9.144  10.732  1.00  0.00    -0.504 OA
ATOM     23  H   UNL     1      -1.075  -9.187  11.710  1.00  0.00     0.293 HD
ENDBRANCH  17  22
ENDBRANCH   1  12
BRANCH   2  24
ATOM     24  O   UNL     1      -5.532  -6.900  10.773  1.00  0.00    -0.502 OA
ATOM     25  H   UNL     1      -5.999  -6.044  11.048  1.00  0.00     0.293 HD
ENDBRANCH   2  24
BRANCH   6  26
ATOM     26  O   UNL     1     -10.450  -8.943  10.864  1.00  0.00    -0.507 OA
ATOM     27  H   UNL     1     -10.465  -9.182  11.845  1.00  0.00     0.293 HD
ENDBRANCH   6  26
BRANCH   8  28
ATOM     28  O   UNL     1     -10.043 -12.272   7.427  1.00  0.00    -0.508 OA
ATOM     29  H   UNL     1     -10.787 -12.855   7.792  1.00  0.00     0.293 HD
ENDBRANCH   8  28
TORSDOF 7
ENDMDL
MODEL 2
REMARK VINA RESULT:    -6.120      0.107      1.757
REMARK INTER + INTRA:          -7.815
REMARK INTER:                  -7.590
REMARK INTRA:                  -0.225
REMARK UNBOUND:                -0.264
REMARK SMILES O=c1c(O)c(-c2cc(O)c(O)c(O)c2)oc2cc(O)cc(O)c12
REMARK SMILES IDX 5 1 3 2 2 3 1 4 23 5 21 6 20 7 18 8 17 9 16 10 15 11 6 12
REMARK SMILES IDX 7 13 8 14 14 15 10 16 12 17 9 18 11 20 13 22 4 24 22 26
REMARK SMILES IDX 19 28
REMARK H PARENT 9 19 11 21 13 23 4 25 22 27 19 29
REMARK Flexibility Score: inf
ROOT
ATOM      1  C   UNL     1      -5.592  -8.856   9.270  1.00  0.00     0.180 A 
ATOM      2  C   UNL     1      -6.254  -7.981  10.150  1.00  0.00     0.208 A 
ATOM      3  C   UNL     1      -7.628  -8.156  10.378  1.00  0.00     0.238 A 
ATOM      4  O   UNL     1      -8.225  -7.337  11.125  1.00  0.00    -0.285 OA
ATOM      5  C   UNL     1      -8.320  -9.211   9.738  1.00  0.00     0.111 A 
ATOM      6  C   UNL     1      -9.704  -9.505   9.927  1.00  0.00     0.134 A 
ATOM      7  C   UNL     1     -10.314 -10.492   9.142  1.00  0.00     0.093 A 
ATOM      8  C   UNL     1      -9.574 -11.239   8.221  1.00  0.00     0.123 A 
ATOM      9  C   UNL     1      -8.211 -11.000   8.072  1.00  0.00     0.094 A 
ATOM     10  C   UNL     1      -7.582  -9.997   8.815  1.00  0.00     0.146 A 
ATOM     11  O   UNL     1      -6.282  -9.795   8.634  1.00  0.00    -0.452 OA
ENDROOT
BRANCH   1  12
ATOM     12  C   UNL     1      -4.140  -8.750   8.998  1.00  0.00     0.029 A 
ATOM     13  C   UNL     1      -3.225  -9.023  10.026  1.00  0.00     0.062 A 
ATOM     14  C   UNL     1      -1.848  -8.910   9.804  1.00  0.00     0.162 A 
ATOM     15  C   UNL     1      -3.659  -8.324   7.749  1.00  0.00     0.062 A 
ATOM     16  C   UNL     1      -1.370  -8.505   8.546  1.00  0.00     0.200 A 
ATOM     17  C   UNL     1      -2.281  -8.207   7.518  1.00  0.00     0.162 A 
BRANCH  14  18
ATOM     18  O   UNL     1      -0.970  -9.205  10.848  1.00  0.00    -0.504 OA
ATOM     19  H   UNL     1      -1.202  -9.016  11.816  1.00  0.00     0.293 HD
ENDBRANCH  14  18
BRANCH  16  20
ATOM     20  O   UNL     1       0.004  -8.398   8.333  1.00  0.00    -0.502 OA
ATOM     21  H   UNL     1       0.660  -8.264   9.093  1.00  0.00     0.293 HD
ENDBRANCH  16  20
BRANCH  17  22
ATOM     22  O   UNL     1      -1.814  -7.789   6.273  1.00  0.00    -0.504 OA
ATOM     23  H   UNL     1      -2.395  -7.841   5.444  1.00  0.00     0.293 HD
ENDBRANCH  17  22
ENDBRANCH   1  12
BRANCH   2  24
ATOM     24  O   UNL     1      -5.555  -6.932  10.756  1.00  0.00    -0.502 OA
ATOM     25  H   UNL     1      -5.895  -6.460  11.585  1.00  0.00     0.293 HD
ENDBRANCH   2  24
BRANCH   6  26
ATOM     26  O   UNL     1     -10.510  -8.883  10.884  1.00  0.00    -0.507 OA
ATOM     27  H   UNL     1     -10.871  -7.944  10.808  1.00  0.00     0.293 HD
ENDBRANCH   6  26
BRANCH   8  28
ATOM     28  O   UNL     1     -10.186 -12.229   7.455  1.00  0.00    -0.508 OA
ATOM     29  H   UNL     1     -11.164 -12.170   7.194  1.00  0.00     0.293 HD
ENDBRANCH   8  28
TORSDOF 7
ENDMDL
MODEL 3
REMARK VINA RESULT:    -5.974     10.733     13.558
REMARK INTER + INTRA:          -7.635
REMARK INTER:                  -7.266
REMARK INTRA:                  -0.369
REMARK UNBOUND:                -0.264
REMARK SMILES O=c1c(O)c(-c2cc(O)c(O)c(O)c2)oc2cc(O)cc(O)c12
REMARK SMILES IDX 5 1 3 2 2 3 1 4 23 5 21 6 20 7 18 8 17 9 16 10 15 11 6 12
REMARK SMILES IDX 7 13 8 14 14 15 10 16 12 17 9 18 11 20 13 22 4 24 22 26
REMARK SMILES IDX 19 28
REMARK H PARENT 9 19 11 21 13 23 4 25 22 27 19 29
REMARK Flexibility Score: inf
ROOT
ATOM      1  C   UNL     1      -6.840 -11.868  -2.026  1.00  0.00     0.180 A 
ATOM      2  C   UNL     1      -5.497 -11.646  -1.672  1.00  0.00     0.208 A 
ATOM      3  C   UNL     1      -4.511 -11.705  -2.670  1.00  0.00     0.238 A 
ATOM      4  O   UNL     1      -3.306 -11.558  -2.338  1.00  0.00    -0.285 OA
ATOM      5  C   UNL     1      -4.880 -11.969  -4.010  1.00  0.00     0.111 A 
ATOM      6  C   UNL     1      -3.970 -12.012  -5.108  1.00  0.00     0.134 A 
ATOM      7  C   UNL     1      -4.428 -12.412  -6.370  1.00  0.00     0.093 A 
ATOM      8  C   UNL     1      -5.777 -12.707  -6.587  1.00  0.00     0.123 A 
ATOM      9  C   UNL     1      -6.683 -12.609  -5.535  1.00  0.00     0.094 A 
ATOM     10  C   UNL     1      -6.250 -12.249  -4.257  1.00  0.00     0.146 A 
ATOM     11  O   UNL     1      -7.147 -12.178  -3.279  1.00  0.00    -0.452 OA
ENDROOT
BRANCH   1  12
ATOM     12  C   UNL     1      -7.937 -11.798  -1.034  1.00  0.00     0.029 A 
ATOM     13  C   UNL     1      -8.366 -12.971  -0.395  1.00  0.00     0.062 A 
ATOM     14  C   UNL     1      -9.414 -12.938   0.530  1.00  0.00     0.162 A 
ATOM     15  C   UNL     1      -8.599 -10.589  -0.760  1.00  0.00     0.062 A 
ATOM     16  C   UNL     1     -10.060 -11.723   0.817  1.00  0.00     0.200 A 
ATOM     17  C   UNL     1      -9.652 -10.547   0.165  1.00  0.00     0.162 A 
BRANCH  14  18
ATOM     18  O   UNL     1      -9.801 -14.125   1.154  1.00  0.00    -0.504 OA
ATOM     19  H   UNL     1     -10.774 -14.390   1.249  1.00  0.00     0.293 HD
ENDBRANCH  14  18
BRANCH  16  20
ATOM     20  O   UNL     1     -11.102 -11.698   1.744  1.00  0.00    -0.502 OA
ATOM     21  H   UNL     1     -11.839 -12.393   1.746  1.00  0.00     0.293 HD
ENDBRANCH  16  20
BRANCH  17  22
ATOM     22  O   UNL     1     -10.297  -9.341   0.433  1.00  0.00    -0.504 OA
ATOM     23  H   UNL     1      -9.783  -8.473   0.529  1.00  0.00     0.293 HD
ENDBRANCH  17  22
ENDBRANCH   1  12
BRANCH   2  24
ATOM     24  O   UNL     1      -5.152 -11.407  -0.338  1.00  0.00    -0.502 OA
ATOM     25  H   UNL     1      -4.815 -12.139   0.276  1.00  0.00     0.293 HD
ENDBRANCH   2  24
BRANCH   6  26
ATOM     26  O   UNL     1      -2.623 -11.649  -5.020  1.00  0.00    -0.507 OA
ATOM     27  H   UNL     1      -1.947 -12.093  -4.418  1.00  0.00     0.293 HD
ENDBRANCH   6  26
BRANCH   8  28
ATOM     28  O   UNL     1      -6.226 -13.089  -7.849  1.00  0.00    -0.508 OA
ATOM     29  H   UNL     1      -7.128 -12.791  -8.203  1.00  0.00     0.293 HD
ENDBRANCH   8  28
TORSDOF 7
ENDMDL
MODEL 4
REMARK VINA RESULT:    -5.909     12.297     15.294
REMARK INTER + INTRA:          -7.555
REMARK INTER:                  -7.255
REMARK INTRA:                  -0.300
REMARK UNBOUND:                -0.264
REMARK SMILES O=c1c(O)c(-c2cc(O)c(O)c(O)c2)oc2cc(O)cc(O)c12
REMARK SMILES IDX 5 1 3 2 2 3 1 4 23 5 21 6 20 7 18 8 17 9 16 10 15 11 6 12
REMARK SMILES IDX 7 13 8 14 14 15 10 16 12 17 9 18 11 20 13 22 4 24 22 26
REMARK SMILES IDX 19 28
REMARK H PARENT 9 19 11 21 13 23 4 25 22 27 19 29
REMARK Flexibility Score: inf
ROOT
ATOM      1  C   UNL     1      -5.782 -11.932  -3.962  1.00  0.00     0.180 A 
ATOM      2  C   UNL     1      -4.757 -12.669  -3.343  1.00  0.00     0.208 A 
ATOM      3  C   UNL     1      -3.500 -12.740  -3.962  1.00  0.00     0.238 A 
ATOM      4  O   UNL     1      -2.603 -13.446  -3.431  1.00  0.00    -0.285 OA
ATOM      5  C   UNL     1      -3.276 -12.060  -5.183  1.00  0.00     0.111 A 
ATOM      6  C   UNL     1      -2.030 -12.030  -5.878  1.00  0.00     0.134 A 
ATOM      7  C   UNL     1      -1.959 -11.435  -7.144  1.00  0.00     0.093 A 
ATOM      8  C   UNL     1      -3.074 -10.811  -7.710  1.00  0.00     0.123 A 
ATOM      9  C   UNL     1      -4.279 -10.783  -7.013  1.00  0.00     0.094 A 
ATOM     10  C   UNL     1      -4.391 -11.400  -5.765  1.00  0.00     0.146 A 
ATOM     11  O   UNL     1      -5.561 -11.359  -5.139  1.00  0.00    -0.452 OA
ENDROOT
BRANCH   1  12
ATOM     12  C   UNL     1      -7.127 -11.791  -3.357  1.00  0.00     0.029 A 
ATOM     13  C   UNL     1      -8.220 -12.439  -3.950  1.00  0.00     0.062 A 
ATOM     14  C   UNL     1      -9.506 -12.307  -3.412  1.00  0.00     0.162 A 
ATOM     15  C   UNL     1      -7.341 -10.974  -2.235  1.00  0.00     0.062 A 
ATOM     16  C   UNL     1      -9.712 -11.506  -2.277  1.00  0.00     0.200 A 
ATOM     17  C   UNL     1      -8.626 -10.834  -1.691  1.00  0.00     0.162 A 
BRANCH  14  18
ATOM     18  O   UNL     1     -10.565 -12.980  -4.023  1.00  0.00    -0.504 OA
ATOM     19  H   UNL     1     -10.946 -12.687  -4.915  1.00  0.00     0.293 HD
ENDBRANCH  14  18
BRANCH  16  20
ATOM     20  O   UNL     1     -10.996 -11.381  -1.745  1.00  0.00    -0.502 OA
ATOM     21  H   UNL     1     -11.771 -11.018  -2.286  1.00  0.00     0.293 HD
ENDBRANCH  16  20
BRANCH  17  22
ATOM     22  O   UNL     1      -8.827 -10.026  -0.573  1.00  0.00    -0.504 OA
ATOM     23  H   UNL     1      -8.205 -10.061   0.227  1.00  0.00     0.293 HD
ENDBRANCH  17  22
ENDBRANCH   1  12
BRANCH   2  24
ATOM     24  O   UNL     1      -5.006 -13.351  -2.148  1.00  0.00    -0.502 OA
ATOM     25  H   UNL     1      -4.642 -13.037  -1.256  1.00  0.00     0.293 HD
ENDBRANCH   2  24
BRANCH   6  26
ATOM     26  O   UNL     1      -0.836 -12.541  -5.362  1.00  0.00    -0.507 OA
ATOM     27  H   UNL     1      -0.112 -11.987  -4.930  1.00  0.00     0.293 HD
ENDBRANCH   6  26
BRANCH   8  28
ATOM     28  O   UNL     1      -2.991 -10.207  -8.963  1.00  0.00    -0.508 OA
ATOM     29  H   UNL     1      -2.670  -9.252  -9.072  1.00  0.00     0.293 HD
ENDBRANCH   8  28
TORSDOF 7
ENDMDL
MODEL 5
REMARK VINA RESULT:    -5.902     12.274     15.330
REMARK INTER + INTRA:          -7.546
REMARK INTER:                  -7.280
REMARK INTRA:                  -0.266
REMARK UNBOUND:                -0.264
REMARK SMILES O=c1c(O)c(-c2cc(O)c(O)c(O)c2)oc2cc(O)cc(O)c12
REMARK SMILES IDX 5 1 3 2 2 3 1 4 23 5 21 6 20 7 18 8 17 9 16 10 15 11 6 12
REMARK SMILES IDX 7 13 8 14 14 15 10 16 12 17 9 18 11 20 13 22 4 24 22 26
REMARK SMILES IDX 19 28
REMARK H PARENT 9 19 11 21 13 23 4 25 22 27 19 29
REMARK Flexibility Score: inf
ROOT
ATOM      1  C   UNL     1      -5.840 -11.920  -3.980  1.00  0.00     0.180 A 
ATOM      2  C   UNL     1      -4.826 -12.652  -3.337  1.00  0.00     0.208 A 
ATOM      3  C   UNL     1      -3.557 -12.726  -3.934  1.00  0.00     0.238 A 
ATOM      4  O   UNL     1      -2.670 -13.427  -3.381  1.00  0.00    -0.285 OA
ATOM      5  C   UNL     1      -3.312 -12.055  -5.156  1.00  0.00     0.111 A 
ATOM      6  C   UNL     1      -2.054 -12.028  -5.828  1.00  0.00     0.134 A 
ATOM      7  C   UNL     1      -1.961 -11.443  -7.097  1.00  0.00     0.093 A 
ATOM      8  C   UNL     1      -3.067 -10.824  -7.688  1.00  0.00     0.123 A 
ATOM      9  C   UNL     1      -4.284 -10.792  -7.012  1.00  0.00     0.094 A 
ATOM     10  C   UNL     1      -4.417 -11.400  -5.762  1.00  0.00     0.146 A 
ATOM     11  O   UNL     1      -5.598 -11.356  -5.157  1.00  0.00    -0.452 OA
ENDROOT
BRANCH   1  12
ATOM     12  C   UNL     1      -7.195 -11.776  -3.400  1.00  0.00     0.029 A 
ATOM     13  C   UNL     1      -7.376 -10.978  -2.261  1.00  0.00     0.062 A 
ATOM     14  C   UNL     1      -8.641 -10.841  -1.679  1.00  0.00     0.162 A 
ATOM     15  C   UNL     1      -8.295 -12.469  -3.932  1.00  0.00     0.062 A 
ATOM     16  C   UNL     1      -9.743 -11.520  -2.227  1.00  0.00     0.200 A 
ATOM     17  C   UNL     1      -9.566 -12.339  -3.354  1.00  0.00     0.162 A 
BRANCH  14  18
ATOM     18  O   UNL     1      -8.782 -10.027  -0.554  1.00  0.00    -0.504 OA
ATOM     19  H   UNL     1      -7.983  -9.634  -0.071  1.00  0.00     0.293 HD
ENDBRANCH  14  18
BRANCH  16  20
ATOM     20  O   UNL     1     -11.002 -11.375  -1.642  1.00  0.00    -0.502 OA
ATOM     21  H   UNL     1     -11.821 -11.123  -2.181  1.00  0.00     0.293 HD
ENDBRANCH  16  20
BRANCH  17  22
ATOM     22  O   UNL     1     -10.652 -13.027  -3.894  1.00  0.00    -0.504 OA
ATOM     23  H   UNL     1     -10.659 -14.038  -3.964  1.00  0.00     0.293 HD
ENDBRANCH  17  22
ENDBRANCH   1  12
BRANCH   2  24
ATOM     24  O   UNL     1      -5.095 -13.325  -2.142  1.00  0.00    -0.502 OA
ATOM     25  H   UNL     1      -5.932 -13.155  -1.598  1.00  0.00     0.293 HD
ENDBRANCH   2  24
BRANCH   6  26
ATOM     26  O   UNL     1      -0.869 -12.535  -5.287  1.00  0.00    -0.507 OA
ATOM     27  H   UNL     1      -0.820 -13.158  -4.495  1.00  0.00     0.293 HD
ENDBRANCH   6  26
BRANCH   8  28
ATOM     28  O   UNL     1      -2.961 -10.229  -8.943  1.00  0.00    -0.508 OA
ATOM     29  H   UNL     1      -3.251 -10.713  -9.785  1.00  0.00     0.293 HD
ENDBRANCH   8  28
TORSDOF 7
ENDMDL
MODEL 6
REMARK VINA RESULT:    -5.750     15.467     19.795
REMARK INTER + INTRA:          -7.358
REMARK INTER:                  -7.010
REMARK INTRA:                  -0.349
REMARK UNBOUND:                -0.264
REMARK SMILES O=c1c(O)c(-c2cc(O)c(O)c(O)c2)oc2cc(O)cc(O)c12
REMARK SMILES IDX 5 1 3 2 2 3 1 4 23 5 21 6 20 7 18 8 17 9 16 10 15 11 6 12
REMARK SMILES IDX 7 13 8 14 14 15 10 16 12 17 9 18 11 20 13 22 4 24 22 26
REMARK SMILES IDX 19 28
REMARK H PARENT 9 19 11 21 13 23 4 25 22 27 19 29
REMARK Flexibility Score: inf
ROOT
ATOM      1  C   UNL     1       5.753 -11.463  -5.339  1.00  0.00     0.180 A 
ATOM      2  C   UNL     1       6.360 -12.137  -6.414  1.00  0.00     0.208 A 
ATOM      3  C   UNL     1       7.089 -11.397  -7.358  1.00  0.00     0.238 A 
ATOM      4  O   UNL     1       7.584 -11.999  -8.346  1.00  0.00    -0.285 OA
ATOM      5  C   UNL     1       7.217  -9.995  -7.207  1.00  0.00     0.111 A 
ATOM      6  C   UNL     1       7.965  -9.151  -8.081  1.00  0.00     0.134 A 
ATOM      7  C   UNL     1       7.915  -7.762  -7.911  1.00  0.00     0.093 A 
ATOM      8  C   UNL     1       7.195  -7.191  -6.858  1.00  0.00     0.123 A 
ATOM      9  C   UNL     1       6.510  -8.010  -5.965  1.00  0.00     0.094 A 
ATOM     10  C   UNL     1       6.511  -9.397  -6.130  1.00  0.00     0.146 A 
ATOM     11  O   UNL     1       5.836 -10.141  -5.262  1.00  0.00    -0.452 OA
ENDROOT
BRANCH   1  12
ATOM     12  C   UNL     1       4.989 -12.179  -4.292  1.00  0.00     0.029 A 
ATOM     13  C   UNL     1       3.587 -12.164  -4.329  1.00  0.00     0.062 A 
ATOM     14  C   UNL     1       2.839 -12.813  -3.340  1.00  0.00     0.162 A 
ATOM     15  C   UNL     1       5.638 -12.825  -3.227  1.00  0.00     0.062 A 
ATOM     16  C   UNL     1       3.493 -13.477  -2.288  1.00  0.00     0.200 A 
ATOM     17  C   UNL     1       4.897 -13.478  -2.231  1.00  0.00     0.162 A 
BRANCH  14  18
ATOM     18  O   UNL     1       1.446 -12.787  -3.421  1.00  0.00    -0.504 OA
ATOM     19  H   UNL     1       0.906 -13.608  -3.663  1.00  0.00     0.293 HD
ENDBRANCH  14  18
BRANCH  16  20
ATOM     20  O   UNL     1       2.740 -14.125  -1.309  1.00  0.00    -0.502 OA
ATOM     21  H   UNL     1       1.896 -13.721  -0.922  1.00  0.00     0.293 HD
ENDBRANCH  16  20
BRANCH  17  22
ATOM     22  O   UNL     1       5.552 -14.122  -1.182  1.00  0.00    -0.504 OA
ATOM     23  H   UNL     1       5.109 -14.865  -0.656  1.00  0.00     0.293 HD
ENDBRANCH  17  22
ENDBRANCH   1  12
BRANCH   2  24
ATOM     24  O   UNL     1       6.203 -13.520  -6.556  1.00  0.00    -0.502 OA
ATOM     25  H   UNL     1       5.482 -14.038  -6.068  1.00  0.00     0.293 HD
ENDBRANCH   2  24
BRANCH   6  26
ATOM     26  O   UNL     1       8.790  -9.624  -9.106  1.00  0.00    -0.507 OA
ATOM     27  H   UNL     1       8.627 -10.470  -9.630  1.00  0.00     0.293 HD
ENDBRANCH   6  26
BRANCH   8  28
ATOM     28  O   UNL     1       7.163  -5.809  -6.687  1.00  0.00    -0.508 OA
ATOM     29  H   UNL     1       6.884  -5.187  -7.437  1.00  0.00     0.293 HD
ENDBRANCH   8  28
TORSDOF 7
ENDMDL
MODEL 7
REMARK VINA RESULT:    -5.557     12.280     13.919
REMARK INTER + INTRA:          -7.120
REMARK INTER:                  -7.111
REMARK INTRA:                  -0.009
REMARK UNBOUND:                -0.264
REMARK SMILES O=c1c(O)c(-c2cc(O)c(O)c(O)c2)oc2cc(O)cc(O)c12
REMARK SMILES IDX 5 1 3 2 2 3 1 4 23 5 21 6 20 7 18 8 17 9 16 10 15 11 6 12
REMARK SMILES IDX 7 13 8 14 14 15 10 16 12 17 9 18 11 20 13 22 4 24 22 26
REMARK SMILES IDX 19 28
REMARK H PARENT 9 19 11 21 13 23 4 25 22 27 19 29
REMARK Flexibility Score: inf
ROOT
ATOM      1  C   UNL     1      -5.087 -11.756  -4.125  1.00  0.00     0.180 A 
ATOM      2  C   UNL     1      -4.430 -11.758  -2.882  1.00  0.00     0.208 A 
ATOM      3  C   UNL     1      -5.188 -11.608  -1.711  1.00  0.00     0.238 A 
ATOM      4  O   UNL     1      -4.588 -11.557  -0.605  1.00  0.00    -0.285 OA
ATOM      5  C   UNL     1      -6.595 -11.475  -1.794  1.00  0.00     0.111 A 
ATOM      6  C   UNL     1      -7.466 -11.358  -0.670  1.00  0.00     0.134 A 
ATOM      7  C   UNL     1      -8.827 -11.100  -0.874  1.00  0.00     0.093 A 
ATOM      8  C   UNL     1      -9.360 -11.021  -2.164  1.00  0.00     0.123 A 
ATOM      9  C   UNL     1      -8.528 -11.194  -3.267  1.00  0.00     0.094 A 
ATOM     10  C   UNL     1      -7.159 -11.416  -3.095  1.00  0.00     0.146 A 
ATOM     11  O   UNL     1      -6.400 -11.565  -4.174  1.00  0.00    -0.452 OA
ENDROOT
BRANCH   1  12
ATOM     12  C   UNL     1      -4.358 -11.934  -5.402  1.00  0.00     0.029 A 
ATOM     13  C   UNL     1      -4.672 -11.113  -6.495  1.00  0.00     0.062 A 
ATOM     14  C   UNL     1      -4.014 -11.272  -7.720  1.00  0.00     0.162 A 
ATOM     15  C   UNL     1      -3.398 -12.948  -5.561  1.00  0.00     0.062 A 
ATOM     16  C   UNL     1      -3.039 -12.274  -7.868  1.00  0.00     0.200 A 
ATOM     17  C   UNL     1      -2.735 -13.116  -6.784  1.00  0.00     0.162 A 
BRANCH  14  18
ATOM     18  O   UNL     1      -4.344 -10.426  -8.779  1.00  0.00    -0.504 OA
ATOM     19  H   UNL     1      -5.183 -10.558  -9.332  1.00  0.00     0.293 HD
ENDBRANCH  14  18
BRANCH  16  20
ATOM     20  O   UNL     1      -2.385 -12.424  -9.091  1.00  0.00    -0.502 OA
ATOM     21  H   UNL     1      -1.390 -12.270  -9.194  1.00  0.00     0.293 HD
ENDBRANCH  16  20
BRANCH  17  22
ATOM     22  O   UNL     1      -1.779 -14.121  -6.929  1.00  0.00    -0.504 OA
ATOM     23  H   UNL     1      -1.817 -14.972  -6.381  1.00  0.00     0.293 HD
ENDBRANCH  17  22
ENDBRANCH   1  12
BRANCH   2  24
ATOM     24  O   UNL     1      -3.037 -11.869  -2.824  1.00  0.00    -0.502 OA
ATOM     25  H   UNL     1      -2.539 -12.667  -3.200  1.00  0.00     0.293 HD
ENDBRANCH   2  24
BRANCH   6  26
ATOM     26  O   UNL     1      -7.053 -11.513   0.657  1.00  0.00    -0.507 OA
ATOM     27  H   UNL     1      -6.117 -11.339   0.991  1.00  0.00     0.293 HD
ENDBRANCH   6  26
BRANCH   8  28
ATOM     28  O   UNL     1     -10.718 -10.780  -2.358  1.00  0.00    -0.508 OA
ATOM     29  H   UNL     1     -11.053 -10.246  -3.152  1.00  0.00     0.293 HD
ENDBRANCH   8  28
TORSDOF 7
ENDMDL
MODEL 8
REMARK VINA RESULT:    -5.454     10.678     13.269
REMARK INTER + INTRA:          -6.993
REMARK INTER:                  -7.098
REMARK INTRA:                   0.105
REMARK UNBOUND:                -0.264
REMARK SMILES O=c1c(O)c(-c2cc(O)c(O)c(O)c2)oc2cc(O)cc(O)c12
REMARK SMILES IDX 5 1 3 2 2 3 1 4 23 5 21 6 20 7 18 8 17 9 16 10 15 11 6 12
REMARK SMILES IDX 7 13 8 14 14 15 10 16 12 17 9 18 11 20 13 22 4 24 22 26
REMARK SMILES IDX 19 28
REMARK H PARENT 9 19 11 21 13 23 4 25 22 27 19 29
REMARK Flexibility Score: inf
ROOT
ATOM      1  C   UNL     1      -3.769   2.014   8.873  1.00  0.00     0.180 A 
ATOM      2  C   UNL     1      -4.215   2.557   7.655  1.00  0.00     0.208 A 
ATOM      3  C   UNL     1      -3.621   3.736   7.177  1.00  0.00     0.238 A 
ATOM      4  O   UNL     1      -4.061   4.246   6.114  1.00  0.00    -0.285 OA
ATOM      5  C   UNL     1      -2.578   4.348   7.913  1.00  0.00     0.111 A 
ATOM      6  C   UNL     1      -1.878   5.522   7.503  1.00  0.00     0.134 A 
ATOM      7  C   UNL     1      -0.954   6.115   8.373  1.00  0.00     0.093 A 
ATOM      8  C   UNL     1      -0.658   5.537   9.611  1.00  0.00     0.123 A 
ATOM      9  C   UNL     1      -1.292   4.359   9.994  1.00  0.00     0.094 A 
ATOM     10  C   UNL     1      -2.246   3.764   9.164  1.00  0.00     0.146 A 
ATOM     11  O   UNL     1      -2.835   2.647   9.572  1.00  0.00    -0.452 OA
ENDROOT
BRANCH   1  12
ATOM     12  C   UNL     1      -4.330   0.761   9.428  1.00  0.00     0.029 A 
ATOM     13  C   UNL     1      -5.719   0.567   9.425  1.00  0.00     0.062 A 
ATOM     14  C   UNL     1      -6.278  -0.598   9.962  1.00  0.00     0.162 A 
ATOM     15  C   UNL     1      -3.504  -0.214  10.012  1.00  0.00     0.062 A 
ATOM     16  C   UNL     1      -5.446  -1.581  10.526  1.00  0.00     0.200 A 
ATOM     17  C   UNL     1      -4.055  -1.384  10.554  1.00  0.00     0.162 A 
BRANCH  14  18
ATOM     18  O   UNL     1      -7.664  -0.760   9.927  1.00  0.00    -0.504 OA
ATOM     19  H   UNL     1      -8.250  -0.553  10.726  1.00  0.00     0.293 HD
ENDBRANCH  14  18
BRANCH  16  20
ATOM     20  O   UNL     1      -6.012  -2.741  11.057  1.00  0.00    -0.502 OA
ATOM     21  H   UNL     1      -6.791  -2.714  11.703  1.00  0.00     0.293 HD
ENDBRANCH  16  20
BRANCH  17  22
ATOM     22  O   UNL     1      -3.226  -2.348  11.125  1.00  0.00    -0.504 OA
ATOM     23  H   UNL     1      -2.592  -2.122  11.882  1.00  0.00     0.293 HD
ENDBRANCH  17  22
ENDBRANCH   1  12
BRANCH   2  24
ATOM     24  O   UNL     1      -5.260   1.948   6.954  1.00  0.00    -0.502 OA
ATOM     25  H   UNL     1      -6.222   1.986   7.271  1.00  0.00     0.293 HD
ENDBRANCH   2  24
BRANCH   6  26
ATOM     26  O   UNL     1      -2.031   6.125   6.251  1.00  0.00    -0.507 OA
ATOM     27  H   UNL     1      -1.321   6.152   5.536  1.00  0.00     0.293 HD
ENDBRANCH   6  26
BRANCH   8  28
ATOM     28  O   UNL     1       0.274   6.125  10.464  1.00  0.00    -0.508 OA
ATOM     29  H   UNL     1       1.239   6.260  10.183  1.00  0.00     0.293 HD
ENDBRANCH   8  28
TORSDOF 7
ENDMDL
