MODEL 1
REMARK VINA RESULT:    -5.996      0.000      0.000
REMARK INTER + INTRA:         -10.869
REMARK INTER:                  -9.151
REMARK INTRA:                  -1.718
REMARK UNBOUND:                -1.718
REMARK SMILES CC(=O)CCC=C(C)CCC=C(C)CCC=C(C)C
REMARK SMILES IDX 10 1 11 2 12 3 13 4 14 5 15 6 16 7 18 8 17 9 19 10 9 11 7 12
REMARK SMILES IDX 6 13 8 14 5 15 4 16 2 17 3 18 1 19
REMARK H PARENT
REMARK Flexibility Score: inf
ROOT
ATOM      1  C   UNL     1      -8.209  34.239  26.909  1.00  0.00     0.032 C 
ENDROOT
BRANCH   1   2
ATOM      2  C   UNL     1      -8.878  32.995  26.382  1.00  0.00    -0.028 C 
ATOM      3  C   UNL     1      -9.143  31.895  27.125  1.00  0.00    -0.077 C 
ATOM      4  C   UNL     1      -8.825  31.834  28.600  1.00  0.00     0.039 C 
BRANCH   3   5
ATOM      5  C   UNL     1      -9.784  30.699  26.457  1.00  0.00     0.034 C 
BRANCH   5   6
ATOM      6  C   UNL     1      -8.732  29.642  26.103  1.00  0.00     0.032 C 
BRANCH   6   7
ATOM      7  C   UNL     1      -8.960  29.105  24.712  1.00  0.00    -0.028 C 
ATOM      8  C   UNL     1      -7.306  30.666  23.664  1.00  0.00     0.039 C 
ATOM      9  C   UNL     1      -8.309  29.537  23.610  1.00  0.00    -0.080 C 
ATOM     10  C   UNL     1      -8.614  28.879  22.290  1.00  0.00     0.039 C 
ENDBRANCH   6   7
ENDBRANCH   5   6
ENDBRANCH   3   5
ENDBRANCH   1   2
BRANCH   1  11
ATOM     11  C   UNL     1      -7.232  34.809  25.875  1.00  0.00     0.034 C 
BRANCH  11  12
ATOM     12  C   UNL     1      -7.919  35.024  24.544  1.00  0.00    -0.077 C 
ATOM     13  C   UNL     1      -7.461  34.363  23.456  1.00  0.00    -0.028 C 
ATOM     14  C   UNL     1      -9.091  35.975  24.465  1.00  0.00     0.039 C 
BRANCH  13  15
ATOM     15  C   UNL     1      -8.075  34.452  22.082  1.00  0.00     0.035 C 
BRANCH  15  16
ATOM     16  C   UNL     1      -9.114  33.346  21.879  1.00  0.00     0.079 C 
BRANCH  16  17
ATOM     17  C   UNL     1      -8.720  32.445  20.741  1.00  0.00     0.130 C 
ATOM     18  O   UNL     1      -9.474  31.550  20.388  1.00  0.00    -0.300 OA
ATOM     19  C   UNL     1      -7.421  32.651  20.025  1.00  0.00     0.087 C 
ENDBRANCH  16  17
ENDBRANCH  15  16
ENDBRANCH  13  15
ENDBRANCH  11  12
ENDBRANCH   1  11
TORSDOF 9
ENDMDL
MODEL 2
REMARK VINA RESULT:    -5.944      1.403      4.087
REMARK INTER + INTRA:         -10.790
REMARK INTER:                  -9.868
REMARK INTRA:                  -0.922
REMARK UNBOUND:                -1.718
REMARK SMILES CC(=O)CCC=C(C)CCC=C(C)CCC=C(C)C
REMARK SMILES IDX 10 1 11 2 12 3 13 4 14 5 15 6 16 7 18 8 17 9 19 10 9 11 7 12
REMARK SMILES IDX 6 13 8 14 5 15 4 16 2 17 3 18 1 19
REMARK H PARENT
REMARK Flexibility Score: inf
ROOT
ATOM      1  C   UNL     1      -7.091  34.742  23.132  1.00  0.00     0.032 C 
ENDROOT
BRANCH   1   2
ATOM      2  C   UNL     1      -7.769  33.796  24.090  1.00  0.00    -0.028 C 
ATOM      3  C   UNL     1      -8.388  34.176  25.233  1.00  0.00    -0.077 C 
ATOM      4  C   UNL     1      -8.498  35.628  25.635  1.00  0.00     0.039 C 
BRANCH   3   5
ATOM      5  C   UNL     1      -8.994  33.115  26.124  1.00  0.00     0.034 C 
BRANCH   5   6
ATOM      6  C   UNL     1      -7.967  32.604  27.141  1.00  0.00     0.032 C 
BRANCH   6   7
ATOM      7  C   UNL     1      -8.650  31.888  28.279  1.00  0.00    -0.028 C 
ATOM      8  C   UNL     1      -8.568  29.659  27.137  1.00  0.00     0.039 C 
ATOM      9  C   UNL     1      -8.905  30.561  28.303  1.00  0.00    -0.080 C 
ATOM     10  C   UNL     1      -9.561  29.976  29.527  1.00  0.00     0.039 C 
ENDBRANCH   6   7
ENDBRANCH   5   6
ENDBRANCH   3   5
ENDBRANCH   1   2
BRANCH   1  11
ATOM     11  C   UNL     1      -7.932  34.926  21.864  1.00  0.00     0.034 C 
BRANCH  11  12
ATOM     12  C   UNL     1      -8.201  33.595  21.198  1.00  0.00    -0.077 C 
ATOM     13  C   UNL     1      -9.198  32.813  21.673  1.00  0.00    -0.028 C 
ATOM     14  C   UNL     1      -7.345  33.171  20.026  1.00  0.00     0.039 C 
BRANCH  13  15
ATOM     15  C   UNL     1      -9.599  31.487  21.080  1.00  0.00     0.035 C 
BRANCH  15  16
ATOM     16  C   UNL     1      -8.686  30.367  21.588  1.00  0.00     0.079 C 
BRANCH  16  17
ATOM     17  C   UNL     1      -8.549  30.426  23.084  1.00  0.00     0.130 C 
ATOM     18  O   UNL     1      -9.545  30.563  23.779  1.00  0.00    -0.300 OA
ATOM     19  C   UNL     1      -7.203  30.298  23.729  1.00  0.00     0.087 C 
ENDBRANCH  16  17
ENDBRANCH  15  16
ENDBRANCH  13  15
ENDBRANCH  11  12
ENDBRANCH   1  11
TORSDOF 9
ENDMDL
MODEL 3
REMARK VINA RESULT:    -5.662      2.523      6.621
REMARK INTER + INTRA:         -10.358
REMARK INTER:                  -8.716
REMARK INTRA:                  -1.642
REMARK UNBOUND:                -1.718
REMARK SMILES CC(=O)CCC=C(C)CCC=C(C)CCC=C(C)C
REMARK SMILES IDX 10 1 11 2 12 3 13 4 14 5 15 6 16 7 18 8 17 9 19 10 9 11 7 12
REMARK SMILES IDX 6 13 8 14 5 15 4 16 2 17 3 18 1 19
REMARK H PARENT
REMARK Flexibility Score: inf
ROOT
ATOM      1  C   UNL     1      -7.140  30.031  22.262  1.00  0.00     0.032 C 
ENDROOT
BRANCH   1   2
ATOM      2  C   UNL     1      -7.528  31.486  22.186  1.00  0.00    -0.028 C 
ATOM      3  C   UNL     1      -8.585  31.962  21.488  1.00  0.00    -0.077 C 
ATOM      4  C   UNL     1      -9.524  31.044  20.741  1.00  0.00     0.039 C 
BRANCH   3   5
ATOM      5  C   UNL     1      -8.836  33.453  21.465  1.00  0.00     0.034 C 
BRANCH   5   6
ATOM      6  C   UNL     1      -7.676  34.212  22.119  1.00  0.00     0.032 C 
BRANCH   6   7
ATOM      7  C   UNL     1      -8.190  35.217  23.119  1.00  0.00    -0.028 C 
ATOM      8  C   UNL     1      -8.239  33.561  24.998  1.00  0.00     0.039 C 
ATOM      9  C   UNL     1      -8.424  34.947  24.422  1.00  0.00    -0.080 C 
ATOM     10  C   UNL     1      -8.901  36.063  25.314  1.00  0.00     0.039 C 
ENDBRANCH   6   7
ENDBRANCH   5   6
ENDBRANCH   3   5
ENDBRANCH   1   2
BRANCH   1  11
ATOM     11  C   UNL     1      -6.869  29.617  23.713  1.00  0.00     0.034 C 
BRANCH  11  12
ATOM     12  C   UNL     1      -8.155  29.562  24.507  1.00  0.00    -0.077 C 
ATOM     13  C   UNL     1      -8.190  30.122  25.738  1.00  0.00    -0.028 C 
ATOM     14  C   UNL     1      -9.362  28.875  23.909  1.00  0.00     0.039 C 
BRANCH  13  15
ATOM     15  C   UNL     1      -9.413  30.175  26.618  1.00  0.00     0.035 C 
BRANCH  15  16
ATOM     16  C   UNL     1      -9.056  29.825  28.065  1.00  0.00     0.079 C 
BRANCH  16  17
ATOM     17  C   UNL     1      -9.078  31.054  28.933  1.00  0.00     0.130 C 
ATOM     18  O   UNL     1      -9.658  31.026  30.008  1.00  0.00    -0.300 OA
ATOM     19  C   UNL     1      -8.377  32.304  28.496  1.00  0.00     0.087 C 
ENDBRANCH  16  17
ENDBRANCH  15  16
ENDBRANCH  13  15
ENDBRANCH  11  12
ENDBRANCH   1  11
TORSDOF 9
ENDMDL
MODEL 4
REMARK VINA RESULT:    -5.652      1.251      4.363
REMARK INTER + INTRA:         -10.343
REMARK INTER:                  -8.985
REMARK INTRA:                  -1.358
REMARK UNBOUND:                -1.718
REMARK SMILES CC(=O)CCC=C(C)CCC=C(C)CCC=C(C)C
REMARK SMILES IDX 10 1 11 2 12 3 13 4 14 5 15 6 16 7 18 8 17 9 19 10 9 11 7 12
REMARK SMILES IDX 6 13 8 14 5 15 4 16 2 17 3 18 1 19
REMARK H PARENT
REMARK Flexibility Score: inf
ROOT
ATOM      1  C   UNL     1      -8.010  33.676  27.463  1.00  0.00     0.032 C 
ENDROOT
BRANCH   1   2
ATOM      2  C   UNL     1      -8.085  33.796  25.962  1.00  0.00    -0.028 C 
ATOM      3  C   UNL     1      -8.404  34.932  25.300  1.00  0.00    -0.077 C 
ATOM      4  C   UNL     1      -8.674  36.229  26.026  1.00  0.00     0.039 C 
BRANCH   3   5
ATOM      5  C   UNL     1      -8.483  34.902  23.789  1.00  0.00     0.034 C 
BRANCH   5   6
ATOM      6  C   UNL     1      -8.376  33.465  23.266  1.00  0.00     0.032 C 
BRANCH   6   7
ATOM      7  C   UNL     1      -7.585  33.420  21.983  1.00  0.00    -0.028 C 
ATOM      8  C   UNL     1      -9.343  32.124  20.758  1.00  0.00     0.039 C 
ATOM      9  C   UNL     1      -8.016  32.843  20.840  1.00  0.00    -0.080 C 
ATOM     10  C   UNL     1      -7.132  32.909  19.622  1.00  0.00     0.039 C 
ENDBRANCH   6   7
ENDBRANCH   5   6
ENDBRANCH   3   5
ENDBRANCH   1   2
BRANCH   1  11
ATOM     11  C   UNL     1      -7.757  32.223  27.879  1.00  0.00     0.034 C 
BRANCH  11  12
ATOM     12  C   UNL     1      -8.616  31.274  27.072  1.00  0.00    -0.077 C 
ATOM     13  C   UNL     1      -8.013  30.327  26.316  1.00  0.00    -0.028 C 
ATOM     14  C   UNL     1     -10.120  31.413  27.127  1.00  0.00     0.039 C 
BRANCH  13  15
ATOM     15  C   UNL     1      -8.746  29.295  25.498  1.00  0.00     0.035 C 
BRANCH  15  16
ATOM     16  C   UNL     1      -9.216  29.890  24.168  1.00  0.00     0.079 C 
BRANCH  16  17
ATOM     17  C   UNL     1      -8.293  29.493  23.049  1.00  0.00     0.130 C 
ATOM     18  O   UNL     1      -8.752  29.006  22.027  1.00  0.00    -0.300 OA
ATOM     19  C   UNL     1      -6.815  29.711  23.171  1.00  0.00     0.087 C 
ENDBRANCH  16  17
ENDBRANCH  15  16
ENDBRANCH  13  15
ENDBRANCH  11  12
ENDBRANCH   1  11
TORSDOF 9
ENDMDL
MODEL 5
REMARK VINA RESULT:    -5.390     17.648     19.679
REMARK INTER + INTRA:          -9.944
REMARK INTER:                  -8.081
REMARK INTRA:                  -1.862
REMARK UNBOUND:                -1.718
REMARK SMILES CC(=O)CCC=C(C)CCC=C(C)CCC=C(C)C
REMARK SMILES IDX 10 1 11 2 12 3 13 4 14 5 15 6 16 7 18 8 17 9 19 10 9 11 7 12
REMARK SMILES IDX 6 13 8 14 5 15 4 16 2 17 3 18 1 19
REMARK H PARENT
REMARK Flexibility Score: inf
ROOT
ATOM      1  C   UNL     1       0.422  45.139  14.381  1.00  0.00     0.032 C 
ENDROOT
BRANCH   1   2
ATOM      2  C   UNL     1       1.393  45.662  15.407  1.00  0.00    -0.028 C 
ATOM      3  C   UNL     1       2.107  46.804  15.274  1.00  0.00    -0.077 C 
ATOM      4  C   UNL     1       1.952  47.705  14.072  1.00  0.00     0.039 C 
BRANCH   3   5
ATOM      5  C   UNL     1       3.079  47.192  16.367  1.00  0.00     0.034 C 
BRANCH   5   6
ATOM      6  C   UNL     1       2.477  48.269  17.275  1.00  0.00     0.032 C 
BRANCH   6   7
ATOM      7  C   UNL     1       1.847  47.649  18.497  1.00  0.00    -0.028 C 
ATOM      8  C   UNL     1      -0.488  47.962  17.647  1.00  0.00     0.039 C 
ATOM      9  C   UNL     1       0.517  47.481  18.668  1.00  0.00    -0.080 C 
ATOM     10  C   UNL     1       0.033  46.810  19.927  1.00  0.00     0.039 C 
ENDBRANCH   6   7
ENDBRANCH   5   6
ENDBRANCH   3   5
ENDBRANCH   1   2
BRANCH   1  11
ATOM     11  C   UNL     1      -1.005  45.600  14.698  1.00  0.00     0.034 C 
BRANCH  11  12
ATOM     12  C   UNL     1      -1.566  46.435  13.568  1.00  0.00    -0.077 C 
ATOM     13  C   UNL     1      -1.809  45.845  12.375  1.00  0.00    -0.028 C 
ATOM     14  C   UNL     1      -1.830  47.906  13.800  1.00  0.00     0.039 C 
BRANCH  13  15
ATOM     15  C   UNL     1      -2.403  46.548  11.181  1.00  0.00     0.035 C 
BRANCH  15  16
ATOM     16  C   UNL     1      -3.730  45.900  10.774  1.00  0.00     0.079 C 
BRANCH  16  17
ATOM     17  C   UNL     1      -4.855  46.896  10.845  1.00  0.00     0.130 C 
ATOM     18  O   UNL     1      -5.579  47.063   9.875  1.00  0.00    -0.300 OA
ATOM     19  C   UNL     1      -5.106  47.669  12.105  1.00  0.00     0.087 C 
ENDBRANCH  16  17
ENDBRANCH  15  16
ENDBRANCH  13  15
ENDBRANCH  11  12
ENDBRANCH   1  11
TORSDOF 9
ENDMDL
MODEL 6
REMARK VINA RESULT:    -5.288     18.416     20.183
REMARK INTER + INTRA:          -9.787
REMARK INTER:                  -8.409
REMARK INTRA:                  -1.378
REMARK UNBOUND:                -1.718
REMARK SMILES CC(=O)CCC=C(C)CCC=C(C)CCC=C(C)C
REMARK SMILES IDX 10 1 11 2 12 3 13 4 14 5 15 6 16 7 18 8 17 9 19 10 9 11 7 12
REMARK SMILES IDX 6 13 8 14 5 15 4 16 2 17 3 18 1 19
REMARK H PARENT
REMARK Flexibility Score: inf
ROOT
ATOM      1  C   UNL     1      -1.334  45.594  14.282  1.00  0.00     0.032 C 
ENDROOT
BRANCH   1   2
ATOM      2  C   UNL     1      -1.702  45.551  12.821  1.00  0.00    -0.028 C 
ATOM      3  C   UNL     1      -1.836  46.643  12.033  1.00  0.00    -0.077 C 
ATOM      4  C   UNL     1      -1.574  48.038  12.552  1.00  0.00     0.039 C 
BRANCH   3   5
ATOM      5  C   UNL     1      -2.250  46.458  10.589  1.00  0.00     0.034 C 
BRANCH   5   6
ATOM      6  C   UNL     1      -3.605  45.750  10.497  1.00  0.00     0.032 C 
BRANCH   6   7
ATOM      7  C   UNL     1      -4.647  46.663   9.900  1.00  0.00    -0.028 C 
ATOM      8  C   UNL     1      -5.304  47.625  12.118  1.00  0.00     0.039 C 
ATOM      9  C   UNL     1      -5.401  47.529  10.613  1.00  0.00    -0.080 C 
ATOM     10  C   UNL     1      -6.377  48.408   9.875  1.00  0.00     0.039 C 
ENDBRANCH   6   7
ENDBRANCH   5   6
ENDBRANCH   3   5
ENDBRANCH   1   2
BRANCH   1  11
ATOM     11  C   UNL     1       0.162  45.322  14.474  1.00  0.00     0.034 C 
BRANCH  11  12
ATOM     12  C   UNL     1       0.790  46.370  15.367  1.00  0.00    -0.077 C 
ATOM     13  C   UNL     1      -0.013  47.153  16.124  1.00  0.00    -0.028 C 
ATOM     14  C   UNL     1       2.294  46.520  15.382  1.00  0.00     0.039 C 
BRANCH  13  15
ATOM     15  C   UNL     1       0.480  48.204  17.085  1.00  0.00     0.035 C 
BRANCH  15  16
ATOM     16  C   UNL     1       0.347  47.723  18.532  1.00  0.00     0.079 C 
BRANCH  16  17
ATOM     17  C   UNL     1       1.691  47.679  19.206  1.00  0.00     0.130 C 
ATOM     18  O   UNL     1       2.707  47.609  18.531  1.00  0.00    -0.300 OA
ATOM     19  C   UNL     1       1.793  47.743  20.700  1.00  0.00     0.087 C 
ENDBRANCH  16  17
ENDBRANCH  15  16
ENDBRANCH  13  15
ENDBRANCH  11  12
ENDBRANCH   1  11
TORSDOF 9
ENDMDL
MODEL 7
REMARK VINA RESULT:    -5.162     17.528     19.478
REMARK INTER + INTRA:          -9.595
REMARK INTER:                  -8.358
REMARK INTRA:                  -1.237
REMARK UNBOUND:                -1.718
REMARK SMILES CC(=O)CCC=C(C)CCC=C(C)CCC=C(C)C
REMARK SMILES IDX 10 1 11 2 12 3 13 4 14 5 15 6 16 7 18 8 17 9 19 10 9 11 7 12
REMARK SMILES IDX 6 13 8 14 5 15 4 16 2 17 3 18 1 19
REMARK H PARENT
REMARK Flexibility Score: inf
ROOT
ATOM      1  C   UNL     1      -1.253  48.215  17.015  1.00  0.00     0.032 C 
ENDROOT
BRANCH   1   2
ATOM      2  C   UNL     1      -1.266  47.358  15.775  1.00  0.00    -0.028 C 
ATOM      3  C   UNL     1      -0.213  46.631  15.335  1.00  0.00    -0.077 C 
ATOM      4  C   UNL     1       1.091  46.575  16.096  1.00  0.00     0.039 C 
BRANCH   3   5
ATOM      5  C   UNL     1      -0.352  45.845  14.050  1.00  0.00     0.034 C 
BRANCH   5   6
ATOM      6  C   UNL     1      -1.817  45.777  13.607  1.00  0.00     0.032 C 
BRANCH   6   7
ATOM      7  C   UNL     1      -1.925  45.814  12.103  1.00  0.00    -0.028 C 
ATOM      8  C   UNL     1      -2.240  48.298  12.028  1.00  0.00     0.039 C 
ATOM      9  C   UNL     1      -2.089  46.942  11.377  1.00  0.00    -0.080 C 
ATOM     10  C   UNL     1      -2.142  46.830   9.875  1.00  0.00     0.039 C 
ENDBRANCH   6   7
ENDBRANCH   5   6
ENDBRANCH   3   5
ENDBRANCH   1   2
BRANCH   1  11
ATOM     11  C   UNL     1      -2.117  47.591  18.116  1.00  0.00     0.034 C 
BRANCH  11  12
ATOM     12  C   UNL     1      -1.372  47.558  19.432  1.00  0.00    -0.077 C 
ATOM     13  C   UNL     1      -0.040  47.316  19.426  1.00  0.00    -0.028 C 
ATOM     14  C   UNL     1      -2.135  47.786  20.717  1.00  0.00     0.039 C 
BRANCH  13  15
ATOM     15  C   UNL     1       0.829  47.296  20.658  1.00  0.00     0.035 C 
BRANCH  15  16
ATOM     16  C   UNL     1       1.967  48.312  20.535  1.00  0.00     0.079 C 
BRANCH  16  17
ATOM     17  C   UNL     1       3.242  47.758  21.112  1.00  0.00     0.130 C 
ATOM     18  O   UNL     1       4.035  47.180  20.384  1.00  0.00    -0.300 OA
ATOM     19  C   UNL     1       3.554  47.930  22.567  1.00  0.00     0.087 C 
ENDBRANCH  16  17
ENDBRANCH  15  16
ENDBRANCH  13  15
ENDBRANCH  11  12
ENDBRANCH   1  11
TORSDOF 9
ENDMDL
MODEL 8
REMARK VINA RESULT:    -5.047     18.432     20.740
REMARK INTER + INTRA:          -9.420
REMARK INTER:                  -7.675
REMARK INTRA:                  -1.745
REMARK UNBOUND:                -1.718
REMARK SMILES CC(=O)CCC=C(C)CCC=C(C)CCC=C(C)C
REMARK SMILES IDX 10 1 11 2 12 3 13 4 14 5 15 6 16 7 18 8 17 9 19 10 9 11 7 12
REMARK SMILES IDX 6 13 8 14 5 15 4 16 2 17 3 18 1 19
REMARK H PARENT
REMARK Flexibility Score: inf
ROOT
ATOM      1  C   UNL     1      -1.849  45.607  13.661  1.00  0.00     0.032 C 
ENDROOT
BRANCH   1   2
ATOM      2  C   UNL     1      -1.499  46.533  12.524  1.00  0.00    -0.028 C 
ATOM      3  C   UNL     1      -1.924  47.814  12.420  1.00  0.00    -0.077 C 
ATOM      4  C   UNL     1      -2.770  48.462  13.491  1.00  0.00     0.039 C 
BRANCH   3   5
ATOM      5  C   UNL     1      -1.529  48.620  11.202  1.00  0.00     0.034 C 
BRANCH   5   6
ATOM      6  C   UNL     1      -2.121  48.008   9.928  1.00  0.00     0.032 C 
BRANCH   6   7
ATOM      7  C   UNL     1      -3.613  48.220   9.875  1.00  0.00    -0.028 C 
ATOM      8  C   UNL     1      -4.126  45.772  10.009  1.00  0.00     0.039 C 
ATOM      9  C   UNL     1      -4.528  47.228   9.936  1.00  0.00    -0.080 C 
ATOM     10  C   UNL     1      -5.989  47.593   9.910  1.00  0.00     0.039 C 
ENDBRANCH   6   7
ENDBRANCH   5   6
ENDBRANCH   3   5
ENDBRANCH   1   2
BRANCH   1  11
ATOM     11  C   UNL     1      -0.581  45.065  14.329  1.00  0.00     0.034 C 
BRANCH  11  12
ATOM     12  C   UNL     1       0.201  46.180  14.987  1.00  0.00    -0.077 C 
ATOM     13  C   UNL     1       1.498  46.361  14.647  1.00  0.00    -0.028 C 
ATOM     14  C   UNL     1      -0.484  47.055  16.012  1.00  0.00     0.039 C 
BRANCH  13  15
ATOM     15  C   UNL     1       2.379  47.455  15.193  1.00  0.00     0.035 C 
BRANCH  15  16
ATOM     16  C   UNL     1       3.794  46.933  15.454  1.00  0.00     0.079 C 
BRANCH  16  17
ATOM     17  C   UNL     1       4.054  46.810  16.930  1.00  0.00     0.130 C 
ATOM     18  O   UNL     1       5.027  46.184  17.325  1.00  0.00    -0.300 OA
ATOM     19  C   UNL     1       3.139  47.466  17.919  1.00  0.00     0.087 C 
ENDBRANCH  16  17
ENDBRANCH  15  16
ENDBRANCH  13  15
ENDBRANCH  11  12
ENDBRANCH   1  11
TORSDOF 9
ENDMDL
