MODEL 1
REMARK VINA RESULT:    -4.321      0.000      0.000
REMARK INTER + INTRA:          -4.447
REMARK INTER:                  -4.447
REMARK INTRA:                   0.000
REMARK UNBOUND:                 0.000
REMARK SMILES Cc1cccc(O)c1C
REMARK SMILES IDX 1 1 2 2 8 3 6 4 5 5 4 6 3 7 9 8 7 9
REMARK H PARENT 7 10
REMARK Flexibility Score: inf
ROOT
ATOM      1  C   UNL     1     -28.581 -54.562  56.066  1.00  0.00     0.045 C 
ATOM      2  C   UNL     1     -28.038 -53.838  54.861  1.00  0.00    -0.045 A 
ATOM      3  C   UNL     1     -26.923 -52.957  54.948  1.00  0.00    -0.006 A 
ATOM      4  C   UNL     1     -26.465 -52.309  53.773  1.00  0.00     0.118 A 
ATOM      5  C   UNL     1     -27.105 -52.540  52.552  1.00  0.00     0.046 A 
ATOM      6  C   UNL     1     -28.193 -53.402  52.474  1.00  0.00     0.004 A 
ATOM      7  C   UNL     1     -28.657 -54.048  53.618  1.00  0.00     0.004 A 
ATOM      8  C   UNL     1     -26.217 -52.693  56.259  1.00  0.00     0.048 C 
ENDROOT
BRANCH   4   9
ATOM      9  O   UNL     1     -25.377 -51.432  53.783  1.00  0.00    -0.508 OA
ATOM     10  H   UNL     1     -24.688 -51.407  54.522  1.00  0.00     0.293 HD
ENDBRANCH   4   9
TORSDOF 1
ENDMDL
MODEL 2
REMARK VINA RESULT:    -4.141      0.891      2.682
REMARK INTER + INTRA:          -4.262
REMARK INTER:                  -4.262
REMARK INTRA:                   0.000
REMARK UNBOUND:                 0.000
REMARK SMILES Cc1cccc(O)c1C
REMARK SMILES IDX 1 1 2 2 8 3 6 4 5 5 4 6 3 7 9 8 7 9
REMARK H PARENT 7 10
REMARK Flexibility Score: inf
ROOT
ATOM      1  C   UNL     1     -28.571 -54.450  53.096  1.00  0.00     0.045 C 
ATOM      2  C   UNL     1     -27.753 -53.786  54.173  1.00  0.00    -0.045 A 
ATOM      3  C   UNL     1     -27.005 -52.599  53.929  1.00  0.00    -0.006 A 
ATOM      4  C   UNL     1     -26.257 -52.028  54.989  1.00  0.00     0.118 A 
ATOM      5  C   UNL     1     -26.260 -52.628  56.252  1.00  0.00     0.046 A 
ATOM      6  C   UNL     1     -26.993 -53.787  56.483  1.00  0.00     0.004 A 
ATOM      7  C   UNL     1     -27.735 -54.363  55.453  1.00  0.00     0.004 A 
ATOM      8  C   UNL     1     -26.987 -51.933  52.571  1.00  0.00     0.048 C 
ENDROOT
BRANCH   4   9
ATOM      9  O   UNL     1     -25.500 -50.865  54.824  1.00  0.00    -0.508 OA
ATOM     10  H   UNL     1     -25.758 -50.116  54.195  1.00  0.00     0.293 HD
ENDBRANCH   4   9
TORSDOF 1
ENDMDL
MODEL 3
REMARK VINA RESULT:    -4.094      0.908      1.077
REMARK INTER + INTRA:          -4.213
REMARK INTER:                  -4.213
REMARK INTRA:                   0.000
REMARK UNBOUND:                 0.000
REMARK SMILES Cc1cccc(O)c1C
REMARK SMILES IDX 1 1 2 2 8 3 6 4 5 5 4 6 3 7 9 8 7 9
REMARK H PARENT 7 10
REMARK Flexibility Score: inf
ROOT
ATOM      1  C   UNL     1     -28.852 -54.952  54.378  1.00  0.00     0.045 C 
ATOM      2  C   UNL     1     -28.138 -53.800  53.721  1.00  0.00    -0.045 A 
ATOM      3  C   UNL     1     -27.084 -53.095  54.370  1.00  0.00    -0.006 A 
ATOM      4  C   UNL     1     -26.457 -52.020  53.692  1.00  0.00     0.118 A 
ATOM      5  C   UNL     1     -26.873 -51.665  52.405  1.00  0.00     0.046 A 
ATOM      6  C   UNL     1     -27.902 -52.358  51.777  1.00  0.00     0.004 A 
ATOM      7  C   UNL     1     -28.531 -53.418  52.428  1.00  0.00     0.004 A 
ATOM      8  C   UNL     1     -26.620 -53.462  55.761  1.00  0.00     0.048 C 
ENDROOT
BRANCH   4   9
ATOM      9  O   UNL     1     -25.417 -51.284  54.266  1.00  0.00    -0.508 OA
ATOM     10  H   UNL     1     -24.892 -50.578  53.768  1.00  0.00     0.293 HD
ENDBRANCH   4   9
TORSDOF 1
ENDMDL
MODEL 4
REMARK VINA RESULT:    -4.073      1.186      2.757
REMARK INTER + INTRA:          -4.192
REMARK INTER:                  -4.192
REMARK INTRA:                   0.000
REMARK UNBOUND:                 0.000
REMARK SMILES Cc1cccc(O)c1C
REMARK SMILES IDX 1 1 2 2 8 3 6 4 5 5 4 6 3 7 9 8 7 9
REMARK H PARENT 7 10
REMARK Flexibility Score: inf
ROOT
ATOM      1  C   UNL     1     -28.373 -53.693  52.033  1.00  0.00     0.045 C 
ATOM      2  C   UNL     1     -28.089 -53.747  53.512  1.00  0.00    -0.045 A 
ATOM      3  C   UNL     1     -27.062 -52.965  54.113  1.00  0.00    -0.006 A 
ATOM      4  C   UNL     1     -26.850 -53.067  55.511  1.00  0.00     0.118 A 
ATOM      5  C   UNL     1     -27.643 -53.924  56.280  1.00  0.00     0.046 A 
ATOM      6  C   UNL     1     -28.645 -54.685  55.686  1.00  0.00     0.004 A 
ATOM      7  C   UNL     1     -28.869 -54.598  54.314  1.00  0.00     0.004 A 
ATOM      8  C   UNL     1     -26.193 -52.033  53.300  1.00  0.00     0.048 C 
ENDROOT
BRANCH   4   9
ATOM      9  O   UNL     1     -25.862 -52.330  56.169  1.00  0.00    -0.508 OA
ATOM     10  H   UNL     1     -26.042 -51.755  56.981  1.00  0.00     0.293 HD
ENDBRANCH   4   9
TORSDOF 1
ENDMDL
MODEL 5
REMARK VINA RESULT:    -3.993      1.765      3.341
REMARK INTER + INTRA:          -4.110
REMARK INTER:                  -4.110
REMARK INTRA:                   0.000
REMARK UNBOUND:                 0.000
REMARK SMILES Cc1cccc(O)c1C
REMARK SMILES IDX 1 1 2 2 8 3 6 4 5 5 4 6 3 7 9 8 7 9
REMARK H PARENT 7 10
REMARK Flexibility Score: inf
ROOT
ATOM      1  C   UNL     1     -27.401 -53.299  51.934  1.00  0.00     0.045 C 
ATOM      2  C   UNL     1     -26.973 -52.887  53.319  1.00  0.00    -0.045 A 
ATOM      3  C   UNL     1     -27.327 -53.640  54.474  1.00  0.00    -0.006 A 
ATOM      4  C   UNL     1     -26.890 -53.193  55.746  1.00  0.00     0.118 A 
ATOM      5  C   UNL     1     -26.122 -52.030  55.855  1.00  0.00     0.046 A 
ATOM      6  C   UNL     1     -25.780 -51.299  54.722  1.00  0.00     0.004 A 
ATOM      7  C   UNL     1     -26.201 -51.722  53.463  1.00  0.00     0.004 A 
ATOM      8  C   UNL     1     -28.156 -54.901  54.379  1.00  0.00     0.048 C 
ENDROOT
BRANCH   4   9
ATOM      9  O   UNL     1     -27.198 -53.881  56.923  1.00  0.00    -0.508 OA
ATOM     10  H   UNL     1     -26.732 -54.731  57.211  1.00  0.00     0.293 HD
ENDBRANCH   4   9
TORSDOF 1
ENDMDL
MODEL 6
REMARK VINA RESULT:    -3.957     15.544     16.577
REMARK INTER + INTRA:          -4.073
REMARK INTER:                  -4.073
REMARK INTRA:                   0.000
REMARK UNBOUND:                 0.000
REMARK SMILES Cc1cccc(O)c1C
REMARK SMILES IDX 1 1 2 2 8 3 6 4 5 5 4 6 3 7 9 8 7 9
REMARK H PARENT 7 10
REMARK Flexibility Score: inf
ROOT
ATOM      1  C   UNL     1     -23.212 -68.767  58.065  1.00  0.00     0.045 C 
ATOM      2  C   UNL     1     -21.933 -68.286  58.700  1.00  0.00    -0.045 A 
ATOM      3  C   UNL     1     -21.369 -67.014  58.394  1.00  0.00    -0.006 A 
ATOM      4  C   UNL     1     -20.163 -66.626  59.029  1.00  0.00     0.118 A 
ATOM      5  C   UNL     1     -19.543 -67.486  59.941  1.00  0.00     0.046 A 
ATOM      6  C   UNL     1     -20.099 -68.726  60.235  1.00  0.00     0.004 A 
ATOM      7  C   UNL     1     -21.285 -69.125  59.622  1.00  0.00     0.004 A 
ATOM      8  C   UNL     1     -22.023 -66.069  57.411  1.00  0.00     0.048 C 
ENDROOT
BRANCH   4   9
ATOM      9  O   UNL     1     -19.553 -65.394  58.779  1.00  0.00    -0.508 OA
ATOM     10  H   UNL     1     -18.606 -65.300  58.436  1.00  0.00     0.293 HD
ENDBRANCH   4   9
TORSDOF 1
ENDMDL
MODEL 7
REMARK VINA RESULT:    -3.929      0.945      2.779
REMARK INTER + INTRA:          -4.044
REMARK INTER:                  -4.044
REMARK INTRA:                   0.000
REMARK UNBOUND:                 0.000
REMARK SMILES Cc1cccc(O)c1C
REMARK SMILES IDX 1 1 2 2 8 3 6 4 5 5 4 6 3 7 9 8 7 9
REMARK H PARENT 7 10
REMARK Flexibility Score: inf
ROOT
ATOM      1  C   UNL     1     -29.903 -54.253  52.145  1.00  0.00     0.045 C 
ATOM      2  C   UNL     1     -28.825 -53.825  53.107  1.00  0.00    -0.045 A 
ATOM      3  C   UNL     1     -27.774 -52.945  52.722  1.00  0.00    -0.006 A 
ATOM      4  C   UNL     1     -26.793 -52.585  53.679  1.00  0.00     0.118 A 
ATOM      5  C   UNL     1     -26.865 -53.091  54.981  1.00  0.00     0.046 A 
ATOM      6  C   UNL     1     -27.895 -53.950  55.350  1.00  0.00     0.004 A 
ATOM      7  C   UNL     1     -28.868 -54.315  54.423  1.00  0.00     0.004 A 
ATOM      8  C   UNL     1     -27.677 -52.387  51.320  1.00  0.00     0.048 C 
ENDROOT
BRANCH   4   9
ATOM      9  O   UNL     1     -25.734 -51.726  53.373  1.00  0.00    -0.508 OA
ATOM     10  H   UNL     1     -25.798 -50.984  52.689  1.00  0.00     0.293 HD
ENDBRANCH   4   9
TORSDOF 1
ENDMDL
MODEL 8
REMARK VINA RESULT:    -3.896      1.866      2.823
REMARK INTER + INTRA:          -4.010
REMARK INTER:                  -4.010
REMARK INTRA:                   0.000
REMARK UNBOUND:                 0.000
REMARK SMILES Cc1cccc(O)c1C
REMARK SMILES IDX 1 1 2 2 8 3 6 4 5 5 4 6 3 7 9 8 7 9
REMARK H PARENT 7 10
REMARK Flexibility Score: inf
ROOT
ATOM      1  C   UNL     1     -25.531 -50.891  55.384  1.00  0.00     0.045 C 
ATOM      2  C   UNL     1     -26.299 -51.876  54.541  1.00  0.00    -0.045 A 
ATOM      3  C   UNL     1     -26.816 -53.088  55.079  1.00  0.00    -0.006 A 
ATOM      4  C   UNL     1     -27.529 -53.969  54.227  1.00  0.00     0.118 A 
ATOM      5  C   UNL     1     -27.717 -53.643  52.881  1.00  0.00     0.046 A 
ATOM      6  C   UNL     1     -27.209 -52.456  52.362  1.00  0.00     0.004 A 
ATOM      7  C   UNL     1     -26.506 -51.578  53.184  1.00  0.00     0.004 A 
ATOM      8  C   UNL     1     -26.624 -53.461  56.532  1.00  0.00     0.048 C 
ENDROOT
BRANCH   4   9
ATOM      9  O   UNL     1     -28.065 -55.176  54.685  1.00  0.00    -0.508 OA
ATOM     10  H   UNL     1     -29.004 -55.266  55.049  1.00  0.00     0.293 HD
ENDBRANCH   4   9
TORSDOF 1
ENDMDL
MODEL 9
REMARK VINA RESULT:    -3.857      2.160      3.175
REMARK INTER + INTRA:          -3.970
REMARK INTER:                  -3.970
REMARK INTRA:                   0.000
REMARK UNBOUND:                 0.000
REMARK SMILES Cc1cccc(O)c1C
REMARK SMILES IDX 1 1 2 2 8 3 6 4 5 5 4 6 3 7 9 8 7 9
REMARK H PARENT 7 10
REMARK Flexibility Score: inf
ROOT
ATOM      1  C   UNL     1     -27.899 -50.394  51.631  1.00  0.00     0.045 C 
ATOM      2  C   UNL     1     -27.901 -51.874  51.915  1.00  0.00    -0.045 A 
ATOM      3  C   UNL     1     -27.052 -52.457  52.898  1.00  0.00    -0.006 A 
ATOM      4  C   UNL     1     -27.107 -53.857  53.112  1.00  0.00     0.118 A 
ATOM      5  C   UNL     1     -27.985 -54.646  52.363  1.00  0.00     0.046 A 
ATOM      6  C   UNL     1     -28.812 -54.071  51.404  1.00  0.00     0.004 A 
ATOM      7  C   UNL     1     -28.773 -52.696  51.180  1.00  0.00     0.004 A 
ATOM      8  C   UNL     1     -26.095 -51.622  53.718  1.00  0.00     0.048 C 
ENDROOT
BRANCH   4   9
ATOM      9  O   UNL     1     -26.304 -54.497  54.060  1.00  0.00    -0.508 OA
ATOM     10  H   UNL     1     -26.471 -55.439  54.387  1.00  0.00     0.293 HD
ENDBRANCH   4   9
TORSDOF 1
ENDMDL
