MODEL 1
REMARK VINA RESULT:    -6.936      0.000      0.000
REMARK INTER + INTRA:         -10.640
REMARK INTER:                  -9.977
REMARK INTRA:                  -0.663
REMARK UNBOUND:                -0.663
REMARK SMILES O=c1c(O[C@H]2O[C@@H](CO)[C@H](O)[C@H](O)[C@@H]2O)c(-c2ccc(O)cc2)oc2cc(O)cc(O)c12
REMARK SMILES IDX 4 1 3 2 16 3 24 4 2 5 25 6 1 7 32 8 26 9 30 10 27 11 29 12
REMARK SMILES IDX 17 13 18 14 19 15 20 16 23 17 22 18 21 19 31 21 28 23 5 25
REMARK SMILES IDX 14 26 6 27 12 28 7 29 10 30 15 31 13 33 8 35 9 36 11 38
REMARK H PARENT 21 20 31 22 28 24 15 32 13 34 9 37 11 39
REMARK Flexibility Score: inf
ROOT
ATOM      1  O   UNL     1      -3.510   5.799  14.066  1.00  0.00    -0.454 OA
ENDROOT
BRANCH   1   2
ATOM      2  C   UNL     1      -3.874   4.715  14.879  1.00  0.00     0.214 A 
ATOM      3  C   UNL     1      -5.158   4.134  14.876  1.00  0.00     0.180 A 
ATOM      4  O   UNL     1      -5.459   3.208  15.782  1.00  0.00    -0.452 OA
ATOM      5  C   UNL     1      -2.896   4.178  15.725  1.00  0.00     0.239 A 
ATOM      6  C   UNL     1      -4.571   2.697  16.627  1.00  0.00     0.146 A 
ATOM      7  O   UNL     1      -1.766   4.727  15.751  1.00  0.00    -0.285 OA
ATOM      8  C   UNL     1      -3.212   3.102  16.584  1.00  0.00     0.111 A 
ATOM      9  C   UNL     1      -4.993   1.741  17.550  1.00  0.00     0.094 A 
ATOM     10  C   UNL     1      -2.276   2.447  17.436  1.00  0.00     0.134 A 
ATOM     11  C   UNL     1      -4.079   1.153  18.428  1.00  0.00     0.123 A 
ATOM     12  C   UNL     1      -2.723   1.500  18.358  1.00  0.00     0.093 A 
BRANCH   3  13
ATOM     13  C   UNL     1      -6.193   4.491  13.882  1.00  0.00     0.021 A 
ATOM     14  C   UNL     1      -6.057   4.129  12.527  1.00  0.00     0.016 A 
ATOM     15  C   UNL     1      -7.032   4.494  11.596  1.00  0.00     0.047 A 
ATOM     16  C   UNL     1      -8.164   5.208  12.009  1.00  0.00     0.115 A 
ATOM     17  C   UNL     1      -7.366   5.137  14.299  1.00  0.00     0.016 A 
ATOM     18  C   UNL     1      -8.336   5.513  13.365  1.00  0.00     0.047 A 
BRANCH  16  19
ATOM     19  O   UNL     1      -9.113   5.634  11.082  1.00  0.00    -0.508 OA
ATOM     20  H   UNL     1      -9.566   4.977  10.457  1.00  0.00     0.293 HD
ENDBRANCH  16  19
ENDBRANCH   3  13
BRANCH  10  21
ATOM     21  O   UNL     1      -0.896   2.659  17.385  1.00  0.00    -0.507 OA
ATOM     22  H   UNL     1      -0.207   2.060  17.815  1.00  0.00     0.293 HD
ENDBRANCH  10  21
BRANCH  11  23
ATOM     23  O   UNL     1      -4.524   0.222  19.367  1.00  0.00    -0.508 OA
ATOM     24  H   UNL     1      -5.513   0.048  19.517  1.00  0.00     0.293 HD
ENDBRANCH  11  23
ENDBRANCH   1   2
BRANCH   1  25
ATOM     25  C   UNL     1      -4.366   6.859  13.628  1.00  0.00     0.339 C 
ATOM     26  C   UNL     1      -3.714   7.522  12.395  1.00  0.00     0.214 C 
ATOM     27  O   UNL     1      -4.555   7.833  14.638  1.00  0.00    -0.332 OA
ATOM     28  C   UNL     1      -4.188   8.985  12.213  1.00  0.00     0.180 C 
ATOM     29  C   UNL     1      -5.632   8.699  14.302  1.00  0.00     0.179 C 
ATOM     30  C   UNL     1      -5.595   9.190  12.813  1.00  0.00     0.177 C 
BRANCH  26  31
ATOM     31  O   UNL     1      -3.932   6.739  11.245  1.00  0.00    -0.384 OA
ATOM     32  H   UNL     1      -3.298   5.979  11.266  1.00  0.00     0.211 HD
ENDBRANCH  26  31
BRANCH  28  33
ATOM     33  O   UNL     1      -4.164   9.343  10.853  1.00  0.00    -0.387 OA
ATOM     34  H   UNL     1      -5.002   9.851  10.672  1.00  0.00     0.211 HD
ENDBRANCH  28  33
BRANCH  29  35
ATOM     35  C   UNL     1      -5.619   9.899  15.266  1.00  0.00     0.191 C 
BRANCH  35  36
ATOM     36  O   UNL     1      -5.742   9.476  16.599  1.00  0.00    -0.394 OA
ATOM     37  H   UNL     1      -4.874   9.057  16.841  1.00  0.00     0.210 HD
ENDBRANCH  35  36
ENDBRANCH  29  35
BRANCH  30  38
ATOM     38  O   UNL     1      -6.538   8.481  12.048  1.00  0.00    -0.387 OA
ATOM     39  H   UNL     1      -7.443   8.691  12.412  1.00  0.00     0.211 HD
ENDBRANCH  30  38
ENDBRANCH   1  25
TORSDOF 11
ENDMDL
MODEL 2
REMARK VINA RESULT:    -6.422     11.328     15.749
REMARK INTER + INTRA:          -9.900
REMARK INTER:                  -8.615
REMARK INTRA:                  -1.285
REMARK UNBOUND:                -0.663
REMARK SMILES O=c1c(O[C@H]2O[C@@H](CO)[C@H](O)[C@H](O)[C@@H]2O)c(-c2ccc(O)cc2)oc2cc(O)cc(O)c12
REMARK SMILES IDX 4 1 3 2 16 3 24 4 2 5 25 6 1 7 32 8 26 9 30 10 27 11 29 12
REMARK SMILES IDX 17 13 18 14 19 15 20 16 23 17 22 18 21 19 31 21 28 23 5 25
REMARK SMILES IDX 14 26 6 27 12 28 7 29 10 30 15 31 13 33 8 35 9 36 11 38
REMARK H PARENT 21 20 31 22 28 24 15 32 13 34 9 37 11 39
REMARK Flexibility Score: inf
ROOT
ATOM      1  O   UNL     1      -4.375  -8.411  22.510  1.00  0.00    -0.454 OA
ENDROOT
BRANCH   1   2
ATOM      2  C   UNL     1      -4.099  -7.649  23.655  1.00  0.00     0.214 A 
ATOM      3  C   UNL     1      -4.167  -6.243  23.692  1.00  0.00     0.180 A 
ATOM      4  O   UNL     1      -3.748  -5.595  24.776  1.00  0.00    -0.452 OA
ATOM      5  C   UNL     1      -3.751  -8.336  24.825  1.00  0.00     0.239 A 
ATOM      6  C   UNL     1      -3.376  -6.207  25.894  1.00  0.00     0.146 A 
ATOM      7  O   UNL     1      -3.653  -9.588  24.774  1.00  0.00    -0.285 OA
ATOM      8  C   UNL     1      -3.438  -7.620  26.003  1.00  0.00     0.111 A 
ATOM      9  C   UNL     1      -2.935  -5.436  26.969  1.00  0.00     0.094 A 
ATOM     10  C   UNL     1      -3.133  -8.224  27.257  1.00  0.00     0.134 A 
ATOM     11  C   UNL     1      -2.574  -6.043  28.174  1.00  0.00     0.123 A 
ATOM     12  C   UNL     1      -2.686  -7.433  28.316  1.00  0.00     0.093 A 
BRANCH   3  13
ATOM     13  C   UNL     1      -4.718  -5.441  22.578  1.00  0.00     0.021 A 
ATOM     14  C   UNL     1      -6.005  -4.873  22.656  1.00  0.00     0.016 A 
ATOM     15  C   UNL     1      -6.519  -4.138  21.585  1.00  0.00     0.047 A 
ATOM     16  C   UNL     1      -5.749  -3.946  20.431  1.00  0.00     0.115 A 
ATOM     17  C   UNL     1      -3.925  -5.178  21.452  1.00  0.00     0.016 A 
ATOM     18  C   UNL     1      -4.445  -4.453  20.375  1.00  0.00     0.047 A 
BRANCH  16  19
ATOM     19  O   UNL     1      -6.273  -3.271  19.330  1.00  0.00    -0.508 OA
ATOM     20  H   UNL     1      -6.507  -2.286  19.384  1.00  0.00     0.293 HD
ENDBRANCH  16  19
ENDBRANCH   3  13
BRANCH  10  21
ATOM     21  O   UNL     1      -3.295  -9.585  27.525  1.00  0.00    -0.507 OA
ATOM     22  H   UNL     1      -3.431  -9.976  28.446  1.00  0.00     0.293 HD
ENDBRANCH  10  21
BRANCH  11  23
ATOM     23  O   UNL     1      -2.105  -5.259  29.229  1.00  0.00    -0.508 OA
ATOM     24  H   UNL     1      -1.601  -4.393  29.065  1.00  0.00     0.293 HD
ENDBRANCH  11  23
ENDBRANCH   1   2
BRANCH   1  25
ATOM     25  C   UNL     1      -5.671  -8.736  21.997  1.00  0.00     0.339 C 
ATOM     26  C   UNL     1      -5.835  -8.032  20.632  1.00  0.00     0.214 C 
ATOM     27  O   UNL     1      -6.703  -8.312  22.869  1.00  0.00    -0.332 OA
ATOM     28  C   UNL     1      -7.326  -7.800  20.282  1.00  0.00     0.180 C 
ATOM     29  C   UNL     1      -7.942  -8.907  22.502  1.00  0.00     0.179 C 
ATOM     30  C   UNL     1      -8.224  -8.857  20.961  1.00  0.00     0.177 C 
BRANCH  26  31
ATOM     31  O   UNL     1      -5.151  -8.743  19.628  1.00  0.00    -0.384 OA
ATOM     32  H   UNL     1      -5.377  -8.335  18.754  1.00  0.00     0.211 HD
ENDBRANCH  26  31
BRANCH  28  33
ATOM     33  O   UNL     1      -7.509  -7.805  18.888  1.00  0.00    -0.387 OA
ATOM     34  H   UNL     1      -8.342  -8.322  18.706  1.00  0.00     0.211 HD
ENDBRANCH  28  33
BRANCH  29  35
ATOM     35  C   UNL     1      -9.072  -8.209  23.280  1.00  0.00     0.191 C 
BRANCH  35  36
ATOM     36  O   UNL     1      -8.794  -6.844  23.457  1.00  0.00    -0.394 OA
ATOM     37  H   UNL     1      -8.446  -6.514  22.585  1.00  0.00     0.210 HD
ENDBRANCH  35  36
ENDBRANCH  29  35
BRANCH  30  38
ATOM     38  O   UNL     1      -7.981 -10.116  20.384  1.00  0.00    -0.387 OA
ATOM     39  H   UNL     1      -8.650 -10.755  20.760  1.00  0.00     0.211 HD
ENDBRANCH  30  38
ENDBRANCH   1  25
TORSDOF 11
ENDMDL
MODEL 3
REMARK VINA RESULT:    -6.293      1.438      2.078
REMARK INTER + INTRA:          -9.714
REMARK INTER:                  -8.869
REMARK INTRA:                  -0.845
REMARK UNBOUND:                -0.663
REMARK SMILES O=c1c(O[C@H]2O[C@@H](CO)[C@H](O)[C@H](O)[C@@H]2O)c(-c2ccc(O)cc2)oc2cc(O)cc(O)c12
REMARK SMILES IDX 4 1 3 2 16 3 24 4 2 5 25 6 1 7 32 8 26 9 30 10 27 11 29 12
REMARK SMILES IDX 17 13 18 14 19 15 20 16 23 17 22 18 21 19 31 21 28 23 5 25
REMARK SMILES IDX 14 26 6 27 12 28 7 29 10 30 15 31 13 33 8 35 9 36 11 38
REMARK H PARENT 21 20 31 22 28 24 15 32 13 34 9 37 11 39
REMARK Flexibility Score: inf
ROOT
ATOM      1  O   UNL     1      -3.523   5.895  13.567  1.00  0.00    -0.454 OA
ENDROOT
BRANCH   1   2
ATOM      2  C   UNL     1      -3.888   4.864  14.445  1.00  0.00     0.214 A 
ATOM      3  C   UNL     1      -5.166   4.272  14.466  1.00  0.00     0.180 A 
ATOM      4  O   UNL     1      -5.469   3.404  15.428  1.00  0.00    -0.452 OA
ATOM      5  C   UNL     1      -2.915   4.394  15.337  1.00  0.00     0.239 A 
ATOM      6  C   UNL     1      -4.588   2.959  16.315  1.00  0.00     0.146 A 
ATOM      7  O   UNL     1      -1.790   4.954  15.339  1.00  0.00    -0.285 OA
ATOM      8  C   UNL     1      -3.232   3.374  16.262  1.00  0.00     0.111 A 
ATOM      9  C   UNL     1      -5.012   2.063  17.295  1.00  0.00     0.094 A 
ATOM     10  C   UNL     1      -2.300   2.786  17.165  1.00  0.00     0.134 A 
ATOM     11  C   UNL     1      -4.104   1.542  18.220  1.00  0.00     0.123 A 
ATOM     12  C   UNL     1      -2.750   1.897  18.143  1.00  0.00     0.093 A 
BRANCH   3  13
ATOM     13  C   UNL     1      -6.191   4.552  13.439  1.00  0.00     0.021 A 
ATOM     14  C   UNL     1      -5.904   4.415  12.066  1.00  0.00     0.016 A 
ATOM     15  C   UNL     1      -6.878   4.706  11.107  1.00  0.00     0.047 A 
ATOM     16  C   UNL     1      -8.154   5.119  11.507  1.00  0.00     0.115 A 
ATOM     17  C   UNL     1      -7.495   4.891  13.830  1.00  0.00     0.016 A 
ATOM     18  C   UNL     1      -8.465   5.194  12.870  1.00  0.00     0.047 A 
BRANCH  16  19
ATOM     19  O   UNL     1      -9.115   5.475  10.561  1.00  0.00    -0.508 OA
ATOM     20  H   UNL     1      -9.745   4.784  10.171  1.00  0.00     0.293 HD
ENDBRANCH  16  19
ENDBRANCH   3  13
BRANCH  10  21
ATOM     21  O   UNL     1      -0.922   3.008  17.116  1.00  0.00    -0.507 OA
ATOM     22  H   UNL     1      -0.250   2.585  17.741  1.00  0.00     0.293 HD
ENDBRANCH  10  21
BRANCH  11  23
ATOM     23  O   UNL     1      -4.552   0.671  19.213  1.00  0.00    -0.508 OA
ATOM     24  H   UNL     1      -5.002   1.012  20.057  1.00  0.00     0.293 HD
ENDBRANCH  11  23
ENDBRANCH   1   2
BRANCH   1  25
ATOM     25  C   UNL     1      -3.535   7.298  13.850  1.00  0.00     0.339 C 
ATOM     26  C   UNL     1      -4.722   7.929  13.088  1.00  0.00     0.214 C 
ATOM     27  O   UNL     1      -2.332   7.926  13.446  1.00  0.00    -0.332 OA
ATOM     28  C   UNL     1      -4.493   9.437  12.819  1.00  0.00     0.180 C 
ATOM     29  C   UNL     1      -2.238   9.231  14.005  1.00  0.00     0.179 C 
ATOM     30  C   UNL     1      -3.566  10.056  13.888  1.00  0.00     0.177 C 
BRANCH  26  31
ATOM     31  O   UNL     1      -5.929   7.682  13.768  1.00  0.00    -0.384 OA
ATOM     32  H   UNL     1      -5.758   7.771  14.740  1.00  0.00     0.211 HD
ENDBRANCH  26  31
BRANCH  28  33
ATOM     33  O   UNL     1      -5.722  10.118  12.764  1.00  0.00    -0.387 OA
ATOM     34  H   UNL     1      -5.968  10.349  13.702  1.00  0.00     0.211 HD
ENDBRANCH  28  33
BRANCH  29  35
ATOM     35  C   UNL     1      -1.078   9.976  13.322  1.00  0.00     0.191 C 
BRANCH  35  36
ATOM     36  O   UNL     1      -0.352   9.118  12.482  1.00  0.00    -0.394 OA
ATOM     37  H   UNL     1      -0.352   8.227  12.925  1.00  0.00     0.210 HD
ENDBRANCH  35  36
ENDBRANCH  29  35
BRANCH  30  38
ATOM     38  O   UNL     1      -4.232  10.078  15.127  1.00  0.00    -0.387 OA
ATOM     39  H   UNL     1      -5.210   9.998  14.946  1.00  0.00     0.211 HD
ENDBRANCH  30  38
ENDBRANCH   1  25
TORSDOF 11
ENDMDL
MODEL 4
REMARK VINA RESULT:    -6.267      1.893      4.531
REMARK INTER + INTRA:          -9.677
REMARK INTER:                  -9.133
REMARK INTRA:                  -0.544
REMARK UNBOUND:                -0.663
REMARK SMILES O=c1c(O[C@H]2O[C@@H](CO)[C@H](O)[C@H](O)[C@@H]2O)c(-c2ccc(O)cc2)oc2cc(O)cc(O)c12
REMARK SMILES IDX 4 1 3 2 16 3 24 4 2 5 25 6 1 7 32 8 26 9 30 10 27 11 29 12
REMARK SMILES IDX 17 13 18 14 19 15 20 16 23 17 22 18 21 19 31 21 28 23 5 25
REMARK SMILES IDX 14 26 6 27 12 28 7 29 10 30 15 31 13 33 8 35 9 36 11 38
REMARK H PARENT 21 20 31 22 28 24 15 32 13 34 9 37 11 39
REMARK Flexibility Score: inf
ROOT
ATOM      1  O   UNL     1      -5.956   6.745  14.268  1.00  0.00    -0.454 OA
ENDROOT
BRANCH   1   2
ATOM      2  C   UNL     1      -4.925   5.930  14.758  1.00  0.00     0.214 A 
ATOM      3  C   UNL     1      -3.588   6.015  14.320  1.00  0.00     0.180 A 
ATOM      4  O   UNL     1      -2.707   5.107  14.730  1.00  0.00    -0.452 OA
ATOM      5  C   UNL     1      -5.249   4.995  15.749  1.00  0.00     0.239 A 
ATOM      6  C   UNL     1      -2.982   4.181  15.641  1.00  0.00     0.146 A 
ATOM      7  O   UNL     1      -6.450   4.898  16.105  1.00  0.00    -0.285 OA
ATOM      8  C   UNL     1      -4.256   4.130  16.262  1.00  0.00     0.111 A 
ATOM      9  C   UNL     1      -1.991   3.264  15.990  1.00  0.00     0.094 A 
ATOM     10  C   UNL     1      -4.470   3.190  17.311  1.00  0.00     0.134 A 
ATOM     11  C   UNL     1      -2.232   2.301  16.972  1.00  0.00     0.123 A 
ATOM     12  C   UNL     1      -3.466   2.276  17.637  1.00  0.00     0.093 A 
BRANCH   3  13
ATOM     13  C   UNL     1      -3.106   7.096  13.435  1.00  0.00     0.021 A 
ATOM     14  C   UNL     1      -3.543   7.194  12.099  1.00  0.00     0.016 A 
ATOM     15  C   UNL     1      -3.059   8.208  11.268  1.00  0.00     0.047 A 
ATOM     16  C   UNL     1      -2.148   9.147  11.767  1.00  0.00     0.115 A 
ATOM     17  C   UNL     1      -2.254   8.086  13.946  1.00  0.00     0.016 A 
ATOM     18  C   UNL     1      -1.760   9.094  13.111  1.00  0.00     0.047 A 
BRANCH  16  19
ATOM     19  O   UNL     1      -1.608  10.125  10.933  1.00  0.00    -0.508 OA
ATOM     20  H   UNL     1      -0.979  10.832  11.296  1.00  0.00     0.293 HD
ENDBRANCH  16  19
ENDBRANCH   3  13
BRANCH  10  21
ATOM     21  O   UNL     1      -5.629   3.140  18.089  1.00  0.00    -0.507 OA
ATOM     22  H   UNL     1      -6.065   2.291  18.416  1.00  0.00     0.293 HD
ENDBRANCH  10  21
BRANCH  11  23
ATOM     23  O   UNL     1      -1.240   1.371  17.287  1.00  0.00    -0.508 OA
ATOM     24  H   UNL     1      -0.258   1.562  17.115  1.00  0.00     0.293 HD
ENDBRANCH  11  23
ENDBRANCH   1   2
BRANCH   1  25
ATOM     25  C   UNL     1      -6.802   6.465  13.148  1.00  0.00     0.339 C 
ATOM     26  C   UNL     1      -6.370   5.108  12.551  1.00  0.00     0.214 C 
ATOM     27  O   UNL     1      -6.705   7.467  12.152  1.00  0.00    -0.332 OA
ATOM     28  C   UNL     1      -6.760   4.989  11.056  1.00  0.00     0.180 C 
ATOM     29  C   UNL     1      -7.761   7.336  11.208  1.00  0.00     0.179 C 
ATOM     30  C   UNL     1      -7.994   5.859  10.736  1.00  0.00     0.177 C 
BRANCH  26  31
ATOM     31  O   UNL     1      -6.877   4.047  13.324  1.00  0.00    -0.384 OA
ATOM     32  H   UNL     1      -6.244   3.289  13.260  1.00  0.00     0.211 HD
ENDBRANCH  26  31
BRANCH  28  33
ATOM     33  O   UNL     1      -6.990   3.644  10.715  1.00  0.00    -0.387 OA
ATOM     34  H   UNL     1      -6.161   3.140  10.944  1.00  0.00     0.211 HD
ENDBRANCH  28  33
BRANCH  29  35
ATOM     35  C   UNL     1      -7.459   8.246  10.004  1.00  0.00     0.191 C 
BRANCH  35  36
ATOM     36  O   UNL     1      -6.325   9.037  10.241  1.00  0.00    -0.394 OA
ATOM     37  H   UNL     1      -5.577   8.610   9.744  1.00  0.00     0.210 HD
ENDBRANCH  35  36
ENDBRANCH  29  35
BRANCH  30  38
ATOM     38  O   UNL     1      -9.124   5.321  11.376  1.00  0.00    -0.387 OA
ATOM     39  H   UNL     1      -9.244   4.387  11.045  1.00  0.00     0.211 HD
ENDBRANCH  30  38
ENDBRANCH   1  25
TORSDOF 11
ENDMDL
MODEL 5
REMARK VINA RESULT:    -6.151     12.597     17.319
REMARK INTER + INTRA:          -9.510
REMARK INTER:                  -8.295
REMARK INTRA:                  -1.215
REMARK UNBOUND:                -0.663
REMARK SMILES O=c1c(O[C@H]2O[C@@H](CO)[C@H](O)[C@H](O)[C@@H]2O)c(-c2ccc(O)cc2)oc2cc(O)cc(O)c12
REMARK SMILES IDX 4 1 3 2 16 3 24 4 2 5 25 6 1 7 32 8 26 9 30 10 27 11 29 12
REMARK SMILES IDX 17 13 18 14 19 15 20 16 23 17 22 18 21 19 31 21 28 23 5 25
REMARK SMILES IDX 14 26 6 27 12 28 7 29 10 30 15 31 13 33 8 35 9 36 11 38
REMARK H PARENT 21 20 31 22 28 24 15 32 13 34 9 37 11 39
REMARK Flexibility Score: inf
ROOT
ATOM      1  O   UNL     1      -4.950  -5.580  25.723  1.00  0.00    -0.454 OA
ENDROOT
BRANCH   1   2
ATOM      2  C   UNL     1      -5.599  -6.007  24.554  1.00  0.00     0.214 A 
ATOM      3  C   UNL     1      -6.672  -6.920  24.546  1.00  0.00     0.180 A 
ATOM      4  O   UNL     1      -7.131  -7.381  23.385  1.00  0.00    -0.452 OA
ATOM      5  C   UNL     1      -5.158  -5.477  23.334  1.00  0.00     0.239 A 
ATOM      6  C   UNL     1      -6.716  -6.932  22.207  1.00  0.00     0.146 A 
ATOM      7  O   UNL     1      -4.176  -4.695  23.346  1.00  0.00    -0.285 OA
ATOM      8  C   UNL     1      -5.758  -5.889  22.123  1.00  0.00     0.111 A 
ATOM      9  C   UNL     1      -7.248  -7.494  21.047  1.00  0.00     0.094 A 
ATOM     10  C   UNL     1      -5.425  -5.367  20.840  1.00  0.00     0.134 A 
ATOM     11  C   UNL     1      -6.865  -7.021  19.790  1.00  0.00     0.123 A 
ATOM     12  C   UNL     1      -5.965  -5.951  19.693  1.00  0.00     0.093 A 
BRANCH   3  13
ATOM     13  C   UNL     1      -7.340  -7.376  25.783  1.00  0.00     0.021 A 
ATOM     14  C   UNL     1      -8.435  -6.671  26.323  1.00  0.00     0.016 A 
ATOM     15  C   UNL     1      -9.040  -7.103  27.506  1.00  0.00     0.047 A 
ATOM     16  C   UNL     1      -8.573  -8.252  28.154  1.00  0.00     0.115 A 
ATOM     17  C   UNL     1      -6.930  -8.569  26.397  1.00  0.00     0.016 A 
ATOM     18  C   UNL     1      -7.528  -8.993  27.588  1.00  0.00     0.047 A 
BRANCH  16  19
ATOM     19  O   UNL     1      -9.125  -8.657  29.368  1.00  0.00    -0.508 OA
ATOM     20  H   UNL     1      -9.038  -9.615  29.688  1.00  0.00     0.293 HD
ENDBRANCH  16  19
ENDBRANCH   3  13
BRANCH  10  21
ATOM     21  O   UNL     1      -4.607  -4.252  20.641  1.00  0.00    -0.507 OA
ATOM     22  H   UNL     1      -4.719  -3.367  21.113  1.00  0.00     0.293 HD
ENDBRANCH  10  21
BRANCH  11  23
ATOM     23  O   UNL     1      -7.384  -7.616  18.640  1.00  0.00    -0.508 OA
ATOM     24  H   UNL     1      -7.753  -8.562  18.650  1.00  0.00     0.293 HD
ENDBRANCH  11  23
ENDBRANCH   1   2
BRANCH   1  25
ATOM     25  C   UNL     1      -4.100  -6.370  26.559  1.00  0.00     0.339 C 
ATOM     26  C   UNL     1      -2.998  -5.449  27.126  1.00  0.00     0.214 C 
ATOM     27  O   UNL     1      -3.498  -7.433  25.843  1.00  0.00    -0.332 OA
ATOM     28  C   UNL     1      -1.728  -6.246  27.517  1.00  0.00     0.180 C 
ATOM     29  C   UNL     1      -2.915  -8.372  26.738  1.00  0.00     0.179 C 
ATOM     30  C   UNL     1      -2.082  -7.703  27.886  1.00  0.00     0.177 C 
BRANCH  26  31
ATOM     31  O   UNL     1      -3.501  -4.682  28.194  1.00  0.00    -0.384 OA
ATOM     32  H   UNL     1      -3.157  -3.759  28.099  1.00  0.00     0.211 HD
ENDBRANCH  26  31
BRANCH  28  33
ATOM     33  O   UNL     1      -1.054  -5.608  28.574  1.00  0.00    -0.387 OA
ATOM     34  H   UNL     1      -1.652  -5.656  29.370  1.00  0.00     0.211 HD
ENDBRANCH  28  33
BRANCH  29  35
ATOM     35  C   UNL     1      -2.036  -9.343  25.930  1.00  0.00     0.191 C 
BRANCH  35  36
ATOM     36  O   UNL     1      -2.036  -9.007  24.567  1.00  0.00    -0.394 OA
ATOM     37  H   UNL     1      -1.796  -9.837  24.075  1.00  0.00     0.210 HD
ENDBRANCH  35  36
ENDBRANCH  29  35
BRANCH  30  38
ATOM     38  O   UNL     1      -2.815  -7.716  29.086  1.00  0.00    -0.387 OA
ATOM     39  H   UNL     1      -3.220  -6.811  29.203  1.00  0.00     0.211 HD
ENDBRANCH  30  38
ENDBRANCH   1  25
TORSDOF 11
ENDMDL
MODEL 6
REMARK VINA RESULT:    -5.780     11.602     15.456
REMARK INTER + INTRA:          -8.978
REMARK INTER:                  -7.917
REMARK INTRA:                  -1.061
REMARK UNBOUND:                -0.663
REMARK SMILES O=c1c(O[C@H]2O[C@@H](CO)[C@H](O)[C@H](O)[C@@H]2O)c(-c2ccc(O)cc2)oc2cc(O)cc(O)c12
REMARK SMILES IDX 4 1 3 2 16 3 24 4 2 5 25 6 1 7 32 8 26 9 30 10 27 11 29 12
REMARK SMILES IDX 17 13 18 14 19 15 20 16 23 17 22 18 21 19 31 21 28 23 5 25
REMARK SMILES IDX 14 26 6 27 12 28 7 29 10 30 15 31 13 33 8 35 9 36 11 38
REMARK H PARENT 21 20 31 22 28 24 15 32 13 34 9 37 11 39
REMARK Flexibility Score: inf
ROOT
ATOM      1  O   UNL     1      -5.508  -6.091  23.954  1.00  0.00    -0.454 OA
ENDROOT
BRANCH   1   2
ATOM      2  C   UNL     1      -4.473  -6.857  24.513  1.00  0.00     0.214 A 
ATOM      3  C   UNL     1      -4.071  -8.110  24.009  1.00  0.00     0.180 A 
ATOM      4  O   UNL     1      -3.183  -8.832  24.687  1.00  0.00    -0.452 OA
ATOM      5  C   UNL     1      -3.799  -6.330  25.622  1.00  0.00     0.239 A 
ATOM      6  C   UNL     1      -2.547  -8.386  25.763  1.00  0.00     0.146 A 
ATOM      7  O   UNL     1      -4.190  -5.232  26.089  1.00  0.00    -0.285 OA
ATOM      8  C   UNL     1      -2.765  -7.069  26.241  1.00  0.00     0.111 A 
ATOM      9  C   UNL     1      -1.646  -9.230  26.411  1.00  0.00     0.094 A 
ATOM     10  C   UNL     1      -1.980  -6.597  27.333  1.00  0.00     0.134 A 
ATOM     11  C   UNL     1      -0.929  -8.782  27.522  1.00  0.00     0.123 A 
ATOM     12  C   UNL     1      -1.091  -7.463  27.970  1.00  0.00     0.093 A 
BRANCH   3  13
ATOM     13  C   UNL     1      -4.576  -8.655  22.731  1.00  0.00     0.021 A 
ATOM     14  C   UNL     1      -3.832  -8.532  21.541  1.00  0.00     0.016 A 
ATOM     15  C   UNL     1      -4.334  -9.032  20.338  1.00  0.00     0.047 A 
ATOM     16  C   UNL     1      -5.576  -9.678  20.310  1.00  0.00     0.115 A 
ATOM     17  C   UNL     1      -5.782  -9.372  22.708  1.00  0.00     0.016 A 
ATOM     18  C   UNL     1      -6.290  -9.862  21.500  1.00  0.00     0.047 A 
BRANCH  16  19
ATOM     19  O   UNL     1      -6.118 -10.125  19.106  1.00  0.00    -0.508 OA
ATOM     20  H   UNL     1      -5.721  -9.842  18.217  1.00  0.00     0.293 HD
ENDBRANCH  16  19
ENDBRANCH   3  13
BRANCH  10  21
ATOM     21  O   UNL     1      -2.004  -5.281  27.798  1.00  0.00    -0.507 OA
ATOM     22  H   UNL     1      -1.292  -4.591  27.607  1.00  0.00     0.293 HD
ENDBRANCH  10  21
BRANCH  11  23
ATOM     23  O   UNL     1      -0.056  -9.650  28.178  1.00  0.00    -0.508 OA
ATOM     24  H   UNL     1      -0.289 -10.626  28.328  1.00  0.00     0.293 HD
ENDBRANCH  11  23
ENDBRANCH   1   2
BRANCH   1  25
ATOM     25  C   UNL     1      -5.446  -5.332  22.743  1.00  0.00     0.339 C 
ATOM     26  C   UNL     1      -6.449  -5.946  21.742  1.00  0.00     0.214 C 
ATOM     27  O   UNL     1      -4.148  -5.353  22.176  1.00  0.00    -0.332 OA
ATOM     28  C   UNL     1      -6.059  -5.637  20.275  1.00  0.00     0.180 C 
ATOM     29  C   UNL     1      -4.030  -4.361  21.163  1.00  0.00     0.179 C 
ATOM     30  C   UNL     1      -5.253  -4.324  20.183  1.00  0.00     0.177 C 
BRANCH  26  31
ATOM     31  O   UNL     1      -7.760  -5.535  22.048  1.00  0.00    -0.384 OA
ATOM     32  H   UNL     1      -7.815  -5.384  23.025  1.00  0.00     0.211 HD
ENDBRANCH  26  31
BRANCH  28  33
ATOM     33  O   UNL     1      -7.206  -5.582  19.464  1.00  0.00    -0.387 OA
ATOM     34  H   UNL     1      -7.864  -4.997  19.930  1.00  0.00     0.211 HD
ENDBRANCH  28  33
BRANCH  29  35
ATOM     35  C   UNL     1      -2.724  -4.604  20.386  1.00  0.00     0.191 C 
BRANCH  35  36
ATOM     36  O   UNL     1      -2.599  -5.953  20.019  1.00  0.00    -0.394 OA
ATOM     37  H   UNL     1      -2.777  -5.995  19.042  1.00  0.00     0.210 HD
ENDBRANCH  35  36
ENDBRANCH  29  35
BRANCH  30  38
ATOM     38  O   UNL     1      -6.091  -3.239  20.497  1.00  0.00    -0.387 OA
ATOM     39  H   UNL     1      -6.506  -3.424  21.385  1.00  0.00     0.211 HD
ENDBRANCH  30  38
ENDBRANCH   1  25
TORSDOF 11
ENDMDL
MODEL 7
REMARK VINA RESULT:    -5.747     11.495     14.833
REMARK INTER + INTRA:          -8.929
REMARK INTER:                  -8.009
REMARK INTRA:                  -0.920
REMARK UNBOUND:                -0.663
REMARK SMILES O=c1c(O[C@H]2O[C@@H](CO)[C@H](O)[C@H](O)[C@@H]2O)c(-c2ccc(O)cc2)oc2cc(O)cc(O)c12
REMARK SMILES IDX 4 1 3 2 16 3 24 4 2 5 25 6 1 7 32 8 26 9 30 10 27 11 29 12
REMARK SMILES IDX 17 13 18 14 19 15 20 16 23 17 22 18 21 19 31 21 28 23 5 25
REMARK SMILES IDX 14 26 6 27 12 28 7 29 10 30 15 31 13 33 8 35 9 36 11 38
REMARK H PARENT 21 20 31 22 28 24 15 32 13 34 9 37 11 39
REMARK Flexibility Score: inf
ROOT
ATOM      1  O   UNL     1      -4.729  -5.372  22.531  1.00  0.00    -0.454 OA
ENDROOT
BRANCH   1   2
ATOM      2  C   UNL     1      -4.418  -6.272  23.561  1.00  0.00     0.214 A 
ATOM      3  C   UNL     1      -4.542  -7.671  23.439  1.00  0.00     0.180 A 
ATOM      4  O   UNL     1      -4.366  -8.439  24.511  1.00  0.00    -0.452 OA
ATOM      5  C   UNL     1      -3.943  -5.742  24.768  1.00  0.00     0.239 A 
ATOM      6  C   UNL     1      -3.951  -7.973  25.683  1.00  0.00     0.146 A 
ATOM      7  O   UNL     1      -3.873  -4.493  24.882  1.00  0.00    -0.285 OA
ATOM      8  C   UNL     1      -3.637  -6.600  25.849  1.00  0.00     0.111 A 
ATOM      9  C   UNL     1      -3.815  -8.860  26.750  1.00  0.00     0.094 A 
ATOM     10  C   UNL     1      -3.093  -6.167  27.092  1.00  0.00     0.134 A 
ATOM     11  C   UNL     1      -3.344  -8.414  27.986  1.00  0.00     0.123 A 
ATOM     12  C   UNL     1      -2.973  -7.072  28.148  1.00  0.00     0.093 A 
BRANCH   3  13
ATOM     13  C   UNL     1      -4.836  -8.336  22.153  1.00  0.00     0.021 A 
ATOM     14  C   UNL     1      -3.810  -8.631  21.234  1.00  0.00     0.016 A 
ATOM     15  C   UNL     1      -4.108  -9.240  20.012  1.00  0.00     0.047 A 
ATOM     16  C   UNL     1      -5.430  -9.577  19.700  1.00  0.00     0.115 A 
ATOM     17  C   UNL     1      -6.146  -8.748  21.865  1.00  0.00     0.016 A 
ATOM     18  C   UNL     1      -6.445  -9.345  20.636  1.00  0.00     0.047 A 
BRANCH  16  19
ATOM     19  O   UNL     1      -5.750 -10.125  18.459  1.00  0.00    -0.508 OA
ATOM     20  H   UNL     1      -5.026 -10.377  17.796  1.00  0.00     0.293 HD
ENDBRANCH  16  19
ENDBRANCH   3  13
BRANCH  10  21
ATOM     21  O   UNL     1      -2.616  -4.875  27.326  1.00  0.00    -0.507 OA
ATOM     22  H   UNL     1      -1.640  -4.629  27.400  1.00  0.00     0.293 HD
ENDBRANCH  10  21
BRANCH  11  23
ATOM     23  O   UNL     1      -3.243  -9.309  29.052  1.00  0.00    -0.508 OA
ATOM     24  H   UNL     1      -2.950  -9.006  29.976  1.00  0.00     0.293 HD
ENDBRANCH  11  23
ENDBRANCH   1   2
BRANCH   1  25
ATOM     25  C   UNL     1      -5.957  -5.309  21.799  1.00  0.00     0.339 C 
ATOM     26  C   UNL     1      -5.629  -4.878  20.352  1.00  0.00     0.214 C 
ATOM     27  O   UNL     1      -6.862  -4.382  22.370  1.00  0.00    -0.332 OA
ATOM     28  C   UNL     1      -6.844  -4.205  19.665  1.00  0.00     0.180 C 
ATOM     29  C   UNL     1      -8.165  -4.556  21.825  1.00  0.00     0.179 C 
ATOM     30  C   UNL     1      -8.171  -4.716  20.265  1.00  0.00     0.177 C 
BRANCH  26  31
ATOM     31  O   UNL     1      -5.132  -5.970  19.616  1.00  0.00    -0.384 OA
ATOM     32  H   UNL     1      -5.782  -6.713  19.691  1.00  0.00     0.211 HD
ENDBRANCH  26  31
BRANCH  28  33
ATOM     33  O   UNL     1      -6.803  -4.421  18.276  1.00  0.00    -0.387 OA
ATOM     34  H   UNL     1      -5.960  -4.917  18.084  1.00  0.00     0.211 HD
ENDBRANCH  28  33
BRANCH  29  35
ATOM     35  C   UNL     1      -9.039  -3.362  22.249  1.00  0.00     0.191 C 
BRANCH  35  36
ATOM     36  O   UNL     1      -8.722  -2.216  21.503  1.00  0.00    -0.394 OA
ATOM     37  H   UNL     1      -8.135  -1.659  22.082  1.00  0.00     0.210 HD
ENDBRANCH  35  36
ENDBRANCH  29  35
BRANCH  30  38
ATOM     38  O   UNL     1      -8.352  -6.067  19.919  1.00  0.00    -0.387 OA
ATOM     39  H   UNL     1      -7.921  -6.621  20.628  1.00  0.00     0.211 HD
ENDBRANCH  30  38
ENDBRANCH   1  25
TORSDOF 11
ENDMDL
MODEL 8
REMARK VINA RESULT:    -5.482      1.665      2.380
REMARK INTER + INTRA:          -8.549
REMARK INTER:                  -7.149
REMARK INTRA:                  -1.400
REMARK UNBOUND:                -0.663
REMARK SMILES O=c1c(O[C@H]2O[C@@H](CO)[C@H](O)[C@H](O)[C@@H]2O)c(-c2ccc(O)cc2)oc2cc(O)cc(O)c12
REMARK SMILES IDX 4 1 3 2 16 3 24 4 2 5 25 6 1 7 32 8 26 9 30 10 27 11 29 12
REMARK SMILES IDX 17 13 18 14 19 15 20 16 23 17 22 18 21 19 31 21 28 23 5 25
REMARK SMILES IDX 14 26 6 27 12 28 7 29 10 30 15 31 13 33 8 35 9 36 11 38
REMARK H PARENT 21 20 31 22 28 24 15 32 13 34 9 37 11 39
REMARK Flexibility Score: inf
ROOT
ATOM      1  O   UNL     1      -3.863   7.233  14.359  1.00  0.00    -0.454 OA
ENDROOT
BRANCH   1   2
ATOM      2  C   UNL     1      -3.645   5.962  14.912  1.00  0.00     0.214 A 
ATOM      3  C   UNL     1      -4.556   4.894  14.795  1.00  0.00     0.180 A 
ATOM      4  O   UNL     1      -4.337   3.770  15.474  1.00  0.00    -0.452 OA
ATOM      5  C   UNL     1      -2.445   5.750  15.603  1.00  0.00     0.239 A 
ATOM      6  C   UNL     1      -3.230   3.541  16.170  1.00  0.00     0.146 A 
ATOM      7  O   UNL     1      -1.657   6.719  15.737  1.00  0.00    -0.285 OA
ATOM      8  C   UNL     1      -2.183   4.497  16.202  1.00  0.00     0.111 A 
ATOM      9  C   UNL     1      -3.106   2.336  16.861  1.00  0.00     0.094 A 
ATOM     10  C   UNL     1      -0.971   4.162  16.873  1.00  0.00     0.134 A 
ATOM     11  C   UNL     1      -1.940   2.045  17.571  1.00  0.00     0.123 A 
ATOM     12  C   UNL     1      -0.873   2.954  17.564  1.00  0.00     0.093 A 
BRANCH   3  13
ATOM     13  C   UNL     1      -5.746   4.952  13.921  1.00  0.00     0.021 A 
ATOM     14  C   UNL     1      -5.730   4.388  12.629  1.00  0.00     0.016 A 
ATOM     15  C   UNL     1      -6.856   4.473  11.806  1.00  0.00     0.047 A 
ATOM     16  C   UNL     1      -8.017   5.104  12.269  1.00  0.00     0.115 A 
ATOM     17  C   UNL     1      -6.938   5.513  14.403  1.00  0.00     0.016 A 
ATOM     18  C   UNL     1      -8.061   5.609  13.574  1.00  0.00     0.047 A 
BRANCH  16  19
ATOM     19  O   UNL     1      -9.125   5.253  11.436  1.00  0.00    -0.508 OA
ATOM     20  H   UNL     1     -10.010   5.587  11.799  1.00  0.00     0.293 HD
ENDBRANCH  16  19
ENDBRANCH   3  13
BRANCH  10  21
ATOM     21  O   UNL     1       0.176   4.959  16.852  1.00  0.00    -0.507 OA
ATOM     22  H   UNL     1       0.545   5.454  17.651  1.00  0.00     0.293 HD
ENDBRANCH  10  21
BRANCH  11  23
ATOM     23  O   UNL     1      -1.846   0.848  18.283  1.00  0.00    -0.508 OA
ATOM     24  H   UNL     1      -1.567  -0.018  17.833  1.00  0.00     0.293 HD
ENDBRANCH  11  23
ENDBRANCH   1   2
BRANCH   1  25
ATOM     25  C   UNL     1      -3.986   7.545  12.968  1.00  0.00     0.339 C 
ATOM     26  C   UNL     1      -3.007   8.696  12.648  1.00  0.00     0.214 C 
ATOM     27  O   UNL     1      -5.303   7.944  12.633  1.00  0.00    -0.332 OA
ATOM     28  C   UNL     1      -3.457   9.504  11.406  1.00  0.00     0.180 C 
ATOM     29  C   UNL     1      -5.479   7.950  11.221  1.00  0.00     0.179 C 
ATOM     30  C   UNL     1      -4.293   8.627  10.449  1.00  0.00     0.177 C 
BRANCH  26  31
ATOM     31  O   UNL     1      -1.695   8.203  12.522  1.00  0.00    -0.384 OA
ATOM     32  H   UNL     1      -1.656   7.637  11.711  1.00  0.00     0.211 HD
ENDBRANCH  26  31
BRANCH  28  33
ATOM     33  O   UNL     1      -2.342  10.048  10.744  1.00  0.00    -0.387 OA
ATOM     34  H   UNL     1      -2.606  10.956  10.428  1.00  0.00     0.211 HD
ENDBRANCH  28  33
BRANCH  29  35
ATOM     35  C   UNL     1      -6.807   8.656  10.895  1.00  0.00     0.191 C 
BRANCH  35  36
ATOM     36  O   UNL     1      -7.680   7.795  10.210  1.00  0.00    -0.394 OA
ATOM     37  H   UNL     1      -8.599   8.137  10.379  1.00  0.00     0.210 HD
ENDBRANCH  35  36
ENDBRANCH  29  35
BRANCH  30  38
ATOM     38  O   UNL     1      -3.468   7.643   9.875  1.00  0.00    -0.387 OA
ATOM     39  H   UNL     1      -2.740   8.111   9.379  1.00  0.00     0.211 HD
ENDBRANCH  30  38
ENDBRANCH   1  25
TORSDOF 11
ENDMDL
MODEL 9
REMARK VINA RESULT:    -5.405     11.739     15.145
REMARK INTER + INTRA:          -8.437
REMARK INTER:                  -7.349
REMARK INTRA:                  -1.088
REMARK UNBOUND:                -0.663
REMARK SMILES O=c1c(O[C@H]2O[C@@H](CO)[C@H](O)[C@H](O)[C@@H]2O)c(-c2ccc(O)cc2)oc2cc(O)cc(O)c12
REMARK SMILES IDX 4 1 3 2 16 3 24 4 2 5 25 6 1 7 32 8 26 9 30 10 27 11 29 12
REMARK SMILES IDX 17 13 18 14 19 15 20 16 23 17 22 18 21 19 31 21 28 23 5 25
REMARK SMILES IDX 14 26 6 27 12 28 7 29 10 30 15 31 13 33 8 35 9 36 11 38
REMARK H PARENT 21 20 31 22 28 24 15 32 13 34 9 37 11 39
REMARK Flexibility Score: inf
ROOT
ATOM      1  O   UNL     1      -6.975  -8.059  21.367  1.00  0.00    -0.454 OA
ENDROOT
BRANCH   1   2
ATOM      2  C   UNL     1      -6.496  -8.077  22.686  1.00  0.00     0.214 A 
ATOM      3  C   UNL     1      -5.205  -7.646  23.052  1.00  0.00     0.180 A 
ATOM      4  O   UNL     1      -4.783  -7.835  24.300  1.00  0.00    -0.452 OA
ATOM      5  C   UNL     1      -7.361  -8.537  23.687  1.00  0.00     0.239 A 
ATOM      6  C   UNL     1      -5.558  -8.301  25.271  1.00  0.00     0.146 A 
ATOM      7  O   UNL     1      -8.495  -8.957  23.346  1.00  0.00    -0.285 OA
ATOM      8  C   UNL     1      -6.923  -8.601  25.029  1.00  0.00     0.111 A 
ATOM      9  C   UNL     1      -5.013  -8.479  26.542  1.00  0.00     0.094 A 
ATOM     10  C   UNL     1      -7.743  -8.994  26.127  1.00  0.00     0.134 A 
ATOM     11  C   UNL     1      -5.808  -8.929  27.597  1.00  0.00     0.123 A 
ATOM     12  C   UNL     1      -7.172  -9.173  27.388  1.00  0.00     0.093 A 
BRANCH   3  13
ATOM     13  C   UNL     1      -4.296  -6.959  22.111  1.00  0.00     0.021 A 
ATOM     14  C   UNL     1      -3.455  -7.688  21.247  1.00  0.00     0.016 A 
ATOM     15  C   UNL     1      -2.585  -7.023  20.380  1.00  0.00     0.047 A 
ATOM     16  C   UNL     1      -2.556  -5.623  20.351  1.00  0.00     0.115 A 
ATOM     17  C   UNL     1      -4.316  -5.560  22.020  1.00  0.00     0.016 A 
ATOM     18  C   UNL     1      -3.436  -4.894  21.161  1.00  0.00     0.047 A 
BRANCH  16  19
ATOM     19  O   UNL     1      -1.648  -4.947  19.539  1.00  0.00    -0.508 OA
ATOM     20  H   UNL     1      -0.858  -4.452  19.937  1.00  0.00     0.293 HD
ENDBRANCH  16  19
ENDBRANCH   3  13
BRANCH  10  21
ATOM     21  O   UNL     1      -9.125  -9.178  26.040  1.00  0.00    -0.507 OA
ATOM     22  H   UNL     1      -9.813  -8.547  26.424  1.00  0.00     0.293 HD
ENDBRANCH  10  21
BRANCH  11  23
ATOM     23  O   UNL     1      -5.238  -9.132  28.855  1.00  0.00    -0.508 OA
ATOM     24  H   UNL     1      -5.807  -9.191  29.694  1.00  0.00     0.293 HD
ENDBRANCH  11  23
ENDBRANCH   1   2
BRANCH   1  25
ATOM     25  C   UNL     1      -7.601  -6.956  20.705  1.00  0.00     0.339 C 
ATOM     26  C   UNL     1      -6.582  -6.352  19.714  1.00  0.00     0.214 C 
ATOM     27  O   UNL     1      -8.011  -5.957  21.622  1.00  0.00    -0.332 OA
ATOM     28  C   UNL     1      -6.890  -4.865  19.408  1.00  0.00     0.180 C 
ATOM     29  C   UNL     1      -8.890  -5.032  20.992  1.00  0.00     0.179 C 
ATOM     30  C   UNL     1      -8.395  -4.567  19.579  1.00  0.00     0.177 C 
BRANCH  26  31
ATOM     31  O   UNL     1      -6.508  -7.137  18.548  1.00  0.00    -0.384 OA
ATOM     32  H   UNL     1      -7.409  -7.164  18.138  1.00  0.00     0.211 HD
ENDBRANCH  26  31
BRANCH  28  33
ATOM     33  O   UNL     1      -6.454  -4.530  18.114  1.00  0.00    -0.387 OA
ATOM     34  H   UNL     1      -5.465  -4.418  18.161  1.00  0.00     0.211 HD
ENDBRANCH  28  33
BRANCH  29  35
ATOM     35  C   UNL     1      -9.079  -3.821  21.923  1.00  0.00     0.191 C 
BRANCH  35  36
ATOM     36  O   UNL     1      -9.061  -4.214  23.271  1.00  0.00    -0.394 OA
ATOM     37  H   UNL     1      -9.947  -4.627  23.454  1.00  0.00     0.210 HD
ENDBRANCH  35  36
ENDBRANCH  29  35
BRANCH  30  38
ATOM     38  O   UNL     1      -9.120  -5.228  18.572  1.00  0.00    -0.387 OA
ATOM     39  H   UNL     1     -10.009  -5.477  18.952  1.00  0.00     0.211 HD
ENDBRANCH  30  38
ENDBRANCH   1  25
TORSDOF 11
ENDMDL
