MODEL 1
REMARK VINA RESULT:    -3.719      0.000      0.000
REMARK INTER + INTRA:          -3.953
REMARK INTER:                  -3.937
REMARK INTRA:                  -0.016
REMARK UNBOUND:                -0.016
REMARK SMILES O=C([O-])c1cccnc1
REMARK SMILES IDX 4 1 5 2 9 3 6 4 8 5 7 6 2 7 1 8 3 9
REMARK H PARENT
REMARK Flexibility Score: inf
ROOT
ATOM      1  C   UNL     1     -12.214  19.103 -13.361  1.00  0.00     0.016 A 
ATOM      2  C   UNL     1     -11.619  18.160 -12.505  1.00  0.00     0.013 A 
ATOM      3  C   UNL     1     -11.377  19.954 -14.102  1.00  0.00     0.120 A 
ATOM      4  C   UNL     1     -10.229  18.085 -12.405  1.00  0.00     0.021 A 
ATOM      5  N   UNL     1     -10.025  19.859 -13.986  1.00  0.00    -0.264 NA
ATOM      6  C   UNL     1      -9.440  18.951 -13.161  1.00  0.00     0.111 A 
ENDROOT
BRANCH   1   7
ATOM      7  C   UNL     1     -13.685  19.200 -13.481  1.00  0.00     0.073 C 
ATOM      8  O   UNL     1     -14.290  18.617 -14.421  1.00  0.00    -0.545 OA
ATOM      9  O   UNL     1     -14.420  19.935 -12.559  1.00  0.00    -0.545 OA
ENDBRANCH   1   7
TORSDOF 1
ENDMDL
MODEL 2
REMARK VINA RESULT:    -3.708      0.077      1.078
REMARK INTER + INTRA:          -3.941
REMARK INTER:                  -3.924
REMARK INTRA:                  -0.016
REMARK UNBOUND:                -0.016
REMARK SMILES O=C([O-])c1cccnc1
REMARK SMILES IDX 4 1 5 2 9 3 6 4 8 5 7 6 2 7 1 8 3 9
REMARK H PARENT
REMARK Flexibility Score: inf
ROOT
ATOM      1  C   UNL     1     -12.192  19.077 -13.340  1.00  0.00     0.016 A 
ATOM      2  C   UNL     1     -11.583  18.144 -12.484  1.00  0.00     0.013 A 
ATOM      3  C   UNL     1     -11.368  19.932 -14.091  1.00  0.00     0.120 A 
ATOM      4  C   UNL     1     -10.191  18.081 -12.394  1.00  0.00     0.021 A 
ATOM      5  N   UNL     1     -10.015  19.849 -13.985  1.00  0.00    -0.264 NA
ATOM      6  C   UNL     1      -9.416  18.951 -13.160  1.00  0.00     0.111 A 
ENDROOT
BRANCH   1   7
ATOM      7  C   UNL     1     -13.665  19.162 -13.450  1.00  0.00     0.073 C 
ATOM      8  O   UNL     1     -14.337  19.782 -12.583  1.00  0.00    -0.545 OA
ATOM      9  O   UNL     1     -14.328  18.557 -14.511  1.00  0.00    -0.545 OA
ENDBRANCH   1   7
TORSDOF 1
ENDMDL
MODEL 3
REMARK VINA RESULT:    -3.444      0.917      1.600
REMARK INTER + INTRA:          -3.662
REMARK INTER:                  -3.646
REMARK INTRA:                  -0.016
REMARK UNBOUND:                -0.016
REMARK SMILES O=C([O-])c1cccnc1
REMARK SMILES IDX 4 1 5 2 9 3 6 4 8 5 7 6 2 7 1 8 3 9
REMARK H PARENT
REMARK Flexibility Score: inf
ROOT
ATOM      1  C   UNL     1     -12.192  19.127 -13.327  1.00  0.00     0.016 A 
ATOM      2  C   UNL     1     -11.352  20.016 -14.019  1.00  0.00     0.013 A 
ATOM      3  C   UNL     1     -11.601  18.137 -12.525  1.00  0.00     0.120 A 
ATOM      4  C   UNL     1      -9.966  19.904 -13.902  1.00  0.00     0.021 A 
ATOM      5  N   UNL     1     -10.247  18.051 -12.427  1.00  0.00    -0.264 NA
ATOM      6  C   UNL     1      -9.426  18.905 -13.092  1.00  0.00     0.111 A 
ENDROOT
BRANCH   1   7
ATOM      7  C   UNL     1     -13.664  19.227 -13.439  1.00  0.00     0.073 C 
ATOM      8  O   UNL     1     -14.276  18.644 -14.374  1.00  0.00    -0.545 OA
ATOM      9  O   UNL     1     -14.392  19.965 -12.513  1.00  0.00    -0.545 OA
ENDBRANCH   1   7
TORSDOF 1
ENDMDL
MODEL 4
REMARK VINA RESULT:    -3.383      3.393      4.231
REMARK INTER + INTRA:          -3.597
REMARK INTER:                  -3.580
REMARK INTRA:                  -0.017
REMARK UNBOUND:                -0.016
REMARK SMILES O=C([O-])c1cccnc1
REMARK SMILES IDX 4 1 5 2 9 3 6 4 8 5 7 6 2 7 1 8 3 9
REMARK H PARENT
REMARK Flexibility Score: inf
ROOT
ATOM      1  C   UNL     1      -9.549  19.395 -13.311  1.00  0.00     0.016 A 
ATOM      2  C   UNL     1     -10.047  18.363 -12.498  1.00  0.00     0.013 A 
ATOM      3  C   UNL     1     -10.463  20.161 -14.053  1.00  0.00     0.120 A 
ATOM      4  C   UNL     1     -11.420  18.118 -12.440  1.00  0.00     0.021 A 
ATOM      5  N   UNL     1     -11.796  19.902 -13.978  1.00  0.00    -0.264 NA
ATOM      6  C   UNL     1     -12.288  18.906 -13.195  1.00  0.00     0.111 A 
ENDROOT
BRANCH   1   7
ATOM      7  C   UNL     1      -8.097  19.671 -13.386  1.00  0.00     0.073 C 
ATOM      8  O   UNL     1      -7.612  20.698 -12.841  1.00  0.00    -0.545 OA
ATOM      9  O   UNL     1      -7.249  18.800 -14.060  1.00  0.00    -0.545 OA
ENDBRANCH   1   7
TORSDOF 1
ENDMDL
MODEL 5
REMARK VINA RESULT:    -3.348      2.478      3.568
REMARK INTER + INTRA:          -3.560
REMARK INTER:                  -3.543
REMARK INTRA:                  -0.017
REMARK UNBOUND:                -0.016
REMARK SMILES O=C([O-])c1cccnc1
REMARK SMILES IDX 4 1 5 2 9 3 6 4 8 5 7 6 2 7 1 8 3 9
REMARK H PARENT
REMARK Flexibility Score: inf
ROOT
ATOM      1  C   UNL     1     -11.879  19.012 -13.341  1.00  0.00     0.016 A 
ATOM      2  C   UNL     1     -13.200  18.879 -12.879  1.00  0.00     0.013 A 
ATOM      3  C   UNL     1     -11.664  19.660 -14.569  1.00  0.00     0.120 A 
ATOM      4  C   UNL     1     -14.260  19.383 -13.634  1.00  0.00     0.021 A 
ATOM      5  N   UNL     1     -12.715  20.144 -15.284  1.00  0.00    -0.264 NA
ATOM      6  C   UNL     1     -13.995  20.019 -14.847  1.00  0.00     0.111 A 
ENDROOT
BRANCH   1   7
ATOM      7  C   UNL     1     -10.742  18.484 -12.557  1.00  0.00     0.073 C 
ATOM      8  O   UNL     1      -9.855  19.262 -12.113  1.00  0.00    -0.545 OA
ATOM      9  O   UNL     1     -10.635  17.123 -12.300  1.00  0.00    -0.545 OA
ENDBRANCH   1   7
TORSDOF 1
ENDMDL
MODEL 6
REMARK VINA RESULT:    -3.220      2.742      3.830
REMARK INTER + INTRA:          -3.424
REMARK INTER:                  -3.406
REMARK INTRA:                  -0.018
REMARK UNBOUND:                -0.016
REMARK SMILES O=C([O-])c1cccnc1
REMARK SMILES IDX 4 1 5 2 9 3 6 4 8 5 7 6 2 7 1 8 3 9
REMARK H PARENT
REMARK Flexibility Score: inf
ROOT
ATOM      1  C   UNL     1     -11.839  19.031 -13.361  1.00  0.00     0.016 A 
ATOM      2  C   UNL     1     -11.627  19.640 -14.610  1.00  0.00     0.013 A 
ATOM      3  C   UNL     1     -13.159  18.893 -12.901  1.00  0.00     0.120 A 
ATOM      4  C   UNL     1     -12.712  20.092 -15.362  1.00  0.00     0.021 A 
ATOM      5  N   UNL     1     -14.199  19.342 -13.654  1.00  0.00    -0.264 NA
ATOM      6  C   UNL     1     -14.004  19.933 -14.863  1.00  0.00     0.111 A 
ENDROOT
BRANCH   1   7
ATOM      7  C   UNL     1     -10.703  18.545 -12.548  1.00  0.00     0.073 C 
ATOM      8  O   UNL     1      -9.815  19.344 -12.148  1.00  0.00    -0.545 OA
ATOM      9  O   UNL     1     -10.600  17.200 -12.214  1.00  0.00    -0.545 OA
ENDBRANCH   1   7
TORSDOF 1
ENDMDL
MODEL 7
REMARK VINA RESULT:    -3.063      3.054      3.914
REMARK INTER + INTRA:          -3.258
REMARK INTER:                  -3.242
REMARK INTRA:                  -0.016
REMARK UNBOUND:                -0.016
REMARK SMILES O=C([O-])c1cccnc1
REMARK SMILES IDX 4 1 5 2 9 3 6 4 8 5 7 6 2 7 1 8 3 9
REMARK H PARENT
REMARK Flexibility Score: inf
ROOT
ATOM      1  C   UNL     1     -10.466  19.664 -13.378  1.00  0.00     0.016 A 
ATOM      2  C   UNL     1     -11.269  18.675 -12.784  1.00  0.00     0.013 A 
ATOM      3  C   UNL     1     -11.073  20.577 -14.257  1.00  0.00     0.120 A 
ATOM      4  C   UNL     1     -12.634  18.616 -13.070  1.00  0.00     0.021 A 
ATOM      5  N   UNL     1     -12.406  20.498 -14.517  1.00  0.00    -0.264 NA
ATOM      6  C   UNL     1     -13.190  19.545 -13.948  1.00  0.00     0.111 A 
ENDROOT
BRANCH   1   7
ATOM      7  C   UNL     1      -9.018  19.744 -13.090  1.00  0.00     0.073 C 
ATOM      8  O   UNL     1      -8.590  20.485 -12.164  1.00  0.00    -0.545 OA
ATOM      9  O   UNL     1      -8.109  19.003 -13.836  1.00  0.00    -0.545 OA
ENDBRANCH   1   7
TORSDOF 1
ENDMDL
MODEL 8
REMARK VINA RESULT:    -3.034      3.117      3.851
REMARK INTER + INTRA:          -3.228
REMARK INTER:                  -3.206
REMARK INTRA:                  -0.022
REMARK UNBOUND:                -0.016
REMARK SMILES O=C([O-])c1cccnc1
REMARK SMILES IDX 4 1 5 2 9 3 6 4 8 5 7 6 2 7 1 8 3 9
REMARK H PARENT
REMARK Flexibility Score: inf
ROOT
ATOM      1  C   UNL     1     -13.915  19.562 -14.800  1.00  0.00     0.016 A 
ATOM      2  C   UNL     1     -14.018  20.678 -15.648  1.00  0.00     0.013 A 
ATOM      3  C   UNL     1     -13.469  18.347 -15.346  1.00  0.00     0.120 A 
ATOM      4  C   UNL     1     -13.681  20.566 -16.998  1.00  0.00     0.021 A 
ATOM      5  N   UNL     1     -13.146  18.265 -16.665  1.00  0.00    -0.264 NA
ATOM      6  C   UNL     1     -13.242  19.338 -17.493  1.00  0.00     0.111 A 
ENDROOT
BRANCH   1   7
ATOM      7  C   UNL     1     -14.268  19.659 -13.367  1.00  0.00     0.073 C 
ATOM      8  O   UNL     1     -13.706  18.917 -12.518  1.00  0.00    -0.545 OA
ATOM      9  O   UNL     1     -15.224  20.572 -12.937  1.00  0.00    -0.545 OA
ENDBRANCH   1   7
TORSDOF 1
ENDMDL
MODEL 9
REMARK VINA RESULT:    -2.885      2.184      2.777
REMARK INTER + INTRA:          -3.069
REMARK INTER:                  -3.051
REMARK INTRA:                  -0.018
REMARK UNBOUND:                -0.016
REMARK SMILES O=C([O-])c1cccnc1
REMARK SMILES IDX 4 1 5 2 9 3 6 4 8 5 7 6 2 7 1 8 3 9
REMARK H PARENT
REMARK Flexibility Score: inf
ROOT
ATOM      1  C   UNL     1     -10.076  19.494 -13.426  1.00  0.00     0.016 A 
ATOM      2  C   UNL     1      -9.125  19.882 -12.467  1.00  0.00     0.013 A 
ATOM      3  C   UNL     1      -9.916  19.945 -14.747  1.00  0.00     0.120 A 
ATOM      4  C   UNL     1      -8.052  20.697 -12.835  1.00  0.00     0.021 A 
ATOM      5  N   UNL     1      -8.861  20.737 -15.079  1.00  0.00    -0.264 NA
ATOM      6  C   UNL     1      -7.936  21.119 -14.159  1.00  0.00     0.111 A 
ENDROOT
BRANCH   1   7
ATOM      7  C   UNL     1     -11.220  18.632 -13.058  1.00  0.00     0.073 C 
ATOM      8  O   UNL     1     -12.403  19.025 -13.244  1.00  0.00    -0.545 OA
ATOM      9  O   UNL     1     -11.006  17.377 -12.501  1.00  0.00    -0.545 OA
ENDBRANCH   1   7
TORSDOF 1
ENDMDL
