MODEL 1
REMARK VINA RESULT:    -3.177      0.000      0.000
REMARK INTER + INTRA:          -3.382
REMARK INTER:                  -3.362
REMARK INTRA:                  -0.020
REMARK UNBOUND:                -0.020
REMARK SMILES O=C([O-])c1cccnc1
REMARK SMILES IDX 4 1 5 2 9 3 6 4 8 5 7 6 2 7 1 8 3 9
REMARK H PARENT
REMARK Flexibility Score: inf
ROOT
ATOM      1  C   UNL     1       4.400  24.401  72.091  1.00  0.00     0.016 A 
ATOM      2  C   UNL     1       5.274  23.878  73.058  1.00  0.00     0.013 A 
ATOM      3  C   UNL     1       4.570  24.000  70.753  1.00  0.00     0.120 A 
ATOM      4  C   UNL     1       6.280  22.985  72.687  1.00  0.00     0.021 A 
ATOM      5  N   UNL     1       5.558  23.128  70.417  1.00  0.00    -0.264 NA
ATOM      6  C   UNL     1       6.408  22.618  71.346  1.00  0.00     0.111 A 
ENDROOT
BRANCH   1   7
ATOM      7  C   UNL     1       3.331  25.347  72.473  1.00  0.00     0.073 C 
ATOM      8  O   UNL     1       3.571  26.302  73.259  1.00  0.00    -0.545 OA
ATOM      9  O   UNL     1       2.044  25.196  71.968  1.00  0.00    -0.545 OA
ENDBRANCH   1   7
TORSDOF 1
ENDMDL
MODEL 2
REMARK VINA RESULT:    -3.173     11.812     12.609
REMARK INTER + INTRA:          -3.378
REMARK INTER:                  -3.362
REMARK INTRA:                  -0.016
REMARK UNBOUND:                -0.020
REMARK SMILES O=C([O-])c1cccnc1
REMARK SMILES IDX 4 1 5 2 9 3 6 4 8 5 7 6 2 7 1 8 3 9
REMARK H PARENT
REMARK Flexibility Score: inf
ROOT
ATOM      1  C   UNL     1      13.264  23.707  81.010  1.00  0.00     0.016 A 
ATOM      2  C   UNL     1      12.299  22.892  80.397  1.00  0.00     0.013 A 
ATOM      3  C   UNL     1      14.622  23.392  80.819  1.00  0.00     0.120 A 
ATOM      4  C   UNL     1      12.691  21.801  79.620  1.00  0.00     0.021 A 
ATOM      5  N   UNL     1      14.978  22.322  80.057  1.00  0.00    -0.264 NA
ATOM      6  C   UNL     1      14.051  21.529  79.461  1.00  0.00     0.111 A 
ENDROOT
BRANCH   1   7
ATOM      7  C   UNL     1      12.860  24.866  81.835  1.00  0.00     0.073 C 
ATOM      8  O   UNL     1      12.496  25.943  81.292  1.00  0.00    -0.545 OA
ATOM      9  O   UNL     1      12.878  24.782  83.222  1.00  0.00    -0.545 OA
ENDBRANCH   1   7
TORSDOF 1
ENDMDL
MODEL 3
REMARK VINA RESULT:    -3.102     12.046     12.931
REMARK INTER + INTRA:          -3.304
REMARK INTER:                  -3.287
REMARK INTRA:                  -0.016
REMARK UNBOUND:                -0.020
REMARK SMILES O=C([O-])c1cccnc1
REMARK SMILES IDX 4 1 5 2 9 3 6 4 8 5 7 6 2 7 1 8 3 9
REMARK H PARENT
REMARK Flexibility Score: inf
ROOT
ATOM      1  C   UNL     1      12.923  24.467  81.228  1.00  0.00     0.016 A 
ATOM      2  C   UNL     1      12.827  24.621  82.620  1.00  0.00     0.013 A 
ATOM      3  C   UNL     1      12.801  25.613  80.420  1.00  0.00     0.120 A 
ATOM      4  C   UNL     1      12.615  25.884  83.175  1.00  0.00     0.021 A 
ATOM      5  N   UNL     1      12.595  26.833  80.986  1.00  0.00    -0.264 NA
ATOM      6  C   UNL     1      12.500  26.990  82.332  1.00  0.00     0.111 A 
ENDROOT
BRANCH   1   7
ATOM      7  C   UNL     1      13.147  23.134  80.629  1.00  0.00     0.073 C 
ATOM      8  O   UNL     1      14.313  22.740  80.360  1.00  0.00    -0.545 OA
ATOM      9  O   UNL     1      12.072  22.297  80.354  1.00  0.00    -0.545 OA
ENDBRANCH   1   7
TORSDOF 1
ENDMDL
MODEL 4
REMARK VINA RESULT:    -3.085     12.369     13.389
REMARK INTER + INTRA:          -3.285
REMARK INTER:                  -3.269
REMARK INTRA:                  -0.016
REMARK UNBOUND:                -0.020
REMARK SMILES O=C([O-])c1cccnc1
REMARK SMILES IDX 4 1 5 2 9 3 6 4 8 5 7 6 2 7 1 8 3 9
REMARK H PARENT
REMARK Flexibility Score: inf
ROOT
ATOM      1  C   UNL     1      13.343  23.956  81.365  1.00  0.00     0.016 A 
ATOM      2  C   UNL     1      12.697  24.694  82.370  1.00  0.00     0.013 A 
ATOM      3  C   UNL     1      14.718  23.695  81.509  1.00  0.00     0.120 A 
ATOM      4  C   UNL     1      13.413  25.149  83.478  1.00  0.00     0.021 A 
ATOM      5  N   UNL     1      15.393  24.149  82.599  1.00  0.00    -0.264 NA
ATOM      6  C   UNL     1      14.776  24.864  83.576  1.00  0.00     0.111 A 
ENDROOT
BRANCH   1   7
ATOM      7  C   UNL     1      12.595  23.469  80.186  1.00  0.00     0.073 C 
ATOM      8  O   UNL     1      12.545  24.156  79.131  1.00  0.00    -0.545 OA
ATOM      9  O   UNL     1      11.936  22.246  80.228  1.00  0.00    -0.545 OA
ENDBRANCH   1   7
TORSDOF 1
ENDMDL
MODEL 5
REMARK VINA RESULT:    -3.055     11.052     12.132
REMARK INTER + INTRA:          -3.254
REMARK INTER:                  -3.237
REMARK INTRA:                  -0.016
REMARK UNBOUND:                -0.020
REMARK SMILES O=C([O-])c1cccnc1
REMARK SMILES IDX 4 1 5 2 9 3 6 4 8 5 7 6 2 7 1 8 3 9
REMARK H PARENT
REMARK Flexibility Score: inf
ROOT
ATOM      1  C   UNL     1      12.927  24.114  80.809  1.00  0.00     0.016 A 
ATOM      2  C   UNL     1      12.353  22.842  80.655  1.00  0.00     0.013 A 
ATOM      3  C   UNL     1      12.895  24.997  79.714  1.00  0.00     0.120 A 
ATOM      4  C   UNL     1      11.768  22.477  79.442  1.00  0.00     0.021 A 
ATOM      5  N   UNL     1      12.318  24.617  78.542  1.00  0.00    -0.264 NA
ATOM      6  C   UNL     1      11.761  23.389  78.385  1.00  0.00     0.111 A 
ENDROOT
BRANCH   1   7
ATOM      7  C   UNL     1      13.550  24.512  82.089  1.00  0.00     0.073 C 
ATOM      8  O   UNL     1      14.793  24.399  82.259  1.00  0.00    -0.545 OA
ATOM      9  O   UNL     1      12.770  25.016  83.124  1.00  0.00    -0.545 OA
ENDBRANCH   1   7
TORSDOF 1
ENDMDL
MODEL 6
REMARK VINA RESULT:    -2.987      1.633      1.778
REMARK INTER + INTRA:          -3.182
REMARK INTER:                  -3.165
REMARK INTRA:                  -0.016
REMARK UNBOUND:                -0.020
REMARK SMILES O=C([O-])c1cccnc1
REMARK SMILES IDX 4 1 5 2 9 3 6 4 8 5 7 6 2 7 1 8 3 9
REMARK H PARENT
REMARK Flexibility Score: inf
ROOT
ATOM      1  C   UNL     1       5.252  24.669  72.418  1.00  0.00     0.016 A 
ATOM      2  C   UNL     1       5.562  23.401  72.936  1.00  0.00     0.013 A 
ATOM      3  C   UNL     1       6.313  25.516  72.048  1.00  0.00     0.120 A 
ATOM      4  C   UNL     1       6.894  23.005  73.074  1.00  0.00     0.021 A 
ATOM      5  N   UNL     1       7.602  25.106  72.192  1.00  0.00    -0.264 NA
ATOM      6  C   UNL     1       7.911  23.882  72.693  1.00  0.00     0.111 A 
ENDROOT
BRANCH   1   7
ATOM      7  C   UNL     1       3.846  25.099  72.267  1.00  0.00     0.073 C 
ATOM      8  O   UNL     1       3.288  25.790  73.161  1.00  0.00    -0.545 OA
ATOM      9  O   UNL     1       3.120  24.747  71.135  1.00  0.00    -0.545 OA
ENDBRANCH   1   7
TORSDOF 1
ENDMDL
MODEL 7
REMARK VINA RESULT:    -2.951      4.662      5.916
REMARK INTER + INTRA:          -3.143
REMARK INTER:                  -3.120
REMARK INTRA:                  -0.023
REMARK UNBOUND:                -0.020
REMARK SMILES O=C([O-])c1cccnc1
REMARK SMILES IDX 4 1 5 2 9 3 6 4 8 5 7 6 2 7 1 8 3 9
REMARK H PARENT
REMARK Flexibility Score: inf
ROOT
ATOM      1  C   UNL     1       0.265  26.095  71.270  1.00  0.00     0.016 A 
ATOM      2  C   UNL     1      -0.368  24.951  71.784  1.00  0.00     0.013 A 
ATOM      3  C   UNL     1      -0.393  26.825  70.263  1.00  0.00     0.120 A 
ATOM      4  C   UNL     1      -1.617  24.561  71.298  1.00  0.00     0.021 A 
ATOM      5  N   UNL     1      -1.610  26.424  69.808  1.00  0.00    -0.264 NA
ATOM      6  C   UNL     1      -2.229  25.319  70.298  1.00  0.00     0.111 A 
ENDROOT
BRANCH   1   7
ATOM      7  C   UNL     1       1.588  26.517  71.776  1.00  0.00     0.073 C 
ATOM      8  O   UNL     1       2.314  25.713  72.419  1.00  0.00    -0.545 OA
ATOM      9  O   UNL     1       2.048  27.810  71.550  1.00  0.00    -0.545 OA
ENDBRANCH   1   7
TORSDOF 1
ENDMDL
MODEL 8
REMARK VINA RESULT:    -2.892      2.598      3.645
REMARK INTER + INTRA:          -3.081
REMARK INTER:                  -3.058
REMARK INTRA:                  -0.024
REMARK UNBOUND:                -0.020
REMARK SMILES O=C([O-])c1cccnc1
REMARK SMILES IDX 4 1 5 2 9 3 6 4 8 5 7 6 2 7 1 8 3 9
REMARK H PARENT
REMARK Flexibility Score: inf
ROOT
ATOM      1  C   UNL     1       4.854  24.114  72.030  1.00  0.00     0.016 A 
ATOM      2  C   UNL     1       4.456  24.910  73.117  1.00  0.00     0.013 A 
ATOM      3  C   UNL     1       4.135  24.222  70.826  1.00  0.00     0.120 A 
ATOM      4  C   UNL     1       3.373  25.782  72.989  1.00  0.00     0.021 A 
ATOM      5  N   UNL     1       3.084  25.079  70.728  1.00  0.00    -0.264 NA
ATOM      6  C   UNL     1       2.692  25.853  71.773  1.00  0.00     0.111 A 
ENDROOT
BRANCH   1   7
ATOM      7  C   UNL     1       5.999  23.187  72.153  1.00  0.00     0.073 C 
ATOM      8  O   UNL     1       6.392  22.518  71.160  1.00  0.00    -0.545 OA
ATOM      9  O   UNL     1       6.658  23.041  73.368  1.00  0.00    -0.545 OA
ENDBRANCH   1   7
TORSDOF 1
ENDMDL
MODEL 9
REMARK VINA RESULT:    -2.843      1.876      2.408
REMARK INTER + INTRA:          -3.030
REMARK INTER:                  -3.013
REMARK INTRA:                  -0.017
REMARK UNBOUND:                -0.020
REMARK SMILES O=C([O-])c1cccnc1
REMARK SMILES IDX 4 1 5 2 9 3 6 4 8 5 7 6 2 7 1 8 3 9
REMARK H PARENT
REMARK Flexibility Score: inf
ROOT
ATOM      1  C   UNL     1       2.394  25.444  71.767  1.00  0.00     0.016 A 
ATOM      2  C   UNL     1       3.274  25.543  72.857  1.00  0.00     0.013 A 
ATOM      3  C   UNL     1       2.835  24.772  70.613  1.00  0.00     0.120 A 
ATOM      4  C   UNL     1       4.550  24.982  72.783  1.00  0.00     0.021 A 
ATOM      5  N   UNL     1       4.084  24.234  70.566  1.00  0.00    -0.264 NA
ATOM      6  C   UNL     1       4.941  24.325  71.615  1.00  0.00     0.111 A 
ENDROOT
BRANCH   1   7
ATOM      7  C   UNL     1       1.040  26.034  71.834  1.00  0.00     0.073 C 
ATOM      8  O   UNL     1       0.883  27.284  71.789  1.00  0.00    -0.545 OA
ATOM      9  O   UNL     1      -0.078  25.217  71.948  1.00  0.00    -0.545 OA
ENDBRANCH   1   7
TORSDOF 1
ENDMDL
