MODEL 1
REMARK VINA RESULT:    -4.151      0.000      0.000
REMARK INTER + INTRA:          -6.762
REMARK INTER:                  -6.335
REMARK INTRA:                  -0.427
REMARK UNBOUND:                -0.427
REMARK SMILES O=C([O-])CCCCCCCCC(=O)[O-]
REMARK SMILES IDX 7 1 6 2 5 3 4 4 2 5 1 6 3 7 8 8 9 9 10 10 11 11 12 12 13 13
REMARK SMILES IDX 14 14
REMARK H PARENT
REMARK Flexibility Score: inf
ROOT
ATOM      1  C   UNL     1      47.223  -8.675 -56.936  1.00  0.00     0.000 C 
ENDROOT
BRANCH   1   2
ATOM      2  C   UNL     1      46.792 -10.123 -57.213  1.00  0.00     0.000 C 
BRANCH   2   3
ATOM      3  C   UNL     1      47.847 -11.117 -56.716  1.00  0.00     0.006 C 
BRANCH   3   4
ATOM      4  C   UNL     1      47.385 -12.562 -56.930  1.00  0.00     0.053 C 
BRANCH   4   5
ATOM      5  C   UNL     1      48.224 -13.505 -56.128  1.00  0.00     0.041 C 
ATOM      6  O   UNL     1      49.479 -13.463 -56.210  1.00  0.00    -0.550 OA
ATOM      7  O   UNL     1      47.621 -14.399 -55.252  1.00  0.00    -0.550 OA
ENDBRANCH   4   5
ENDBRANCH   3   4
ENDBRANCH   2   3
ENDBRANCH   1   2
BRANCH   1   8
ATOM      8  C   UNL     1      48.198  -8.573 -55.743  1.00  0.00     0.000 C 
BRANCH   8   9
ATOM      9  C   UNL     1      47.709  -7.635 -54.628  1.00  0.00     0.000 C 
BRANCH   9  10
ATOM     10  C   UNL     1      48.845  -7.153 -53.712  1.00  0.00     0.006 C 
BRANCH  10  11
ATOM     11  C   UNL     1      50.231  -7.416 -54.317  1.00  0.00     0.053 C 
BRANCH  11  12
ATOM     12  C   UNL     1      50.871  -6.153 -54.803  1.00  0.00     0.041 C 
ATOM     13  O   UNL     1      51.882  -6.201 -55.551  1.00  0.00    -0.550 OA
ATOM     14  O   UNL     1      50.330  -4.921 -54.457  1.00  0.00    -0.550 OA
ENDBRANCH  11  12
ENDBRANCH  10  11
ENDBRANCH   9  10
ENDBRANCH   8   9
ENDBRANCH   1   8
TORSDOF 9
ENDMDL
MODEL 2
REMARK VINA RESULT:    -4.114      3.102      6.005
REMARK INTER + INTRA:          -6.706
REMARK INTER:                  -5.886
REMARK INTRA:                  -0.820
REMARK UNBOUND:                -0.427
REMARK SMILES O=C([O-])CCCCCCCCC(=O)[O-]
REMARK SMILES IDX 7 1 6 2 5 3 4 4 2 5 1 6 3 7 8 8 9 9 10 10 11 11 12 12 13 13
REMARK SMILES IDX 14 14
REMARK H PARENT
REMARK Flexibility Score: inf
ROOT
ATOM      1  C   UNL     1      50.947  -6.634 -54.728  1.00  0.00     0.000 C 
ENDROOT
BRANCH   1   2
ATOM      2  C   UNL     1      50.229  -5.417 -55.331  1.00  0.00     0.000 C 
BRANCH   2   3
ATOM      3  C   UNL     1      50.709  -5.147 -56.761  1.00  0.00     0.006 C 
BRANCH   3   4
ATOM      4  C   UNL     1      52.003  -5.910 -57.060  1.00  0.00     0.053 C 
BRANCH   4   5
ATOM      5  C   UNL     1      51.993  -6.431 -58.462  1.00  0.00     0.041 C 
ATOM      6  O   UNL     1      50.902  -6.611 -59.063  1.00  0.00    -0.550 OA
ATOM      7  O   UNL     1      53.191  -6.673 -59.123  1.00  0.00    -0.550 OA
ENDBRANCH   4   5
ENDBRANCH   3   4
ENDBRANCH   2   3
ENDBRANCH   1   2
BRANCH   1   8
ATOM      8  C   UNL     1      49.961  -7.649 -54.112  1.00  0.00     0.000 C 
BRANCH   8   9
ATOM      9  C   UNL     1      48.544  -7.085 -53.913  1.00  0.00     0.000 C 
BRANCH   9  10
ATOM     10  C   UNL     1      47.495  -7.779 -54.798  1.00  0.00     0.006 C 
BRANCH  10  11
ATOM     11  C   UNL     1      48.111  -8.880 -55.672  1.00  0.00     0.053 C 
BRANCH  11  12
ATOM     12  C   UNL     1      47.912  -8.604 -57.131  1.00  0.00     0.041 C 
ATOM     13  O   UNL     1      48.117  -7.451 -57.592  1.00  0.00    -0.550 OA
ATOM     14  O   UNL     1      47.534  -9.630 -57.987  1.00  0.00    -0.550 OA
ENDBRANCH  11  12
ENDBRANCH  10  11
ENDBRANCH   9  10
ENDBRANCH   8   9
ENDBRANCH   1   8
TORSDOF 9
ENDMDL
MODEL 3
REMARK VINA RESULT:    -4.099      1.153      6.489
REMARK INTER + INTRA:          -6.682
REMARK INTER:                  -6.040
REMARK INTRA:                  -0.642
REMARK UNBOUND:                -0.427
REMARK SMILES O=C([O-])CCCCCCCCC(=O)[O-]
REMARK SMILES IDX 7 1 6 2 5 3 4 4 2 5 1 6 3 7 8 8 9 9 10 10 11 11 12 12 13 13
REMARK SMILES IDX 14 14
REMARK H PARENT
REMARK Flexibility Score: inf
ROOT
ATOM      1  C   UNL     1      47.689  -7.771 -54.814  1.00  0.00     0.000 C 
ENDROOT
BRANCH   1   2
ATOM      2  C   UNL     1      48.674  -7.068 -53.867  1.00  0.00     0.000 C 
BRANCH   2   3
ATOM      3  C   UNL     1      50.125  -7.355 -54.269  1.00  0.00     0.006 C 
BRANCH   3   4
ATOM      4  C   UNL     1      50.815  -6.086 -54.779  1.00  0.00     0.053 C 
BRANCH   4   5
ATOM      5  C   UNL     1      51.058  -6.178 -56.252  1.00  0.00     0.041 C 
ATOM      6  O   UNL     1      50.089  -6.253 -57.051  1.00  0.00    -0.550 OA
ATOM      7  O   UNL     1      52.356  -6.133 -56.747  1.00  0.00    -0.550 OA
ENDBRANCH   4   5
ENDBRANCH   3   4
ENDBRANCH   2   3
ENDBRANCH   1   2
BRANCH   1   8
ATOM      8  C   UNL     1      48.339  -8.955 -55.560  1.00  0.00     0.000 C 
BRANCH   8   9
ATOM      9  C   UNL     1      47.802  -9.152 -56.987  1.00  0.00     0.000 C 
BRANCH   9  10
ATOM     10  C   UNL     1      46.819 -10.329 -57.098  1.00  0.00     0.006 C 
BRANCH  10  11
ATOM     11  C   UNL     1      47.464 -11.565 -57.739  1.00  0.00     0.053 C 
BRANCH  11  12
ATOM     12  C   UNL     1      47.783 -12.614 -56.719  1.00  0.00     0.041 C 
ATOM     13  O   UNL     1      48.707 -12.428 -55.885  1.00  0.00    -0.550 OA
ATOM     14  O   UNL     1      47.036 -13.784 -56.669  1.00  0.00    -0.550 OA
ENDBRANCH  11  12
ENDBRANCH  10  11
ENDBRANCH   9  10
ENDBRANCH   8   9
ENDBRANCH   1   8
TORSDOF 9
ENDMDL
MODEL 4
REMARK VINA RESULT:    -4.087      3.281      4.634
REMARK INTER + INTRA:          -6.665
REMARK INTER:                  -5.686
REMARK INTRA:                  -0.979
REMARK UNBOUND:                -0.427
REMARK SMILES O=C([O-])CCCCCCCCC(=O)[O-]
REMARK SMILES IDX 7 1 6 2 5 3 4 4 2 5 1 6 3 7 8 8 9 9 10 10 11 11 12 12 13 13
REMARK SMILES IDX 14 14
REMARK H PARENT
REMARK Flexibility Score: inf
ROOT
ATOM      1  C   UNL     1      49.997  -7.708 -54.130  1.00  0.00     0.000 C 
ENDROOT
BRANCH   1   2
ATOM      2  C   UNL     1      48.633  -7.063 -53.842  1.00  0.00     0.000 C 
BRANCH   2   3
ATOM      3  C   UNL     1      47.527  -7.715 -54.678  1.00  0.00     0.006 C 
BRANCH   3   4
ATOM      4  C   UNL     1      48.118  -8.639 -55.747  1.00  0.00     0.053 C 
BRANCH   4   5
ATOM      5  C   UNL     1      47.985  -8.022 -57.104  1.00  0.00     0.041 C 
ATOM      6  O   UNL     1      48.254  -8.693 -58.134  1.00  0.00    -0.550 OA
ATOM      7  O   UNL     1      47.519  -6.720 -57.233  1.00  0.00    -0.550 OA
ENDBRANCH   4   5
ENDBRANCH   3   4
ENDBRANCH   2   3
ENDBRANCH   1   2
BRANCH   1   8
ATOM      8  C   UNL     1      51.018  -6.694 -54.687  1.00  0.00     0.000 C 
BRANCH   8   9
ATOM      9  C   UNL     1      50.387  -5.358 -55.112  1.00  0.00     0.000 C 
BRANCH   9  10
ATOM     10  C   UNL     1      50.581  -5.054 -56.606  1.00  0.00     0.006 C 
BRANCH  10  11
ATOM     11  C   UNL     1      51.217  -6.231 -57.360  1.00  0.00     0.053 C 
BRANCH  11  12
ATOM     12  C   UNL     1      52.489  -5.830 -58.040  1.00  0.00     0.041 C 
ATOM     13  O   UNL     1      53.154  -4.849 -57.615  1.00  0.00    -0.550 OA
ATOM     14  O   UNL     1      52.959  -6.563 -59.123  1.00  0.00    -0.550 OA
ENDBRANCH  11  12
ENDBRANCH  10  11
ENDBRANCH   9  10
ENDBRANCH   8   9
ENDBRANCH   1   8
TORSDOF 9
ENDMDL
MODEL 5
REMARK VINA RESULT:    -4.054      0.802      6.962
REMARK INTER + INTRA:          -6.614
REMARK INTER:                  -6.267
REMARK INTRA:                  -0.347
REMARK UNBOUND:                -0.427
REMARK SMILES O=C([O-])CCCCCCCCC(=O)[O-]
REMARK SMILES IDX 7 1 6 2 5 3 4 4 2 5 1 6 3 7 8 8 9 9 10 10 11 11 12 12 13 13
REMARK SMILES IDX 14 14
REMARK H PARENT
REMARK Flexibility Score: inf
ROOT
ATOM      1  C   UNL     1      48.219  -8.865 -55.823  1.00  0.00     0.000 C 
ENDROOT
BRANCH   1   2
ATOM      2  C   UNL     1      47.496  -7.978 -54.798  1.00  0.00     0.000 C 
BRANCH   2   3
ATOM      3  C   UNL     1      48.488  -7.080 -54.050  1.00  0.00     0.006 C 
BRANCH   3   4
ATOM      4  C   UNL     1      49.933  -7.429 -54.419  1.00  0.00     0.053 C 
BRANCH   4   5
ATOM      5  C   UNL     1      50.706  -6.189 -54.738  1.00  0.00     0.041 C 
ATOM      6  O   UNL     1      51.870  -6.271 -55.210  1.00  0.00    -0.550 OA
ATOM      7  O   UNL     1      50.122  -4.941 -54.560  1.00  0.00    -0.550 OA
ENDBRANCH   4   5
ENDBRANCH   3   4
ENDBRANCH   2   3
ENDBRANCH   1   2
BRANCH   1   8
ATOM      8  C   UNL     1      47.233  -9.638 -56.725  1.00  0.00     0.000 C 
BRANCH   8   9
ATOM      9  C   UNL     1      47.842 -10.897 -57.363  1.00  0.00     0.000 C 
BRANCH   9  10
ATOM     10  C   UNL     1      47.343 -12.197 -56.714  1.00  0.00     0.006 C 
BRANCH  10  11
ATOM     11  C   UNL     1      48.496 -13.069 -56.197  1.00  0.00     0.053 C 
BRANCH  11  12
ATOM     12  C   UNL     1      48.017 -14.419 -55.761  1.00  0.00     0.041 C 
ATOM     13  O   UNL     1      47.055 -14.522 -54.956  1.00  0.00    -0.550 OA
ATOM     14  O   UNL     1      48.612 -15.566 -56.272  1.00  0.00    -0.550 OA
ENDBRANCH  11  12
ENDBRANCH  10  11
ENDBRANCH   9  10
ENDBRANCH   8   9
ENDBRANCH   1   8
TORSDOF 9
ENDMDL
MODEL 6
REMARK VINA RESULT:    -3.975      0.999      1.665
REMARK INTER + INTRA:          -6.494
REMARK INTER:                  -6.139
REMARK INTRA:                  -0.355
REMARK UNBOUND:                -0.427
REMARK SMILES O=C([O-])CCCCCCCCC(=O)[O-]
REMARK SMILES IDX 7 1 6 2 5 3 4 4 2 5 1 6 3 7 8 8 9 9 10 10 11 11 12 12 13 13
REMARK SMILES IDX 14 14
REMARK H PARENT
REMARK Flexibility Score: inf
ROOT
ATOM      1  C   UNL     1      47.239  -9.900 -56.775  1.00  0.00     0.000 C 
ENDROOT
BRANCH   1   2
ATOM      2  C   UNL     1      47.942 -11.093 -57.441  1.00  0.00     0.000 C 
BRANCH   2   3
ATOM      3  C   UNL     1      47.392 -12.422 -56.913  1.00  0.00     0.006 C 
BRANCH   3   4
ATOM      4  C   UNL     1      48.474 -13.204 -56.161  1.00  0.00     0.053 C 
BRANCH   4   5
ATOM      5  C   UNL     1      47.934 -14.513 -55.678  1.00  0.00     0.041 C 
ATOM      6  O   UNL     1      48.338 -15.591 -56.186  1.00  0.00    -0.550 OA
ATOM      7  O   UNL     1      47.019 -14.544 -54.633  1.00  0.00    -0.550 OA
ENDBRANCH   4   5
ENDBRANCH   3   4
ENDBRANCH   2   3
ENDBRANCH   1   2
BRANCH   1   8
ATOM      8  C   UNL     1      47.565  -8.564 -57.475  1.00  0.00     0.000 C 
BRANCH   8   9
ATOM      9  C   UNL     1      48.327  -7.572 -56.581  1.00  0.00     0.000 C 
BRANCH   9  10
ATOM     10  C   UNL     1      48.299  -7.964 -55.095  1.00  0.00     0.006 C 
BRANCH  10  11
ATOM     11  C   UNL     1      49.689  -7.886 -54.447  1.00  0.00     0.053 C 
BRANCH  11  12
ATOM     12  C   UNL     1      50.266  -6.507 -54.543  1.00  0.00     0.041 C 
ATOM     13  O   UNL     1      49.568  -5.504 -54.242  1.00  0.00    -0.550 OA
ATOM     14  O   UNL     1      51.588  -6.333 -54.933  1.00  0.00    -0.550 OA
ENDBRANCH  11  12
ENDBRANCH  10  11
ENDBRANCH   9  10
ENDBRANCH   8   9
ENDBRANCH   1   8
TORSDOF 9
ENDMDL
MODEL 7
REMARK VINA RESULT:    -3.930      2.323      7.403
REMARK INTER + INTRA:          -6.426
REMARK INTER:                  -6.072
REMARK INTRA:                  -0.354
REMARK UNBOUND:                -0.427
REMARK SMILES O=C([O-])CCCCCCCCC(=O)[O-]
REMARK SMILES IDX 7 1 6 2 5 3 4 4 2 5 1 6 3 7 8 8 9 9 10 10 11 11 12 12 13 13
REMARK SMILES IDX 14 14
REMARK H PARENT
REMARK Flexibility Score: inf
ROOT
ATOM      1  C   UNL     1      47.609 -11.707 -57.516  1.00  0.00     0.000 C 
ENDROOT
BRANCH   1   2
ATOM      2  C   UNL     1      47.623 -10.219 -57.898  1.00  0.00     0.000 C 
BRANCH   2   3
ATOM      3  C   UNL     1      47.059  -9.354 -56.766  1.00  0.00     0.006 C 
BRANCH   3   4
ATOM      4  C   UNL     1      47.939  -8.125 -56.522  1.00  0.00     0.053 C 
BRANCH   4   5
ATOM      5  C   UNL     1      48.269  -7.997 -55.069  1.00  0.00     0.041 C 
ATOM      6  O   UNL     1      47.428  -7.513 -54.268  1.00  0.00    -0.550 OA
ATOM      7  O   UNL     1      49.490  -8.458 -54.590  1.00  0.00    -0.550 OA
ENDBRANCH   4   5
ENDBRANCH   3   4
ENDBRANCH   2   3
ENDBRANCH   1   2
BRANCH   1   8
ATOM      8  C   UNL     1      48.342 -11.975 -56.185  1.00  0.00     0.000 C 
BRANCH   8   9
ATOM      9  C   UNL     1      48.941 -13.388 -56.087  1.00  0.00     0.000 C 
BRANCH   9  10
ATOM     10  C   UNL     1      47.924 -14.436 -55.606  1.00  0.00     0.006 C 
BRANCH  10  11
ATOM     11  C   UNL     1      48.283 -15.852 -56.079  1.00  0.00     0.053 C 
BRANCH  11  12
ATOM     12  C   UNL     1      47.172 -16.467 -56.874  1.00  0.00     0.041 C 
ATOM     13  O   UNL     1      45.980 -16.116 -56.676  1.00  0.00    -0.550 OA
ATOM     14  O   UNL     1      47.459 -17.404 -57.859  1.00  0.00    -0.550 OA
ENDBRANCH  11  12
ENDBRANCH  10  11
ENDBRANCH   9  10
ENDBRANCH   8   9
ENDBRANCH   1   8
TORSDOF 9
ENDMDL
MODEL 8
REMARK VINA RESULT:    -3.918      2.182      3.495
REMARK INTER + INTRA:          -6.406
REMARK INTER:                  -5.486
REMARK INTRA:                  -0.920
REMARK UNBOUND:                -0.427
REMARK SMILES O=C([O-])CCCCCCCCC(=O)[O-]
REMARK SMILES IDX 7 1 6 2 5 3 4 4 2 5 1 6 3 7 8 8 9 9 10 10 11 11 12 12 13 13
REMARK SMILES IDX 14 14
REMARK H PARENT
REMARK Flexibility Score: inf
ROOT
ATOM      1  C   UNL     1      48.776  -7.033 -53.899  1.00  0.00     0.000 C 
ENDROOT
BRANCH   1   2
ATOM      2  C   UNL     1      47.747  -7.698 -54.826  1.00  0.00     0.000 C 
BRANCH   2   3
ATOM      3  C   UNL     1      48.369  -8.875 -55.585  1.00  0.00     0.006 C 
BRANCH   3   4
ATOM      4  C   UNL     1      47.452  -9.343 -56.720  1.00  0.00     0.053 C 
BRANCH   4   5
ATOM      5  C   UNL     1      47.493 -10.833 -56.845  1.00  0.00     0.041 C 
ATOM      6  O   UNL     1      46.722 -11.423 -57.646  1.00  0.00    -0.550 OA
ATOM      7  O   UNL     1      48.416 -11.567 -56.110  1.00  0.00    -0.550 OA
ENDBRANCH   4   5
ENDBRANCH   3   4
ENDBRANCH   2   3
ENDBRANCH   1   2
BRANCH   1   8
ATOM      8  C   UNL     1      50.225  -7.425 -54.258  1.00  0.00     0.000 C 
BRANCH   8   9
ATOM      9  C   UNL     1      51.092  -6.234 -54.701  1.00  0.00     0.000 C 
BRANCH   9  10
ATOM     10  C   UNL     1      51.367  -6.226 -56.214  1.00  0.00     0.006 C 
BRANCH  10  11
ATOM     11  C   UNL     1      50.488  -5.211 -56.958  1.00  0.00     0.053 C 
BRANCH  11  12
ATOM     12  C   UNL     1      49.326  -5.873 -57.630  1.00  0.00     0.041 C 
ATOM     13  O   UNL     1      48.169  -5.390 -57.519  1.00  0.00    -0.550 OA
ATOM     14  O   UNL     1      49.526  -7.006 -58.408  1.00  0.00    -0.550 OA
ENDBRANCH  11  12
ENDBRANCH  10  11
ENDBRANCH   9  10
ENDBRANCH   8   9
ENDBRANCH   1   8
TORSDOF 9
ENDMDL
MODEL 9
REMARK VINA RESULT:    -3.874      3.126      7.055
REMARK INTER + INTRA:          -6.339
REMARK INTER:                  -5.709
REMARK INTRA:                  -0.630
REMARK UNBOUND:                -0.427
REMARK SMILES O=C([O-])CCCCCCCCC(=O)[O-]
REMARK SMILES IDX 7 1 6 2 5 3 4 4 2 5 1 6 3 7 8 8 9 9 10 10 11 11 12 12 13 13
REMARK SMILES IDX 14 14
REMARK H PARENT
REMARK Flexibility Score: inf
ROOT
ATOM      1  C   UNL     1      50.574  -5.352 -55.380  1.00  0.00     0.000 C 
ENDROOT
BRANCH   1   2
ATOM      2  C   UNL     1      50.904  -5.383 -56.880  1.00  0.00     0.000 C 
BRANCH   2   3
ATOM      3  C   UNL     1      52.355  -5.816 -57.117  1.00  0.00     0.006 C 
BRANCH   3   4
ATOM      4  C   UNL     1      52.815  -5.446 -58.530  1.00  0.00     0.053 C 
BRANCH   4   5
ATOM      5  C   UNL     1      53.846  -4.365 -58.479  1.00  0.00     0.041 C 
ATOM      6  O   UNL     1      53.551  -3.227 -58.029  1.00  0.00    -0.550 OA
ATOM      7  O   UNL     1      55.149  -4.627 -58.885  1.00  0.00    -0.550 OA
ENDBRANCH   4   5
ENDBRANCH   3   4
ENDBRANCH   2   3
ENDBRANCH   1   2
BRANCH   1   8
ATOM      8  C   UNL     1      51.070  -6.616 -54.646  1.00  0.00     0.000 C 
BRANCH   8   9
ATOM      9  C   UNL     1      49.941  -7.585 -54.259  1.00  0.00     0.000 C 
BRANCH   9  10
ATOM     10  C   UNL     1      48.557  -6.915 -54.245  1.00  0.00     0.006 C 
BRANCH  10  11
ATOM     11  C   UNL     1      47.462  -7.833 -54.806  1.00  0.00     0.053 C 
BRANCH  11  12
ATOM     12  C   UNL     1      47.857  -8.424 -56.124  1.00  0.00     0.041 C 
ATOM     13  O   UNL     1      47.943  -9.672 -56.259  1.00  0.00    -0.550 OA
ATOM     14  O   UNL     1      48.097  -7.596 -57.213  1.00  0.00    -0.550 OA
ENDBRANCH  11  12
ENDBRANCH  10  11
ENDBRANCH   9  10
ENDBRANCH   8   9
ENDBRANCH   1   8
TORSDOF 9
ENDMDL
