MODEL 1
REMARK VINA RESULT:     0.000      0.000      0.000
REMARK INTER + INTRA:          -3.086
REMARK INTER:                   0.000
REMARK INTRA:                  -3.086
REMARK UNBOUND:                -3.086
REMARK SMILES CCCCCCCCCCCCCCCC(=O)[O-]
REMARK SMILES IDX 9 1 10 2 11 3 12 4 13 5 14 6 15 7 16 8 17 9 18 10 8 11 7 12
REMARK SMILES IDX 6 13 5 14 4 15 3 16 2 17 1 18
REMARK H PARENT
REMARK Flexibility Score: inf
ROOT
ATOM      1  C   UNL     1     186.969 182.649 197.225  1.00  0.00     0.000 C 
ENDROOT
BRANCH   1   2
ATOM      2  C   UNL     1     188.386 183.251 197.219  1.00  0.00     0.000 C 
BRANCH   2   3
ATOM      3  C   UNL     1     188.573 184.471 196.296  1.00  0.00     0.000 C 
BRANCH   3   4
ATOM      4  C   UNL     1     188.919 185.792 197.012  1.00  0.00     0.000 C 
BRANCH   4   5
ATOM      5  C   UNL     1     188.102 187.013 196.555  1.00  0.00     0.000 C 
BRANCH   5   6
ATOM      6  C   UNL     1     187.145 186.690 195.395  1.00  0.00     0.006 C 
BRANCH   6   7
ATOM      7  C   UNL     1     185.967 187.671 195.326  1.00  0.00     0.053 C 
BRANCH   7   8
ATOM      8  C   UNL     1     184.721 187.011 194.818  1.00  0.00     0.041 C 
ATOM      9  O   UNL     1     183.609 187.262 195.353  1.00  0.00    -0.550 OA
ATOM     10  O   UNL     1     184.785 186.141 193.737  1.00  0.00    -0.550 OA
ENDBRANCH   7   8
ENDBRANCH   6   7
ENDBRANCH   5   6
ENDBRANCH   4   5
ENDBRANCH   3   4
ENDBRANCH   2   3
ENDBRANCH   1   2
BRANCH   1  11
ATOM     11  C   UNL     1     186.075 183.219 196.111  1.00  0.00     0.000 C 
BRANCH  11  12
ATOM     12  C   UNL     1     184.799 183.881 196.659  1.00  0.00    -0.000 C 
BRANCH  12  13
ATOM     13  C   UNL     1     184.913 184.238 198.152  1.00  0.00    -0.000 C 
BRANCH  13  14
ATOM     14  C   UNL     1     185.053 185.752 198.387  1.00  0.00    -0.000 C 
BRANCH  14  15
ATOM     15  C   UNL     1     186.073 186.087 199.490  1.00  0.00    -0.000 C 
BRANCH  15  16
ATOM     16  C   UNL     1     186.618 184.831 200.190  1.00  0.00    -0.000 C 
BRANCH  16  17
ATOM     17  C   UNL     1     188.108 184.947 200.542  1.00  0.00    -0.003 C 
ATOM     18  C   UNL     1     188.528 186.409 200.673  1.00  0.00     0.004 C 
ENDBRANCH  16  17
ENDBRANCH  15  16
ENDBRANCH  14  15
ENDBRANCH  13  14
ENDBRANCH  12  13
ENDBRANCH  11  12
ENDBRANCH   1  11
TORSDOF 14
ENDMDL
MODEL 2
REMARK VINA RESULT:     0.001      2.973      5.513
REMARK INTER + INTRA:          -3.083
REMARK INTER:                   0.000
REMARK INTRA:                  -3.083
REMARK UNBOUND:                -3.086
REMARK SMILES CCCCCCCCCCCCCCCC(=O)[O-]
REMARK SMILES IDX 9 1 10 2 11 3 12 4 13 5 14 6 15 7 16 8 17 9 18 10 8 11 7 12
REMARK SMILES IDX 6 13 5 14 4 15 3 16 2 17 1 18
REMARK H PARENT
REMARK Flexibility Score: inf
ROOT
ATOM      1  C   UNL     1     184.618 189.349 194.031  1.00  0.00     0.000 C 
ENDROOT
BRANCH   1   2
ATOM      2  C   UNL     1     186.045 188.885 193.685  1.00  0.00     0.000 C 
BRANCH   2   3
ATOM      3  C   UNL     1     187.046 188.919 194.857  1.00  0.00     0.000 C 
BRANCH   3   4
ATOM      4  C   UNL     1     187.496 187.541 195.379  1.00  0.00     0.000 C 
BRANCH   4   5
ATOM      5  C   UNL     1     187.414 187.364 196.905  1.00  0.00     0.000 C 
BRANCH   5   6
ATOM      6  C   UNL     1     187.272 188.700 197.653  1.00  0.00     0.006 C 
BRANCH   6   7
ATOM      7  C   UNL     1     186.213 188.634 198.762  1.00  0.00     0.053 C 
BRANCH   7   8
ATOM      8  C   UNL     1     186.470 187.505 199.713  1.00  0.00     0.041 C 
ATOM      9  O   UNL     1     187.486 187.523 200.456  1.00  0.00    -0.550 OA
ATOM     10  O   UNL     1     185.573 186.448 199.798  1.00  0.00    -0.550 OA
ENDBRANCH   7   8
ENDBRANCH   6   7
ENDBRANCH   5   6
ENDBRANCH   4   5
ENDBRANCH   3   4
ENDBRANCH   2   3
ENDBRANCH   1   2
BRANCH   1  11
ATOM     11  C   UNL     1     184.523 189.991 195.425  1.00  0.00     0.000 C 
BRANCH  11  12
ATOM     12  C   UNL     1     183.500 189.286 196.331  1.00  0.00    -0.000 C 
BRANCH  12  13
ATOM     13  C   UNL     1     183.149 187.871 195.836  1.00  0.00    -0.000 C 
BRANCH  13  14
ATOM     14  C   UNL     1     183.769 186.769 196.712  1.00  0.00    -0.000 C 
BRANCH  14  15
ATOM     15  C   UNL     1     184.305 185.588 195.884  1.00  0.00    -0.000 C 
BRANCH  15  16
ATOM     16  C   UNL     1     183.962 185.712 194.390  1.00  0.00    -0.000 C 
BRANCH  16  17
ATOM     17  C   UNL     1     185.134 185.317 193.478  1.00  0.00    -0.003 C 
ATOM     18  C   UNL     1     186.065 184.331 194.179  1.00  0.00     0.004 C 
ENDBRANCH  16  17
ENDBRANCH  15  16
ENDBRANCH  14  15
ENDBRANCH  13  14
ENDBRANCH  12  13
ENDBRANCH  11  12
ENDBRANCH   1  11
TORSDOF 14
ENDMDL
MODEL 3
REMARK VINA RESULT:     0.007      6.828      8.999
REMARK INTER + INTRA:          -3.074
REMARK INTER:                   0.000
REMARK INTRA:                  -3.074
REMARK UNBOUND:                -3.086
REMARK SMILES CCCCCCCCCCCCCCCC(=O)[O-]
REMARK SMILES IDX 9 1 10 2 11 3 12 4 13 5 14 6 15 7 16 8 17 9 18 10 8 11 7 12
REMARK SMILES IDX 6 13 5 14 4 15 3 16 2 17 1 18
REMARK H PARENT
REMARK Flexibility Score: inf
ROOT
ATOM      1  C   UNL     1     182.948 185.262 192.861  1.00  0.00     0.000 C 
ENDROOT
BRANCH   1   2
ATOM      2  C   UNL     1     182.576 183.932 192.181  1.00  0.00     0.000 C 
BRANCH   2   3
ATOM      3  C   UNL     1     182.093 184.057 190.722  1.00  0.00     0.000 C 
BRANCH   3   4
ATOM      4  C   UNL     1     180.579 183.856 190.511  1.00  0.00     0.000 C 
BRANCH   4   5
ATOM      5  C   UNL     1     179.896 184.925 189.640  1.00  0.00     0.000 C 
BRANCH   5   6
ATOM      6  C   UNL     1     180.902 185.800 188.872  1.00  0.00     0.006 C 
BRANCH   6   7
ATOM      7  C   UNL     1     180.524 187.287 188.910  1.00  0.00     0.053 C 
BRANCH   7   8
ATOM      8  C   UNL     1     179.122 187.519 188.433  1.00  0.00     0.041 C 
ATOM      9  O   UNL     1     178.815 187.284 187.235  1.00  0.00    -0.550 OA
ATOM     10  O   UNL     1     178.150 187.968 189.319  1.00  0.00    -0.550 OA
ENDBRANCH   7   8
ENDBRANCH   6   7
ENDBRANCH   5   6
ENDBRANCH   4   5
ENDBRANCH   3   4
ENDBRANCH   2   3
ENDBRANCH   1   2
BRANCH   1  11
ATOM     11  C   UNL     1     183.115 186.417 191.860  1.00  0.00     0.000 C 
BRANCH  11  12
ATOM     12  C   UNL     1     182.187 187.604 192.168  1.00  0.00    -0.000 C 
BRANCH  12  13
ATOM     13  C   UNL     1     181.080 187.242 193.175  1.00  0.00    -0.000 C 
BRANCH  13  14
ATOM     14  C   UNL     1     179.683 187.217 192.531  1.00  0.00    -0.000 C 
BRANCH  14  15
ATOM     15  C   UNL     1     178.828 186.036 193.021  1.00  0.00    -0.000 C 
BRANCH  15  16
ATOM     16  C   UNL     1     179.482 185.279 194.188  1.00  0.00    -0.000 C 
BRANCH  16  17
ATOM     17  C   UNL     1     179.354 183.754 194.052  1.00  0.00    -0.003 C 
ATOM     18  C   UNL     1     178.118 183.378 193.239  1.00  0.00     0.004 C 
ENDBRANCH  16  17
ENDBRANCH  15  16
ENDBRANCH  14  15
ENDBRANCH  13  14
ENDBRANCH  12  13
ENDBRANCH  11  12
ENDBRANCH   1  11
TORSDOF 14
ENDMDL
MODEL 4
REMARK VINA RESULT:     0.011      5.832      8.136
REMARK INTER + INTRA:          -3.065
REMARK INTER:                   0.000
REMARK INTRA:                  -3.065
REMARK UNBOUND:                -3.086
REMARK SMILES CCCCCCCCCCCCCCCC(=O)[O-]
REMARK SMILES IDX 9 1 10 2 11 3 12 4 13 5 14 6 15 7 16 8 17 9 18 10 8 11 7 12
REMARK SMILES IDX 6 13 5 14 4 15 3 16 2 17 1 18
REMARK H PARENT
REMARK Flexibility Score: inf
ROOT
ATOM      1  C   UNL     1     179.981 187.620 192.116  1.00  0.00     0.000 C 
ENDROOT
BRANCH   1   2
ATOM      2  C   UNL     1     181.125 188.605 191.816  1.00  0.00     0.000 C 
BRANCH   2   3
ATOM      3  C   UNL     1     180.869 190.059 192.260  1.00  0.00     0.000 C 
BRANCH   3   4
ATOM      4  C   UNL     1     179.762 190.239 193.317  1.00  0.00     0.000 C 
BRANCH   4   5
ATOM      5  C   UNL     1     180.258 190.636 194.718  1.00  0.00     0.000 C 
BRANCH   5   6
ATOM      6  C   UNL     1     179.530 189.882 195.844  1.00  0.00     0.006 C 
BRANCH   6   7
ATOM      7  C   UNL     1     178.494 188.889 195.300  1.00  0.00     0.053 C 
BRANCH   7   8
ATOM      8  C   UNL     1     178.259 187.752 196.247  1.00  0.00     0.041 C 
ATOM      9  O   UNL     1     178.127 186.580 195.809  1.00  0.00    -0.550 OA
ATOM     10  O   UNL     1     178.216 187.984 197.616  1.00  0.00    -0.550 OA
ENDBRANCH   7   8
ENDBRANCH   6   7
ENDBRANCH   5   6
ENDBRANCH   4   5
ENDBRANCH   3   4
ENDBRANCH   2   3
ENDBRANCH   1   2
BRANCH   1  11
ATOM     11  C   UNL     1     180.398 186.502 193.087  1.00  0.00     0.000 C 
BRANCH  11  12
ATOM     12  C   UNL     1     181.799 186.728 193.680  1.00  0.00    -0.000 C 
BRANCH  12  13
ATOM     13  C   UNL     1     181.766 186.951 195.203  1.00  0.00    -0.000 C 
BRANCH  13  14
ATOM     14  C   UNL     1     182.753 188.039 195.661  1.00  0.00    -0.000 C 
BRANCH  14  15
ATOM     15  C   UNL     1     183.738 188.447 194.552  1.00  0.00    -0.000 C 
BRANCH  15  16
ATOM     16  C   UNL     1     183.905 189.972 194.444  1.00  0.00    -0.000 C 
BRANCH  16  17
ATOM     17  C   UNL     1     184.483 190.412 193.091  1.00  0.00    -0.003 C 
ATOM     18  C   UNL     1     184.760 189.207 192.196  1.00  0.00     0.004 C 
ENDBRANCH  16  17
ENDBRANCH  15  16
ENDBRANCH  14  15
ENDBRANCH  13  14
ENDBRANCH  12  13
ENDBRANCH  11  12
ENDBRANCH   1  11
TORSDOF 14
ENDMDL
MODEL 5
REMARK VINA RESULT:     0.013     11.359     13.500
REMARK INTER + INTRA:          -3.063
REMARK INTER:                   0.000
REMARK INTRA:                  -3.063
REMARK UNBOUND:                -3.086
REMARK SMILES CCCCCCCCCCCCCCCC(=O)[O-]
REMARK SMILES IDX 9 1 10 2 11 3 12 4 13 5 14 6 15 7 16 8 17 9 18 10 8 11 7 12
REMARK SMILES IDX 6 13 5 14 4 15 3 16 2 17 1 18
REMARK H PARENT
REMARK Flexibility Score: inf
ROOT
ATOM      1  C   UNL     1     183.909 192.473 187.545  1.00  0.00     0.000 C 
ENDROOT
BRANCH   1   2
ATOM      2  C   UNL     1     183.755 191.710 188.874  1.00  0.00     0.000 C 
BRANCH   2   3
ATOM      3  C   UNL     1     182.988 192.466 189.976  1.00  0.00     0.000 C 
BRANCH   3   4
ATOM      4  C   UNL     1     181.526 192.022 190.183  1.00  0.00     0.000 C 
BRANCH   4   5
ATOM      5  C   UNL     1     180.502 193.168 190.260  1.00  0.00     0.000 C 
BRANCH   5   6
ATOM      6  C   UNL     1     181.162 194.546 190.435  1.00  0.00     0.006 C 
BRANCH   6   7
ATOM      7  C   UNL     1     180.488 195.625 189.577  1.00  0.00     0.053 C 
BRANCH   7   8
ATOM      8  C   UNL     1     179.008 195.673 189.803  1.00  0.00     0.041 C 
ATOM      9  O   UNL     1     178.215 195.410 188.862  1.00  0.00    -0.550 OA
ATOM     10  O   UNL     1     178.505 195.982 191.061  1.00  0.00    -0.550 OA
ENDBRANCH   7   8
ENDBRANCH   6   7
ENDBRANCH   5   6
ENDBRANCH   4   5
ENDBRANCH   3   4
ENDBRANCH   2   3
ENDBRANCH   1   2
BRANCH   1  11
ATOM     11  C   UNL     1     183.717 193.991 187.705  1.00  0.00     0.000 C 
BRANCH  11  12
ATOM     12  C   UNL     1     182.621 194.547 186.780  1.00  0.00    -0.000 C 
BRANCH  12  13
ATOM     13  C   UNL     1     181.754 193.438 186.157  1.00  0.00    -0.000 C 
BRANCH  13  14
ATOM     14  C   UNL     1     180.266 193.578 186.522  1.00  0.00    -0.000 C 
BRANCH  14  15
ATOM     15  C   UNL     1     179.607 192.225 186.844  1.00  0.00    -0.000 C 
BRANCH  15  16
ATOM     16  C   UNL     1     180.577 191.042 186.677  1.00  0.00    -0.000 C 
BRANCH  16  17
ATOM     17  C   UNL     1     180.176 189.823 187.521  1.00  0.00    -0.003 C 
ATOM     18  C   UNL     1     181.401 189.001 187.913  1.00  0.00     0.004 C 
ENDBRANCH  16  17
ENDBRANCH  15  16
ENDBRANCH  14  15
ENDBRANCH  13  14
ENDBRANCH  12  13
ENDBRANCH  11  12
ENDBRANCH   1  11
TORSDOF 14
ENDMDL
MODEL 6
REMARK VINA RESULT:     0.013      2.600      5.003
REMARK INTER + INTRA:          -3.062
REMARK INTER:                   0.000
REMARK INTRA:                  -3.062
REMARK UNBOUND:                -3.086
REMARK SMILES CCCCCCCCCCCCCCCC(=O)[O-]
REMARK SMILES IDX 9 1 10 2 11 3 12 4 13 5 14 6 15 7 16 8 17 9 18 10 8 11 7 12
REMARK SMILES IDX 6 13 5 14 4 15 3 16 2 17 1 18
REMARK H PARENT
REMARK Flexibility Score: inf
ROOT
ATOM      1  C   UNL     1     184.212 182.937 193.069  1.00  0.00     0.000 C 
ENDROOT
BRANCH   1   2
ATOM      2  C   UNL     1     183.311 183.421 194.219  1.00  0.00     0.000 C 
BRANCH   2   3
ATOM      3  C   UNL     1     183.595 182.774 195.589  1.00  0.00     0.000 C 
BRANCH   3   4
ATOM      4  C   UNL     1     183.750 183.760 196.763  1.00  0.00     0.000 C 
BRANCH   4   5
ATOM      5  C   UNL     1     182.915 185.047 196.647  1.00  0.00     0.000 C 
BRANCH   5   6
ATOM      6  C   UNL     1     183.759 186.323 196.806  1.00  0.00     0.006 C 
BRANCH   6   7
ATOM      7  C   UNL     1     184.973 186.104 197.720  1.00  0.00     0.053 C 
BRANCH   7   8
ATOM      8  C   UNL     1     185.875 187.299 197.745  1.00  0.00     0.041 C 
ATOM      9  O   UNL     1     187.095 187.177 197.459  1.00  0.00    -0.550 OA
ATOM     10  O   UNL     1     185.363 188.552 198.056  1.00  0.00    -0.550 OA
ENDBRANCH   7   8
ENDBRANCH   6   7
ENDBRANCH   5   6
ENDBRANCH   4   5
ENDBRANCH   3   4
ENDBRANCH   2   3
ENDBRANCH   1   2
BRANCH   1  11
ATOM     11  C   UNL     1     185.284 183.968 192.678  1.00  0.00     0.000 C 
BRANCH  11  12
ATOM     12  C   UNL     1     185.134 185.294 193.443  1.00  0.00    -0.000 C 
BRANCH  12  13
ATOM     13  C   UNL     1     186.386 185.645 194.267  1.00  0.00    -0.000 C 
BRANCH  13  14
ATOM     14  C   UNL     1     187.316 184.437 194.470  1.00  0.00    -0.000 C 
BRANCH  14  15
ATOM     15  C   UNL     1     187.395 183.993 195.941  1.00  0.00    -0.000 C 
BRANCH  15  16
ATOM     16  C   UNL     1     187.234 182.472 196.108  1.00  0.00    -0.000 C 
BRANCH  16  17
ATOM     17  C   UNL     1     187.354 181.714 194.777  1.00  0.00    -0.003 C 
ATOM     18  C   UNL     1     186.448 180.486 194.762  1.00  0.00     0.004 C 
ENDBRANCH  16  17
ENDBRANCH  15  16
ENDBRANCH  14  15
ENDBRANCH  13  14
ENDBRANCH  12  13
ENDBRANCH  11  12
ENDBRANCH   1  11
TORSDOF 14
ENDMDL
MODEL 7
REMARK VINA RESULT:     0.014      9.365     11.621
REMARK INTER + INTRA:          -3.060
REMARK INTER:                   0.000
REMARK INTRA:                  -3.060
REMARK UNBOUND:                -3.086
REMARK SMILES CCCCCCCCCCCCCCCC(=O)[O-]
REMARK SMILES IDX 9 1 10 2 11 3 12 4 13 5 14 6 15 7 16 8 17 9 18 10 8 11 7 12
REMARK SMILES IDX 6 13 5 14 4 15 3 16 2 17 1 18
REMARK H PARENT
REMARK Flexibility Score: inf
ROOT
ATOM      1  C   UNL     1     178.440 187.531 194.948  1.00  0.00     0.000 C 
ENDROOT
BRANCH   1   2
ATOM      2  C   UNL     1     178.745 187.988 193.510  1.00  0.00     0.000 C 
BRANCH   2   3
ATOM      3  C   UNL     1     178.071 187.154 192.403  1.00  0.00     0.000 C 
BRANCH   3   4
ATOM      4  C   UNL     1     176.820 187.792 191.768  1.00  0.00     0.000 C 
BRANCH   4   5
ATOM      5  C   UNL     1     175.660 186.818 191.494  1.00  0.00     0.000 C 
BRANCH   5   6
ATOM      6  C   UNL     1     175.921 185.408 192.050  1.00  0.00     0.006 C 
BRANCH   6   7
ATOM      7  C   UNL     1     174.620 184.661 192.370  1.00  0.00     0.053 C 
BRANCH   7   8
ATOM      8  C   UNL     1     174.797 183.687 193.494  1.00  0.00     0.041 C 
ATOM      9  O   UNL     1     175.820 182.955 193.542  1.00  0.00    -0.550 OA
ATOM     10  O   UNL     1     173.846 183.607 194.503  1.00  0.00    -0.550 OA
ENDBRANCH   7   8
ENDBRANCH   6   7
ENDBRANCH   5   6
ENDBRANCH   4   5
ENDBRANCH   3   4
ENDBRANCH   2   3
ENDBRANCH   1   2
BRANCH   1  11
ATOM     11  C   UNL     1     178.065 186.042 195.033  1.00  0.00     0.000 C 
BRANCH  11  12
ATOM     12  C   UNL     1     176.713 185.813 195.731  1.00  0.00    -0.000 C 
BRANCH  12  13
ATOM     13  C   UNL     1     175.934 187.122 195.953  1.00  0.00    -0.000 C 
BRANCH  13  14
ATOM     14  C   UNL     1     174.657 187.199 195.099  1.00  0.00    -0.000 C 
BRANCH  14  15
ATOM     15  C   UNL     1     174.424 188.601 194.509  1.00  0.00    -0.000 C 
BRANCH  15  16
ATOM     16  C   UNL     1     175.316 189.670 195.162  1.00  0.00    -0.000 C 
BRANCH  16  17
ATOM     17  C   UNL     1     176.050 190.540 194.130  1.00  0.00    -0.003 C 
ATOM     18  C   UNL     1     177.299 191.173 194.736  1.00  0.00     0.004 C 
ENDBRANCH  16  17
ENDBRANCH  15  16
ENDBRANCH  14  15
ENDBRANCH  13  14
ENDBRANCH  12  13
ENDBRANCH  11  12
ENDBRANCH   1  11
TORSDOF 14
ENDMDL
MODEL 8
REMARK VINA RESULT:     0.014      5.458      7.437
REMARK INTER + INTRA:          -3.060
REMARK INTER:                   0.000
REMARK INTRA:                  -3.060
REMARK UNBOUND:                -3.086
REMARK SMILES CCCCCCCCCCCCCCCC(=O)[O-]
REMARK SMILES IDX 9 1 10 2 11 3 12 4 13 5 14 6 15 7 16 8 17 9 18 10 8 11 7 12
REMARK SMILES IDX 6 13 5 14 4 15 3 16 2 17 1 18
REMARK H PARENT
REMARK Flexibility Score: inf
ROOT
ATOM      1  C   UNL     1     178.240 186.311 197.662  1.00  0.00     0.000 C 
ENDROOT
BRANCH   1   2
ATOM      2  C   UNL     1     179.212 186.572 198.827  1.00  0.00     0.000 C 
BRANCH   2   3
ATOM      3  C   UNL     1     179.188 188.008 199.388  1.00  0.00     0.000 C 
BRANCH   3   4
ATOM      4  C   UNL     1     178.733 189.095 198.395  1.00  0.00     0.000 C 
BRANCH   4   5
ATOM      5  C   UNL     1     179.866 189.953 197.804  1.00  0.00     0.000 C 
BRANCH   5   6
ATOM      6  C   UNL     1     179.688 190.223 196.301  1.00  0.00     0.006 C 
BRANCH   6   7
ATOM      7  C   UNL     1     178.440 189.533 195.733  1.00  0.00     0.053 C 
BRANCH   7   8
ATOM      8  C   UNL     1     178.512 189.388 194.243  1.00  0.00     0.041 C 
ATOM      9  O   UNL     1     178.785 190.384 193.523  1.00  0.00    -0.550 OA
ATOM     10  O   UNL     1     178.306 188.147 193.653  1.00  0.00    -0.550 OA
ENDBRANCH   7   8
ENDBRANCH   6   7
ENDBRANCH   5   6
ENDBRANCH   4   5
ENDBRANCH   3   4
ENDBRANCH   2   3
ENDBRANCH   1   2
BRANCH   1  11
ATOM     11  C   UNL     1     178.960 185.904 196.366  1.00  0.00     0.000 C 
BRANCH  11  12
ATOM     12  C   UNL     1     180.491 185.969 196.496  1.00  0.00    -0.000 C 
BRANCH  12  13
ATOM     13  C   UNL     1     181.133 186.902 195.453  1.00  0.00    -0.000 C 
BRANCH  13  14
ATOM     14  C   UNL     1     182.333 187.680 196.019  1.00  0.00    -0.000 C 
BRANCH  14  15
ATOM     15  C   UNL     1     182.632 187.322 197.486  1.00  0.00    -0.000 C 
BRANCH  15  16
ATOM     16  C   UNL     1     183.186 188.515 198.283  1.00  0.00    -0.000 C 
BRANCH  16  17
ATOM     17  C   UNL     1     182.875 188.421 199.784  1.00  0.00    -0.003 C 
ATOM     18  C   UNL     1     182.692 186.969 200.216  1.00  0.00     0.004 C 
ENDBRANCH  16  17
ENDBRANCH  15  16
ENDBRANCH  14  15
ENDBRANCH  13  14
ENDBRANCH  12  13
ENDBRANCH  11  12
ENDBRANCH   1  11
TORSDOF 14
ENDMDL
MODEL 9
REMARK VINA RESULT:     0.016      5.758      8.251
REMARK INTER + INTRA:          -3.057
REMARK INTER:                   0.000
REMARK INTRA:                  -3.057
REMARK UNBOUND:                -3.086
REMARK SMILES CCCCCCCCCCCCCCCC(=O)[O-]
REMARK SMILES IDX 9 1 10 2 11 3 12 4 13 5 14 6 15 7 16 8 17 9 18 10 8 11 7 12
REMARK SMILES IDX 6 13 5 14 4 15 3 16 2 17 1 18
REMARK H PARENT
REMARK Flexibility Score: inf
ROOT
ATOM      1  C   UNL     1     184.927 187.225 192.524  1.00  0.00     0.000 C 
ENDROOT
BRANCH   1   2
ATOM      2  C   UNL     1     183.842 186.983 193.589  1.00  0.00     0.000 C 
BRANCH   2   3
ATOM      3  C   UNL     1     182.440 187.513 193.227  1.00  0.00     0.000 C 
BRANCH   3   4
ATOM      4  C   UNL     1     181.281 186.526 193.468  1.00  0.00     0.000 C 
BRANCH   4   5
ATOM      5  C   UNL     1     181.678 185.215 194.169  1.00  0.00     0.000 C 
BRANCH   5   6
ATOM      6  C   UNL     1     180.770 184.034 193.783  1.00  0.00     0.006 C 
BRANCH   6   7
ATOM      7  C   UNL     1     179.383 184.498 193.317  1.00  0.00     0.053 C 
BRANCH   7   8
ATOM      8  C   UNL     1     178.979 183.843 192.033  1.00  0.00     0.041 C 
ATOM      9  O   UNL     1     179.014 182.589 191.923  1.00  0.00    -0.550 OA
ATOM     10  O   UNL     1     178.536 184.615 190.966  1.00  0.00    -0.550 OA
ENDBRANCH   7   8
ENDBRANCH   6   7
ENDBRANCH   5   6
ENDBRANCH   4   5
ENDBRANCH   3   4
ENDBRANCH   2   3
ENDBRANCH   1   2
BRANCH   1  11
ATOM     11  C   UNL     1     185.483 185.918 191.934  1.00  0.00     0.000 C 
BRANCH  11  12
ATOM     12  C   UNL     1     185.033 184.676 192.721  1.00  0.00    -0.000 C 
BRANCH  12  13
ATOM     13  C   UNL     1     184.210 183.698 191.862  1.00  0.00    -0.000 C 
BRANCH  13  14
ATOM     14  C   UNL     1     183.760 184.320 190.529  1.00  0.00    -0.000 C 
BRANCH  14  15
ATOM     15  C   UNL     1     182.231 184.458 190.428  1.00  0.00    -0.000 C 
BRANCH  15  16
ATOM     16  C   UNL     1     181.796 185.844 189.923  1.00  0.00    -0.000 C 
BRANCH  16  17
ATOM     17  C   UNL     1     182.962 186.655 189.340  1.00  0.00    -0.003 C 
ATOM     18  C   UNL     1     182.768 188.149 189.586  1.00  0.00     0.004 C 
ENDBRANCH  16  17
ENDBRANCH  15  16
ENDBRANCH  14  15
ENDBRANCH  13  14
ENDBRANCH  12  13
ENDBRANCH  11  12
ENDBRANCH   1  11
TORSDOF 14
ENDMDL
