MODEL 1
REMARK VINA RESULT:    -3.737      0.000      0.000
REMARK INTER + INTRA:          -7.349
REMARK INTER:                  -6.578
REMARK INTRA:                  -0.772
REMARK UNBOUND:                -0.772
REMARK SMILES CCCCCCCCCCCCCCC(=O)[O-]
REMARK SMILES IDX 9 1 10 2 11 3 12 4 13 5 14 6 15 7 16 8 17 9 8 10 7 11 6 12
REMARK SMILES IDX 5 13 4 14 3 15 2 16 1 17
REMARK H PARENT
REMARK Flexibility Score: inf
ROOT
ATOM      1  C   UNL     1     -31.363 -21.453 -33.913  1.00  0.00     0.000 C 
ENDROOT
BRANCH   1   2
ATOM      2  C   UNL     1     -30.200 -20.445 -33.913  1.00  0.00     0.000 C 
BRANCH   2   3
ATOM      3  C   UNL     1     -29.336 -20.526 -32.643  1.00  0.00     0.000 C 
BRANCH   3   4
ATOM      4  C   UNL     1     -29.070 -19.148 -32.019  1.00  0.00     0.000 C 
BRANCH   4   5
ATOM      5  C   UNL     1     -29.678 -19.010 -30.612  1.00  0.00     0.006 C 
BRANCH   5   6
ATOM      6  C   UNL     1     -31.206 -18.875 -30.654  1.00  0.00     0.053 C 
BRANCH   6   7
ATOM      7  C   UNL     1     -31.855 -19.549 -29.483  1.00  0.00     0.041 C 
ATOM      8  O   UNL     1     -31.494 -20.703 -29.134  1.00  0.00    -0.550 OA
ATOM      9  O   UNL     1     -32.881 -18.911 -28.795  1.00  0.00    -0.550 OA
ENDBRANCH   6   7
ENDBRANCH   5   6
ENDBRANCH   4   5
ENDBRANCH   3   4
ENDBRANCH   2   3
ENDBRANCH   1   2
BRANCH   1  10
ATOM     10  C   UNL     1     -31.573 -22.212 -35.237  1.00  0.00     0.000 C 
BRANCH  10  11
ATOM     11  C   UNL     1     -32.998 -22.772 -35.387  1.00  0.00    -0.000 C 
BRANCH  11  12
ATOM     12  C   UNL     1     -33.651 -22.399 -36.731  1.00  0.00    -0.000 C 
BRANCH  12  13
ATOM     13  C   UNL     1     -32.898 -21.337 -37.554  1.00  0.00    -0.000 C 
BRANCH  13  14
ATOM     14  C   UNL     1     -31.915 -21.945 -38.565  1.00  0.00    -0.000 C 
BRANCH  14  15
ATOM     15  C   UNL     1     -32.380 -23.339 -39.012  1.00  0.00    -0.000 C 
BRANCH  15  16
ATOM     16  C   UNL     1     -31.538 -24.468 -38.397  1.00  0.00    -0.003 C 
ATOM     17  C   UNL     1     -32.289 -25.798 -38.333  1.00  0.00     0.004 C 
ENDBRANCH  15  16
ENDBRANCH  14  15
ENDBRANCH  13  14
ENDBRANCH  12  13
ENDBRANCH  11  12
ENDBRANCH  10  11
ENDBRANCH   1  10
TORSDOF 13
ENDMDL
MODEL 2
REMARK VINA RESULT:    -3.731      0.975      1.417
REMARK INTER + INTRA:          -7.338
REMARK INTER:                  -6.632
REMARK INTRA:                  -0.705
REMARK UNBOUND:                -0.772
REMARK SMILES CCCCCCCCCCCCCCC(=O)[O-]
REMARK SMILES IDX 9 1 10 2 11 3 12 4 13 5 14 6 15 7 16 8 17 9 8 10 7 11 6 12
REMARK SMILES IDX 5 13 4 14 3 15 2 16 1 17
REMARK H PARENT
REMARK Flexibility Score: inf
ROOT
ATOM      1  C   UNL     1     -29.928 -20.942 -33.433  1.00  0.00     0.000 C 
ENDROOT
BRANCH   1   2
ATOM      2  C   UNL     1     -29.616 -19.468 -33.751  1.00  0.00     0.000 C 
BRANCH   2   3
ATOM      3  C   UNL     1     -28.530 -18.875 -32.836  1.00  0.00     0.000 C 
BRANCH   3   4
ATOM      4  C   UNL     1     -28.498 -19.535 -31.450  1.00  0.00     0.000 C 
BRANCH   4   5
ATOM      5  C   UNL     1     -29.473 -18.875 -30.459  1.00  0.00     0.006 C 
BRANCH   5   6
ATOM      6  C   UNL     1     -30.596 -19.829 -30.030  1.00  0.00     0.053 C 
BRANCH   6   7
ATOM      7  C   UNL     1     -31.947 -19.194 -30.166  1.00  0.00     0.041 C 
ATOM      8  O   UNL     1     -32.404 -18.913 -31.304  1.00  0.00    -0.550 OA
ATOM      9  O   UNL     1     -32.688 -18.888 -29.031  1.00  0.00    -0.550 OA
ENDBRANCH   6   7
ENDBRANCH   5   6
ENDBRANCH   4   5
ENDBRANCH   3   4
ENDBRANCH   2   3
ENDBRANCH   1   2
BRANCH   1  10
ATOM     10  C   UNL     1     -31.346 -21.408 -33.812  1.00  0.00     0.000 C 
BRANCH  10  11
ATOM     11  C   UNL     1     -31.554 -21.520 -35.332  1.00  0.00    -0.000 C 
BRANCH  11  12
ATOM     12  C   UNL     1     -32.805 -22.335 -35.709  1.00  0.00    -0.000 C 
BRANCH  12  13
ATOM     13  C   UNL     1     -33.757 -21.652 -36.708  1.00  0.00    -0.000 C 
BRANCH  13  14
ATOM     14  C   UNL     1     -33.262 -21.730 -38.160  1.00  0.00    -0.000 C 
BRANCH  14  15
ATOM     15  C   UNL     1     -32.000 -22.601 -38.263  1.00  0.00    -0.000 C 
BRANCH  15  16
ATOM     16  C   UNL     1     -32.230 -23.880 -39.083  1.00  0.00    -0.003 C 
ATOM     17  C   UNL     1     -31.873 -25.149 -38.310  1.00  0.00     0.004 C 
ENDBRANCH  15  16
ENDBRANCH  14  15
ENDBRANCH  13  14
ENDBRANCH  12  13
ENDBRANCH  11  12
ENDBRANCH  10  11
ENDBRANCH   1  10
TORSDOF 13
ENDMDL
MODEL 3
REMARK VINA RESULT:    -3.729      0.988      1.614
REMARK INTER + INTRA:          -7.335
REMARK INTER:                  -6.672
REMARK INTRA:                  -0.663
REMARK UNBOUND:                -0.772
REMARK SMILES CCCCCCCCCCCCCCC(=O)[O-]
REMARK SMILES IDX 9 1 10 2 11 3 12 4 13 5 14 6 15 7 16 8 17 9 8 10 7 11 6 12
REMARK SMILES IDX 5 13 4 14 3 15 2 16 1 17
REMARK H PARENT
REMARK Flexibility Score: inf
ROOT
ATOM      1  C   UNL     1     -31.538 -21.845 -34.244  1.00  0.00     0.000 C 
ENDROOT
BRANCH   1   2
ATOM      2  C   UNL     1     -30.424 -20.783 -34.253  1.00  0.00     0.000 C 
BRANCH   2   3
ATOM      3  C   UNL     1     -29.585 -20.782 -32.963  1.00  0.00     0.000 C 
BRANCH   3   4
ATOM      4  C   UNL     1     -29.008 -19.397 -32.634  1.00  0.00     0.000 C 
BRANCH   4   5
ATOM      5  C   UNL     1     -29.463 -18.880 -31.258  1.00  0.00     0.006 C 
BRANCH   5   6
ATOM      6  C   UNL     1     -30.989 -18.910 -31.106  1.00  0.00     0.053 C 
BRANCH   6   7
ATOM      7  C   UNL     1     -31.411 -19.664 -29.882  1.00  0.00     0.041 C 
ATOM      8  O   UNL     1     -30.862 -20.758 -29.589  1.00  0.00    -0.550 OA
ATOM      9  O   UNL     1     -32.433 -19.171 -29.079  1.00  0.00    -0.550 OA
ENDBRANCH   6   7
ENDBRANCH   5   6
ENDBRANCH   4   5
ENDBRANCH   3   4
ENDBRANCH   2   3
ENDBRANCH   1   2
BRANCH   1  10
ATOM     10  C   UNL     1     -32.465 -21.834 -35.474  1.00  0.00     0.000 C 
BRANCH  10  11
ATOM     11  C   UNL     1     -31.780 -22.366 -36.745  1.00  0.00    -0.000 C 
BRANCH  11  12
ATOM     12  C   UNL     1     -32.701 -22.340 -37.978  1.00  0.00    -0.000 C 
BRANCH  12  13
ATOM     13  C   UNL     1     -32.322 -23.322 -39.102  1.00  0.00    -0.000 C 
BRANCH  13  14
ATOM     14  C   UNL     1     -31.654 -24.604 -38.582  1.00  0.00    -0.000 C 
BRANCH  14  15
ATOM     15  C   UNL     1     -32.366 -25.852 -39.125  1.00  0.00    -0.000 C 
BRANCH  15  16
ATOM     16  C   UNL     1     -33.262 -26.526 -38.074  1.00  0.00    -0.003 C 
ATOM     17  C   UNL     1     -33.723 -27.921 -38.497  1.00  0.00     0.004 C 
ENDBRANCH  15  16
ENDBRANCH  14  15
ENDBRANCH  13  14
ENDBRANCH  12  13
ENDBRANCH  11  12
ENDBRANCH  10  11
ENDBRANCH   1  10
TORSDOF 13
ENDMDL
MODEL 4
REMARK VINA RESULT:    -3.592      3.640      7.709
REMARK INTER + INTRA:          -7.094
REMARK INTER:                  -6.033
REMARK INTRA:                  -1.061
REMARK UNBOUND:                -0.772
REMARK SMILES CCCCCCCCCCCCCCC(=O)[O-]
REMARK SMILES IDX 9 1 10 2 11 3 12 4 13 5 14 6 15 7 16 8 17 9 8 10 7 11 6 12
REMARK SMILES IDX 5 13 4 14 3 15 2 16 1 17
REMARK H PARENT
REMARK Flexibility Score: inf
ROOT
ATOM      1  C   UNL     1     -31.827 -21.901 -34.097  1.00  0.00     0.000 C 
ENDROOT
BRANCH   1   2
ATOM      2  C   UNL     1     -32.630 -22.602 -35.207  1.00  0.00     0.000 C 
BRANCH   2   3
ATOM      3  C   UNL     1     -33.537 -21.637 -35.991  1.00  0.00     0.000 C 
BRANCH   3   4
ATOM      4  C   UNL     1     -33.589 -21.961 -37.492  1.00  0.00     0.000 C 
BRANCH   4   5
ATOM      5  C   UNL     1     -32.197 -21.945 -38.147  1.00  0.00     0.006 C 
BRANCH   5   6
ATOM      6  C   UNL     1     -32.005 -23.111 -39.125  1.00  0.00     0.053 C 
BRANCH   6   7
ATOM      7  C   UNL     1     -31.789 -24.409 -38.407  1.00  0.00     0.041 C 
ATOM      8  O   UNL     1     -31.099 -24.445 -37.355  1.00  0.00    -0.550 OA
ATOM      9  O   UNL     1     -32.328 -25.584 -38.917  1.00  0.00    -0.550 OA
ENDBRANCH   6   7
ENDBRANCH   5   6
ENDBRANCH   4   5
ENDBRANCH   3   4
ENDBRANCH   2   3
ENDBRANCH   1   2
BRANCH   1  10
ATOM     10  C   UNL     1     -30.616 -21.083 -34.581  1.00  0.00     0.000 C 
BRANCH  10  11
ATOM     11  C   UNL     1     -29.627 -20.749 -33.451  1.00  0.00    -0.000 C 
BRANCH  11  12
ATOM     12  C   UNL     1     -29.789 -19.314 -32.917  1.00  0.00    -0.000 C 
BRANCH  12  13
ATOM     13  C   UNL     1     -31.239 -18.875 -32.641  1.00  0.00    -0.000 C 
BRANCH  13  14
ATOM     14  C   UNL     1     -31.844 -19.542 -31.396  1.00  0.00    -0.000 C 
BRANCH  14  15
ATOM     15  C   UNL     1     -30.892 -19.426 -30.196  1.00  0.00    -0.000 C 
BRANCH  15  16
ATOM     16  C   UNL     1     -30.434 -20.795 -29.671  1.00  0.00    -0.003 C 
ATOM     17  C   UNL     1     -30.990 -21.959 -30.492  1.00  0.00     0.004 C 
ENDBRANCH  15  16
ENDBRANCH  14  15
ENDBRANCH  13  14
ENDBRANCH  12  13
ENDBRANCH  11  12
ENDBRANCH  10  11
ENDBRANCH   1  10
TORSDOF 13
ENDMDL
MODEL 5
REMARK VINA RESULT:    -3.451      3.598      8.105
REMARK INTER + INTRA:          -6.845
REMARK INTER:                  -5.871
REMARK INTRA:                  -0.975
REMARK UNBOUND:                -0.772
REMARK SMILES CCCCCCCCCCCCCCC(=O)[O-]
REMARK SMILES IDX 9 1 10 2 11 3 12 4 13 5 14 6 15 7 16 8 17 9 8 10 7 11 6 12
REMARK SMILES IDX 5 13 4 14 3 15 2 16 1 17
REMARK H PARENT
REMARK Flexibility Score: inf
ROOT
ATOM      1  C   UNL     1     -31.476 -21.594 -33.784  1.00  0.00     0.000 C 
ENDROOT
BRANCH   1   2
ATOM      2  C   UNL     1     -32.145 -22.311 -34.970  1.00  0.00     0.000 C 
BRANCH   2   3
ATOM      3  C   UNL     1     -33.342 -21.533 -35.544  1.00  0.00     0.000 C 
BRANCH   3   4
ATOM      4  C   UNL     1     -33.453 -21.658 -37.071  1.00  0.00     0.000 C 
BRANCH   4   5
ATOM      5  C   UNL     1     -32.086 -21.865 -37.746  1.00  0.00     0.006 C 
BRANCH   5   6
ATOM      6  C   UNL     1     -32.174 -22.816 -38.948  1.00  0.00     0.053 C 
BRANCH   6   7
ATOM      7  C   UNL     1     -31.862 -24.230 -38.562  1.00  0.00     0.041 C 
ATOM      8  O   UNL     1     -32.462 -25.186 -39.118  1.00  0.00    -0.550 OA
ATOM      9  O   UNL     1     -30.928 -24.489 -37.566  1.00  0.00    -0.550 OA
ENDBRANCH   6   7
ENDBRANCH   5   6
ENDBRANCH   4   5
ENDBRANCH   3   4
ENDBRANCH   2   3
ENDBRANCH   1   2
BRANCH   1  10
ATOM     10  C   UNL     1     -31.660 -20.065 -33.755  1.00  0.00     0.000 C 
BRANCH  10  11
ATOM     11  C   UNL     1     -30.382 -19.315 -33.340  1.00  0.00    -0.000 C 
BRANCH  11  12
ATOM     12  C   UNL     1     -29.508 -20.117 -32.358  1.00  0.00    -0.000 C 
BRANCH  12  13
ATOM     13  C   UNL     1     -28.933 -19.309 -31.180  1.00  0.00    -0.000 C 
BRANCH  13  14
ATOM     14  C   UNL     1     -30.004 -18.875 -30.168  1.00  0.00    -0.000 C 
BRANCH  14  15
ATOM     15  C   UNL     1     -31.188 -19.854 -30.170  1.00  0.00    -0.000 C 
BRANCH  15  16
ATOM     16  C   UNL     1     -32.547 -19.137 -30.153  1.00  0.00    -0.003 C 
ATOM     17  C   UNL     1     -33.073 -18.899 -28.738  1.00  0.00     0.004 C 
ENDBRANCH  15  16
ENDBRANCH  14  15
ENDBRANCH  13  14
ENDBRANCH  12  13
ENDBRANCH  11  12
ENDBRANCH  10  11
ENDBRANCH   1  10
TORSDOF 13
ENDMDL
MODEL 6
REMARK VINA RESULT:    -2.882      3.784      7.680
REMARK INTER + INTRA:          -5.844
REMARK INTER:                  -5.261
REMARK INTRA:                  -0.583
REMARK UNBOUND:                -0.772
REMARK SMILES CCCCCCCCCCCCCCC(=O)[O-]
REMARK SMILES IDX 9 1 10 2 11 3 12 4 13 5 14 6 15 7 16 8 17 9 8 10 7 11 6 12
REMARK SMILES IDX 5 13 4 14 3 15 2 16 1 17
REMARK H PARENT
REMARK Flexibility Score: inf
ROOT
ATOM      1  C   UNL     1     -29.377 -20.412 -33.436  1.00  0.00     0.000 C 
ENDROOT
BRANCH   1   2
ATOM      2  C   UNL     1     -30.798 -20.444 -34.027  1.00  0.00     0.000 C 
BRANCH   2   3
ATOM      3  C   UNL     1     -31.434 -21.844 -33.982  1.00  0.00     0.000 C 
BRANCH   3   4
ATOM      4  C   UNL     1     -32.560 -22.016 -35.013  1.00  0.00     0.000 C 
BRANCH   4   5
ATOM      5  C   UNL     1     -32.053 -21.919 -36.463  1.00  0.00     0.006 C 
BRANCH   5   6
ATOM      6  C   UNL     1     -31.243 -23.155 -36.875  1.00  0.00     0.053 C 
BRANCH   6   7
ATOM      7  C   UNL     1     -31.873 -23.872 -38.031  1.00  0.00     0.041 C 
ATOM      8  O   UNL     1     -32.462 -23.224 -38.935  1.00  0.00    -0.550 OA
ATOM      9  O   UNL     1     -31.834 -25.259 -38.093  1.00  0.00    -0.550 OA
ENDBRANCH   6   7
ENDBRANCH   5   6
ENDBRANCH   4   5
ENDBRANCH   3   4
ENDBRANCH   2   3
ENDBRANCH   1   2
BRANCH   1  10
ATOM     10  C   UNL     1     -28.815 -19.006 -33.156  1.00  0.00     0.000 C 
BRANCH  10  11
ATOM     11  C   UNL     1     -28.197 -18.875 -31.754  1.00  0.00    -0.000 C 
BRANCH  11  12
ATOM     12  C   UNL     1     -29.244 -18.957 -30.627  1.00  0.00    -0.000 C 
BRANCH  12  13
ATOM     13  C   UNL     1     -30.711 -18.875 -31.087  1.00  0.00    -0.000 C 
BRANCH  13  14
ATOM     14  C   UNL     1     -31.638 -19.824 -30.312  1.00  0.00    -0.000 C 
BRANCH  14  15
ATOM     15  C   UNL     1     -30.887 -20.500 -29.155  1.00  0.00    -0.000 C 
BRANCH  15  16
ATOM     16  C   UNL     1     -30.416 -21.919 -29.505  1.00  0.00    -0.003 C 
ATOM     17  C   UNL     1     -31.073 -22.464 -30.773  1.00  0.00     0.004 C 
ENDBRANCH  15  16
ENDBRANCH  14  15
ENDBRANCH  13  14
ENDBRANCH  12  13
ENDBRANCH  11  12
ENDBRANCH  10  11
ENDBRANCH   1  10
TORSDOF 13
ENDMDL
MODEL 7
REMARK VINA RESULT:    -2.127      1.620      2.158
REMARK INTER + INTRA:          -4.515
REMARK INTER:                  -3.924
REMARK INTRA:                  -0.591
REMARK UNBOUND:                -0.772
REMARK SMILES CCCCCCCCCCCCCCC(=O)[O-]
REMARK SMILES IDX 9 1 10 2 11 3 12 4 13 5 14 6 15 7 16 8 17 9 8 10 7 11 6 12
REMARK SMILES IDX 5 13 4 14 3 15 2 16 1 17
REMARK H PARENT
REMARK Flexibility Score: inf
ROOT
ATOM      1  C   UNL     1     -29.740 -21.322 -33.475  1.00  0.00     0.000 C 
ENDROOT
BRANCH   1   2
ATOM      2  C   UNL     1     -28.972 -20.048 -33.082  1.00  0.00     0.000 C 
BRANCH   2   3
ATOM      3  C   UNL     1     -29.900 -18.875 -32.721  1.00  0.00     0.000 C 
BRANCH   3   4
ATOM      4  C   UNL     1     -30.310 -18.879 -31.240  1.00  0.00     0.000 C 
BRANCH   4   5
ATOM      5  C   UNL     1     -31.396 -19.925 -30.932  1.00  0.00     0.006 C 
BRANCH   5   6
ATOM      6  C   UNL     1     -31.270 -20.487 -29.510  1.00  0.00     0.053 C 
BRANCH   6   7
ATOM      7  C   UNL     1     -30.652 -21.852 -29.504  1.00  0.00     0.041 C 
ATOM      8  O   UNL     1     -29.831 -22.174 -28.606  1.00  0.00    -0.550 OA
ATOM      9  O   UNL     1     -30.964 -22.761 -30.508  1.00  0.00    -0.550 OA
ENDBRANCH   6   7
ENDBRANCH   5   6
ENDBRANCH   4   5
ENDBRANCH   3   4
ENDBRANCH   2   3
ENDBRANCH   1   2
BRANCH   1  10
ATOM     10  C   UNL     1     -30.741 -21.152 -34.633  1.00  0.00     0.000 C 
BRANCH  10  11
ATOM     11  C   UNL     1     -32.143 -21.692 -34.297  1.00  0.00    -0.000 C 
BRANCH  11  12
ATOM     12  C   UNL     1     -33.273 -20.860 -34.931  1.00  0.00    -0.000 C 
BRANCH  12  13
ATOM     13  C   UNL     1     -33.389 -20.969 -36.463  1.00  0.00    -0.000 C 
BRANCH  13  14
ATOM     14  C   UNL     1     -33.953 -22.319 -36.929  1.00  0.00    -0.000 C 
BRANCH  14  15
ATOM     15  C   UNL     1     -32.984 -23.463 -36.596  1.00  0.00    -0.000 C 
BRANCH  15  16
ATOM     16  C   UNL     1     -31.991 -23.747 -37.735  1.00  0.00    -0.003 C 
ATOM     17  C   UNL     1     -31.834 -25.239 -38.023  1.00  0.00     0.004 C 
ENDBRANCH  15  16
ENDBRANCH  14  15
ENDBRANCH  13  14
ENDBRANCH  12  13
ENDBRANCH  11  12
ENDBRANCH  10  11
ENDBRANCH   1  10
TORSDOF 13
ENDMDL
MODEL 8
REMARK VINA RESULT:    -2.010      3.965      7.759
REMARK INTER + INTRA:          -4.309
REMARK INTER:                  -3.675
REMARK INTRA:                  -0.634
REMARK UNBOUND:                -0.772
REMARK SMILES CCCCCCCCCCCCCCC(=O)[O-]
REMARK SMILES IDX 9 1 10 2 11 3 12 4 13 5 14 6 15 7 16 8 17 9 8 10 7 11 6 12
REMARK SMILES IDX 5 13 4 14 3 15 2 16 1 17
REMARK H PARENT
REMARK Flexibility Score: inf
ROOT
ATOM      1  C   UNL     1     -33.833 -21.690 -35.789  1.00  0.00     0.000 C 
ENDROOT
BRANCH   1   2
ATOM      2  C   UNL     1     -32.672 -22.701 -35.746  1.00  0.00     0.000 C 
BRANCH   2   3
ATOM      3  C   UNL     1     -31.424 -22.212 -36.501  1.00  0.00     0.000 C 
BRANCH   3   4
ATOM      4  C   UNL     1     -31.706 -21.911 -37.980  1.00  0.00     0.000 C 
BRANCH   4   5
ATOM      5  C   UNL     1     -32.561 -23.001 -38.651  1.00  0.00     0.006 C 
BRANCH   5   6
ATOM      6  C   UNL     1     -31.749 -24.266 -38.956  1.00  0.00     0.053 C 
BRANCH   6   7
ATOM      7  C   UNL     1     -32.396 -25.493 -38.388  1.00  0.00     0.041 C 
ATOM      8  O   UNL     1     -32.895 -25.469 -37.233  1.00  0.00    -0.550 OA
ATOM      9  O   UNL     1     -32.421 -26.670 -39.125  1.00  0.00    -0.550 OA
ENDBRANCH   6   7
ENDBRANCH   5   6
ENDBRANCH   4   5
ENDBRANCH   3   4
ENDBRANCH   2   3
ENDBRANCH   1   2
BRANCH   1  10
ATOM     10  C   UNL     1     -33.410 -20.209 -35.831  1.00  0.00     0.000 C 
BRANCH  10  11
ATOM     11  C   UNL     1     -34.064 -19.367 -34.721  1.00  0.00    -0.000 C 
BRANCH  11  12
ATOM     12  C   UNL     1     -33.055 -18.877 -33.667  1.00  0.00    -0.000 C 
BRANCH  12  13
ATOM     13  C   UNL     1     -31.830 -19.786 -33.457  1.00  0.00    -0.000 C 
BRANCH  13  14
ATOM     14  C   UNL     1     -30.593 -19.024 -32.959  1.00  0.00    -0.000 C 
BRANCH  14  15
ATOM     15  C   UNL     1     -29.986 -19.711 -31.726  1.00  0.00    -0.000 C 
BRANCH  15  16
ATOM     16  C   UNL     1     -31.052 -20.334 -30.812  1.00  0.00    -0.003 C 
ATOM     17  C   UNL     1     -31.568 -19.359 -29.754  1.00  0.00     0.004 C 
ENDBRANCH  15  16
ENDBRANCH  14  15
ENDBRANCH  13  14
ENDBRANCH  12  13
ENDBRANCH  11  12
ENDBRANCH  10  11
ENDBRANCH   1  10
TORSDOF 13
ENDMDL
MODEL 9
REMARK VINA RESULT:    -1.945      3.553      7.778
REMARK INTER + INTRA:          -4.195
REMARK INTER:                  -3.469
REMARK INTRA:                  -0.726
REMARK UNBOUND:                -0.772
REMARK SMILES CCCCCCCCCCCCCCC(=O)[O-]
REMARK SMILES IDX 9 1 10 2 11 3 12 4 13 5 14 6 15 7 16 8 17 9 8 10 7 11 6 12
REMARK SMILES IDX 5 13 4 14 3 15 2 16 1 17
REMARK H PARENT
REMARK Flexibility Score: inf
ROOT
ATOM      1  C   UNL     1     -33.272 -20.457 -35.369  1.00  0.00     0.000 C 
ENDROOT
BRANCH   1   2
ATOM      2  C   UNL     1     -34.050 -21.167 -36.491  1.00  0.00     0.000 C 
BRANCH   2   3
ATOM      3  C   UNL     1     -33.989 -20.415 -37.832  1.00  0.00     0.000 C 
BRANCH   3   4
ATOM      4  C   UNL     1     -33.429 -21.280 -38.972  1.00  0.00     0.000 C 
BRANCH   4   5
ATOM      5  C   UNL     1     -32.063 -21.899 -38.626  1.00  0.00     0.006 C 
BRANCH   5   6
ATOM      6  C   UNL     1     -31.961 -23.362 -39.077  1.00  0.00     0.053 C 
BRANCH   6   7
ATOM      7  C   UNL     1     -31.847 -24.296 -37.911  1.00  0.00     0.041 C 
ATOM      8  O   UNL     1     -31.604 -25.517 -38.097  1.00  0.00    -0.550 OA
ATOM      9  O   UNL     1     -32.038 -23.822 -36.619  1.00  0.00    -0.550 OA
ENDBRANCH   6   7
ENDBRANCH   5   6
ENDBRANCH   4   5
ENDBRANCH   3   4
ENDBRANCH   2   3
ENDBRANCH   1   2
BRANCH   1  10
ATOM     10  C   UNL     1     -34.125 -19.578 -34.436  1.00  0.00     0.000 C 
BRANCH  10  11
ATOM     11  C   UNL     1     -33.293 -18.875 -33.349  1.00  0.00    -0.000 C 
BRANCH  11  12
ATOM     12  C   UNL     1     -31.797 -19.232 -33.414  1.00  0.00    -0.000 C 
BRANCH  12  13
ATOM     13  C   UNL     1     -31.240 -19.959 -32.175  1.00  0.00    -0.000 C 
BRANCH  13  14
ATOM     14  C   UNL     1     -30.853 -19.001 -31.039  1.00  0.00    -0.000 C 
BRANCH  14  15
ATOM     15  C   UNL     1     -29.410 -19.253 -30.577  1.00  0.00    -0.000 C 
BRANCH  15  16
ATOM     16  C   UNL     1     -28.561 -19.954 -31.649  1.00  0.00    -0.003 C 
ATOM     17  C   UNL     1     -28.005 -18.982 -32.691  1.00  0.00     0.004 C 
ENDBRANCH  15  16
ENDBRANCH  14  15
ENDBRANCH  13  14
ENDBRANCH  12  13
ENDBRANCH  11  12
ENDBRANCH  10  11
ENDBRANCH   1  10
TORSDOF 13
ENDMDL
