MODEL 1
REMARK VINA RESULT:    -5.841      0.000      0.000
REMARK INTER + INTRA:          -6.505
REMARK INTER:                  -6.183
REMARK INTRA:                  -0.322
REMARK UNBOUND:                -0.322
REMARK SMILES C=C1CC[C@H](C(C)C)[C@@H]2C=C(C)CC[C@@H]12
REMARK SMILES IDX 12 1 11 2 10 3 9 4 15 5 14 6 13 7 2 8 1 9 3 10 4 11 5 12
REMARK SMILES IDX 6 13 7 14 8 15
REMARK H PARENT
REMARK Flexibility Score: inf
ROOT
ATOM      1  C   UNL     1       5.372  -4.297  21.213  1.00  0.00     0.039 C 
ATOM      2  C   UNL     1       4.932  -3.785  19.869  1.00  0.00    -0.077 C 
ATOM      3  C   UNL     1       3.789  -4.252  19.333  1.00  0.00    -0.024 C 
ATOM      4  C   UNL     1       3.276  -3.823  17.971  1.00  0.00     0.022 C 
ATOM      5  C   UNL     1       3.944  -2.532  17.421  1.00  0.00     0.022 C 
ATOM      6  C   UNL     1       5.460  -2.591  17.697  1.00  0.00     0.013 C 
ATOM      7  C   UNL     1       5.723  -2.681  19.204  1.00  0.00     0.031 C 
ATOM      8  C   UNL     1       3.572  -2.386  15.944  1.00  0.00    -0.074 C 
ATOM      9  C   UNL     1       4.320  -1.689  15.066  1.00  0.00     0.008 C 
ATOM     10  C   UNL     1       2.255  -2.974  15.474  1.00  0.00     0.031 C 
ATOM     11  C   UNL     1       1.225  -3.000  16.613  1.00  0.00     0.009 C 
ATOM     12  C   UNL     1       1.713  -3.765  17.882  1.00  0.00    -0.001 C 
ENDROOT
BRANCH  12  13
ATOM     13  C   UNL     1       0.982  -3.285  19.187  1.00  0.00    -0.014 C 
ATOM     14  C   UNL     1       0.178  -4.421  19.839  1.00  0.00     0.007 C 
ATOM     15  C   UNL     1       0.088  -2.046  18.999  1.00  0.00     0.007 C 
ENDBRANCH  12  13
TORSDOF 1
ENDMDL
MODEL 2
REMARK VINA RESULT:    -5.819      1.236      5.025
REMARK INTER + INTRA:          -6.481
REMARK INTER:                  -6.147
REMARK INTRA:                  -0.335
REMARK UNBOUND:                -0.322
REMARK SMILES C=C1CC[C@H](C(C)C)[C@@H]2C=C(C)CC[C@@H]12
REMARK SMILES IDX 12 1 11 2 10 3 9 4 15 5 14 6 13 7 2 8 1 9 3 10 4 11 5 12
REMARK SMILES IDX 6 13 7 14 8 15
REMARK H PARENT
REMARK Flexibility Score: inf
ROOT
ATOM      1  C   UNL     1       3.507  -1.118  13.913  1.00  0.00     0.039 C 
ATOM      2  C   UNL     1       3.009  -1.582  15.253  1.00  0.00    -0.077 C 
ATOM      3  C   UNL     1       3.763  -2.436  15.971  1.00  0.00    -0.024 C 
ATOM      4  C   UNL     1       3.336  -2.988  17.318  1.00  0.00     0.022 C 
ATOM      5  C   UNL     1       2.170  -2.203  17.982  1.00  0.00     0.022 C 
ATOM      6  C   UNL     1       1.114  -1.866  16.911  1.00  0.00     0.013 C 
ATOM      7  C   UNL     1       1.732  -0.996  15.811  1.00  0.00     0.031 C 
ATOM      8  C   UNL     1       1.642  -3.026  19.159  1.00  0.00    -0.074 C 
ATOM      9  C   UNL     1       0.389  -2.894  19.641  1.00  0.00     0.008 C 
ATOM     10  C   UNL     1       2.601  -3.961  19.870  1.00  0.00     0.031 C 
ATOM     11  C   UNL     1       4.045  -3.448  19.770  1.00  0.00     0.009 C 
ATOM     12  C   UNL     1       4.530  -3.221  18.305  1.00  0.00    -0.001 C 
ENDROOT
BRANCH  12  13
ATOM     13  C   UNL     1       5.692  -2.168  18.217  1.00  0.00    -0.014 C 
ATOM     14  C   UNL     1       6.995  -2.800  17.703  1.00  0.00     0.007 C 
ATOM     15  C   UNL     1       5.957  -1.399  19.524  1.00  0.00     0.007 C 
ENDBRANCH  12  13
TORSDOF 1
ENDMDL
MODEL 3
REMARK VINA RESULT:    -5.742      1.647      4.408
REMARK INTER + INTRA:          -6.400
REMARK INTER:                  -6.108
REMARK INTRA:                  -0.292
REMARK UNBOUND:                -0.322
REMARK SMILES C=C1CC[C@H](C(C)C)[C@@H]2C=C(C)CC[C@@H]12
REMARK SMILES IDX 12 1 11 2 10 3 9 4 15 5 14 6 13 7 2 8 1 9 3 10 4 11 5 12
REMARK SMILES IDX 6 13 7 14 8 15
REMARK H PARENT
REMARK Flexibility Score: inf
ROOT
ATOM      1  C   UNL     1       0.041  -0.729  14.263  1.00  0.00     0.039 C 
ATOM      2  C   UNL     1       1.425  -1.131  14.691  1.00  0.00    -0.077 C 
ATOM      3  C   UNL     1       1.730  -1.133  16.002  1.00  0.00    -0.024 C 
ATOM      4  C   UNL     1       3.106  -1.490  16.532  1.00  0.00     0.022 C 
ATOM      5  C   UNL     1       4.009  -2.226  15.504  1.00  0.00     0.022 C 
ATOM      6  C   UNL     1       3.860  -1.550  14.126  1.00  0.00     0.013 C 
ATOM      7  C   UNL     1       2.405  -1.627  13.651  1.00  0.00     0.031 C 
ATOM      8  C   UNL     1       5.439  -2.253  16.047  1.00  0.00    -0.074 C 
ATOM      9  C   UNL     1       6.522  -2.373  15.253  1.00  0.00     0.008 C 
ATOM     10  C   UNL     1       5.637  -2.237  17.551  1.00  0.00     0.031 C 
ATOM     11  C   UNL     1       4.441  -2.879  18.270  1.00  0.00     0.009 C 
ATOM     12  C   UNL     1       3.071  -2.220  17.918  1.00  0.00    -0.001 C 
ENDROOT
BRANCH  12  13
ATOM     13  C   UNL     1       1.864  -3.203  18.131  1.00  0.00    -0.014 C 
ATOM     14  C   UNL     1       0.841  -2.638  19.129  1.00  0.00     0.007 C 
ATOM     15  C   UNL     1       2.268  -4.631  18.539  1.00  0.00     0.007 C 
ENDBRANCH  12  13
TORSDOF 1
ENDMDL
MODEL 4
REMARK VINA RESULT:    -5.702      2.365      4.964
REMARK INTER + INTRA:          -6.357
REMARK INTER:                  -5.949
REMARK INTRA:                  -0.408
REMARK UNBOUND:                -0.322
REMARK SMILES C=C1CC[C@H](C(C)C)[C@@H]2C=C(C)CC[C@@H]12
REMARK SMILES IDX 12 1 11 2 10 3 9 4 15 5 14 6 13 7 2 8 1 9 3 10 4 11 5 12
REMARK SMILES IDX 6 13 7 14 8 15
REMARK H PARENT
REMARK Flexibility Score: inf
ROOT
ATOM      1  C   UNL     1       6.328  -2.216  15.233  1.00  0.00     0.039 C 
ATOM      2  C   UNL     1       4.888  -2.029  15.622  1.00  0.00    -0.077 C 
ATOM      3  C   UNL     1       4.055  -1.409  14.766  1.00  0.00    -0.024 C 
ATOM      4  C   UNL     1       2.594  -1.142  15.077  1.00  0.00     0.022 C 
ATOM      5  C   UNL     1       2.038  -1.975  16.266  1.00  0.00     0.022 C 
ATOM      6  C   UNL     1       3.083  -1.994  17.400  1.00  0.00     0.013 C 
ATOM      7  C   UNL     1       4.386  -2.637  16.912  1.00  0.00     0.031 C 
ATOM      8  C   UNL     1       0.677  -1.400  16.665  1.00  0.00    -0.074 C 
ATOM      9  C   UNL     1       0.151  -1.551  17.897  1.00  0.00     0.008 C 
ATOM     10  C   UNL     1      -0.153  -0.713  15.597  1.00  0.00     0.031 C 
ATOM     11  C   UNL     1       0.155  -1.287  14.207  1.00  0.00     0.009 C 
ATOM     12  C   UNL     1       1.664  -1.215  13.818  1.00  0.00    -0.001 C 
ENDROOT
BRANCH  12  13
ATOM     13  C   UNL     1       2.058  -2.298  12.751  1.00  0.00    -0.014 C 
ATOM     14  C   UNL     1       1.655  -1.871  11.331  1.00  0.00     0.007 C 
ATOM     15  C   UNL     1       1.526  -3.711  13.049  1.00  0.00     0.007 C 
ENDBRANCH  12  13
TORSDOF 1
ENDMDL
MODEL 5
REMARK VINA RESULT:    -5.669      1.274      3.427
REMARK INTER + INTRA:          -6.323
REMARK INTER:                  -5.947
REMARK INTRA:                  -0.376
REMARK UNBOUND:                -0.322
REMARK SMILES C=C1CC[C@H](C(C)C)[C@@H]2C=C(C)CC[C@@H]12
REMARK SMILES IDX 12 1 11 2 10 3 9 4 15 5 14 6 13 7 2 8 1 9 3 10 4 11 5 12
REMARK SMILES IDX 6 13 7 14 8 15
REMARK H PARENT
REMARK Flexibility Score: inf
ROOT
ATOM      1  C   UNL     1       0.123  -5.226  19.800  1.00  0.00     0.039 C 
ATOM      2  C   UNL     1       1.361  -4.485  19.376  1.00  0.00    -0.077 C 
ATOM      3  C   UNL     1       1.668  -4.420  18.067  1.00  0.00    -0.024 C 
ATOM      4  C   UNL     1       2.910  -3.725  17.541  1.00  0.00     0.022 C 
ATOM      5  C   UNL     1       3.582  -2.769  18.566  1.00  0.00     0.022 C 
ATOM      6  C   UNL     1       3.598  -3.444  19.952  1.00  0.00     0.013 C 
ATOM      7  C   UNL     1       2.168  -3.740  20.416  1.00  0.00     0.031 C 
ATOM      8  C   UNL     1       4.962  -2.380  18.032  1.00  0.00    -0.074 C 
ATOM      9  C   UNL     1       5.969  -1.974  18.832  1.00  0.00     0.008 C 
ATOM     10  C   UNL     1       5.172  -2.361  16.529  1.00  0.00     0.031 C 
ATOM     11  C   UNL     1       3.858  -2.059  15.794  1.00  0.00     0.009 C 
ATOM     12  C   UNL     1       2.702  -3.045  16.145  1.00  0.00    -0.001 C 
ENDROOT
BRANCH  12  13
ATOM     13  C   UNL     1       1.284  -2.411  15.910  1.00  0.00    -0.014 C 
ATOM     14  C   UNL     1       0.667  -2.873  14.580  1.00  0.00     0.007 C 
ATOM     15  C   UNL     1       1.248  -0.875  16.004  1.00  0.00     0.007 C 
ENDBRANCH  12  13
TORSDOF 1
ENDMDL
MODEL 6
REMARK VINA RESULT:    -5.622      1.127      3.874
REMARK INTER + INTRA:          -6.273
REMARK INTER:                  -5.918
REMARK INTRA:                  -0.355
REMARK UNBOUND:                -0.322
REMARK SMILES C=C1CC[C@H](C(C)C)[C@@H]2C=C(C)CC[C@@H]12
REMARK SMILES IDX 12 1 11 2 10 3 9 4 15 5 14 6 13 7 2 8 1 9 3 10 4 11 5 12
REMARK SMILES IDX 6 13 7 14 8 15
REMARK H PARENT
REMARK Flexibility Score: inf
ROOT
ATOM      1  C   UNL     1       6.916  -2.965  17.971  1.00  0.00     0.039 C 
ATOM      2  C   UNL     1       5.428  -2.989  18.185  1.00  0.00    -0.077 C 
ATOM      3  C   UNL     1       4.659  -2.096  17.534  1.00  0.00    -0.024 C 
ATOM      4  C   UNL     1       3.154  -2.017  17.706  1.00  0.00     0.022 C 
ATOM      5  C   UNL     1       2.526  -3.275  18.367  1.00  0.00     0.022 C 
ATOM      6  C   UNL     1       3.418  -3.727  19.541  1.00  0.00     0.013 C 
ATOM      7  C   UNL     1       4.821  -4.082  19.035  1.00  0.00     0.031 C 
ATOM      8  C   UNL     1       1.083  -2.947  18.756  1.00  0.00    -0.074 C 
ATOM      9  C   UNL     1       0.421  -3.600  19.733  1.00  0.00     0.008 C 
ATOM     10  C   UNL     1       0.337  -1.907  17.942  1.00  0.00     0.031 C 
ATOM     11  C   UNL     1       0.863  -1.857  16.500  1.00  0.00     0.009 C 
ATOM     12  C   UNL     1       2.397  -1.595  16.400  1.00  0.00    -0.001 C 
ENDROOT
BRANCH  12  13
ATOM     13  C   UNL     1       3.011  -2.139  15.061  1.00  0.00    -0.014 C 
ATOM     14  C   UNL     1       3.466  -0.998  14.138  1.00  0.00     0.007 C 
ATOM     15  C   UNL     1       2.099  -3.110  14.289  1.00  0.00     0.007 C 
ENDBRANCH  12  13
TORSDOF 1
ENDMDL
MODEL 7
REMARK VINA RESULT:    -5.585      1.312      5.180
REMARK INTER + INTRA:          -6.234
REMARK INTER:                  -5.893
REMARK INTRA:                  -0.341
REMARK UNBOUND:                -0.322
REMARK SMILES C=C1CC[C@H](C(C)C)[C@@H]2C=C(C)CC[C@@H]12
REMARK SMILES IDX 12 1 11 2 10 3 9 4 15 5 14 6 13 7 2 8 1 9 3 10 4 11 5 12
REMARK SMILES IDX 6 13 7 14 8 15
REMARK H PARENT
REMARK Flexibility Score: inf
ROOT
ATOM      1  C   UNL     1       2.158  -1.168  15.532  1.00  0.00     0.039 C 
ATOM      2  C   UNL     1       2.238  -2.026  16.764  1.00  0.00    -0.077 C 
ATOM      3  C   UNL     1       3.383  -2.684  17.029  1.00  0.00    -0.024 C 
ATOM      4  C   UNL     1       3.554  -3.598  18.228  1.00  0.00     0.022 C 
ATOM      5  C   UNL     1       2.470  -3.413  19.326  1.00  0.00     0.022 C 
ATOM      6  C   UNL     1       1.090  -3.265  18.653  1.00  0.00     0.013 C 
ATOM      7  C   UNL     1       1.076  -2.041  17.732  1.00  0.00     0.031 C 
ATOM      8  C   UNL     1       2.575  -4.578  20.312  1.00  0.00    -0.074 C 
ATOM      9  C   UNL     1       1.543  -4.986  21.076  1.00  0.00     0.008 C 
ATOM     10  C   UNL     1       3.928  -5.238  20.502  1.00  0.00     0.031 C 
ATOM     11  C   UNL     1       5.068  -4.245  20.233  1.00  0.00     0.009 C 
ATOM     12  C   UNL     1       5.005  -3.586  18.820  1.00  0.00    -0.001 C 
ENDROOT
BRANCH  12  13
ATOM     13  C   UNL     1       5.738  -2.197  18.775  1.00  0.00    -0.014 C 
ATOM     14  C   UNL     1       6.967  -2.232  17.853  1.00  0.00     0.007 C 
ATOM     15  C   UNL     1       6.129  -1.637  20.155  1.00  0.00     0.007 C 
ENDBRANCH  12  13
TORSDOF 1
ENDMDL
MODEL 8
REMARK VINA RESULT:    -5.565      1.680      4.191
REMARK INTER + INTRA:          -6.213
REMARK INTER:                  -5.829
REMARK INTRA:                  -0.384
REMARK UNBOUND:                -0.322
REMARK SMILES C=C1CC[C@H](C(C)C)[C@@H]2C=C(C)CC[C@@H]12
REMARK SMILES IDX 12 1 11 2 10 3 9 4 15 5 14 6 13 7 2 8 1 9 3 10 4 11 5 12
REMARK SMILES IDX 6 13 7 14 8 15
REMARK H PARENT
REMARK Flexibility Score: inf
ROOT
ATOM      1  C   UNL     1       0.465  -1.919  17.025  1.00  0.00     0.039 C 
ATOM      2  C   UNL     1       1.954  -2.027  16.852  1.00  0.00    -0.077 C 
ATOM      3  C   UNL     1       2.749  -1.904  17.932  1.00  0.00    -0.024 C 
ATOM      4  C   UNL     1       4.263  -1.966  17.857  1.00  0.00     0.022 C 
ATOM      5  C   UNL     1       4.807  -2.568  16.532  1.00  0.00     0.022 C 
ATOM      6  C   UNL     1       3.995  -2.005  15.349  1.00  0.00     0.013 C 
ATOM      7  C   UNL     1       2.516  -2.381  15.493  1.00  0.00     0.031 C 
ATOM      8  C   UNL     1       6.311  -2.294  16.458  1.00  0.00    -0.074 C 
ATOM      9  C   UNL     1       6.990  -2.247  15.294  1.00  0.00     0.008 C 
ATOM     10  C   UNL     1       7.083  -2.165  17.758  1.00  0.00     0.031 C 
ATOM     11  C   UNL     1       6.421  -2.984  18.875  1.00  0.00     0.009 C 
ATOM     12  C   UNL     1       4.924  -2.617  19.119  1.00  0.00    -0.001 C 
ENDROOT
BRANCH  12  13
ATOM     13  C   UNL     1       4.117  -3.799  19.768  1.00  0.00    -0.014 C 
ATOM     14  C   UNL     1       4.027  -3.655  21.295  1.00  0.00     0.007 C 
ATOM     15  C   UNL     1       4.632  -5.202  19.398  1.00  0.00     0.007 C 
ENDBRANCH  12  13
TORSDOF 1
ENDMDL
MODEL 9
REMARK VINA RESULT:    -5.443      2.381      4.654
REMARK INTER + INTRA:          -6.083
REMARK INTER:                  -5.676
REMARK INTRA:                  -0.407
REMARK UNBOUND:                -0.322
REMARK SMILES C=C1CC[C@H](C(C)C)[C@@H]2C=C(C)CC[C@@H]12
REMARK SMILES IDX 12 1 11 2 10 3 9 4 15 5 14 6 13 7 2 8 1 9 3 10 4 11 5 12
REMARK SMILES IDX 6 13 7 14 8 15
REMARK H PARENT
REMARK Flexibility Score: inf
ROOT
ATOM      1  C   UNL     1      -1.751  -1.167  22.499  1.00  0.00     0.039 C 
ATOM      2  C   UNL     1      -1.050  -1.513  21.215  1.00  0.00    -0.077 C 
ATOM      3  C   UNL     1       0.094  -2.222  21.265  1.00  0.00    -0.024 C 
ATOM      4  C   UNL     1       0.893  -2.593  20.030  1.00  0.00     0.022 C 
ATOM      5  C   UNL     1       0.105  -2.446  18.699  1.00  0.00     0.022 C 
ATOM      6  C   UNL     1      -0.705  -1.134  18.733  1.00  0.00     0.013 C 
ATOM      7  C   UNL     1      -1.701  -1.155  19.898  1.00  0.00     0.031 C 
ATOM      8  C   UNL     1       1.094  -2.551  17.536  1.00  0.00    -0.074 C 
ATOM      9  C   UNL     1       0.857  -2.017  16.321  1.00  0.00     0.008 C 
ATOM     10  C   UNL     1       2.353  -3.374  17.737  1.00  0.00     0.031 C 
ATOM     11  C   UNL     1       2.121  -4.494  18.762  1.00  0.00     0.009 C 
ATOM     12  C   UNL     1       1.608  -3.983  20.143  1.00  0.00    -0.001 C 
ENDROOT
BRANCH  12  13
ATOM     13  C   UNL     1       0.815  -5.086  20.932  1.00  0.00    -0.014 C 
ATOM     14  C   UNL     1       1.757  -6.025  21.700  1.00  0.00     0.007 C 
ATOM     15  C   UNL     1      -0.163  -5.907  20.071  1.00  0.00     0.007 C 
ENDBRANCH  12  13
TORSDOF 1
ENDMDL
