MODEL 1
REMARK VINA RESULT:    -5.084      0.000      0.000
REMARK INTER + INTRA:          -5.381
REMARK INTER:                  -5.381
REMARK INTRA:                   0.000
REMARK UNBOUND:                 0.000
REMARK SMILES O=c1ccc2cc(O)c(O)cc2o1
REMARK SMILES IDX 4 1 3 2 2 3 1 4 13 5 12 6 11 7 9 8 7 9 6 10 5 11 8 12 10 14
REMARK H PARENT 8 13 10 15
REMARK Flexibility Score: inf
ROOT
ATOM      1  C   UNL     1      33.294 -46.681  42.905  1.00  0.00     0.019 A 
ATOM      2  C   UNL     1      32.909 -47.873  42.290  1.00  0.00     0.094 A 
ATOM      3  C   UNL     1      31.790 -47.872  41.451  1.00  0.00     0.336 A 
ATOM      4  O   UNL     1      31.426 -48.937  40.887  1.00  0.00    -0.246 OA
ATOM      5  O   UNL     1      31.104 -46.750  41.245  1.00  0.00    -0.423 OA
ATOM      6  C   UNL     1      31.437 -45.593  41.813  1.00  0.00     0.142 A 
ATOM      7  C   UNL     1      30.678 -44.446  41.558  1.00  0.00     0.098 A 
ATOM      8  C   UNL     1      31.022 -43.225  42.151  1.00  0.00     0.161 A 
ATOM      9  C   UNL     1      32.136 -43.148  43.007  1.00  0.00     0.158 A 
ATOM     10  C   UNL     1      32.900 -44.296  43.265  1.00  0.00     0.062 A 
ATOM     11  C   UNL     1      32.555 -45.518  42.671  1.00  0.00     0.022 A 
ENDROOT
BRANCH   9  12
ATOM     12  O   UNL     1      32.479 -41.933  43.597  1.00  0.00    -0.504 OA
ATOM     13  H   UNL     1      33.364 -41.479  43.402  1.00  0.00     0.293 HD
ENDBRANCH   9  12
BRANCH   8  14
ATOM     14  O   UNL     1      30.245 -42.100  41.878  1.00  0.00    -0.504 OA
ATOM     15  H   UNL     1      30.657 -41.212  41.617  1.00  0.00     0.293 HD
ENDBRANCH   8  14
TORSDOF 2
ENDMDL
MODEL 2
REMARK VINA RESULT:    -4.868     10.505     12.314
REMARK INTER + INTRA:          -5.152
REMARK INTER:                  -5.152
REMARK INTRA:                   0.000
REMARK UNBOUND:                 0.000
REMARK SMILES O=c1ccc2cc(O)c(O)cc2o1
REMARK SMILES IDX 4 1 3 2 2 3 1 4 13 5 12 6 11 7 9 8 7 9 6 10 5 11 8 12 10 14
REMARK H PARENT 8 13 10 15
REMARK Flexibility Score: inf
ROOT
ATOM      1  C   UNL     1      32.840 -38.054  32.352  1.00  0.00     0.019 A 
ATOM      2  C   UNL     1      32.888 -36.940  31.513  1.00  0.00     0.094 A 
ATOM      3  C   UNL     1      31.737 -36.160  31.356  1.00  0.00     0.336 A 
ATOM      4  O   UNL     1      31.760 -35.151  30.603  1.00  0.00    -0.246 OA
ATOM      5  O   UNL     1      30.615 -36.479  31.997  1.00  0.00    -0.423 OA
ATOM      6  C   UNL     1      30.527 -37.533  32.805  1.00  0.00     0.142 A 
ATOM      7  C   UNL     1      29.320 -37.818  33.451  1.00  0.00     0.098 A 
ATOM      8  C   UNL     1      29.219 -38.925  34.303  1.00  0.00     0.161 A 
ATOM      9  C   UNL     1      30.336 -39.755  34.512  1.00  0.00     0.158 A 
ATOM     10  C   UNL     1      31.548 -39.473  33.865  1.00  0.00     0.062 A 
ATOM     11  C   UNL     1      31.648 -38.365  33.013  1.00  0.00     0.022 A 
ENDROOT
BRANCH   9  12
ATOM     12  O   UNL     1      30.236 -40.857  35.360  1.00  0.00    -0.504 OA
ATOM     13  H   UNL     1      29.337 -41.211  35.666  1.00  0.00     0.293 HD
ENDBRANCH   9  12
BRANCH   8  14
ATOM     14  O   UNL     1      28.002 -39.183  34.933  1.00  0.00    -0.504 OA
ATOM     15  H   UNL     1      27.299 -39.783  34.520  1.00  0.00     0.293 HD
ENDBRANCH   8  14
TORSDOF 2
ENDMDL
MODEL 3
REMARK VINA RESULT:    -4.854     12.305     13.654
REMARK INTER + INTRA:          -5.138
REMARK INTER:                  -5.138
REMARK INTRA:                   0.000
REMARK UNBOUND:                 0.000
REMARK SMILES O=c1ccc2cc(O)c(O)cc2o1
REMARK SMILES IDX 4 1 3 2 2 3 1 4 13 5 12 6 11 7 9 8 7 9 6 10 5 11 8 12 10 14
REMARK H PARENT 8 13 10 15
REMARK Flexibility Score: inf
ROOT
ATOM      1  C   UNL     1      38.447 -46.385  29.395  1.00  0.00     0.019 A 
ATOM      2  C   UNL     1      39.765 -46.265  29.836  1.00  0.00     0.094 A 
ATOM      3  C   UNL     1      40.172 -46.988  30.963  1.00  0.00     0.336 A 
ATOM      4  O   UNL     1      41.356 -46.893  31.377  1.00  0.00    -0.246 OA
ATOM      5  O   UNL     1      39.312 -47.778  31.602  1.00  0.00    -0.423 OA
ATOM      6  C   UNL     1      38.047 -47.921  31.214  1.00  0.00     0.142 A 
ATOM      7  C   UNL     1      37.189 -48.766  31.925  1.00  0.00     0.098 A 
ATOM      8  C   UNL     1      35.857 -48.923  31.524  1.00  0.00     0.161 A 
ATOM      9  C   UNL     1      35.376 -48.227  30.399  1.00  0.00     0.158 A 
ATOM     10  C   UNL     1      36.232 -47.378  29.683  1.00  0.00     0.062 A 
ATOM     11  C   UNL     1      37.566 -47.223  30.085  1.00  0.00     0.022 A 
ENDROOT
BRANCH   9  12
ATOM     12  O   UNL     1      34.050 -48.382  29.999  1.00  0.00    -0.504 OA
ATOM     13  H   UNL     1      33.721 -49.241  29.572  1.00  0.00     0.293 HD
ENDBRANCH   9  12
BRANCH   8  14
ATOM     14  O   UNL     1      35.027 -49.773  32.255  1.00  0.00    -0.504 OA
ATOM     15  H   UNL     1      34.042 -49.877  32.042  1.00  0.00     0.293 HD
ENDBRANCH   8  14
TORSDOF 2
ENDMDL
MODEL 4
REMARK VINA RESULT:    -4.849     10.440     12.251
REMARK INTER + INTRA:          -5.132
REMARK INTER:                  -5.132
REMARK INTRA:                   0.000
REMARK UNBOUND:                 0.000
REMARK SMILES O=c1ccc2cc(O)c(O)cc2o1
REMARK SMILES IDX 4 1 3 2 2 3 1 4 13 5 12 6 11 7 9 8 7 9 6 10 5 11 8 12 10 14
REMARK H PARENT 8 13 10 15
REMARK Flexibility Score: inf
ROOT
ATOM      1  C   UNL     1      30.775 -36.414  31.990  1.00  0.00     0.019 A 
ATOM      2  C   UNL     1      32.004 -36.217  31.359  1.00  0.00     0.094 A 
ATOM      3  C   UNL     1      33.038 -37.132  31.588  1.00  0.00     0.336 A 
ATOM      4  O   UNL     1      34.154 -36.972  31.028  1.00  0.00    -0.246 OA
ATOM      5  O   UNL     1      32.850 -38.171  32.398  1.00  0.00    -0.423 OA
ATOM      6  C   UNL     1      31.695 -38.395  33.020  1.00  0.00     0.142 A 
ATOM      7  C   UNL     1      31.557 -39.505  33.859  1.00  0.00     0.098 A 
ATOM      8  C   UNL     1      30.345 -39.747  34.517  1.00  0.00     0.161 A 
ATOM      9  C   UNL     1      29.258 -38.872  34.334  1.00  0.00     0.158 A 
ATOM     10  C   UNL     1      29.393 -37.757  33.494  1.00  0.00     0.062 A 
ATOM     11  C   UNL     1      30.606 -37.515  32.835  1.00  0.00     0.022 A 
ENDROOT
BRANCH   9  12
ATOM     12  O   UNL     1      28.052 -39.112  34.988  1.00  0.00    -0.504 OA
ATOM     13  H   UNL     1      27.200 -38.628  34.728  1.00  0.00     0.293 HD
ENDBRANCH   9  12
BRANCH   8  14
ATOM     14  O   UNL     1      30.239 -40.863  35.347  1.00  0.00    -0.504 OA
ATOM     15  H   UNL     1      29.716 -40.840  36.215  1.00  0.00     0.293 HD
ENDBRANCH   8  14
TORSDOF 2
ENDMDL
MODEL 5
REMARK VINA RESULT:    -4.834      1.423      2.401
REMARK INTER + INTRA:          -5.117
REMARK INTER:                  -5.117
REMARK INTRA:                   0.000
REMARK UNBOUND:                 0.000
REMARK SMILES O=c1ccc2cc(O)c(O)cc2o1
REMARK SMILES IDX 4 1 3 2 2 3 1 4 13 5 12 6 11 7 9 8 7 9 6 10 5 11 8 12 10 14
REMARK H PARENT 8 13 10 15
REMARK Flexibility Score: inf
ROOT
ATOM      1  C   UNL     1      31.532 -47.415  41.380  1.00  0.00     0.019 A 
ATOM      2  C   UNL     1      32.486 -48.407  41.613  1.00  0.00     0.094 A 
ATOM      3  C   UNL     1      33.626 -48.089  42.359  1.00  0.00     0.336 A 
ATOM      4  O   UNL     1      34.498 -48.970  42.580  1.00  0.00    -0.246 OA
ATOM      5  O   UNL     1      33.796 -46.858  42.838  1.00  0.00    -0.423 OA
ATOM      6  C   UNL     1      32.912 -45.884  42.638  1.00  0.00     0.142 A 
ATOM      7  C   UNL     1      33.145 -44.611  43.166  1.00  0.00     0.098 A 
ATOM      8  C   UNL     1      32.219 -43.580  42.961  1.00  0.00     0.161 A 
ATOM      9  C   UNL     1      31.047 -43.825  42.221  1.00  0.00     0.158 A 
ATOM     10  C   UNL     1      30.810 -45.101  41.689  1.00  0.00     0.062 A 
ATOM     11  C   UNL     1      31.737 -46.131  41.895  1.00  0.00     0.022 A 
ENDROOT
BRANCH   9  12
ATOM     12  O   UNL     1      30.126 -42.800  42.016  1.00  0.00    -0.504 OA
ATOM     13  H   UNL     1      30.413 -41.828  41.970  1.00  0.00     0.293 HD
ENDBRANCH   9  12
BRANCH   8  14
ATOM     14  O   UNL     1      32.481 -42.321  43.500  1.00  0.00    -0.504 OA
ATOM     15  H   UNL     1      33.421 -41.951  43.573  1.00  0.00     0.293 HD
ENDBRANCH   8  14
TORSDOF 2
ENDMDL
MODEL 6
REMARK VINA RESULT:    -4.710      9.552     10.829
REMARK INTER + INTRA:          -4.986
REMARK INTER:                  -4.986
REMARK INTRA:                   0.000
REMARK UNBOUND:                 0.000
REMARK SMILES O=c1ccc2cc(O)c(O)cc2o1
REMARK SMILES IDX 4 1 3 2 2 3 1 4 13 5 12 6 11 7 9 8 7 9 6 10 5 11 8 12 10 14
REMARK H PARENT 8 13 10 15
REMARK Flexibility Score: inf
ROOT
ATOM      1  C   UNL     1      33.456 -36.940  34.646  1.00  0.00     0.019 A 
ATOM      2  C   UNL     1      34.557 -37.255  33.849  1.00  0.00     0.094 A 
ATOM      3  C   UNL     1      34.560 -38.463  33.143  1.00  0.00     0.336 A 
ATOM      4  O   UNL     1      35.544 -38.765  32.419  1.00  0.00    -0.246 OA
ATOM      5  O   UNL     1      33.526 -39.297  33.231  1.00  0.00    -0.423 OA
ATOM      6  C   UNL     1      32.457 -39.035  33.980  1.00  0.00     0.142 A 
ATOM      7  C   UNL     1      31.401 -39.950  34.033  1.00  0.00     0.098 A 
ATOM      8  C   UNL     1      30.273 -39.682  34.818  1.00  0.00     0.161 A 
ATOM      9  C   UNL     1      30.198 -38.487  35.557  1.00  0.00     0.158 A 
ATOM     10  C   UNL     1      31.256 -37.566  35.506  1.00  0.00     0.062 A 
ATOM     11  C   UNL     1      32.384 -37.835  34.720  1.00  0.00     0.022 A 
ENDROOT
BRANCH   9  12
ATOM     12  O   UNL     1      29.076 -38.220  36.338  1.00  0.00    -0.504 OA
ATOM     13  H   UNL     1      29.073 -37.477  37.028  1.00  0.00     0.293 HD
ENDBRANCH   9  12
BRANCH   8  14
ATOM     14  O   UNL     1      29.237 -40.615  34.851  1.00  0.00    -0.504 OA
ATOM     15  H   UNL     1      28.430 -40.502  35.453  1.00  0.00     0.293 HD
ENDBRANCH   8  14
TORSDOF 2
ENDMDL
MODEL 7
REMARK VINA RESULT:    -4.686      9.847     11.463
REMARK INTER + INTRA:          -4.959
REMARK INTER:                  -4.959
REMARK INTRA:                   0.000
REMARK UNBOUND:                 0.000
REMARK SMILES O=c1ccc2cc(O)c(O)cc2o1
REMARK SMILES IDX 4 1 3 2 2 3 1 4 13 5 12 6 11 7 9 8 7 9 6 10 5 11 8 12 10 14
REMARK H PARENT 8 13 10 15
REMARK Flexibility Score: inf
ROOT
ATOM      1  C   UNL     1      30.511 -36.590  33.615  1.00  0.00     0.019 A 
ATOM      2  C   UNL     1      31.872 -36.674  33.911  1.00  0.00     0.094 A 
ATOM      3  C   UNL     1      32.380 -37.869  34.431  1.00  0.00     0.336 A 
ATOM      4  O   UNL     1      33.605 -37.964  34.705  1.00  0.00    -0.246 OA
ATOM      5  O   UNL     1      31.576 -38.909  34.639  1.00  0.00    -0.423 OA
ATOM      6  C   UNL     1      30.273 -38.871  34.370  1.00  0.00     0.142 A 
ATOM      7  C   UNL     1      29.477 -39.996  34.609  1.00  0.00     0.098 A 
ATOM      8  C   UNL     1      28.106 -39.964  34.329  1.00  0.00     0.161 A 
ATOM      9  C   UNL     1      27.523 -38.796  33.803  1.00  0.00     0.158 A 
ATOM     10  C   UNL     1      28.317 -37.665  33.562  1.00  0.00     0.062 A 
ATOM     11  C   UNL     1      29.689 -37.699  33.843  1.00  0.00     0.022 A 
ENDROOT
BRANCH   9  12
ATOM     12  O   UNL     1      26.158 -38.764  33.524  1.00  0.00    -0.504 OA
ATOM     13  H   UNL     1      25.809 -38.514  32.605  1.00  0.00     0.293 HD
ENDBRANCH   9  12
BRANCH   8  14
ATOM     14  O   UNL     1      27.339 -41.102  34.578  1.00  0.00    -0.504 OA
ATOM     15  H   UNL     1      27.456 -41.957  34.047  1.00  0.00     0.293 HD
ENDBRANCH   8  14
TORSDOF 2
ENDMDL
MODEL 8
REMARK VINA RESULT:    -4.637     12.748     13.785
REMARK INTER + INTRA:          -4.908
REMARK INTER:                  -4.908
REMARK INTRA:                   0.000
REMARK UNBOUND:                 0.000
REMARK SMILES O=c1ccc2cc(O)c(O)cc2o1
REMARK SMILES IDX 4 1 3 2 2 3 1 4 13 5 12 6 11 7 9 8 7 9 6 10 5 11 8 12 10 14
REMARK H PARENT 8 13 10 15
REMARK Flexibility Score: inf
ROOT
ATOM      1  C   UNL     1      35.981 -47.523  30.067  1.00  0.00     0.019 A 
ATOM      2  C   UNL     1      35.416 -48.576  30.786  1.00  0.00     0.094 A 
ATOM      3  C   UNL     1      36.243 -49.373  31.586  1.00  0.00     0.336 A 
ATOM      4  O   UNL     1      35.751 -50.327  32.243  1.00  0.00    -0.246 OA
ATOM      5  O   UNL     1      37.549 -49.127  31.657  1.00  0.00    -0.423 OA
ATOM      6  C   UNL     1      38.128 -48.134  30.987  1.00  0.00     0.142 A 
ATOM      7  C   UNL     1      39.506 -47.924  31.101  1.00  0.00     0.098 A 
ATOM      8  C   UNL     1      40.124 -46.882  30.399  1.00  0.00     0.161 A 
ATOM      9  C   UNL     1      39.356 -46.038  29.575  1.00  0.00     0.158 A 
ATOM     10  C   UNL     1      37.973 -46.245  29.457  1.00  0.00     0.062 A 
ATOM     11  C   UNL     1      37.357 -47.289  30.160  1.00  0.00     0.022 A 
ENDROOT
BRANCH   9  12
ATOM     12  O   UNL     1      39.969 -45.000  28.877  1.00  0.00    -0.504 OA
ATOM     13  H   UNL     1      39.687 -44.754  27.935  1.00  0.00     0.293 HD
ENDBRANCH   9  12
BRANCH   8  14
ATOM     14  O   UNL     1      41.500 -46.699  30.534  1.00  0.00    -0.504 OA
ATOM     15  H   UNL     1      42.128 -46.745  29.741  1.00  0.00     0.293 HD
ENDBRANCH   8  14
TORSDOF 2
ENDMDL
MODEL 9
REMARK VINA RESULT:    -4.592     12.443     13.645
REMARK INTER + INTRA:          -4.861
REMARK INTER:                  -4.861
REMARK INTRA:                   0.000
REMARK UNBOUND:                 0.000
REMARK SMILES O=c1ccc2cc(O)c(O)cc2o1
REMARK SMILES IDX 4 1 3 2 2 3 1 4 13 5 12 6 11 7 9 8 7 9 6 10 5 11 8 12 10 14
REMARK H PARENT 8 13 10 15
REMARK Flexibility Score: inf
ROOT
ATOM      1  C   UNL     1      39.420 -47.621  31.620  1.00  0.00     0.019 A 
ATOM      2  C   UNL     1      40.224 -46.777  30.853  1.00  0.00     0.094 A 
ATOM      3  C   UNL     1      39.674 -46.158  29.725  1.00  0.00     0.336 A 
ATOM      4  O   UNL     1      40.383 -45.393  29.020  1.00  0.00    -0.246 OA
ATOM      5  O   UNL     1      38.404 -46.373  29.390  1.00  0.00    -0.423 OA
ATOM      6  C   UNL     1      37.604 -47.171  30.094  1.00  0.00     0.142 A 
ATOM      7  C   UNL     1      36.277 -47.359  29.693  1.00  0.00     0.098 A 
ATOM      8  C   UNL     1      35.429 -48.196  30.428  1.00  0.00     0.161 A 
ATOM      9  C   UNL     1      35.911 -48.853  31.576  1.00  0.00     0.158 A 
ATOM     10  C   UNL     1      37.241 -48.668  31.980  1.00  0.00     0.062 A 
ATOM     11  C   UNL     1      38.089 -47.829  31.245  1.00  0.00     0.022 A 
ENDROOT
BRANCH   9  12
ATOM     12  O   UNL     1      35.067 -49.686  32.307  1.00  0.00    -0.504 OA
ATOM     13  H   UNL     1      34.175 -49.996  31.937  1.00  0.00     0.293 HD
ENDBRANCH   9  12
BRANCH   8  14
ATOM     14  O   UNL     1      34.111 -48.363  30.003  1.00  0.00    -0.504 OA
ATOM     15  H   UNL     1      33.368 -48.619  30.641  1.00  0.00     0.293 HD
ENDBRANCH   8  14
TORSDOF 2
ENDMDL
