MODEL 1
REMARK VINA RESULT:    -4.078      0.000      0.000
REMARK INTER + INTRA:         -10.172
REMARK INTER:                  -7.892
REMARK INTRA:                  -2.280
REMARK UNBOUND:                -2.280
REMARK SMILES CCCCCCCCCCCCCCCCCC(=O)[O-]
REMARK SMILES IDX 10 1 11 2 12 3 13 4 14 5 15 6 16 7 17 8 18 9 19 10 20 11
REMARK SMILES IDX 9 12 8 13 7 14 6 15 5 16 4 17 3 18 2 19 1 20
REMARK H PARENT
REMARK Flexibility Score: inf
ROOT
ATOM      1  C   UNL     1      48.309  -2.199  80.928  1.00  0.00     0.000 C 
ENDROOT
BRANCH   1   2
ATOM      2  C   UNL     1      47.883  -3.494  81.640  1.00  0.00     0.000 C 
BRANCH   2   3
ATOM      3  C   UNL     1      47.625  -4.651  80.662  1.00  0.00     0.000 C 
BRANCH   3   4
ATOM      4  C   UNL     1      47.820  -4.237  79.192  1.00  0.00     0.000 C 
BRANCH   4   5
ATOM      5  C   UNL     1      48.851  -5.111  78.463  1.00  0.00     0.000 C 
BRANCH   5   6
ATOM      6  C   UNL     1      49.819  -5.815  79.433  1.00  0.00     0.000 C 
BRANCH   6   7
ATOM      7  C   UNL     1      49.925  -7.325  79.169  1.00  0.00     0.006 C 
BRANCH   7   8
ATOM      8  C   UNL     1      48.870  -7.828  78.171  1.00  0.00     0.053 C 
BRANCH   8   9
ATOM      9  C   UNL     1      48.295  -9.139  78.615  1.00  0.00     0.041 C 
ATOM     10  O   UNL     1      47.209  -9.552  78.125  1.00  0.00    -0.550 OA
ATOM     11  O   UNL     1      48.971  -9.924  79.544  1.00  0.00    -0.550 OA
ENDBRANCH   8   9
ENDBRANCH   7   8
ENDBRANCH   6   7
ENDBRANCH   5   6
ENDBRANCH   4   5
ENDBRANCH   3   4
ENDBRANCH   2   3
ENDBRANCH   1   2
BRANCH   1  12
ATOM     12  C   UNL     1      49.699  -1.703  81.380  1.00  0.00     0.000 C 
BRANCH  12  13
ATOM     13  C   UNL     1      50.759  -2.817  81.475  1.00  0.00    -0.000 C 
BRANCH  13  14
ATOM     14  C   UNL     1      51.566  -2.839  82.787  1.00  0.00    -0.000 C 
BRANCH  14  15
ATOM     15  C   UNL     1      50.828  -2.274  84.019  1.00  0.00    -0.000 C 
BRANCH  15  16
ATOM     16  C   UNL     1      50.463  -3.310  85.098  1.00  0.00    -0.000 C 
BRANCH  16  17
ATOM     17  C   UNL     1      49.211  -2.921  85.900  1.00  0.00    -0.000 C 
BRANCH  17  18
ATOM     18  C   UNL     1      47.912  -3.461  85.279  1.00  0.00    -0.000 C 
BRANCH  18  19
ATOM     19  C   UNL     1      46.804  -2.396  85.136  1.00  0.00    -0.003 C 
ATOM     20  C   UNL     1      47.319  -1.108  84.494  1.00  0.00     0.004 C 
ENDBRANCH  18  19
ENDBRANCH  17  18
ENDBRANCH  16  17
ENDBRANCH  15  16
ENDBRANCH  14  15
ENDBRANCH  13  14
ENDBRANCH  12  13
ENDBRANCH   1  12
TORSDOF 16
ENDMDL
MODEL 2
REMARK VINA RESULT:    -4.053      7.273      9.813
REMARK INTER + INTRA:         -10.124
REMARK INTER:                  -7.650
REMARK INTRA:                  -2.475
REMARK UNBOUND:                -2.280
REMARK SMILES CCCCCCCCCCCCCCCCCC(=O)[O-]
REMARK SMILES IDX 10 1 11 2 12 3 13 4 14 5 15 6 16 7 17 8 18 9 19 10 20 11
REMARK SMILES IDX 9 12 8 13 7 14 6 15 5 16 4 17 3 18 2 19 1 20
REMARK H PARENT
REMARK Flexibility Score: inf
ROOT
ATOM      1  C   UNL     1      49.689  -1.560  74.883  1.00  0.00     0.000 C 
ENDROOT
BRANCH   1   2
ATOM      2  C   UNL     1      48.659  -0.938  73.925  1.00  0.00     0.000 C 
BRANCH   2   3
ATOM      3  C   UNL     1      49.289  -0.455  72.610  1.00  0.00     0.000 C 
BRANCH   3   4
ATOM      4  C   UNL     1      50.592  -1.202  72.269  1.00  0.00     0.000 C 
BRANCH   4   5
ATOM      5  C   UNL     1      51.817  -0.276  72.252  1.00  0.00     0.000 C 
BRANCH   5   6
ATOM      6  C   UNL     1      53.141  -1.047  72.404  1.00  0.00     0.000 C 
BRANCH   6   7
ATOM      7  C   UNL     1      52.938  -2.465  72.962  1.00  0.00     0.006 C 
BRANCH   7   8
ATOM      8  C   UNL     1      53.305  -2.575  74.449  1.00  0.00     0.053 C 
BRANCH   8   9
ATOM      9  C   UNL     1      54.070  -3.835  74.720  1.00  0.00     0.041 C 
ATOM     10  O   UNL     1      53.516  -4.957  74.564  1.00  0.00    -0.550 OA
ATOM     11  O   UNL     1      55.403  -3.776  75.111  1.00  0.00    -0.550 OA
ENDBRANCH   8   9
ENDBRANCH   7   8
ENDBRANCH   6   7
ENDBRANCH   5   6
ENDBRANCH   4   5
ENDBRANCH   3   4
ENDBRANCH   2   3
ENDBRANCH   1   2
BRANCH   1  12
ATOM     12  C   UNL     1      49.174  -2.851  75.553  1.00  0.00     0.000 C 
BRANCH  12  13
ATOM     13  C   UNL     1      50.147  -4.041  75.446  1.00  0.00    -0.000 C 
BRANCH  13  14
ATOM     14  C   UNL     1      49.777  -5.091  74.382  1.00  0.00    -0.000 C 
BRANCH  14  15
ATOM     15  C   UNL     1      49.429  -4.520  72.991  1.00  0.00    -0.000 C 
BRANCH  15  16
ATOM     16  C   UNL     1      47.927  -4.477  72.657  1.00  0.00    -0.000 C 
BRANCH  16  17
ATOM     17  C   UNL     1      47.063  -5.211  73.695  1.00  0.00    -0.000 C 
BRANCH  17  18
ATOM     18  C   UNL     1      46.176  -6.301  73.070  1.00  0.00    -0.000 C 
BRANCH  18  19
ATOM     19  C   UNL     1      46.957  -7.319  72.212  1.00  0.00    -0.003 C 
ATOM     20  C   UNL     1      47.918  -8.164  73.049  1.00  0.00     0.004 C 
ENDBRANCH  18  19
ENDBRANCH  17  18
ENDBRANCH  16  17
ENDBRANCH  15  16
ENDBRANCH  14  15
ENDBRANCH  13  14
ENDBRANCH  12  13
ENDBRANCH   1  12
TORSDOF 16
ENDMDL
MODEL 3
REMARK VINA RESULT:    -4.041      5.874      8.285
REMARK INTER + INTRA:         -10.102
REMARK INTER:                  -8.824
REMARK INTRA:                  -1.277
REMARK UNBOUND:                -2.280
REMARK SMILES CCCCCCCCCCCCCCCCCC(=O)[O-]
REMARK SMILES IDX 10 1 11 2 12 3 13 4 14 5 15 6 16 7 17 8 18 9 19 10 20 11
REMARK SMILES IDX 9 12 8 13 7 14 6 15 5 16 4 17 3 18 2 19 1 20
REMARK H PARENT
REMARK Flexibility Score: inf
ROOT
ATOM      1  C   UNL     1      53.731  -2.730  81.995  1.00  0.00     0.000 C 
ENDROOT
BRANCH   1   2
ATOM      2  C   UNL     1      55.137  -3.203  82.399  1.00  0.00     0.000 C 
BRANCH   2   3
ATOM      3  C   UNL     1      55.941  -2.116  83.129  1.00  0.00     0.000 C 
BRANCH   3   4
ATOM      4  C   UNL     1      57.260  -2.649  83.717  1.00  0.00     0.000 C 
BRANCH   4   5
ATOM      5  C   UNL     1      58.411  -1.639  83.601  1.00  0.00     0.000 C 
BRANCH   5   6
ATOM      6  C   UNL     1      59.750  -2.308  83.238  1.00  0.00     0.000 C 
BRANCH   6   7
ATOM      7  C   UNL     1      59.582  -3.782  82.838  1.00  0.00     0.006 C 
BRANCH   7   8
ATOM      8  C   UNL     1      60.279  -4.744  83.813  1.00  0.00     0.053 C 
BRANCH   8   9
ATOM      9  C   UNL     1      59.450  -5.972  84.037  1.00  0.00     0.041 C 
ATOM     10  O   UNL     1      58.482  -5.943  84.846  1.00  0.00    -0.550 OA
ATOM     11  O   UNL     1      59.720  -7.140  83.331  1.00  0.00    -0.550 OA
ENDBRANCH   8   9
ENDBRANCH   7   8
ENDBRANCH   6   7
ENDBRANCH   5   6
ENDBRANCH   4   5
ENDBRANCH   3   4
ENDBRANCH   2   3
ENDBRANCH   1   2
BRANCH   1  12
ATOM     12  C   UNL     1      52.697  -3.876  81.990  1.00  0.00     0.000 C 
BRANCH  12  13
ATOM     13  C   UNL     1      51.742  -3.848  80.781  1.00  0.00    -0.000 C 
BRANCH  13  14
ATOM     14  C   UNL     1      50.760  -2.662  80.754  1.00  0.00    -0.000 C 
BRANCH  14  15
ATOM     15  C   UNL     1      49.657  -2.699  81.832  1.00  0.00    -0.000 C 
BRANCH  15  16
ATOM     16  C   UNL     1      49.491  -1.401  82.645  1.00  0.00    -0.000 C 
BRANCH  16  17
ATOM     17  C   UNL     1      50.108  -1.494  84.050  1.00  0.00    -0.000 C 
BRANCH  17  18
ATOM     18  C   UNL     1      50.098  -2.925  84.613  1.00  0.00    -0.000 C 
BRANCH  18  19
ATOM     19  C   UNL     1      49.009  -3.163  85.681  1.00  0.00    -0.003 C 
ATOM     20  C   UNL     1      47.659  -3.522  85.061  1.00  0.00     0.004 C 
ENDBRANCH  18  19
ENDBRANCH  17  18
ENDBRANCH  16  17
ENDBRANCH  15  16
ENDBRANCH  14  15
ENDBRANCH  13  14
ENDBRANCH  12  13
ENDBRANCH   1  12
TORSDOF 16
ENDMDL
MODEL 4
REMARK VINA RESULT:    -4.018      5.841      8.330
REMARK INTER + INTRA:         -10.055
REMARK INTER:                  -7.086
REMARK INTRA:                  -2.969
REMARK UNBOUND:                -2.280
REMARK SMILES CCCCCCCCCCCCCCCCCC(=O)[O-]
REMARK SMILES IDX 10 1 11 2 12 3 13 4 14 5 15 6 16 7 17 8 18 9 19 10 20 11
REMARK SMILES IDX 9 12 8 13 7 14 6 15 5 16 4 17 3 18 2 19 1 20
REMARK H PARENT
REMARK Flexibility Score: inf
ROOT
ATOM      1  C   UNL     1      50.033  -0.518  71.920  1.00  0.00     0.000 C 
ENDROOT
BRANCH   1   2
ATOM      2  C   UNL     1      51.385   0.104  72.308  1.00  0.00     0.000 C 
BRANCH   2   3
ATOM      3  C   UNL     1      52.534  -0.916  72.289  1.00  0.00     0.000 C 
BRANCH   3   4
ATOM      4  C   UNL     1      52.433  -1.941  73.433  1.00  0.00     0.000 C 
BRANCH   4   5
ATOM      5  C   UNL     1      52.172  -3.368  72.928  1.00  0.00     0.000 C 
BRANCH   5   6
ATOM      6  C   UNL     1      50.861  -3.958  73.480  1.00  0.00     0.000 C 
BRANCH   6   7
ATOM      7  C   UNL     1      49.761  -4.054  72.409  1.00  0.00     0.006 C 
BRANCH   7   8
ATOM      8  C   UNL     1      48.354  -3.832  72.983  1.00  0.00     0.053 C 
BRANCH   8   9
ATOM      9  C   UNL     1      47.598  -5.123  73.063  1.00  0.00     0.041 C 
ATOM     10  O   UNL     1      48.113  -6.186  72.618  1.00  0.00    -0.550 OA
ATOM     11  O   UNL     1      46.342  -5.166  73.658  1.00  0.00    -0.550 OA
ENDBRANCH   8   9
ENDBRANCH   7   8
ENDBRANCH   6   7
ENDBRANCH   5   6
ENDBRANCH   4   5
ENDBRANCH   3   4
ENDBRANCH   2   3
ENDBRANCH   1   2
BRANCH   1  12
ATOM     12  C   UNL     1      48.894  -0.112  72.880  1.00  0.00     0.000 C 
BRANCH  12  13
ATOM     13  C   UNL     1      49.212  -0.368  74.366  1.00  0.00    -0.000 C 
BRANCH  13  14
ATOM     14  C   UNL     1      47.992  -0.707  75.243  1.00  0.00    -0.000 C 
BRANCH  14  15
ATOM     15  C   UNL     1      48.276  -1.665  76.419  1.00  0.00    -0.000 C 
BRANCH  15  16
ATOM     16  C   UNL     1      49.661  -2.339  76.396  1.00  0.00    -0.000 C 
BRANCH  16  17
ATOM     17  C   UNL     1      49.679  -3.688  77.132  1.00  0.00    -0.000 C 
BRANCH  17  18
ATOM     18  C   UNL     1      48.289  -4.341  77.217  1.00  0.00    -0.000 C 
BRANCH  18  19
ATOM     19  C   UNL     1      48.234  -5.760  76.611  1.00  0.00    -0.003 C 
ATOM     20  C   UNL     1      49.593  -6.216  76.080  1.00  0.00     0.004 C 
ENDBRANCH  18  19
ENDBRANCH  17  18
ENDBRANCH  16  17
ENDBRANCH  15  16
ENDBRANCH  14  15
ENDBRANCH  13  14
ENDBRANCH  12  13
ENDBRANCH   1  12
TORSDOF 16
ENDMDL
MODEL 5
REMARK VINA RESULT:    -4.003      6.475      9.018
REMARK INTER + INTRA:         -10.027
REMARK INTER:                  -7.693
REMARK INTRA:                  -2.334
REMARK UNBOUND:                -2.280
REMARK SMILES CCCCCCCCCCCCCCCCCC(=O)[O-]
REMARK SMILES IDX 10 1 11 2 12 3 13 4 14 5 15 6 16 7 17 8 18 9 19 10 20 11
REMARK SMILES IDX 9 12 8 13 7 14 6 15 5 16 4 17 3 18 2 19 1 20
REMARK H PARENT
REMARK Flexibility Score: inf
ROOT
ATOM      1  C   UNL     1      51.929  -2.723  73.773  1.00  0.00     0.000 C 
ENDROOT
BRANCH   1   2
ATOM      2  C   UNL     1      51.652  -3.765  72.676  1.00  0.00     0.000 C 
BRANCH   2   3
ATOM      3  C   UNL     1      50.157  -3.892  72.343  1.00  0.00     0.000 C 
BRANCH   3   4
ATOM      4  C   UNL     1      49.393  -4.746  73.370  1.00  0.00     0.000 C 
BRANCH   4   5
ATOM      5  C   UNL     1      47.885  -4.450  73.381  1.00  0.00     0.000 C 
BRANCH   5   6
ATOM      6  C   UNL     1      47.083  -5.443  72.519  1.00  0.00     0.000 C 
BRANCH   6   7
ATOM      7  C   UNL     1      47.738  -6.832  72.456  1.00  0.00     0.006 C 
BRANCH   7   8
ATOM      8  C   UNL     1      46.761  -7.964  72.808  1.00  0.00     0.053 C 
BRANCH   8   9
ATOM      9  C   UNL     1      46.644  -8.941  71.679  1.00  0.00     0.041 C 
ATOM     10  O   UNL     1      46.121  -8.587  70.587  1.00  0.00    -0.550 OA
ATOM     11  O   UNL     1      47.141 -10.233  71.814  1.00  0.00    -0.550 OA
ENDBRANCH   8   9
ENDBRANCH   7   8
ENDBRANCH   6   7
ENDBRANCH   5   6
ENDBRANCH   4   5
ENDBRANCH   3   4
ENDBRANCH   2   3
ENDBRANCH   1   2
BRANCH   1  12
ATOM     12  C   UNL     1      52.956  -1.657  73.335  1.00  0.00     0.000 C 
BRANCH  12  13
ATOM     13  C   UNL     1      52.450  -0.728  72.216  1.00  0.00    -0.000 C 
BRANCH  13  14
ATOM     14  C   UNL     1      51.137   0.014  72.528  1.00  0.00    -0.000 C 
BRANCH  14  15
ATOM     15  C   UNL     1      49.890  -0.524  71.795  1.00  0.00    -0.000 C 
BRANCH  15  16
ATOM     16  C   UNL     1      48.591  -0.525  72.623  1.00  0.00    -0.000 C 
BRANCH  16  17
ATOM     17  C   UNL     1      48.826  -0.179  74.102  1.00  0.00    -0.000 C 
BRANCH  17  18
ATOM     18  C   UNL     1      48.386  -1.304  75.055  1.00  0.00    -0.000 C 
BRANCH  18  19
ATOM     19  C   UNL     1      49.411  -1.610  76.167  1.00  0.00    -0.003 C 
ATOM     20  C   UNL     1      49.322  -3.056  76.654  1.00  0.00     0.004 C 
ENDBRANCH  18  19
ENDBRANCH  17  18
ENDBRANCH  16  17
ENDBRANCH  15  16
ENDBRANCH  14  15
ENDBRANCH  13  14
ENDBRANCH  12  13
ENDBRANCH   1  12
TORSDOF 16
ENDMDL
MODEL 6
REMARK VINA RESULT:    -3.969      6.131      9.310
REMARK INTER + INTRA:          -9.961
REMARK INTER:                  -7.231
REMARK INTRA:                  -2.730
REMARK UNBOUND:                -2.280
REMARK SMILES CCCCCCCCCCCCCCCCCC(=O)[O-]
REMARK SMILES IDX 10 1 11 2 12 3 13 4 14 5 15 6 16 7 17 8 18 9 19 10 20 11
REMARK SMILES IDX 9 12 8 13 7 14 6 15 5 16 4 17 3 18 2 19 1 20
REMARK H PARENT
REMARK Flexibility Score: inf
ROOT
ATOM      1  C   UNL     1      51.099   0.039  72.395  1.00  0.00     0.000 C 
ENDROOT
BRANCH   1   2
ATOM      2  C   UNL     1      49.804  -0.493  71.758  1.00  0.00     0.000 C 
BRANCH   2   3
ATOM      3  C   UNL     1      48.603  -0.427  72.715  1.00  0.00     0.000 C 
BRANCH   3   4
ATOM      4  C   UNL     1      48.840   0.532  73.895  1.00  0.00     0.000 C 
BRANCH   4   5
ATOM      5  C   UNL     1      48.810  -0.184  75.254  1.00  0.00     0.000 C 
BRANCH   5   6
ATOM      6  C   UNL     1      48.340  -1.646  75.140  1.00  0.00     0.000 C 
BRANCH   6   7
ATOM      7  C   UNL     1      49.059  -2.575  76.132  1.00  0.00     0.006 C 
BRANCH   7   8
ATOM      8  C   UNL     1      48.095  -3.238  77.128  1.00  0.00     0.053 C 
BRANCH   8   9
ATOM      9  C   UNL     1      47.309  -2.208  77.880  1.00  0.00     0.041 C 
ATOM     10  O   UNL     1      47.874  -1.493  78.752  1.00  0.00    -0.550 OA
ATOM     11  O   UNL     1      45.962  -2.009  77.597  1.00  0.00    -0.550 OA
ENDBRANCH   8   9
ENDBRANCH   7   8
ENDBRANCH   6   7
ENDBRANCH   5   6
ENDBRANCH   4   5
ENDBRANCH   3   4
ENDBRANCH   2   3
ENDBRANCH   1   2
BRANCH   1  12
ATOM     12  C   UNL     1      52.181  -1.053  72.542  1.00  0.00     0.000 C 
BRANCH  12  13
ATOM     13  C   UNL     1      51.796  -2.184  73.515  1.00  0.00    -0.000 C 
BRANCH  13  14
ATOM     14  C   UNL     1      51.644  -3.574  72.869  1.00  0.00    -0.000 C 
BRANCH  14  15
ATOM     15  C   UNL     1      50.271  -3.849  72.221  1.00  0.00    -0.000 C 
BRANCH  15  16
ATOM     16  C   UNL     1      49.316  -4.725  73.054  1.00  0.00    -0.000 C 
BRANCH  16  17
ATOM     17  C   UNL     1      47.836  -4.394  72.808  1.00  0.00    -0.000 C 
BRANCH  17  18
ATOM     18  C   UNL     1      46.919  -4.880  73.943  1.00  0.00    -0.000 C 
BRANCH  18  19
ATOM     19  C   UNL     1      47.113  -6.369  74.302  1.00  0.00    -0.003 C 
ATOM     20  C   UNL     1      47.551  -6.562  75.754  1.00  0.00     0.004 C 
ENDBRANCH  18  19
ENDBRANCH  17  18
ENDBRANCH  16  17
ENDBRANCH  15  16
ENDBRANCH  14  15
ENDBRANCH  13  14
ENDBRANCH  12  13
ENDBRANCH   1  12
TORSDOF 16
ENDMDL
MODEL 7
REMARK VINA RESULT:    -3.954      6.984      9.122
REMARK INTER + INTRA:          -9.931
REMARK INTER:                  -7.642
REMARK INTRA:                  -2.290
REMARK UNBOUND:                -2.280
REMARK SMILES CCCCCCCCCCCCCCCCCC(=O)[O-]
REMARK SMILES IDX 10 1 11 2 12 3 13 4 14 5 15 6 16 7 17 8 18 9 19 10 20 11
REMARK SMILES IDX 9 12 8 13 7 14 6 15 5 16 4 17 3 18 2 19 1 20
REMARK H PARENT
REMARK Flexibility Score: inf
ROOT
ATOM      1  C   UNL     1      48.837   0.261  74.317  1.00  0.00     0.000 C 
ENDROOT
BRANCH   1   2
ATOM      2  C   UNL     1      48.296  -0.786  75.306  1.00  0.00     0.000 C 
BRANCH   2   3
ATOM      3  C   UNL     1      49.321  -1.885  75.625  1.00  0.00     0.000 C 
BRANCH   3   4
ATOM      4  C   UNL     1      48.773  -3.300  75.365  1.00  0.00     0.000 C 
BRANCH   4   5
ATOM      5  C   UNL     1      47.833  -3.356  74.151  1.00  0.00     0.000 C 
BRANCH   5   6
ATOM      6  C   UNL     1      48.490  -4.020  72.927  1.00  0.00     0.000 C 
BRANCH   6   7
ATOM      7  C   UNL     1      48.305  -5.545  72.913  1.00  0.00     0.006 C 
BRANCH   7   8
ATOM      8  C   UNL     1      46.844  -5.965  72.697  1.00  0.00     0.053 C 
BRANCH   8   9
ATOM      9  C   UNL     1      46.315  -6.698  73.892  1.00  0.00     0.041 C 
ATOM     10  O   UNL     1      46.996  -6.756  74.952  1.00  0.00    -0.550 OA
ATOM     11  O   UNL     1      45.056  -7.289  73.852  1.00  0.00    -0.550 OA
ENDBRANCH   8   9
ENDBRANCH   7   8
ENDBRANCH   6   7
ENDBRANCH   5   6
ENDBRANCH   4   5
ENDBRANCH   3   4
ENDBRANCH   2   3
ENDBRANCH   1   2
BRANCH   1  12
ATOM     12  C   UNL     1      48.234   0.111  72.904  1.00  0.00     0.000 C 
BRANCH  12  13
ATOM     13  C   UNL     1      49.202  -0.502  71.875  1.00  0.00    -0.000 C 
BRANCH  13  14
ATOM     14  C   UNL     1      50.540  -0.998  72.455  1.00  0.00    -0.000 C 
BRANCH  14  15
ATOM     15  C   UNL     1      51.759  -0.102  72.148  1.00  0.00    -0.000 C 
BRANCH  15  16
ATOM     16  C   UNL     1      53.123  -0.817  72.175  1.00  0.00    -0.000 C 
BRANCH  16  17
ATOM     17  C   UNL     1      53.264  -1.789  73.357  1.00  0.00    -0.000 C 
BRANCH  17  18
ATOM     18  C   UNL     1      53.278  -3.264  72.920  1.00  0.00    -0.000 C 
BRANCH  18  19
ATOM     19  C   UNL     1      52.252  -4.142  73.667  1.00  0.00    -0.003 C 
ATOM     20  C   UNL     1      52.384  -4.022  75.185  1.00  0.00     0.004 C 
ENDBRANCH  18  19
ENDBRANCH  17  18
ENDBRANCH  16  17
ENDBRANCH  15  16
ENDBRANCH  14  15
ENDBRANCH  13  14
ENDBRANCH  12  13
ENDBRANCH   1  12
TORSDOF 16
ENDMDL
MODEL 8
REMARK VINA RESULT:    -3.941      6.820      8.640
REMARK INTER + INTRA:          -9.907
REMARK INTER:                  -7.311
REMARK INTRA:                  -2.596
REMARK UNBOUND:                -2.280
REMARK SMILES CCCCCCCCCCCCCCCCCC(=O)[O-]
REMARK SMILES IDX 10 1 11 2 12 3 13 4 14 5 15 6 16 7 17 8 18 9 19 10 20 11
REMARK SMILES IDX 9 12 8 13 7 14 6 15 5 16 4 17 3 18 2 19 1 20
REMARK H PARENT
REMARK Flexibility Score: inf
ROOT
ATOM      1  C   UNL     1      51.645  -2.466  75.182  1.00  0.00     0.000 C 
ENDROOT
BRANCH   1   2
ATOM      2  C   UNL     1      50.209  -2.579  75.723  1.00  0.00     0.000 C 
BRANCH   2   3
ATOM      3  C   UNL     1      49.478  -3.828  75.207  1.00  0.00     0.000 C 
BRANCH   3   4
ATOM      4  C   UNL     1      48.255  -3.482  74.340  1.00  0.00     0.000 C 
BRANCH   4   5
ATOM      5  C   UNL     1      48.361  -4.046  72.915  1.00  0.00     0.000 C 
BRANCH   5   6
ATOM      6  C   UNL     1      47.375  -5.202  72.664  1.00  0.00     0.000 C 
BRANCH   6   7
ATOM      7  C   UNL     1      46.352  -5.363  73.800  1.00  0.00     0.006 C 
BRANCH   7   8
ATOM      8  C   UNL     1      45.627  -6.716  73.759  1.00  0.00     0.053 C 
BRANCH   8   9
ATOM      9  C   UNL     1      46.600  -7.841  73.584  1.00  0.00     0.041 C 
ATOM     10  O   UNL     1      47.386  -8.149  74.522  1.00  0.00    -0.550 OA
ATOM     11  O   UNL     1      46.621  -8.574  72.403  1.00  0.00    -0.550 OA
ENDBRANCH   8   9
ENDBRANCH   7   8
ENDBRANCH   6   7
ENDBRANCH   5   6
ENDBRANCH   4   5
ENDBRANCH   3   4
ENDBRANCH   2   3
ENDBRANCH   1   2
BRANCH   1  12
ATOM     12  C   UNL     1      51.896  -3.386  73.968  1.00  0.00     0.000 C 
BRANCH  12  13
ATOM     13  C   UNL     1      51.926  -2.644  72.618  1.00  0.00    -0.000 C 
BRANCH  13  14
ATOM     14  C   UNL     1      52.305  -1.154  72.703  1.00  0.00    -0.000 C 
BRANCH  14  15
ATOM     15  C   UNL     1      51.172  -0.168  72.347  1.00  0.00    -0.000 C 
BRANCH  15  16
ATOM     16  C   UNL     1      49.880  -0.817  71.817  1.00  0.00    -0.000 C 
BRANCH  16  17
ATOM     17  C   UNL     1      48.621  -0.315  72.542  1.00  0.00    -0.000 C 
BRANCH  17  18
ATOM     18  C   UNL     1      48.934   0.350  73.893  1.00  0.00    -0.000 C 
BRANCH  18  19
ATOM     19  C   UNL     1      47.849   0.116  74.966  1.00  0.00    -0.003 C 
ATOM     20  C   UNL     1      48.141   0.877  76.259  1.00  0.00     0.004 C 
ENDBRANCH  18  19
ENDBRANCH  17  18
ENDBRANCH  16  17
ENDBRANCH  15  16
ENDBRANCH  14  15
ENDBRANCH  13  14
ENDBRANCH  12  13
ENDBRANCH   1  12
TORSDOF 16
ENDMDL
MODEL 9
REMARK VINA RESULT:    -3.939      7.844     10.533
REMARK INTER + INTRA:          -9.903
REMARK INTER:                  -7.381
REMARK INTRA:                  -2.522
REMARK UNBOUND:                -2.280
REMARK SMILES CCCCCCCCCCCCCCCCCC(=O)[O-]
REMARK SMILES IDX 10 1 11 2 12 3 13 4 14 5 15 6 16 7 17 8 18 9 19 10 20 11
REMARK SMILES IDX 9 12 8 13 7 14 6 15 5 16 4 17 3 18 2 19 1 20
REMARK H PARENT
REMARK Flexibility Score: inf
ROOT
ATOM      1  C   UNL     1      53.115  -1.779  73.361  1.00  0.00     0.000 C 
ENDROOT
BRANCH   1   2
ATOM      2  C   UNL     1      52.718  -0.826  72.222  1.00  0.00     0.000 C 
BRANCH   2   3
ATOM      3  C   UNL     1      51.323  -0.212  72.422  1.00  0.00     0.000 C 
BRANCH   3   4
ATOM      4  C   UNL     1      50.201  -1.094  71.844  1.00  0.00     0.000 C 
BRANCH   4   5
ATOM      5  C   UNL     1      48.972  -1.165  72.763  1.00  0.00     0.000 C 
BRANCH   5   6
ATOM      6  C   UNL     1      49.031  -0.136  73.907  1.00  0.00     0.000 C 
BRANCH   6   7
ATOM      7  C   UNL     1      48.272   1.159  73.575  1.00  0.00     0.006 C 
BRANCH   7   8
ATOM      8  C   UNL     1      48.526   2.275  74.599  1.00  0.00     0.053 C 
BRANCH   8   9
ATOM      9  C   UNL     1      48.459   3.624  73.951  1.00  0.00     0.041 C 
ATOM     10  O   UNL     1      49.445   4.408  74.017  1.00  0.00    -0.550 OA
ATOM     11  O   UNL     1      47.325   4.007  73.242  1.00  0.00    -0.550 OA
ENDBRANCH   8   9
ENDBRANCH   7   8
ENDBRANCH   6   7
ENDBRANCH   5   6
ENDBRANCH   4   5
ENDBRANCH   3   4
ENDBRANCH   2   3
ENDBRANCH   1   2
BRANCH   1  12
ATOM     12  C   UNL     1      52.901  -3.263  72.997  1.00  0.00     0.000 C 
BRANCH  12  13
ATOM     13  C   UNL     1      51.877  -3.984  73.895  1.00  0.00    -0.000 C 
BRANCH  13  14
ATOM     14  C   UNL     1      51.241  -3.107  74.990  1.00  0.00    -0.000 C 
BRANCH  14  15
ATOM     15  C   UNL     1      50.140  -3.796  75.823  1.00  0.00    -0.000 C 
BRANCH  15  16
ATOM     16  C   UNL     1      48.964  -2.890  76.235  1.00  0.00    -0.000 C 
BRANCH  16  17
ATOM     17  C   UNL     1      47.640  -3.291  75.564  1.00  0.00    -0.000 C 
BRANCH  17  18
ATOM     18  C   UNL     1      47.711  -4.664  74.875  1.00  0.00    -0.000 C 
BRANCH  18  19
ATOM     19  C   UNL     1      47.436  -4.610  73.357  1.00  0.00    -0.003 C 
ATOM     20  C   UNL     1      48.670  -4.974  72.531  1.00  0.00     0.004 C 
ENDBRANCH  18  19
ENDBRANCH  17  18
ENDBRANCH  16  17
ENDBRANCH  15  16
ENDBRANCH  14  15
ENDBRANCH  13  14
ENDBRANCH  12  13
ENDBRANCH   1  12
TORSDOF 16
ENDMDL
