MODEL 1
REMARK VINA RESULT:    -3.171      0.000      0.000
REMARK INTER + INTRA:          -3.704
REMARK INTER:                  -3.635
REMARK INTRA:                  -0.069
REMARK UNBOUND:                -0.069
REMARK SMILES COc1cc(C=O)ccc1O
REMARK SMILES IDX 3 1 10 2 9 3 8 4 5 5 4 6 2 7 1 8 11 9 6 11 7 12
REMARK H PARENT 11 10
REMARK Flexibility Score: inf
ROOT
ATOM      1  C   UNL     1     228.737 231.798 233.768  1.00  0.00     0.161 A 
ATOM      2  C   UNL     1     227.352 231.810 233.520  1.00  0.00     0.157 A 
ATOM      3  C   UNL     1     226.539 230.803 234.046  1.00  0.00     0.051 A 
ATOM      4  C   UNL     1     227.088 229.780 234.821  1.00  0.00     0.015 A 
ATOM      5  C   UNL     1     228.468 229.753 235.079  1.00  0.00     0.018 A 
ATOM      6  C   UNL     1     229.287 230.763 234.551  1.00  0.00     0.062 A 
ENDROOT
BRANCH   1   7
ATOM      7  O   UNL     1     229.531 232.822 233.226  1.00  0.00    -0.493 OA
ATOM      8  C   UNL     1     230.564 232.623 232.266  1.00  0.00     0.278 C 
ENDBRANCH   1   7
BRANCH   2   9
ATOM      9  O   UNL     1     226.766 232.816 232.750  1.00  0.00    -0.504 OA
ATOM     10  H   UNL     1     225.902 232.673 232.242  1.00  0.00     0.293 HD
ENDBRANCH   2   9
BRANCH   5  11
ATOM     11  C   UNL     1     229.068 228.680 235.895  1.00  0.00     0.260 C 
ATOM     12  O   UNL     1     230.102 228.890 236.584  1.00  0.00    -0.298 OA
ENDBRANCH   5  11
TORSDOF 3
ENDMDL
MODEL 2
REMARK VINA RESULT:    -3.114     11.372     13.920
REMARK INTER + INTRA:          -3.639
REMARK INTER:                  -3.580
REMARK INTRA:                  -0.058
REMARK UNBOUND:                -0.069
REMARK SMILES COc1cc(C=O)ccc1O
REMARK SMILES IDX 3 1 10 2 9 3 8 4 5 5 4 6 2 7 1 8 11 9 6 11 7 12
REMARK H PARENT 11 10
REMARK Flexibility Score: inf
ROOT
ATOM      1  C   UNL     1     239.823 236.885 233.874  1.00  0.00     0.161 A 
ATOM      2  C   UNL     1     241.222 236.857 233.723  1.00  0.00     0.157 A 
ATOM      3  C   UNL     1     242.010 237.839 234.329  1.00  0.00     0.051 A 
ATOM      4  C   UNL     1     241.422 238.852 235.088  1.00  0.00     0.015 A 
ATOM      5  C   UNL     1     240.028 238.896 235.250  1.00  0.00     0.018 A 
ATOM      6  C   UNL     1     239.234 237.911 234.641  1.00  0.00     0.062 A 
ENDROOT
BRANCH   1   7
ATOM      7  O   UNL     1     239.055 235.886 233.254  1.00  0.00    -0.493 OA
ATOM      8  C   UNL     1     237.830 236.118 232.565  1.00  0.00     0.278 C 
ENDBRANCH   1   7
BRANCH   2   9
ATOM      9  O   UNL     1     241.846 235.860 232.973  1.00  0.00    -0.504 OA
ATOM     10  H   UNL     1     242.606 235.302 233.342  1.00  0.00     0.293 HD
ENDBRANCH   2   9
BRANCH   5  11
ATOM     11  C   UNL     1     239.387 239.958 236.047  1.00  0.00     0.260 C 
ATOM     12  O   UNL     1     238.291 239.757 236.636  1.00  0.00    -0.298 OA
ENDBRANCH   5  11
TORSDOF 3
ENDMDL
MODEL 3
REMARK VINA RESULT:    -3.109      8.517      9.847
REMARK INTER + INTRA:          -3.633
REMARK INTER:                  -3.575
REMARK INTRA:                  -0.058
REMARK UNBOUND:                -0.069
REMARK SMILES COc1cc(C=O)ccc1O
REMARK SMILES IDX 3 1 10 2 9 3 8 4 5 5 4 6 2 7 1 8 11 9 6 11 7 12
REMARK H PARENT 11 10
REMARK Flexibility Score: inf
ROOT
ATOM      1  C   UNL     1     236.774 228.736 233.650  1.00  0.00     0.161 A 
ATOM      2  C   UNL     1     236.757 227.328 233.628  1.00  0.00     0.157 A 
ATOM      3  C   UNL     1     237.691 226.606 234.374  1.00  0.00     0.051 A 
ATOM      4  C   UNL     1     238.646 227.268 235.148  1.00  0.00     0.015 A 
ATOM      5  C   UNL     1     238.678 228.671 235.182  1.00  0.00     0.018 A 
ATOM      6  C   UNL     1     237.741 229.400 234.432  1.00  0.00     0.062 A 
ENDROOT
BRANCH   1   7
ATOM      7  O   UNL     1     235.824 229.436 232.890  1.00  0.00    -0.493 OA
ATOM      8  C   UNL     1     236.007 230.755 232.383  1.00  0.00     0.278 C 
ENDBRANCH   1   7
BRANCH   2   9
ATOM      9  O   UNL     1     235.818 226.631 232.867  1.00  0.00    -0.504 OA
ATOM     10  H   UNL     1     235.142 226.004 233.286  1.00  0.00     0.293 HD
ENDBRANCH   2   9
BRANCH   5  11
ATOM     11  C   UNL     1     239.679 229.390 235.993  1.00  0.00     0.260 C 
ATOM     12  O   UNL     1     240.370 228.787 236.857  1.00  0.00    -0.298 OA
ENDBRANCH   5  11
TORSDOF 3
ENDMDL
MODEL 4
REMARK VINA RESULT:    -3.103      8.377      9.739
REMARK INTER + INTRA:          -3.625
REMARK INTER:                  -3.571
REMARK INTRA:                  -0.054
REMARK UNBOUND:                -0.069
REMARK SMILES COc1cc(C=O)ccc1O
REMARK SMILES IDX 3 1 10 2 9 3 8 4 5 5 4 6 2 7 1 8 11 9 6 11 7 12
REMARK H PARENT 11 10
REMARK Flexibility Score: inf
ROOT
ATOM      1  C   UNL     1     232.107 239.694 233.377  1.00  0.00     0.161 A 
ATOM      2  C   UNL     1     232.079 241.099 233.450  1.00  0.00     0.157 A 
ATOM      3  C   UNL     1     231.243 241.735 234.372  1.00  0.00     0.051 A 
ATOM      4  C   UNL     1     230.431 240.987 235.227  1.00  0.00     0.015 A 
ATOM      5  C   UNL     1     230.446 239.584 235.167  1.00  0.00     0.018 A 
ATOM      6  C   UNL     1     231.285 238.943 234.242  1.00  0.00     0.062 A 
ENDROOT
BRANCH   1   7
ATOM      7  O   UNL     1     232.957 239.082 232.441  1.00  0.00    -0.493 OA
ATOM      8  C   UNL     1     232.816 237.743 231.976  1.00  0.00     0.278 C 
ENDBRANCH   1   7
BRANCH   2   9
ATOM      9  O   UNL     1     232.875 241.881 232.613  1.00  0.00    -0.504 OA
ATOM     10  H   UNL     1     233.872 241.986 232.759  1.00  0.00     0.293 HD
ENDBRANCH   2   9
BRANCH   5  11
ATOM     11  C   UNL     1     229.596 238.775 236.061  1.00  0.00     0.260 C 
ATOM     12  O   UNL     1     228.369 239.030 236.197  1.00  0.00    -0.298 OA
ENDBRANCH   5  11
TORSDOF 3
ENDMDL
MODEL 5
REMARK VINA RESULT:    -3.033     12.936     14.349
REMARK INTER + INTRA:          -3.545
REMARK INTER:                  -3.482
REMARK INTRA:                  -0.063
REMARK UNBOUND:                -0.069
REMARK SMILES COc1cc(C=O)ccc1O
REMARK SMILES IDX 3 1 10 2 9 3 8 4 5 5 4 6 2 7 1 8 11 9 6 11 7 12
REMARK H PARENT 11 10
REMARK Flexibility Score: inf
ROOT
ATOM      1  C   UNL     1     241.535 237.965 234.084  1.00  0.00     0.161 A 
ATOM      2  C   UNL     1     241.084 236.685 233.708  1.00  0.00     0.157 A 
ATOM      3  C   UNL     1     239.864 236.204 234.190  1.00  0.00     0.051 A 
ATOM      4  C   UNL     1     239.082 236.984 235.044  1.00  0.00     0.015 A 
ATOM      5  C   UNL     1     239.516 238.262 235.429  1.00  0.00     0.018 A 
ATOM      6  C   UNL     1     240.741 238.748 234.947  1.00  0.00     0.062 A 
ENDROOT
BRANCH   1   7
ATOM      7  O   UNL     1     242.765 238.423 233.585  1.00  0.00    -0.493 OA
ATOM      8  C   UNL     1     242.959 239.677 232.937  1.00  0.00     0.278 C 
ENDBRANCH   1   7
BRANCH   2   9
ATOM      9  O   UNL     1     241.838 235.877 232.856  1.00  0.00    -0.504 OA
ATOM     10  H   UNL     1     241.697 235.871 231.853  1.00  0.00     0.293 HD
ENDBRANCH   2   9
BRANCH   5  11
ATOM     11  C   UNL     1     238.704 239.102 236.331  1.00  0.00     0.260 C 
ATOM     12  O   UNL     1     239.000 240.309 236.536  1.00  0.00    -0.298 OA
ENDBRANCH   5  11
TORSDOF 3
ENDMDL
MODEL 6
REMARK VINA RESULT:    -3.001      1.375      2.926
REMARK INTER + INTRA:          -3.509
REMARK INTER:                  -3.437
REMARK INTRA:                  -0.072
REMARK UNBOUND:                -0.069
REMARK SMILES COc1cc(C=O)ccc1O
REMARK SMILES IDX 3 1 10 2 9 3 8 4 5 5 4 6 2 7 1 8 11 9 6 11 7 12
REMARK H PARENT 11 10
REMARK Flexibility Score: inf
ROOT
ATOM      1  C   UNL     1     226.699 230.344 234.107  1.00  0.00     0.161 A 
ATOM      2  C   UNL     1     227.305 231.566 233.759  1.00  0.00     0.157 A 
ATOM      3  C   UNL     1     228.611 231.840 234.170  1.00  0.00     0.051 A 
ATOM      4  C   UNL     1     229.327 230.910 234.927  1.00  0.00     0.015 A 
ATOM      5  C   UNL     1     228.739 229.687 235.283  1.00  0.00     0.018 A 
ATOM      6  C   UNL     1     227.426 229.408 234.871  1.00  0.00     0.062 A 
ENDROOT
BRANCH   1   7
ATOM      7  O   UNL     1     225.384 230.094 233.680  1.00  0.00    -0.493 OA
ATOM      8  C   UNL     1     225.024 229.137 232.688  1.00  0.00     0.278 C 
ENDBRANCH   1   7
BRANCH   2   9
ATOM      9  O   UNL     1     226.622 232.520 233.004  1.00  0.00    -0.504 OA
ATOM     10  H   UNL     1     225.650 232.750 233.176  1.00  0.00     0.293 HD
ENDBRANCH   2   9
BRANCH   5  11
ATOM     11  C   UNL     1     229.478 228.691 236.082  1.00  0.00     0.260 C 
ATOM     12  O   UNL     1     228.924 228.085 237.038  1.00  0.00    -0.298 OA
ENDBRANCH   5  11
TORSDOF 3
ENDMDL
MODEL 7
REMARK VINA RESULT:    -2.994      8.711     10.356
REMARK INTER + INTRA:          -3.501
REMARK INTER:                  -3.426
REMARK INTRA:                  -0.075
REMARK UNBOUND:                -0.069
REMARK SMILES COc1cc(C=O)ccc1O
REMARK SMILES IDX 3 1 10 2 9 3 8 4 5 5 4 6 2 7 1 8 11 9 6 11 7 12
REMARK H PARENT 11 10
REMARK Flexibility Score: inf
ROOT
ATOM      1  C   UNL     1     230.362 241.720 234.156  1.00  0.00     0.161 A 
ATOM      2  C   UNL     1     231.569 241.126 233.742  1.00  0.00     0.157 A 
ATOM      3  C   UNL     1     231.863 239.811 234.110  1.00  0.00     0.051 A 
ATOM      4  C   UNL     1     230.968 239.075 234.889  1.00  0.00     0.015 A 
ATOM      5  C   UNL     1     229.759 239.651 235.311  1.00  0.00     0.018 A 
ATOM      6  C   UNL     1     229.461 240.973 234.942  1.00  0.00     0.062 A 
ENDROOT
BRANCH   1   7
ATOM      7  O   UNL     1     230.091 243.043 233.771  1.00  0.00    -0.493 OA
ATOM      8  C   UNL     1     229.175 243.416 232.747  1.00  0.00     0.278 C 
ENDBRANCH   1   7
BRANCH   2   9
ATOM      9  O   UNL     1     232.488 241.830 232.963  1.00  0.00    -0.504 OA
ATOM     10  H   UNL     1     233.295 242.290 233.365  1.00  0.00     0.293 HD
ENDBRANCH   2   9
BRANCH   5  11
ATOM     11  C   UNL     1     228.800 238.891 236.134  1.00  0.00     0.260 C 
ATOM     12  O   UNL     1     228.022 239.477 236.933  1.00  0.00    -0.298 OA
ENDBRANCH   5  11
TORSDOF 3
ENDMDL
MODEL 8
REMARK VINA RESULT:    -2.985      9.468     10.827
REMARK INTER + INTRA:          -3.490
REMARK INTER:                  -3.423
REMARK INTRA:                  -0.067
REMARK UNBOUND:                -0.069
REMARK SMILES COc1cc(C=O)ccc1O
REMARK SMILES IDX 3 1 10 2 9 3 8 4 5 5 4 6 2 7 1 8 11 9 6 11 7 12
REMARK H PARENT 11 10
REMARK Flexibility Score: inf
ROOT
ATOM      1  C   UNL     1     238.330 226.836 234.139  1.00  0.00     0.161 A 
ATOM      2  C   UNL     1     237.079 227.436 233.902  1.00  0.00     0.157 A 
ATOM      3  C   UNL     1     236.788 228.687 234.454  1.00  0.00     0.051 A 
ATOM      4  C   UNL     1     237.730 229.351 235.242  1.00  0.00     0.015 A 
ATOM      5  C   UNL     1     238.983 228.767 235.489  1.00  0.00     0.018 A 
ATOM      6  C   UNL     1     239.278 227.511 234.935  1.00  0.00     0.062 A 
ENDROOT
BRANCH   1   7
ATOM      7  O   UNL     1     238.596 225.579 233.572  1.00  0.00    -0.493 OA
ATOM      8  C   UNL     1     239.727 225.281 232.759  1.00  0.00     0.278 C 
ENDBRANCH   1   7
BRANCH   2   9
ATOM      9  O   UNL     1     236.113 226.804 233.120  1.00  0.00    -0.504 OA
ATOM     10  H   UNL     1     235.175 226.627 233.459  1.00  0.00     0.293 HD
ENDBRANCH   2   9
BRANCH   5  11
ATOM     11  C   UNL     1     239.992 229.452 236.318  1.00  0.00     0.260 C 
ATOM     12  O   UNL     1     239.775 230.601 236.788  1.00  0.00    -0.298 OA
ENDBRANCH   5  11
TORSDOF 3
ENDMDL
MODEL 9
REMARK VINA RESULT:    -2.958      7.491      9.086
REMARK INTER + INTRA:          -3.459
REMARK INTER:                  -3.383
REMARK INTRA:                  -0.076
REMARK UNBOUND:                -0.069
REMARK SMILES COc1cc(C=O)ccc1O
REMARK SMILES IDX 3 1 10 2 9 3 8 4 5 5 4 6 2 7 1 8 11 9 6 11 7 12
REMARK H PARENT 11 10
REMARK Flexibility Score: inf
ROOT
ATOM      1  C   UNL     1     236.570 227.686 234.237  1.00  0.00     0.161 A 
ATOM      2  C   UNL     1     235.873 227.462 235.439  1.00  0.00     0.157 A 
ATOM      3  C   UNL     1     235.248 228.526 236.094  1.00  0.00     0.051 A 
ATOM      4  C   UNL     1     235.308 229.817 235.565  1.00  0.00     0.015 A 
ATOM      5  C   UNL     1     235.999 230.059 234.368  1.00  0.00     0.018 A 
ATOM      6  C   UNL     1     236.628 228.992 233.708  1.00  0.00     0.062 A 
ENDROOT
BRANCH   1   7
ATOM      7  O   UNL     1     237.189 226.598 233.601  1.00  0.00    -0.493 OA
ATOM      8  C   UNL     1     238.565 226.256 233.739  1.00  0.00     0.278 C 
ENDBRANCH   1   7
BRANCH   2   9
ATOM      9  O   UNL     1     235.792 226.186 235.998  1.00  0.00    -0.504 OA
ATOM     10  H   UNL     1     236.112 225.360 235.507  1.00  0.00     0.293 HD
ENDBRANCH   2   9
BRANCH   5  11
ATOM     11  C   UNL     1     236.073 231.416 233.793  1.00  0.00     0.260 C 
ATOM     12  O   UNL     1     236.593 231.615 232.662  1.00  0.00    -0.298 OA
ENDBRANCH   5  11
TORSDOF 3
ENDMDL
