MODEL 1
REMARK VINA RESULT:    -3.928      0.000      0.000
REMARK INTER + INTRA:          -7.412
REMARK INTER:                  -6.224
REMARK INTRA:                  -1.188
REMARK UNBOUND:                -1.188
REMARK SMILES CCCCCCCCCCCC(=O)[O-]
REMARK SMILES IDX 7 1 8 2 9 3 10 4 11 5 12 6 13 7 14 8 6 9 5 10 4 11 3 12 2 13
REMARK SMILES IDX 1 14
REMARK H PARENT
REMARK Flexibility Score: inf
ROOT
ATOM      1  C   UNL     1       1.519   3.530   7.661  1.00  0.00     0.000 C 
ENDROOT
BRANCH   1   2
ATOM      2  C   UNL     1       0.114   2.972   7.380  1.00  0.00     0.000 C 
BRANCH   2   3
ATOM      3  C   UNL     1      -0.021   2.403   5.958  1.00  0.00     0.000 C 
BRANCH   3   4
ATOM      4  C   UNL     1      -1.180   3.042   5.172  1.00  0.00     0.006 C 
BRANCH   4   5
ATOM      5  C   UNL     1      -2.244   3.646   6.099  1.00  0.00     0.053 C 
BRANCH   5   6
ATOM      6  C   UNL     1      -3.563   2.952   5.957  1.00  0.00     0.041 C 
ATOM      7  O   UNL     1      -4.633   3.565   6.215  1.00  0.00    -0.550 OA
ATOM      8  O   UNL     1      -3.614   1.640   5.506  1.00  0.00    -0.550 OA
ENDBRANCH   5   6
ENDBRANCH   4   5
ENDBRANCH   3   4
ENDBRANCH   2   3
ENDBRANCH   1   2
BRANCH   1   9
ATOM      9  C   UNL     1       2.240   3.987   6.382  1.00  0.00     0.000 C 
BRANCH   9  10
ATOM     10  C   UNL     1       3.678   3.456   6.288  1.00  0.00    -0.000 C 
BRANCH  10  11
ATOM     11  C   UNL     1       4.003   2.539   7.474  1.00  0.00    -0.000 C 
BRANCH  11  12
ATOM     12  C   UNL     1       4.308   1.111   6.997  1.00  0.00    -0.000 C 
BRANCH  12  13
ATOM     13  C   UNL     1       3.203   0.113   7.376  1.00  0.00    -0.003 C 
ATOM     14  C   UNL     1       2.437  -0.411   6.161  1.00  0.00     0.004 C 
ENDBRANCH  12  13
ENDBRANCH  11  12
ENDBRANCH  10  11
ENDBRANCH   9  10
ENDBRANCH   1   9
TORSDOF 10
ENDMDL
MODEL 2
REMARK VINA RESULT:    -3.915      2.935      6.230
REMARK INTER + INTRA:          -7.391
REMARK INTER:                  -6.407
REMARK INTRA:                  -0.984
REMARK UNBOUND:                -1.188
REMARK SMILES CCCCCCCCCCCC(=O)[O-]
REMARK SMILES IDX 7 1 8 2 9 3 10 4 11 5 12 6 13 7 14 8 6 9 5 10 4 11 3 12 2 13
REMARK SMILES IDX 1 14
REMARK H PARENT
REMARK Flexibility Score: inf
ROOT
ATOM      1  C   UNL     1      -0.600   4.955   5.840  1.00  0.00     0.000 C 
ENDROOT
BRANCH   1   2
ATOM      2  C   UNL     1       0.893   4.692   6.103  1.00  0.00     0.000 C 
BRANCH   2   3
ATOM      3  C   UNL     1       1.135   3.930   7.416  1.00  0.00     0.000 C 
BRANCH   3   4
ATOM      4  C   UNL     1       2.154   2.787   7.259  1.00  0.00     0.006 C 
BRANCH   4   5
ATOM      5  C   UNL     1       1.472   1.438   6.991  1.00  0.00     0.053 C 
BRANCH   5   6
ATOM      6  C   UNL     1       2.408   0.460   6.352  1.00  0.00     0.041 C 
ATOM      7  O   UNL     1       1.964  -0.607   5.850  1.00  0.00    -0.550 OA
ATOM      8  O   UNL     1       3.766   0.741   6.279  1.00  0.00    -0.550 OA
ENDBRANCH   5   6
ENDBRANCH   4   5
ENDBRANCH   3   4
ENDBRANCH   2   3
ENDBRANCH   1   2
BRANCH   1   9
ATOM      9  C   UNL     1      -1.162   4.082   4.705  1.00  0.00     0.000 C 
BRANCH   9  10
ATOM     10  C   UNL     1      -1.523   2.664   5.169  1.00  0.00    -0.000 C 
BRANCH  10  11
ATOM     11  C   UNL     1      -2.523   2.705   6.331  1.00  0.00    -0.000 C 
BRANCH  11  12
ATOM     12  C   UNL     1      -3.938   3.028   5.827  1.00  0.00    -0.000 C 
BRANCH  12  13
ATOM     13  C   UNL     1      -4.547   4.255   6.524  1.00  0.00    -0.003 C 
ATOM     14  C   UNL     1      -5.178   5.241   5.541  1.00  0.00     0.004 C 
ENDBRANCH  12  13
ENDBRANCH  11  12
ENDBRANCH  10  11
ENDBRANCH   9  10
ENDBRANCH   1   9
TORSDOF 10
ENDMDL
MODEL 3
REMARK VINA RESULT:    -3.878     12.987     14.350
REMARK INTER + INTRA:          -7.334
REMARK INTER:                  -5.922
REMARK INTRA:                  -1.412
REMARK UNBOUND:                -1.188
REMARK SMILES CCCCCCCCCCCC(=O)[O-]
REMARK SMILES IDX 7 1 8 2 9 3 10 4 11 5 12 6 13 7 14 8 6 9 5 10 4 11 3 12 2 13
REMARK SMILES IDX 1 14
REMARK H PARENT
REMARK Flexibility Score: inf
ROOT
ATOM      1  C   UNL     1      -4.375  -1.093  -7.849  1.00  0.00     0.000 C 
ENDROOT
BRANCH   1   2
ATOM      2  C   UNL     1      -5.791  -1.694  -7.882  1.00  0.00     0.000 C 
BRANCH   2   3
ATOM      3  C   UNL     1      -6.187  -2.343  -6.546  1.00  0.00     0.000 C 
BRANCH   3   4
ATOM      4  C   UNL     1      -5.294  -3.543  -6.182  1.00  0.00     0.006 C 
BRANCH   4   5
ATOM      5  C   UNL     1      -4.953  -3.576  -4.685  1.00  0.00     0.053 C 
BRANCH   5   6
ATOM      6  C   UNL     1      -4.657  -4.966  -4.214  1.00  0.00     0.041 C 
ATOM      7  O   UNL     1      -4.827  -5.275  -3.004  1.00  0.00    -0.550 OA
ATOM      8  O   UNL     1      -4.227  -5.931  -5.116  1.00  0.00    -0.550 OA
ENDBRANCH   5   6
ENDBRANCH   4   5
ENDBRANCH   3   4
ENDBRANCH   2   3
ENDBRANCH   1   2
BRANCH   1   9
ATOM      9  C   UNL     1      -4.214  -0.019  -6.760  1.00  0.00     0.000 C 
BRANCH   9  10
ATOM     10  C   UNL     1      -3.107  -0.359  -5.750  1.00  0.00    -0.000 C 
BRANCH  10  11
ATOM     11  C   UNL     1      -2.163  -1.430  -6.310  1.00  0.00    -0.000 C 
BRANCH  11  12
ATOM     12  C   UNL     1      -1.515  -2.238  -5.176  1.00  0.00    -0.000 C 
BRANCH  12  13
ATOM     13  C   UNL     1      -1.339  -3.722  -5.535  1.00  0.00    -0.003 C 
ATOM     14  C   UNL     1      -0.930  -4.576  -4.335  1.00  0.00     0.004 C 
ENDBRANCH  12  13
ENDBRANCH  11  12
ENDBRANCH  10  11
ENDBRANCH   9  10
ENDBRANCH   1   9
TORSDOF 10
ENDMDL
MODEL 4
REMARK VINA RESULT:    -3.806      1.203      2.421
REMARK INTER + INTRA:          -7.218
REMARK INTER:                  -5.849
REMARK INTRA:                  -1.369
REMARK UNBOUND:                -1.188
REMARK SMILES CCCCCCCCCCCC(=O)[O-]
REMARK SMILES IDX 7 1 8 2 9 3 10 4 11 5 12 6 13 7 14 8 6 9 5 10 4 11 3 12 2 13
REMARK SMILES IDX 1 14
REMARK H PARENT
REMARK Flexibility Score: inf
ROOT
ATOM      1  C   UNL     1       1.106   2.233   7.957  1.00  0.00     0.000 C 
ENDROOT
BRANCH   1   2
ATOM      2  C   UNL     1       0.974   3.739   7.672  1.00  0.00     0.000 C 
BRANCH   2   3
ATOM      3  C   UNL     1       1.013   4.061   6.169  1.00  0.00     0.000 C 
BRANCH   3   4
ATOM      4  C   UNL     1      -0.323   4.619   5.647  1.00  0.00     0.006 C 
BRANCH   4   5
ATOM      5  C   UNL     1      -1.112   3.574   4.845  1.00  0.00     0.053 C 
BRANCH   5   6
ATOM      6  C   UNL     1      -2.173   2.922   5.676  1.00  0.00     0.041 C 
ATOM      7  O   UNL     1      -2.785   1.909   5.242  1.00  0.00    -0.550 OA
ATOM      8  O   UNL     1      -2.463   3.409   6.943  1.00  0.00    -0.550 OA
ENDBRANCH   5   6
ENDBRANCH   4   5
ENDBRANCH   3   4
ENDBRANCH   2   3
ENDBRANCH   1   2
BRANCH   1   9
ATOM      9  C   UNL     1       1.202   1.395   6.671  1.00  0.00     0.000 C 
BRANCH   9  10
ATOM     10  C   UNL     1       2.184   0.221   6.799  1.00  0.00    -0.000 C 
BRANCH  10  11
ATOM     11  C   UNL     1       3.300   0.546   7.800  1.00  0.00    -0.000 C 
BRANCH  11  12
ATOM     12  C   UNL     1       4.562   1.039   7.075  1.00  0.00    -0.000 C 
BRANCH  12  13
ATOM     13  C   UNL     1       4.832   2.533   7.311  1.00  0.00    -0.003 C 
ATOM     14  C   UNL     1       4.554   3.387   6.075  1.00  0.00     0.004 C 
ENDBRANCH  12  13
ENDBRANCH  11  12
ENDBRANCH  10  11
ENDBRANCH   9  10
ENDBRANCH   1   9
TORSDOF 10
ENDMDL
MODEL 5
REMARK VINA RESULT:    -3.791      1.177      2.442
REMARK INTER + INTRA:          -7.195
REMARK INTER:                  -5.861
REMARK INTRA:                  -1.334
REMARK UNBOUND:                -1.188
REMARK SMILES CCCCCCCCCCCC(=O)[O-]
REMARK SMILES IDX 7 1 8 2 9 3 10 4 11 5 12 6 13 7 14 8 6 9 5 10 4 11 3 12 2 13
REMARK SMILES IDX 1 14
REMARK H PARENT
REMARK Flexibility Score: inf
ROOT
ATOM      1  C   UNL     1       3.921   3.727   6.602  1.00  0.00     0.000 C 
ENDROOT
BRANCH   1   2
ATOM      2  C   UNL     1       2.407   3.802   6.343  1.00  0.00     0.000 C 
BRANCH   2   3
ATOM      3  C   UNL     1       1.578   3.529   7.608  1.00  0.00     0.000 C 
BRANCH   3   4
ATOM      4  C   UNL     1       0.123   3.138   7.291  1.00  0.00     0.006 C 
BRANCH   4   5
ATOM      5  C   UNL     1       0.008   2.365   5.970  1.00  0.00     0.053 C 
BRANCH   5   6
ATOM      6  C   UNL     1      -1.218   2.755   5.204  1.00  0.00     0.041 C 
ATOM      7  O   UNL     1      -1.111   3.340   4.093  1.00  0.00    -0.550 OA
ATOM      8  O   UNL     1      -2.477   2.442   5.697  1.00  0.00    -0.550 OA
ENDBRANCH   5   6
ENDBRANCH   4   5
ENDBRANCH   3   4
ENDBRANCH   2   3
ENDBRANCH   1   2
BRANCH   1   9
ATOM      9  C   UNL     1       4.281   2.730   7.717  1.00  0.00     0.000 C 
BRANCH   9  10
ATOM     10  C   UNL     1       5.158   1.572   7.218  1.00  0.00    -0.000 C 
BRANCH  10  11
ATOM     11  C   UNL     1       4.433   0.229   7.369  1.00  0.00    -0.000 C 
BRANCH  11  12
ATOM     12  C   UNL     1       3.143   0.391   8.187  1.00  0.00    -0.000 C 
BRANCH  12  13
ATOM     13  C   UNL     1       1.989  -0.468   7.646  1.00  0.00    -0.003 C 
ATOM     14  C   UNL     1       2.113  -0.749   6.148  1.00  0.00     0.004 C 
ENDBRANCH  12  13
ENDBRANCH  11  12
ENDBRANCH  10  11
ENDBRANCH   9  10
ENDBRANCH   1   9
TORSDOF 10
ENDMDL
MODEL 6
REMARK VINA RESULT:    -3.776      1.117      2.227
REMARK INTER + INTRA:          -7.171
REMARK INTER:                  -5.979
REMARK INTRA:                  -1.192
REMARK UNBOUND:                -1.188
REMARK SMILES CCCCCCCCCCCC(=O)[O-]
REMARK SMILES IDX 7 1 8 2 9 3 10 4 11 5 12 6 13 7 14 8 6 9 5 10 4 11 3 12 2 13
REMARK SMILES IDX 1 14
REMARK H PARENT
REMARK Flexibility Score: inf
ROOT
ATOM      1  C   UNL     1       1.216   4.694   6.284  1.00  0.00     0.000 C 
ENDROOT
BRANCH   1   2
ATOM      2  C   UNL     1      -0.192   5.160   5.875  1.00  0.00     0.000 C 
BRANCH   2   3
ATOM      3  C   UNL     1      -0.787   4.310   4.741  1.00  0.00     0.000 C 
BRANCH   3   4
ATOM      4  C   UNL     1      -1.134   2.879   5.191  1.00  0.00     0.006 C 
BRANCH   4   5
ATOM      5  C   UNL     1      -2.043   2.867   6.427  1.00  0.00     0.053 C 
BRANCH   5   6
ATOM      6  C   UNL     1      -3.486   2.727   6.054  1.00  0.00     0.041 C 
ATOM      7  O   UNL     1      -3.897   1.676   5.494  1.00  0.00    -0.550 OA
ATOM      8  O   UNL     1      -4.386   3.741   6.356  1.00  0.00    -0.550 OA
ENDBRANCH   5   6
ENDBRANCH   4   5
ENDBRANCH   3   4
ENDBRANCH   2   3
ENDBRANCH   1   2
BRANCH   1   9
ATOM      9  C   UNL     1       1.294   4.277   7.763  1.00  0.00     0.000 C 
BRANCH   9  10
ATOM     10  C   UNL     1       1.506   2.766   7.944  1.00  0.00    -0.000 C 
BRANCH  10  11
ATOM     11  C   UNL     1       2.130   2.146   6.687  1.00  0.00    -0.000 C 
BRANCH  11  12
ATOM     12  C   UNL     1       3.397   1.352   7.038  1.00  0.00    -0.000 C 
BRANCH  12  13
ATOM     13  C   UNL     1       4.634   2.250   7.189  1.00  0.00    -0.003 C 
ATOM     14  C   UNL     1       4.671   3.383   6.163  1.00  0.00     0.004 C 
ENDBRANCH  12  13
ENDBRANCH  11  12
ENDBRANCH  10  11
ENDBRANCH   9  10
ENDBRANCH   1   9
TORSDOF 10
ENDMDL
MODEL 7
REMARK VINA RESULT:    -3.746     12.973     14.648
REMARK INTER + INTRA:          -7.124
REMARK INTER:                  -5.969
REMARK INTRA:                  -1.155
REMARK UNBOUND:                -1.188
REMARK SMILES CCCCCCCCCCCC(=O)[O-]
REMARK SMILES IDX 7 1 8 2 9 3 10 4 11 5 12 6 13 7 14 8 6 9 5 10 4 11 3 12 2 13
REMARK SMILES IDX 1 14
REMARK H PARENT
REMARK Flexibility Score: inf
ROOT
ATOM      1  C   UNL     1      -4.515   0.054  -7.050  1.00  0.00     0.000 C 
ENDROOT
BRANCH   1   2
ATOM      2  C   UNL     1      -3.382   0.043  -6.011  1.00  0.00     0.000 C 
BRANCH   2   3
ATOM      3  C   UNL     1      -2.259  -0.943  -6.373  1.00  0.00     0.000 C 
BRANCH   3   4
ATOM      4  C   UNL     1      -2.012  -1.990  -5.273  1.00  0.00     0.006 C 
BRANCH   4   5
ATOM      5  C   UNL     1      -1.183  -3.178  -5.782  1.00  0.00     0.053 C 
BRANCH   5   6
ATOM      6  C   UNL     1      -0.448  -3.859  -4.669  1.00  0.00     0.041 C 
ATOM      7  O   UNL     1      -0.642  -3.510  -3.474  1.00  0.00    -0.550 OA
ATOM      8  O   UNL     1       0.424  -4.904  -4.947  1.00  0.00    -0.550 OA
ENDBRANCH   5   6
ENDBRANCH   4   5
ENDBRANCH   3   4
ENDBRANCH   2   3
ENDBRANCH   1   2
BRANCH   1   9
ATOM      9  C   UNL     1      -4.896  -1.358  -7.525  1.00  0.00     0.000 C 
BRANCH   9  10
ATOM     10  C   UNL     1      -6.089  -1.943  -6.754  1.00  0.00    -0.000 C 
BRANCH  10  11
ATOM     11  C   UNL     1      -5.868  -3.429  -6.445  1.00  0.00    -0.000 C 
BRANCH  11  12
ATOM     12  C   UNL     1      -5.091  -3.607  -5.133  1.00  0.00    -0.000 C 
BRANCH  12  13
ATOM     13  C   UNL     1      -4.529  -5.028  -4.968  1.00  0.00    -0.003 C 
ATOM     14  C   UNL     1      -3.878  -5.252  -3.603  1.00  0.00     0.004 C 
ENDBRANCH  12  13
ENDBRANCH  11  12
ENDBRANCH  10  11
ENDBRANCH   9  10
ENDBRANCH   1   9
TORSDOF 10
ENDMDL
MODEL 8
REMARK VINA RESULT:    -3.720     12.856     14.049
REMARK INTER + INTRA:          -7.083
REMARK INTER:                  -6.119
REMARK INTRA:                  -0.963
REMARK UNBOUND:                -1.188
REMARK SMILES CCCCCCCCCCCC(=O)[O-]
REMARK SMILES IDX 7 1 8 2 9 3 10 4 11 5 12 6 13 7 14 8 6 9 5 10 4 11 3 12 2 13
REMARK SMILES IDX 1 14
REMARK H PARENT
REMARK Flexibility Score: inf
ROOT
ATOM      1  C   UNL     1       0.445  -3.180  -6.186  1.00  0.00     0.000 C 
ENDROOT
BRANCH   1   2
ATOM      2  C   UNL     1      -0.291  -4.392  -5.590  1.00  0.00     0.000 C 
BRANCH   2   3
ATOM      3  C   UNL     1      -0.652  -4.192  -4.109  1.00  0.00     0.000 C 
BRANCH   3   4
ATOM      4  C   UNL     1      -1.973  -4.881  -3.722  1.00  0.00     0.006 C 
BRANCH   4   5
ATOM      5  C   UNL     1      -3.065  -4.670  -4.780  1.00  0.00     0.053 C 
BRANCH   5   6
ATOM      6  C   UNL     1      -4.411  -4.468  -4.155  1.00  0.00     0.041 C 
ATOM      7  O   UNL     1      -5.144  -3.513  -4.525  1.00  0.00    -0.550 OA
ATOM      8  O   UNL     1      -4.871  -5.354  -3.190  1.00  0.00    -0.550 OA
ENDBRANCH   5   6
ENDBRANCH   4   5
ENDBRANCH   3   4
ENDBRANCH   2   3
ENDBRANCH   1   2
BRANCH   1   9
ATOM      9  C   UNL     1      -0.199  -1.842  -5.786  1.00  0.00     0.000 C 
BRANCH   9  10
ATOM     10  C   UNL     1      -1.497  -1.554  -6.556  1.00  0.00    -0.000 C 
BRANCH  10  11
ATOM     11  C   UNL     1      -2.632  -1.178  -5.596  1.00  0.00    -0.000 C 
BRANCH  11  12
ATOM     12  C   UNL     1      -3.382   0.067  -6.093  1.00  0.00    -0.000 C 
BRANCH  12  13
ATOM     13  C   UNL     1      -4.177  -0.197  -7.381  1.00  0.00    -0.003 C 
ATOM     14  C   UNL     1      -5.491  -0.936  -7.124  1.00  0.00     0.004 C 
ENDBRANCH  12  13
ENDBRANCH  11  12
ENDBRANCH  10  11
ENDBRANCH   9  10
ENDBRANCH   1   9
TORSDOF 10
ENDMDL
MODEL 9
REMARK VINA RESULT:    -3.705     13.277     14.903
REMARK INTER + INTRA:          -7.058
REMARK INTER:                  -5.648
REMARK INTRA:                  -1.410
REMARK UNBOUND:                -1.188
REMARK SMILES CCCCCCCCCCCC(=O)[O-]
REMARK SMILES IDX 7 1 8 2 9 3 10 4 11 5 12 6 13 7 14 8 6 9 5 10 4 11 3 12 2 13
REMARK SMILES IDX 1 14
REMARK H PARENT
REMARK Flexibility Score: inf
ROOT
ATOM      1  C   UNL     1      -6.123  -2.601  -6.654  1.00  0.00     0.000 C 
ENDROOT
BRANCH   1   2
ATOM      2  C   UNL     1      -5.295  -3.791  -7.169  1.00  0.00     0.000 C 
BRANCH   2   3
ATOM      3  C   UNL     1      -4.427  -4.425  -6.070  1.00  0.00     0.000 C 
BRANCH   3   4
ATOM      4  C   UNL     1      -4.941  -4.112  -4.654  1.00  0.00     0.006 C 
BRANCH   4   5
ATOM      5  C   UNL     1      -4.298  -5.016  -3.593  1.00  0.00     0.053 C 
BRANCH   5   6
ATOM      6  C   UNL     1      -4.715  -6.445  -3.754  1.00  0.00     0.041 C 
ATOM      7  O   UNL     1      -3.866  -7.320  -4.072  1.00  0.00    -0.550 OA
ATOM      8  O   UNL     1      -6.032  -6.817  -3.520  1.00  0.00    -0.550 OA
ENDBRANCH   5   6
ENDBRANCH   4   5
ENDBRANCH   3   4
ENDBRANCH   2   3
ENDBRANCH   1   2
BRANCH   1   9
ATOM      9  C   UNL     1      -5.888  -1.320  -7.471  1.00  0.00     0.000 C 
BRANCH   9  10
ATOM     10  C   UNL     1      -4.397  -1.004  -7.665  1.00  0.00    -0.000 C 
BRANCH  10  11
ATOM     11  C   UNL     1      -3.904  -0.013  -6.604  1.00  0.00    -0.000 C 
BRANCH  11  12
ATOM     12  C   UNL     1      -3.047  -0.722  -5.545  1.00  0.00    -0.000 C 
BRANCH  12  13
ATOM     13  C   UNL     1      -2.022  -1.686  -6.163  1.00  0.00    -0.003 C 
ATOM     14  C   UNL     1      -1.382  -2.612  -5.128  1.00  0.00     0.004 C 
ENDBRANCH  12  13
ENDBRANCH  11  12
ENDBRANCH  10  11
ENDBRANCH   9  10
ENDBRANCH   1   9
TORSDOF 10
ENDMDL
