MODEL 1
REMARK VINA RESULT:    -3.826      0.000      0.000
REMARK INTER + INTRA:          -9.701
REMARK INTER:                  -7.404
REMARK INTRA:                  -2.298
REMARK UNBOUND:                -2.298
REMARK SMILES CCCCCCCCCCCCCCCCCC(=O)[O-]
REMARK SMILES IDX 10 1 11 2 12 3 13 4 14 5 15 6 16 7 17 8 18 9 19 10 20 11
REMARK SMILES IDX 9 12 8 13 7 14 6 15 5 16 4 17 3 18 2 19 1 20
REMARK H PARENT
REMARK Flexibility Score: inf
ROOT
ATOM      1  C   UNL     1      37.881  20.945   4.129  1.00  0.00     0.000 C 
ENDROOT
BRANCH   1   2
ATOM      2  C   UNL     1      39.159  20.206   3.704  1.00  0.00     0.000 C 
BRANCH   2   3
ATOM      3  C   UNL     1      40.412  20.957   4.179  1.00  0.00     0.000 C 
BRANCH   3   4
ATOM      4  C   UNL     1      40.076  22.254   4.934  1.00  0.00     0.000 C 
BRANCH   4   5
ATOM      5  C   UNL     1      40.495  22.208   6.411  1.00  0.00     0.000 C 
BRANCH   5   6
ATOM      6  C   UNL     1      41.082  20.836   6.772  1.00  0.00     0.000 C 
BRANCH   6   7
ATOM      7  C   UNL     1      40.261  20.099   7.841  1.00  0.00     0.006 C 
BRANCH   7   8
ATOM      8  C   UNL     1      39.116  19.270   7.243  1.00  0.00     0.053 C 
BRANCH   8   9
ATOM      9  C   UNL     1      37.794  19.841   7.650  1.00  0.00     0.041 C 
ATOM     10  O   UNL     1      36.891  19.090   8.104  1.00  0.00    -0.550 OA
ATOM     11  O   UNL     1      37.578  21.213   7.579  1.00  0.00    -0.550 OA
ENDBRANCH   8   9
ENDBRANCH   7   8
ENDBRANCH   6   7
ENDBRANCH   5   6
ENDBRANCH   4   5
ENDBRANCH   3   4
ENDBRANCH   2   3
ENDBRANCH   1   2
BRANCH   1  12
ATOM     12  C   UNL     1      36.601  20.205   3.713  1.00  0.00     0.000 C 
BRANCH  12  13
ATOM     13  C   UNL     1      35.565  21.131   3.051  1.00  0.00    -0.000 C 
BRANCH  13  14
ATOM     14  C   UNL     1      35.711  21.164   1.514  1.00  0.00    -0.000 C 
BRANCH  14  15
ATOM     15  C   UNL     1      36.447  22.412   0.990  1.00  0.00    -0.000 C 
BRANCH  15  16
ATOM     16  C   UNL     1      37.974  22.257   0.875  1.00  0.00    -0.000 C 
BRANCH  16  17
ATOM     17  C   UNL     1      38.739  23.406   1.548  1.00  0.00    -0.000 C 
BRANCH  17  18
ATOM     18  C   UNL     1      37.773  24.513   2.000  1.00  0.00    -0.000 C 
BRANCH  18  19
ATOM     19  C   UNL     1      38.356  25.921   1.811  1.00  0.00    -0.003 C 
ATOM     20  C   UNL     1      37.448  27.017   2.368  1.00  0.00     0.004 C 
ENDBRANCH  18  19
ENDBRANCH  17  18
ENDBRANCH  16  17
ENDBRANCH  15  16
ENDBRANCH  14  15
ENDBRANCH  13  14
ENDBRANCH  12  13
ENDBRANCH   1  12
TORSDOF 16
ENDMDL
MODEL 2
REMARK VINA RESULT:    -3.790     18.221     20.643
REMARK INTER + INTRA:          -9.632
REMARK INTER:                  -6.673
REMARK INTRA:                  -2.958
REMARK UNBOUND:                -2.298
REMARK SMILES CCCCCCCCCCCCCCCCCC(=O)[O-]
REMARK SMILES IDX 10 1 11 2 12 3 13 4 14 5 15 6 16 7 17 8 18 9 19 10 20 11
REMARK SMILES IDX 9 12 8 13 7 14 6 15 5 16 4 17 3 18 2 19 1 20
REMARK H PARENT
REMARK Flexibility Score: inf
ROOT
ATOM      1  C   UNL     1      21.478  22.438  16.149  1.00  0.00     0.000 C 
ENDROOT
BRANCH   1   2
ATOM      2  C   UNL     1      21.167  23.940  16.230  1.00  0.00     0.000 C 
BRANCH   2   3
ATOM      3  C   UNL     1      21.094  24.408  17.691  1.00  0.00     0.000 C 
BRANCH   3   4
ATOM      4  C   UNL     1      21.817  25.745  17.923  1.00  0.00     0.000 C 
BRANCH   4   5
ATOM      5  C   UNL     1      21.601  26.301  19.338  1.00  0.00     0.000 C 
BRANCH   5   6
ATOM      6  C   UNL     1      22.677  25.779  20.302  1.00  0.00     0.000 C 
BRANCH   6   7
ATOM      7  C   UNL     1      23.564  26.899  20.867  1.00  0.00     0.006 C 
BRANCH   7   8
ATOM      8  C   UNL     1      25.047  26.716  20.516  1.00  0.00     0.053 C 
BRANCH   8   9
ATOM      9  C   UNL     1      25.388  27.492  19.284  1.00  0.00     0.041 C 
ATOM     10  O   UNL     1      24.746  28.535  18.993  1.00  0.00    -0.550 OA
ATOM     11  O   UNL     1      26.453  27.093  18.483  1.00  0.00    -0.550 OA
ENDBRANCH   8   9
ENDBRANCH   7   8
ENDBRANCH   6   7
ENDBRANCH   5   6
ENDBRANCH   4   5
ENDBRANCH   3   4
ENDBRANCH   2   3
ENDBRANCH   1   2
BRANCH   1  12
ATOM     12  C   UNL     1      21.865  21.837  17.510  1.00  0.00     0.000 C 
BRANCH  12  13
ATOM     13  C   UNL     1      23.007  20.811  17.404  1.00  0.00    -0.000 C 
BRANCH  13  14
ATOM     14  C   UNL     1      24.239  21.222  18.239  1.00  0.00    -0.000 C 
BRANCH  14  15
ATOM     15  C   UNL     1      24.146  22.645  18.821  1.00  0.00    -0.000 C 
BRANCH  15  16
ATOM     16  C   UNL     1      25.215  23.623  18.302  1.00  0.00    -0.000 C 
BRANCH  16  17
ATOM     17  C   UNL     1      24.844  24.244  16.947  1.00  0.00    -0.000 C 
BRANCH  17  18
ATOM     18  C   UNL     1      25.679  23.622  15.817  1.00  0.00    -0.000 C 
BRANCH  18  19
ATOM     19  C   UNL     1      24.811  22.976  14.726  1.00  0.00    -0.003 C 
ATOM     20  C   UNL     1      25.639  22.318  13.623  1.00  0.00     0.004 C 
ENDBRANCH  18  19
ENDBRANCH  17  18
ENDBRANCH  16  17
ENDBRANCH  15  16
ENDBRANCH  14  15
ENDBRANCH  13  14
ENDBRANCH  12  13
ENDBRANCH   1  12
TORSDOF 16
ENDMDL
MODEL 3
REMARK VINA RESULT:    -3.730     18.165     20.606
REMARK INTER + INTRA:          -9.516
REMARK INTER:                  -6.871
REMARK INTRA:                  -2.645
REMARK UNBOUND:                -2.298
REMARK SMILES CCCCCCCCCCCCCCCCCC(=O)[O-]
REMARK SMILES IDX 10 1 11 2 12 3 13 4 14 5 15 6 16 7 17 8 18 9 19 10 20 11
REMARK SMILES IDX 9 12 8 13 7 14 6 15 5 16 4 17 3 18 2 19 1 20
REMARK H PARENT
REMARK Flexibility Score: inf
ROOT
ATOM      1  C   UNL     1      22.068  23.742  17.122  1.00  0.00     0.000 C 
ENDROOT
BRANCH   1   2
ATOM      2  C   UNL     1      22.648  24.998  17.790  1.00  0.00     0.000 C 
BRANCH   2   3
ATOM      3  C   UNL     1      22.669  24.847  19.318  1.00  0.00     0.000 C 
BRANCH   3   4
ATOM      4  C   UNL     1      22.148  26.097  20.047  1.00  0.00     0.000 C 
BRANCH   4   5
ATOM      5  C   UNL     1      22.291  27.376  19.210  1.00  0.00     0.000 C 
BRANCH   5   6
ATOM      6  C   UNL     1      23.089  28.443  19.973  1.00  0.00     0.000 C 
BRANCH   6   7
ATOM      7  C   UNL     1      24.342  28.906  19.214  1.00  0.00     0.006 C 
BRANCH   7   8
ATOM      8  C   UNL     1      25.645  28.449  19.885  1.00  0.00     0.053 C 
BRANCH   8   9
ATOM      9  C   UNL     1      26.203  27.256  19.176  1.00  0.00     0.041 C 
ATOM     10  O   UNL     1      25.841  26.095  19.506  1.00  0.00    -0.550 OA
ATOM     11  O   UNL     1      27.083  27.426  18.113  1.00  0.00    -0.550 OA
ENDBRANCH   8   9
ENDBRANCH   7   8
ENDBRANCH   6   7
ENDBRANCH   5   6
ENDBRANCH   4   5
ENDBRANCH   3   4
ENDBRANCH   2   3
ENDBRANCH   1   2
BRANCH   1  12
ATOM     12  C   UNL     1      21.697  22.648  18.135  1.00  0.00     0.000 C 
BRANCH  12  13
ATOM     13  C   UNL     1      22.114  21.241  17.671  1.00  0.00    -0.000 C 
BRANCH  13  14
ATOM     14  C   UNL     1      23.649  21.073  17.630  1.00  0.00    -0.000 C 
BRANCH  14  15
ATOM     15  C   UNL     1      24.365  21.620  18.879  1.00  0.00    -0.000 C 
BRANCH  15  16
ATOM     16  C   UNL     1      25.561  22.542  18.582  1.00  0.00    -0.000 C 
BRANCH  16  17
ATOM     17  C   UNL     1      25.977  22.517  17.104  1.00  0.00    -0.000 C 
BRANCH  17  18
ATOM     18  C   UNL     1      25.792  23.902  16.463  1.00  0.00    -0.000 C 
BRANCH  18  19
ATOM     19  C   UNL     1      25.600  23.829  14.941  1.00  0.00    -0.003 C 
ATOM     20  C   UNL     1      24.531  22.818  14.528  1.00  0.00     0.004 C 
ENDBRANCH  18  19
ENDBRANCH  17  18
ENDBRANCH  16  17
ENDBRANCH  15  16
ENDBRANCH  14  15
ENDBRANCH  13  14
ENDBRANCH  12  13
ENDBRANCH   1  12
TORSDOF 16
ENDMDL
MODEL 4
REMARK VINA RESULT:    -3.719     17.949     20.393
REMARK INTER + INTRA:          -9.496
REMARK INTER:                  -6.359
REMARK INTRA:                  -3.137
REMARK UNBOUND:                -2.298
REMARK SMILES CCCCCCCCCCCCCCCCCC(=O)[O-]
REMARK SMILES IDX 10 1 11 2 12 3 13 4 14 5 15 6 16 7 17 8 18 9 19 10 20 11
REMARK SMILES IDX 9 12 8 13 7 14 6 15 5 16 4 17 3 18 2 19 1 20
REMARK H PARENT
REMARK Flexibility Score: inf
ROOT
ATOM      1  C   UNL     1      22.179  21.952  15.750  1.00  0.00     0.000 C 
ENDROOT
BRANCH   1   2
ATOM      2  C   UNL     1      21.456  20.937  16.649  1.00  0.00     0.000 C 
BRANCH   2   3
ATOM      3  C   UNL     1      22.256  20.671  17.932  1.00  0.00     0.000 C 
BRANCH   3   4
ATOM      4  C   UNL     1      23.745  21.025  17.787  1.00  0.00     0.000 C 
BRANCH   4   5
ATOM      5  C   UNL     1      24.251  21.943  18.909  1.00  0.00     0.000 C 
BRANCH   5   6
ATOM      6  C   UNL     1      25.339  22.894  18.390  1.00  0.00     0.000 C 
BRANCH   6   7
ATOM      7  C   UNL     1      25.796  22.555  16.964  1.00  0.00     0.006 C 
BRANCH   7   8
ATOM      8  C   UNL     1      25.619  23.728  15.989  1.00  0.00     0.053 C 
BRANCH   8   9
ATOM      9  C   UNL     1      25.427  23.220  14.595  1.00  0.00     0.041 C 
ATOM     10  O   UNL     1      24.740  23.877  13.769  1.00  0.00    -0.550 OA
ATOM     11  O   UNL     1      26.054  22.046  14.190  1.00  0.00    -0.550 OA
ENDBRANCH   8   9
ENDBRANCH   7   8
ENDBRANCH   6   7
ENDBRANCH   5   6
ENDBRANCH   4   5
ENDBRANCH   3   4
ENDBRANCH   2   3
ENDBRANCH   1   2
BRANCH   1  12
ATOM     12  C   UNL     1      21.525  23.342  15.778  1.00  0.00     0.000 C 
BRANCH  12  13
ATOM     13  C   UNL     1      22.016  24.208  16.952  1.00  0.00    -0.000 C 
BRANCH  13  14
ATOM     14  C   UNL     1      20.878  24.552  17.938  1.00  0.00    -0.000 C 
BRANCH  14  15
ATOM     15  C   UNL     1      21.196  24.190  19.401  1.00  0.00    -0.000 C 
BRANCH  15  16
ATOM     16  C   UNL     1      22.370  24.971  20.016  1.00  0.00    -0.000 C 
BRANCH  16  17
ATOM     17  C   UNL     1      22.107  26.482  20.084  1.00  0.00    -0.000 C 
BRANCH  17  18
ATOM     18  C   UNL     1      23.317  27.270  19.558  1.00  0.00    -0.000 C 
BRANCH  18  19
ATOM     19  C   UNL     1      24.332  26.378  18.827  1.00  0.00    -0.003 C 
ATOM     20  C   UNL     1      25.774  26.652  19.252  1.00  0.00     0.004 C 
ENDBRANCH  18  19
ENDBRANCH  17  18
ENDBRANCH  16  17
ENDBRANCH  15  16
ENDBRANCH  14  15
ENDBRANCH  13  14
ENDBRANCH  12  13
ENDBRANCH   1  12
TORSDOF 16
ENDMDL
MODEL 5
REMARK VINA RESULT:    -3.611      2.316      4.116
REMARK INTER + INTRA:          -9.286
REMARK INTER:                  -7.236
REMARK INTRA:                  -2.050
REMARK UNBOUND:                -2.298
REMARK SMILES CCCCCCCCCCCCCCCCCC(=O)[O-]
REMARK SMILES IDX 10 1 11 2 12 3 13 4 14 5 15 6 16 7 17 8 18 9 19 10 20 11
REMARK SMILES IDX 9 12 8 13 7 14 6 15 5 16 4 17 3 18 2 19 1 20
REMARK H PARENT
REMARK Flexibility Score: inf
ROOT
ATOM      1  C   UNL     1      41.114  21.545   5.396  1.00  0.00     0.000 C 
ENDROOT
BRANCH   1   2
ATOM      2  C   UNL     1      40.737  22.046   6.798  1.00  0.00     0.000 C 
BRANCH   2   3
ATOM      3  C   UNL     1      39.430  21.399   7.279  1.00  0.00     0.000 C 
BRANCH   3   4
ATOM      4  C   UNL     1      39.444  19.867   7.153  1.00  0.00     0.000 C 
BRANCH   4   5
ATOM      5  C   UNL     1      38.367  19.338   6.195  1.00  0.00     0.000 C 
BRANCH   5   6
ATOM      6  C   UNL     1      37.420  20.466   5.759  1.00  0.00     0.000 C 
BRANCH   6   7
ATOM      7  C   UNL     1      36.394  20.012   4.710  1.00  0.00     0.006 C 
BRANCH   7   8
ATOM      8  C   UNL     1      36.627  20.654   3.335  1.00  0.00     0.053 C 
BRANCH   8   9
ATOM      9  C   UNL     1      35.392  20.549   2.498  1.00  0.00     0.041 C 
ATOM     10  O   UNL     1      34.794  21.590   2.115  1.00  0.00    -0.550 OA
ATOM     11  O   UNL     1      34.929  19.302   2.094  1.00  0.00    -0.550 OA
ENDBRANCH   8   9
ENDBRANCH   7   8
ENDBRANCH   6   7
ENDBRANCH   5   6
ENDBRANCH   4   5
ENDBRANCH   3   4
ENDBRANCH   2   3
ENDBRANCH   1   2
BRANCH   1  12
ATOM     12  C   UNL     1      41.002  22.640   4.323  1.00  0.00     0.000 C 
BRANCH  12  13
ATOM     13  C   UNL     1      39.640  22.635   3.606  1.00  0.00    -0.000 C 
BRANCH  13  14
ATOM     14  C   UNL     1      39.781  22.371   2.091  1.00  0.00    -0.000 C 
BRANCH  14  15
ATOM     15  C   UNL     1      38.614  22.930   1.255  1.00  0.00    -0.000 C 
BRANCH  15  16
ATOM     16  C   UNL     1      37.691  23.903   2.009  1.00  0.00    -0.000 C 
BRANCH  16  17
ATOM     17  C   UNL     1      37.725  25.325   1.428  1.00  0.00    -0.000 C 
BRANCH  17  18
ATOM     18  C   UNL     1      38.304  26.317   2.450  1.00  0.00    -0.000 C 
BRANCH  18  19
ATOM     19  C   UNL     1      39.836  26.248   2.539  1.00  0.00    -0.003 C 
ATOM     20  C   UNL     1      40.526  27.320   1.695  1.00  0.00     0.004 C 
ENDBRANCH  18  19
ENDBRANCH  17  18
ENDBRANCH  16  17
ENDBRANCH  15  16
ENDBRANCH  14  15
ENDBRANCH  13  14
ENDBRANCH  12  13
ENDBRANCH   1  12
TORSDOF 16
ENDMDL
MODEL 6
REMARK VINA RESULT:    -3.610      2.278      6.206
REMARK INTER + INTRA:          -9.284
REMARK INTER:                  -6.665
REMARK INTRA:                  -2.619
REMARK UNBOUND:                -2.298
REMARK SMILES CCCCCCCCCCCCCCCCCC(=O)[O-]
REMARK SMILES IDX 10 1 11 2 12 3 13 4 14 5 15 6 16 7 17 8 18 9 19 10 20 11
REMARK SMILES IDX 9 12 8 13 7 14 6 15 5 16 4 17 3 18 2 19 1 20
REMARK H PARENT
REMARK Flexibility Score: inf
ROOT
ATOM      1  C   UNL     1      39.619  20.077   3.881  1.00  0.00     0.000 C 
ENDROOT
BRANCH   1   2
ATOM      2  C   UNL     1      39.934  20.069   2.378  1.00  0.00     0.000 C 
BRANCH   2   3
ATOM      3  C   UNL     1      41.122  20.989   2.061  1.00  0.00     0.000 C 
BRANCH   3   4
ATOM      4  C   UNL     1      40.688  22.329   1.444  1.00  0.00     0.000 C 
BRANCH   4   5
ATOM      5  C   UNL     1      39.243  22.305   0.924  1.00  0.00     0.000 C 
BRANCH   5   6
ATOM      6  C   UNL     1      38.379  23.339   1.660  1.00  0.00     0.000 C 
BRANCH   6   7
ATOM      7  C   UNL     1      36.879  23.016   1.596  1.00  0.00     0.006 C 
BRANCH   7   8
ATOM      8  C   UNL     1      36.599  21.590   1.102  1.00  0.00     0.053 C 
BRANCH   8   9
ATOM      9  C   UNL     1      35.355  21.055   1.737  1.00  0.00     0.041 C 
ATOM     10  O   UNL     1      35.405  20.023   2.458  1.00  0.00    -0.550 OA
ATOM     11  O   UNL     1      34.148  21.726   1.579  1.00  0.00    -0.550 OA
ENDBRANCH   8   9
ENDBRANCH   7   8
ENDBRANCH   6   7
ENDBRANCH   5   6
ENDBRANCH   4   5
ENDBRANCH   3   4
ENDBRANCH   2   3
ENDBRANCH   1   2
BRANCH   1  12
ATOM     12  C   UNL     1      38.416  20.967   4.231  1.00  0.00     0.000 C 
BRANCH  12  13
ATOM     13  C   UNL     1      38.792  22.145   5.147  1.00  0.00    -0.000 C 
BRANCH  13  14
ATOM     14  C   UNL     1      40.317  22.385   5.191  1.00  0.00    -0.000 C 
BRANCH  14  15
ATOM     15  C   UNL     1      40.963  22.019   6.540  1.00  0.00    -0.000 C 
BRANCH  15  16
ATOM     16  C   UNL     1      40.053  21.225   7.494  1.00  0.00    -0.000 C 
BRANCH  16  17
ATOM     17  C   UNL     1      40.324  19.714   7.452  1.00  0.00    -0.000 C 
BRANCH  17  18
ATOM     18  C   UNL     1      39.010  18.922   7.543  1.00  0.00    -0.000 C 
BRANCH  18  19
ATOM     19  C   UNL     1      37.776  19.832   7.646  1.00  0.00    -0.003 C 
ATOM     20  C   UNL     1      36.632  19.191   8.432  1.00  0.00     0.004 C 
ENDBRANCH  18  19
ENDBRANCH  17  18
ENDBRANCH  16  17
ENDBRANCH  15  16
ENDBRANCH  14  15
ENDBRANCH  13  14
ENDBRANCH  12  13
ENDBRANCH   1  12
TORSDOF 16
ENDMDL
MODEL 7
REMARK VINA RESULT:    -3.575     18.718     21.061
REMARK INTER + INTRA:          -9.217
REMARK INTER:                  -6.548
REMARK INTRA:                  -2.670
REMARK UNBOUND:                -2.298
REMARK SMILES CCCCCCCCCCCCCCCCCC(=O)[O-]
REMARK SMILES IDX 10 1 11 2 12 3 13 4 14 5 15 6 16 7 17 8 18 9 19 10 20 11
REMARK SMILES IDX 9 12 8 13 7 14 6 15 5 16 4 17 3 18 2 19 1 20
REMARK H PARENT
REMARK Flexibility Score: inf
ROOT
ATOM      1  C   UNL     1      22.247  26.183  18.118  1.00  0.00     0.000 C 
ENDROOT
BRANCH   1   2
ATOM      2  C   UNL     1      21.656  25.695  19.449  1.00  0.00     0.000 C 
BRANCH   2   3
ATOM      3  C   UNL     1      22.007  24.221  19.698  1.00  0.00     0.000 C 
BRANCH   3   4
ATOM      4  C   UNL     1      22.674  23.555  18.484  1.00  0.00     0.000 C 
BRANCH   4   5
ATOM      5  C   UNL     1      23.814  22.605  18.877  1.00  0.00     0.000 C 
BRANCH   5   6
ATOM      6  C   UNL     1      25.169  23.148  18.401  1.00  0.00     0.000 C 
BRANCH   6   7
ATOM      7  C   UNL     1      25.047  24.059  17.170  1.00  0.00     0.006 C 
BRANCH   7   8
ATOM      8  C   UNL     1      25.924  23.595  15.999  1.00  0.00     0.053 C 
BRANCH   8   9
ATOM      9  C   UNL     1      25.087  22.917  14.961  1.00  0.00     0.041 C 
ATOM     10  O   UNL     1      23.867  22.694  15.177  1.00  0.00    -0.550 OA
ATOM     11  O   UNL     1      25.643  22.578  13.732  1.00  0.00    -0.550 OA
ENDBRANCH   8   9
ENDBRANCH   7   8
ENDBRANCH   6   7
ENDBRANCH   5   6
ENDBRANCH   4   5
ENDBRANCH   3   4
ENDBRANCH   2   3
ENDBRANCH   1   2
BRANCH   1  12
ATOM     12  C   UNL     1      21.654  27.524  17.660  1.00  0.00     0.000 C 
BRANCH  12  13
ATOM     13  C   UNL     1      21.813  28.636  18.712  1.00  0.00    -0.000 C 
BRANCH  13  14
ATOM     14  C   UNL     1      22.586  29.854  18.160  1.00  0.00    -0.000 C 
BRANCH  14  15
ATOM     15  C   UNL     1      23.945  30.087  18.847  1.00  0.00    -0.000 C 
BRANCH  15  16
ATOM     16  C   UNL     1      23.971  29.758  20.350  1.00  0.00    -0.000 C 
BRANCH  16  17
ATOM     17  C   UNL     1      25.143  28.845  20.738  1.00  0.00    -0.000 C 
BRANCH  17  18
ATOM     18  C   UNL     1      24.668  27.393  20.910  1.00  0.00    -0.000 C 
BRANCH  18  19
ATOM     19  C   UNL     1      25.403  26.416  19.980  1.00  0.00    -0.003 C 
ATOM     20  C   UNL     1      26.177  27.126  18.869  1.00  0.00     0.004 C 
ENDBRANCH  18  19
ENDBRANCH  17  18
ENDBRANCH  16  17
ENDBRANCH  15  16
ENDBRANCH  14  15
ENDBRANCH  13  14
ENDBRANCH  12  13
ENDBRANCH   1  12
TORSDOF 16
ENDMDL
MODEL 8
REMARK VINA RESULT:    -3.555     18.859     21.201
REMARK INTER + INTRA:          -9.178
REMARK INTER:                  -6.491
REMARK INTRA:                  -2.687
REMARK UNBOUND:                -2.298
REMARK SMILES CCCCCCCCCCCCCCCCCC(=O)[O-]
REMARK SMILES IDX 10 1 11 2 12 3 13 4 14 5 15 6 16 7 17 8 18 9 19 10 20 11
REMARK SMILES IDX 9 12 8 13 7 14 6 15 5 16 4 17 3 18 2 19 1 20
REMARK H PARENT
REMARK Flexibility Score: inf
ROOT
ATOM      1  C   UNL     1      22.879  25.380  17.966  1.00  0.00     0.000 C 
ENDROOT
BRANCH   1   2
ATOM      2  C   UNL     1      22.251  24.343  17.024  1.00  0.00     0.000 C 
BRANCH   2   3
ATOM      3  C   UNL     1      21.890  23.058  17.784  1.00  0.00     0.000 C 
BRANCH   3   4
ATOM      4  C   UNL     1      22.112  21.789  16.945  1.00  0.00     0.000 C 
BRANCH   4   5
ATOM      5  C   UNL     1      22.866  20.693  17.710  1.00  0.00     0.000 C 
BRANCH   5   6
ATOM      6  C   UNL     1      23.892  21.306  18.675  1.00  0.00     0.000 C 
BRANCH   6   7
ATOM      7  C   UNL     1      25.282  21.470  18.042  1.00  0.00     0.006 C 
BRANCH   7   8
ATOM      8  C   UNL     1      25.749  22.932  18.006  1.00  0.00     0.053 C 
BRANCH   8   9
ATOM      9  C   UNL     1      25.795  23.427  16.596  1.00  0.00     0.041 C 
ATOM     10  O   UNL     1      26.101  24.625  16.354  1.00  0.00    -0.550 OA
ATOM     11  O   UNL     1      25.553  22.553  15.542  1.00  0.00    -0.550 OA
ENDBRANCH   8   9
ENDBRANCH   7   8
ENDBRANCH   6   7
ENDBRANCH   5   6
ENDBRANCH   4   5
ENDBRANCH   3   4
ENDBRANCH   2   3
ENDBRANCH   1   2
BRANCH   1  12
ATOM     12  C   UNL     1      23.005  24.872  19.411  1.00  0.00     0.000 C 
BRANCH  12  13
ATOM     13  C   UNL     1      22.600  25.931  20.452  1.00  0.00    -0.000 C 
BRANCH  13  14
ATOM     14  C   UNL     1      21.584  26.947  19.885  1.00  0.00    -0.000 C 
BRANCH  14  15
ATOM     15  C   UNL     1      21.371  28.178  20.786  1.00  0.00    -0.000 C 
BRANCH  15  16
ATOM     16  C   UNL     1      22.537  29.182  20.789  1.00  0.00    -0.000 C 
BRANCH  16  17
ATOM     17  C   UNL     1      22.725  29.877  19.433  1.00  0.00    -0.000 C 
BRANCH  17  18
ATOM     18  C   UNL     1      24.094  29.530  18.828  1.00  0.00    -0.000 C 
BRANCH  18  19
ATOM     19  C   UNL     1      24.993  28.753  19.802  1.00  0.00    -0.003 C 
ATOM     20  C   UNL     1      25.739  27.602  19.129  1.00  0.00     0.004 C 
ENDBRANCH  18  19
ENDBRANCH  17  18
ENDBRANCH  16  17
ENDBRANCH  15  16
ENDBRANCH  14  15
ENDBRANCH  13  14
ENDBRANCH  12  13
ENDBRANCH   1  12
TORSDOF 16
ENDMDL
MODEL 9
REMARK VINA RESULT:    -3.549      2.627      3.682
REMARK INTER + INTRA:          -9.166
REMARK INTER:                  -7.210
REMARK INTRA:                  -1.956
REMARK UNBOUND:                -2.298
REMARK SMILES CCCCCCCCCCCCCCCCCC(=O)[O-]
REMARK SMILES IDX 10 1 11 2 12 3 13 4 14 5 15 6 16 7 17 8 18 9 19 10 20 11
REMARK SMILES IDX 9 12 8 13 7 14 6 15 5 16 4 17 3 18 2 19 1 20
REMARK H PARENT
REMARK Flexibility Score: inf
ROOT
ATOM      1  C   UNL     1      37.028  19.605   6.270  1.00  0.00     0.000 C 
ENDROOT
BRANCH   1   2
ATOM      2  C   UNL     1      38.191  19.824   7.250  1.00  0.00     0.000 C 
BRANCH   2   3
ATOM      3  C   UNL     1      39.535  19.854   6.509  1.00  0.00     0.000 C 
BRANCH   3   4
ATOM      4  C   UNL     1      40.602  20.680   7.246  1.00  0.00     0.000 C 
BRANCH   4   5
ATOM      5  C   UNL     1      41.125  21.858   6.412  1.00  0.00     0.000 C 
BRANCH   5   6
ATOM      6  C   UNL     1      40.201  22.134   5.216  1.00  0.00     0.000 C 
BRANCH   6   7
ATOM      7  C   UNL     1      40.931  22.046   3.867  1.00  0.00     0.006 C 
BRANCH   7   8
ATOM      8  C   UNL     1      40.747  20.686   3.180  1.00  0.00     0.053 C 
BRANCH   8   9
ATOM      9  C   UNL     1      40.785  20.847   1.693  1.00  0.00     0.041 C 
ATOM     10  O   UNL     1      40.760  21.996   1.178  1.00  0.00    -0.550 OA
ATOM     11  O   UNL     1      40.902  19.728   0.875  1.00  0.00    -0.550 OA
ENDBRANCH   8   9
ENDBRANCH   7   8
ENDBRANCH   6   7
ENDBRANCH   5   6
ENDBRANCH   4   5
ENDBRANCH   3   4
ENDBRANCH   2   3
ENDBRANCH   1   2
BRANCH   1  12
ATOM     12  C   UNL     1      37.369  20.040   4.836  1.00  0.00     0.000 C 
BRANCH  12  13
ATOM     13  C   UNL     1      36.121  20.379   4.004  1.00  0.00    -0.000 C 
BRANCH  13  14
ATOM     14  C   UNL     1      36.481  20.823   2.569  1.00  0.00    -0.000 C 
BRANCH  14  15
ATOM     15  C   UNL     1      37.295  22.129   2.510  1.00  0.00    -0.000 C 
BRANCH  15  16
ATOM     16  C   UNL     1      37.384  22.769   1.113  1.00  0.00    -0.000 C 
BRANCH  16  17
ATOM     17  C   UNL     1      37.359  24.303   1.161  1.00  0.00    -0.000 C 
BRANCH  17  18
ATOM     18  C   UNL     1      38.047  24.820   2.434  1.00  0.00    -0.000 C 
BRANCH  18  19
ATOM     19  C   UNL     1      38.537  26.270   2.295  1.00  0.00    -0.003 C 
ATOM     20  C   UNL     1      37.442  27.222   1.816  1.00  0.00     0.004 C 
ENDBRANCH  18  19
ENDBRANCH  17  18
ENDBRANCH  16  17
ENDBRANCH  15  16
ENDBRANCH  14  15
ENDBRANCH  13  14
ENDBRANCH  12  13
ENDBRANCH   1  12
TORSDOF 16
ENDMDL
