MODEL 1
REMARK VINA RESULT:    -5.369      0.000      0.000
REMARK INTER + INTRA:         -15.728
REMARK INTER:                 -12.274
REMARK INTRA:                  -3.454
REMARK UNBOUND:                -3.454
REMARK SMILES CCCCCCCCCCCCCCCCCCCCCCCC(=O)[O-]
REMARK SMILES IDX 13 1 14 2 15 3 16 4 17 5 18 6 19 7 20 8 21 9 22 10 23 11
REMARK SMILES IDX 24 12 25 13 26 14 12 15 11 16 10 17 9 18 8 19 7 20 6 21 5 22
REMARK SMILES IDX 4 23 3 24 2 25 1 26
REMARK H PARENT
REMARK Flexibility Score: inf
ROOT
ATOM      1  C   UNL     1      35.213  43.643  51.448  1.00  0.00     0.000 C 
ENDROOT
BRANCH   1   2
ATOM      2  C   UNL     1      35.333  45.158  51.215  1.00  0.00     0.000 C 
BRANCH   2   3
ATOM      3  C   UNL     1      35.120  45.556  49.743  1.00  0.00     0.000 C 
BRANCH   3   4
ATOM      4  C   UNL     1      33.904  44.899  49.059  1.00  0.00     0.000 C 
BRANCH   4   5
ATOM      5  C   UNL     1      34.235  44.022  47.838  1.00  0.00     0.000 C 
BRANCH   5   6
ATOM      6  C   UNL     1      35.055  44.767  46.771  1.00  0.00     0.000 C 
BRANCH   6   7
ATOM      7  C   UNL     1      36.046  43.852  46.032  1.00  0.00     0.000 C 
BRANCH   7   8
ATOM      8  C   UNL     1      36.333  42.504  46.724  1.00  0.00     0.000 C 
BRANCH   8   9
ATOM      9  C   UNL     1      37.652  42.443  47.516  1.00  0.00     0.000 C 
BRANCH   9  10
ATOM     10  C   UNL     1      37.439  42.200  49.016  1.00  0.00     0.006 C 
BRANCH  10  11
ATOM     11  C   UNL     1      38.598  41.391  49.608  1.00  0.00     0.053 C 
BRANCH  11  12
ATOM     12  C   UNL     1      39.113  42.041  50.853  1.00  0.00     0.041 C 
ATOM     13  O   UNL     1      38.762  43.216  51.145  1.00  0.00    -0.550 OA
ATOM     14  O   UNL     1      39.949  41.337  51.712  1.00  0.00    -0.550 OA
ENDBRANCH  11  12
ENDBRANCH  10  11
ENDBRANCH   9  10
ENDBRANCH   8   9
ENDBRANCH   7   8
ENDBRANCH   6   7
ENDBRANCH   5   6
ENDBRANCH   4   5
ENDBRANCH   3   4
ENDBRANCH   2   3
ENDBRANCH   1   2
BRANCH   1  15
ATOM     15  C   UNL     1      34.115  43.294  52.465  1.00  0.00     0.000 C 
BRANCH  15  16
ATOM     16  C   UNL     1      32.845  42.739  51.796  1.00  0.00     0.000 C 
BRANCH  16  17
ATOM     17  C   UNL     1      31.695  43.757  51.779  1.00  0.00     0.000 C 
BRANCH  17  18
ATOM     18  C   UNL     1      30.465  43.241  51.011  1.00  0.00    -0.000 C 
BRANCH  18  19
ATOM     19  C   UNL     1      30.700  43.182  49.494  1.00  0.00    -0.000 C 
BRANCH  19  20
ATOM     20  C   UNL     1      30.054  44.361  48.748  1.00  0.00    -0.000 C 
BRANCH  20  21
ATOM     21  C   UNL     1      30.401  44.383  47.247  1.00  0.00    -0.000 C 
BRANCH  21  22
ATOM     22  C   UNL     1      30.643  43.000  46.618  1.00  0.00    -0.000 C 
BRANCH  22  23
ATOM     23  C   UNL     1      31.693  43.028  45.493  1.00  0.00    -0.000 C 
BRANCH  23  24
ATOM     24  C   UNL     1      31.933  44.455  44.955  1.00  0.00    -0.000 C 
BRANCH  24  25
ATOM     25  C   UNL     1      32.809  44.503  43.692  1.00  0.00    -0.003 C 
ATOM     26  C   UNL     1      32.185  45.315  42.560  1.00  0.00     0.004 C 
ENDBRANCH  24  25
ENDBRANCH  23  24
ENDBRANCH  22  23
ENDBRANCH  21  22
ENDBRANCH  20  21
ENDBRANCH  19  20
ENDBRANCH  18  19
ENDBRANCH  17  18
ENDBRANCH  16  17
ENDBRANCH  15  16
ENDBRANCH   1  15
TORSDOF 22
ENDMDL
MODEL 2
REMARK VINA RESULT:    -5.156      1.162      4.551
REMARK INTER + INTRA:         -15.242
REMARK INTER:                 -11.665
REMARK INTRA:                  -3.577
REMARK UNBOUND:                -3.454
REMARK SMILES CCCCCCCCCCCCCCCCCCCCCCCC(=O)[O-]
REMARK SMILES IDX 13 1 14 2 15 3 16 4 17 5 18 6 19 7 20 8 21 9 22 10 23 11
REMARK SMILES IDX 24 12 25 13 26 14 12 15 11 16 10 17 9 18 8 19 7 20 6 21 5 22
REMARK SMILES IDX 4 23 3 24 2 25 1 26
REMARK H PARENT
REMARK Flexibility Score: inf
ROOT
ATOM      1  C   UNL     1      30.777  44.421  47.367  1.00  0.00     0.000 C 
ENDROOT
BRANCH   1   2
ATOM      2  C   UNL     1      29.925  44.348  48.646  1.00  0.00     0.000 C 
BRANCH   2   3
ATOM      3  C   UNL     1      30.426  43.284  49.639  1.00  0.00     0.000 C 
BRANCH   3   4
ATOM      4  C   UNL     1      31.333  43.819  50.766  1.00  0.00     0.000 C 
BRANCH   4   5
ATOM      5  C   UNL     1      32.458  42.866  51.207  1.00  0.00     0.000 C 
BRANCH   5   6
ATOM      6  C   UNL     1      32.819  43.015  52.694  1.00  0.00     0.000 C 
BRANCH   6   7
ATOM      7  C   UNL     1      34.245  43.547  52.913  1.00  0.00     0.000 C 
BRANCH   7   8
ATOM      8  C   UNL     1      34.782  44.459  51.791  1.00  0.00     0.000 C 
BRANCH   8   9
ATOM      9  C   UNL     1      36.216  44.147  51.326  1.00  0.00     0.000 C 
BRANCH   9  10
ATOM     10  C   UNL     1      36.393  42.694  50.865  1.00  0.00     0.006 C 
BRANCH  10  11
ATOM     11  C   UNL     1      37.372  42.609  49.689  1.00  0.00     0.053 C 
BRANCH  11  12
ATOM     12  C   UNL     1      38.630  41.912  50.101  1.00  0.00     0.041 C 
ATOM     13  O   UNL     1      39.259  42.292  51.124  1.00  0.00    -0.550 OA
ATOM     14  O   UNL     1      39.088  40.817  49.377  1.00  0.00    -0.550 OA
ENDBRANCH  11  12
ENDBRANCH  10  11
ENDBRANCH   9  10
ENDBRANCH   8   9
ENDBRANCH   7   8
ENDBRANCH   6   7
ENDBRANCH   5   6
ENDBRANCH   4   5
ENDBRANCH   3   4
ENDBRANCH   2   3
ENDBRANCH   1   2
BRANCH   1  15
ATOM     15  C   UNL     1      30.517  43.237  46.423  1.00  0.00     0.000 C 
BRANCH  15  16
ATOM     16  C   UNL     1      31.812  42.508  46.021  1.00  0.00     0.000 C 
BRANCH  16  17
ATOM     17  C   UNL     1      32.438  41.731  47.190  1.00  0.00     0.000 C 
BRANCH  17  18
ATOM     18  C   UNL     1      33.903  42.131  47.443  1.00  0.00    -0.000 C 
BRANCH  18  19
ATOM     19  C   UNL     1      34.027  43.415  48.278  1.00  0.00    -0.000 C 
BRANCH  19  20
ATOM     20  C   UNL     1      34.956  44.455  47.631  1.00  0.00    -0.000 C 
BRANCH  20  21
ATOM     21  C   UNL     1      35.849  43.855  46.528  1.00  0.00    -0.000 C 
BRANCH  21  22
ATOM     22  C   UNL     1      35.627  44.443  45.123  1.00  0.00    -0.000 C 
BRANCH  22  23
ATOM     23  C   UNL     1      34.186  44.937  44.902  1.00  0.00    -0.000 C 
BRANCH  23  24
ATOM     24  C   UNL     1      33.733  44.774  43.435  1.00  0.00    -0.000 C 
BRANCH  24  25
ATOM     25  C   UNL     1      32.208  44.843  43.246  1.00  0.00    -0.003 C 
ATOM     26  C   UNL     1      31.797  45.483  41.922  1.00  0.00     0.004 C 
ENDBRANCH  24  25
ENDBRANCH  23  24
ENDBRANCH  22  23
ENDBRANCH  21  22
ENDBRANCH  20  21
ENDBRANCH  19  20
ENDBRANCH  18  19
ENDBRANCH  17  18
ENDBRANCH  16  17
ENDBRANCH  15  16
ENDBRANCH   1  15
TORSDOF 22
ENDMDL
MODEL 3
REMARK VINA RESULT:    -5.112      2.825      5.760
REMARK INTER + INTRA:         -15.141
REMARK INTER:                 -12.810
REMARK INTRA:                  -2.332
REMARK UNBOUND:                -3.454
REMARK SMILES CCCCCCCCCCCCCCCCCCCCCCCC(=O)[O-]
REMARK SMILES IDX 13 1 14 2 15 3 16 4 17 5 18 6 19 7 20 8 21 9 22 10 23 11
REMARK SMILES IDX 24 12 25 13 26 14 12 15 11 16 10 17 9 18 8 19 7 20 6 21 5 22
REMARK SMILES IDX 4 23 3 24 2 25 1 26
REMARK H PARENT
REMARK Flexibility Score: inf
ROOT
ATOM      1  C   UNL     1      38.507  41.564  50.319  1.00  0.00     0.000 C 
ENDROOT
BRANCH   1   2
ATOM      2  C   UNL     1      38.270  43.012  50.777  1.00  0.00     0.000 C 
BRANCH   2   3
ATOM      3  C   UNL     1      36.912  43.205  51.476  1.00  0.00     0.000 C 
BRANCH   3   4
ATOM      4  C   UNL     1      36.139  44.473  51.063  1.00  0.00     0.000 C 
BRANCH   4   5
ATOM      5  C   UNL     1      34.958  44.847  51.977  1.00  0.00     0.000 C 
BRANCH   5   6
ATOM      6  C   UNL     1      33.967  43.688  52.179  1.00  0.00     0.000 C 
BRANCH   6   7
ATOM      7  C   UNL     1      32.764  43.758  51.223  1.00  0.00     0.000 C 
BRANCH   7   8
ATOM      8  C   UNL     1      33.042  43.274  49.786  1.00  0.00     0.000 C 
BRANCH   8   9
ATOM      9  C   UNL     1      33.227  44.392  48.744  1.00  0.00     0.000 C 
BRANCH   9  10
ATOM     10  C   UNL     1      32.067  44.475  47.742  1.00  0.00     0.006 C 
BRANCH  10  11
ATOM     11  C   UNL     1      31.169  43.239  47.842  1.00  0.00     0.053 C 
BRANCH  11  12
ATOM     12  C   UNL     1      31.354  42.356  46.648  1.00  0.00     0.041 C 
ATOM     13  O   UNL     1      30.664  42.541  45.611  1.00  0.00    -0.550 OA
ATOM     14  O   UNL     1      32.316  41.353  46.667  1.00  0.00    -0.550 OA
ENDBRANCH  11  12
ENDBRANCH  10  11
ENDBRANCH   9  10
ENDBRANCH   8   9
ENDBRANCH   7   8
ENDBRANCH   6   7
ENDBRANCH   5   6
ENDBRANCH   4   5
ENDBRANCH   3   4
ENDBRANCH   2   3
ENDBRANCH   1   2
BRANCH   1  15
ATOM     15  C   UNL     1      38.439  41.415  48.792  1.00  0.00     0.000 C 
BRANCH  15  16
ATOM     16  C   UNL     1      37.766  42.621  48.110  1.00  0.00     0.000 C 
BRANCH  16  17
ATOM     17  C   UNL     1      36.236  42.491  48.061  1.00  0.00     0.000 C 
BRANCH  17  18
ATOM     18  C   UNL     1      35.689  42.528  46.623  1.00  0.00    -0.000 C 
BRANCH  18  19
ATOM     19  C   UNL     1      36.109  43.797  45.865  1.00  0.00    -0.000 C 
BRANCH  19  20
ATOM     20  C   UNL     1      34.933  44.761  45.629  1.00  0.00    -0.000 C 
BRANCH  20  21
ATOM     21  C   UNL     1      34.496  44.822  44.154  1.00  0.00    -0.000 C 
BRANCH  21  22
ATOM     22  C   UNL     1      33.020  44.466  43.901  1.00  0.00    -0.000 C 
BRANCH  22  23
ATOM     23  C   UNL     1      32.297  45.500  43.019  1.00  0.00    -0.000 C 
BRANCH  23  24
ATOM     24  C   UNL     1      31.476  44.835  41.894  1.00  0.00    -0.000 C 
BRANCH  24  25
ATOM     25  C   UNL     1      30.913  45.830  40.866  1.00  0.00    -0.003 C 
ATOM     26  C   UNL     1      30.075  45.160  39.780  1.00  0.00     0.004 C 
ENDBRANCH  24  25
ENDBRANCH  23  24
ENDBRANCH  22  23
ENDBRANCH  21  22
ENDBRANCH  20  21
ENDBRANCH  19  20
ENDBRANCH  18  19
ENDBRANCH  17  18
ENDBRANCH  16  17
ENDBRANCH  15  16
ENDBRANCH   1  15
TORSDOF 22
ENDMDL
MODEL 4
REMARK VINA RESULT:    -5.070      2.907      6.672
REMARK INTER + INTRA:         -15.044
REMARK INTER:                 -11.758
REMARK INTRA:                  -3.286
REMARK UNBOUND:                -3.454
REMARK SMILES CCCCCCCCCCCCCCCCCCCCCCCC(=O)[O-]
REMARK SMILES IDX 13 1 14 2 15 3 16 4 17 5 18 6 19 7 20 8 21 9 22 10 23 11
REMARK SMILES IDX 24 12 25 13 26 14 12 15 11 16 10 17 9 18 8 19 7 20 6 21 5 22
REMARK SMILES IDX 4 23 3 24 2 25 1 26
REMARK H PARENT
REMARK Flexibility Score: inf
ROOT
ATOM      1  C   UNL     1      33.526  42.626  51.414  1.00  0.00     0.000 C 
ENDROOT
BRANCH   1   2
ATOM      2  C   UNL     1      32.763  42.444  52.737  1.00  0.00     0.000 C 
BRANCH   2   3
ATOM      3  C   UNL     1      31.236  42.427  52.550  1.00  0.00     0.000 C 
BRANCH   3   4
ATOM      4  C   UNL     1      30.678  43.532  51.630  1.00  0.00     0.000 C 
BRANCH   4   5
ATOM      5  C   UNL     1      29.927  43.029  50.384  1.00  0.00     0.000 C 
BRANCH   5   6
ATOM      6  C   UNL     1      29.879  44.069  49.253  1.00  0.00     0.000 C 
BRANCH   6   7
ATOM      7  C   UNL     1      31.147  44.067  48.384  1.00  0.00     0.000 C 
BRANCH   7   8
ATOM      8  C   UNL     1      31.608  42.676  47.903  1.00  0.00     0.000 C 
BRANCH   8   9
ATOM      9  C   UNL     1      32.144  42.627  46.461  1.00  0.00     0.000 C 
BRANCH   9  10
ATOM     10  C   UNL     1      32.439  44.019  45.884  1.00  0.00     0.006 C 
BRANCH  10  11
ATOM     11  C   UNL     1      31.795  44.185  44.504  1.00  0.00     0.053 C 
BRANCH  11  12
ATOM     12  C   UNL     1      32.757  44.817  43.547  1.00  0.00     0.041 C 
ATOM     13  O   UNL     1      32.347  45.277  42.448  1.00  0.00    -0.550 OA
ATOM     14  O   UNL     1      34.100  44.932  43.885  1.00  0.00    -0.550 OA
ENDBRANCH  11  12
ENDBRANCH  10  11
ENDBRANCH   9  10
ENDBRANCH   8   9
ENDBRANCH   7   8
ENDBRANCH   6   7
ENDBRANCH   5   6
ENDBRANCH   4   5
ENDBRANCH   3   4
ENDBRANCH   2   3
ENDBRANCH   1   2
BRANCH   1  15
ATOM     15  C   UNL     1      35.043  42.744  51.627  1.00  0.00     0.000 C 
BRANCH  15  16
ATOM     16  C   UNL     1      35.465  44.145  52.108  1.00  0.00     0.000 C 
BRANCH  16  17
ATOM     17  C   UNL     1      34.644  45.265  51.451  1.00  0.00     0.000 C 
BRANCH  17  18
ATOM     18  C   UNL     1      35.229  45.705  50.097  1.00  0.00    -0.000 C 
BRANCH  18  19
ATOM     19  C   UNL     1      34.374  45.240  48.908  1.00  0.00    -0.000 C 
BRANCH  19  20
ATOM     20  C   UNL     1      35.216  44.610  47.785  1.00  0.00    -0.000 C 
BRANCH  20  21
ATOM     21  C   UNL     1      35.487  43.111  48.008  1.00  0.00    -0.000 C 
BRANCH  21  22
ATOM     22  C   UNL     1      36.646  42.531  47.178  1.00  0.00    -0.000 C 
BRANCH  22  23
ATOM     23  C   UNL     1      37.923  42.306  48.007  1.00  0.00    -0.000 C 
BRANCH  23  24
ATOM     24  C   UNL     1      37.634  42.261  49.523  1.00  0.00    -0.000 C 
BRANCH  24  25
ATOM     25  C   UNL     1      38.843  42.639  50.395  1.00  0.00    -0.003 C 
ATOM     26  C   UNL     1      39.337  41.485  51.265  1.00  0.00     0.004 C 
ENDBRANCH  24  25
ENDBRANCH  23  24
ENDBRANCH  22  23
ENDBRANCH  21  22
ENDBRANCH  20  21
ENDBRANCH  19  20
ENDBRANCH  18  19
ENDBRANCH  17  18
ENDBRANCH  16  17
ENDBRANCH  15  16
ENDBRANCH   1  15
TORSDOF 22
ENDMDL
MODEL 5
REMARK VINA RESULT:    -5.019      3.372      6.738
REMARK INTER + INTRA:         -14.928
REMARK INTER:                 -11.785
REMARK INTRA:                  -3.143
REMARK UNBOUND:                -3.454
REMARK SMILES CCCCCCCCCCCCCCCCCCCCCCCC(=O)[O-]
REMARK SMILES IDX 13 1 14 2 15 3 16 4 17 5 18 6 19 7 20 8 21 9 22 10 23 11
REMARK SMILES IDX 24 12 25 13 26 14 12 15 11 16 10 17 9 18 8 19 7 20 6 21 5 22
REMARK SMILES IDX 4 23 3 24 2 25 1 26
REMARK H PARENT
REMARK Flexibility Score: inf
ROOT
ATOM      1  C   UNL     1      30.103  44.332  47.890  1.00  0.00     0.000 C 
ENDROOT
BRANCH   1   2
ATOM      2  C   UNL     1      31.418  44.162  47.109  1.00  0.00     0.000 C 
BRANCH   2   3
ATOM      3  C   UNL     1      31.587  42.750  46.523  1.00  0.00     0.000 C 
BRANCH   3   4
ATOM      4  C   UNL     1      32.722  41.914  47.150  1.00  0.00     0.000 C 
BRANCH   4   5
ATOM      5  C   UNL     1      33.934  42.723  47.644  1.00  0.00     0.000 C 
BRANCH   5   6
ATOM      6  C   UNL     1      35.278  42.068  47.285  1.00  0.00     0.000 C 
BRANCH   6   7
ATOM      7  C   UNL     1      36.195  42.991  46.466  1.00  0.00     0.000 C 
BRANCH   7   8
ATOM      8  C   UNL     1      35.696  44.443  46.316  1.00  0.00     0.000 C 
BRANCH   8   9
ATOM      9  C   UNL     1      35.379  44.880  44.875  1.00  0.00     0.000 C 
BRANCH   9  10
ATOM     10  C   UNL     1      33.918  44.622  44.479  1.00  0.00     0.006 C 
BRANCH  10  11
ATOM     11  C   UNL     1      33.496  45.537  43.325  1.00  0.00     0.053 C 
BRANCH  11  12
ATOM     12  C   UNL     1      32.281  44.994  42.640  1.00  0.00     0.041 C 
ATOM     13  O   UNL     1      31.690  45.678  41.763  1.00  0.00    -0.550 OA
ATOM     14  O   UNL     1      31.824  43.717  42.943  1.00  0.00    -0.550 OA
ENDBRANCH  11  12
ENDBRANCH  10  11
ENDBRANCH   9  10
ENDBRANCH   8   9
ENDBRANCH   7   8
ENDBRANCH   6   7
ENDBRANCH   5   6
ENDBRANCH   4   5
ENDBRANCH   3   4
ENDBRANCH   2   3
ENDBRANCH   1   2
BRANCH   1  15
ATOM     15  C   UNL     1      30.101  43.545  49.209  1.00  0.00     0.000 C 
BRANCH  15  16
ATOM     16  C   UNL     1      31.400  43.735  50.013  1.00  0.00     0.000 C 
BRANCH  16  17
ATOM     17  C   UNL     1      31.293  43.187  51.444  1.00  0.00     0.000 C 
BRANCH  17  18
ATOM     18  C   UNL     1      32.658  42.763  52.015  1.00  0.00    -0.000 C 
BRANCH  18  19
ATOM     19  C   UNL     1      33.181  43.741  53.078  1.00  0.00    -0.000 C 
BRANCH  19  20
ATOM     20  C   UNL     1      34.704  43.943  52.998  1.00  0.00    -0.000 C 
BRANCH  20  21
ATOM     21  C   UNL     1      35.116  44.966  51.923  1.00  0.00    -0.000 C 
BRANCH  21  22
ATOM     22  C   UNL     1      35.513  44.356  50.567  1.00  0.00    -0.000 C 
BRANCH  22  23
ATOM     23  C   UNL     1      36.191  42.981  50.704  1.00  0.00    -0.000 C 
BRANCH  23  24
ATOM     24  C   UNL     1      37.579  42.945  50.029  1.00  0.00    -0.000 C 
BRANCH  24  25
ATOM     25  C   UNL     1      38.508  41.851  50.580  1.00  0.00    -0.003 C 
ATOM     26  C   UNL     1      39.092  40.955  49.490  1.00  0.00     0.004 C 
ENDBRANCH  24  25
ENDBRANCH  23  24
ENDBRANCH  22  23
ENDBRANCH  21  22
ENDBRANCH  20  21
ENDBRANCH  19  20
ENDBRANCH  18  19
ENDBRANCH  17  18
ENDBRANCH  16  17
ENDBRANCH  15  16
ENDBRANCH   1  15
TORSDOF 22
ENDMDL
MODEL 6
REMARK VINA RESULT:    -4.975      2.933      7.186
REMARK INTER + INTRA:         -14.828
REMARK INTER:                 -10.773
REMARK INTRA:                  -4.055
REMARK UNBOUND:                -3.454
REMARK SMILES CCCCCCCCCCCCCCCCCCCCCCCC(=O)[O-]
REMARK SMILES IDX 13 1 14 2 15 3 16 4 17 5 18 6 19 7 20 8 21 9 22 10 23 11
REMARK SMILES IDX 24 12 25 13 26 14 12 15 11 16 10 17 9 18 8 19 7 20 6 21 5 22
REMARK SMILES IDX 4 23 3 24 2 25 1 26
REMARK H PARENT
REMARK Flexibility Score: inf
ROOT
ATOM      1  C   UNL     1      35.697  43.175  46.345  1.00  0.00     0.000 C 
ENDROOT
BRANCH   1   2
ATOM      2  C   UNL     1      35.500  44.440  47.197  1.00  0.00     0.000 C 
BRANCH   2   3
ATOM      3  C   UNL     1      34.280  44.350  48.130  1.00  0.00     0.000 C 
BRANCH   3   4
ATOM      4  C   UNL     1      33.869  42.919  48.531  1.00  0.00     0.000 C 
BRANCH   4   5
ATOM      5  C   UNL     1      32.610  42.823  49.411  1.00  0.00     0.000 C 
BRANCH   5   6
ATOM      6  C   UNL     1      31.565  43.901  49.082  1.00  0.00     0.000 C 
BRANCH   6   7
ATOM      7  C   UNL     1      30.191  43.313  48.719  1.00  0.00     0.000 C 
BRANCH   7   8
ATOM      8  C   UNL     1      30.211  42.239  47.613  1.00  0.00     0.000 C 
BRANCH   8   9
ATOM      9  C   UNL     1      30.207  42.783  46.173  1.00  0.00     0.000 C 
BRANCH   9  10
ATOM     10  C   UNL     1      31.616  42.911  45.577  1.00  0.00     0.006 C 
BRANCH  10  11
ATOM     11  C   UNL     1      31.933  44.371  45.236  1.00  0.00     0.053 C 
BRANCH  11  12
ATOM     12  C   UNL     1      32.717  44.456  43.964  1.00  0.00     0.041 C 
ATOM     13  O   UNL     1      32.197  44.095  42.875  1.00  0.00    -0.550 OA
ATOM     14  O   UNL     1      34.008  44.970  43.975  1.00  0.00    -0.550 OA
ENDBRANCH  11  12
ENDBRANCH  10  11
ENDBRANCH   9  10
ENDBRANCH   8   9
ENDBRANCH   7   8
ENDBRANCH   6   7
ENDBRANCH   5   6
ENDBRANCH   4   5
ENDBRANCH   3   4
ENDBRANCH   2   3
ENDBRANCH   1   2
BRANCH   1  15
ATOM     15  C   UNL     1      36.918  42.355  46.791  1.00  0.00     0.000 C 
BRANCH  15  16
ATOM     16  C   UNL     1      37.530  42.873  48.105  1.00  0.00     0.000 C 
BRANCH  16  17
ATOM     17  C   UNL     1      38.129  41.747  48.961  1.00  0.00     0.000 C 
BRANCH  17  18
ATOM     18  C   UNL     1      38.053  42.049  50.468  1.00  0.00    -0.000 C 
BRANCH  18  19
ATOM     19  C   UNL     1      37.251  43.324  50.772  1.00  0.00    -0.000 C 
BRANCH  19  20
ATOM     20  C   UNL     1      35.883  43.026  51.408  1.00  0.00    -0.000 C 
BRANCH  20  21
ATOM     21  C   UNL     1      35.410  44.139  52.362  1.00  0.00    -0.000 C 
BRANCH  21  22
ATOM     22  C   UNL     1      34.415  45.139  51.747  1.00  0.00    -0.000 C 
BRANCH  22  23
ATOM     23  C   UNL     1      33.116  45.270  52.562  1.00  0.00    -0.000 C 
BRANCH  23  24
ATOM     24  C   UNL     1      32.573  43.898  53.018  1.00  0.00    -0.000 C 
BRANCH  24  25
ATOM     25  C   UNL     1      31.078  43.694  52.722  1.00  0.00    -0.003 C 
ATOM     26  C   UNL     1      30.675  42.223  52.659  1.00  0.00     0.004 C 
ENDBRANCH  24  25
ENDBRANCH  23  24
ENDBRANCH  22  23
ENDBRANCH  21  22
ENDBRANCH  20  21
ENDBRANCH  19  20
ENDBRANCH  18  19
ENDBRANCH  17  18
ENDBRANCH  16  17
ENDBRANCH  15  16
ENDBRANCH   1  15
TORSDOF 22
ENDMDL
MODEL 7
REMARK VINA RESULT:    -4.910     14.788     16.957
REMARK INTER + INTRA:         -14.680
REMARK INTER:                 -10.959
REMARK INTRA:                  -3.720
REMARK UNBOUND:                -3.454
REMARK SMILES CCCCCCCCCCCCCCCCCCCCCCCC(=O)[O-]
REMARK SMILES IDX 13 1 14 2 15 3 16 4 17 5 18 6 19 7 20 8 21 9 22 10 23 11
REMARK SMILES IDX 24 12 25 13 26 14 12 15 11 16 10 17 9 18 8 19 7 20 6 21 5 22
REMARK SMILES IDX 4 23 3 24 2 25 1 26
REMARK H PARENT
REMARK Flexibility Score: inf
ROOT
ATOM      1  C   UNL     1      46.595  43.557  38.422  1.00  0.00     0.000 C 
ENDROOT
BRANCH   1   2
ATOM      2  C   UNL     1      48.110  43.817  38.380  1.00  0.00     0.000 C 
BRANCH   2   3
ATOM      3  C   UNL     1      48.942  42.522  38.411  1.00  0.00     0.000 C 
BRANCH   3   4
ATOM      4  C   UNL     1      49.281  41.931  37.028  1.00  0.00     0.000 C 
BRANCH   4   5
ATOM      5  C   UNL     1      48.344  40.808  36.548  1.00  0.00     0.000 C 
BRANCH   5   6
ATOM      6  C   UNL     1      47.433  41.244  35.389  1.00  0.00     0.000 C 
BRANCH   6   7
ATOM      7  C   UNL     1      45.962  41.401  35.811  1.00  0.00     0.000 C 
BRANCH   7   8
ATOM      8  C   UNL     1      45.217  40.080  36.089  1.00  0.00     0.000 C 
BRANCH   8   9
ATOM      9  C   UNL     1      44.125  40.161  37.171  1.00  0.00     0.000 C 
BRANCH   9  10
ATOM     10  C   UNL     1      44.652  40.679  38.517  1.00  0.00     0.006 C 
BRANCH  10  11
ATOM     11  C   UNL     1      45.761  39.770  39.055  1.00  0.00     0.053 C 
BRANCH  11  12
ATOM     12  C   UNL     1      45.184  38.499  39.595  1.00  0.00     0.041 C 
ATOM     13  O   UNL     1      44.208  38.534  40.391  1.00  0.00    -0.550 OA
ATOM     14  O   UNL     1      45.698  37.273  39.188  1.00  0.00    -0.550 OA
ENDBRANCH  11  12
ENDBRANCH  10  11
ENDBRANCH   9  10
ENDBRANCH   8   9
ENDBRANCH   7   8
ENDBRANCH   6   7
ENDBRANCH   5   6
ENDBRANCH   4   5
ENDBRANCH   3   4
ENDBRANCH   2   3
ENDBRANCH   1   2
BRANCH   1  15
ATOM     15  C   UNL     1      45.805  44.786  38.897  1.00  0.00     0.000 C 
BRANCH  15  16
ATOM     16  C   UNL     1      46.718  45.911  39.416  1.00  0.00     0.000 C 
BRANCH  16  17
ATOM     17  C   UNL     1      45.932  47.165  39.828  1.00  0.00     0.000 C 
BRANCH  17  18
ATOM     18  C   UNL     1      44.536  47.221  39.183  1.00  0.00    -0.000 C 
BRANCH  18  19
ATOM     19  C   UNL     1      44.248  48.576  38.516  1.00  0.00    -0.000 C 
BRANCH  19  20
ATOM     20  C   UNL     1      45.507  49.214  37.906  1.00  0.00    -0.000 C 
BRANCH  20  21
ATOM     21  C   UNL     1      45.684  48.879  36.413  1.00  0.00    -0.000 C 
BRANCH  21  22
ATOM     22  C   UNL     1      46.713  47.774  36.115  1.00  0.00    -0.000 C 
BRANCH  22  23
ATOM     23  C   UNL     1      46.061  46.446  35.692  1.00  0.00    -0.000 C 
BRANCH  23  24
ATOM     24  C   UNL     1      47.102  45.409  35.219  1.00  0.00    -0.000 C 
BRANCH  24  25
ATOM     25  C   UNL     1      46.672  44.625  33.967  1.00  0.00    -0.003 C 
ATOM     26  C   UNL     1      45.493  45.264  33.237  1.00  0.00     0.004 C 
ENDBRANCH  24  25
ENDBRANCH  23  24
ENDBRANCH  22  23
ENDBRANCH  21  22
ENDBRANCH  20  21
ENDBRANCH  19  20
ENDBRANCH  18  19
ENDBRANCH  17  18
ENDBRANCH  16  17
ENDBRANCH  15  16
ENDBRANCH   1  15
TORSDOF 22
ENDMDL
MODEL 8
REMARK VINA RESULT:    -4.886     14.379     17.339
REMARK INTER + INTRA:         -14.625
REMARK INTER:                 -10.396
REMARK INTRA:                  -4.228
REMARK UNBOUND:                -3.454
REMARK SMILES CCCCCCCCCCCCCCCCCCCCCCCC(=O)[O-]
REMARK SMILES IDX 13 1 14 2 15 3 16 4 17 5 18 6 19 7 20 8 21 9 22 10 23 11
REMARK SMILES IDX 24 12 25 13 26 14 12 15 11 16 10 17 9 18 8 19 7 20 6 21 5 22
REMARK SMILES IDX 4 23 3 24 2 25 1 26
REMARK H PARENT
REMARK Flexibility Score: inf
ROOT
ATOM      1  C   UNL     1      46.261  44.234  34.822  1.00  0.00     0.000 C 
ENDROOT
BRANCH   1   2
ATOM      2  C   UNL     1      46.764  43.012  35.609  1.00  0.00     0.000 C 
BRANCH   2   3
ATOM      3  C   UNL     1      45.869  42.665  36.811  1.00  0.00     0.000 C 
BRANCH   3   4
ATOM      4  C   UNL     1      46.618  42.447  38.142  1.00  0.00     0.000 C 
BRANCH   4   5
ATOM      5  C   UNL     1      48.009  41.801  38.010  1.00  0.00     0.000 C 
BRANCH   5   6
ATOM      6  C   UNL     1      48.148  40.509  38.833  1.00  0.00     0.000 C 
BRANCH   6   7
ATOM      7  C   UNL     1      48.097  39.239  37.967  1.00  0.00     0.000 C 
BRANCH   7   8
ATOM      8  C   UNL     1      46.716  38.556  37.889  1.00  0.00     0.000 C 
BRANCH   8   9
ATOM      9  C   UNL     1      46.046  38.280  39.247  1.00  0.00     0.000 C 
BRANCH   9  10
ATOM     10  C   UNL     1      44.754  39.084  39.451  1.00  0.00     0.006 C 
BRANCH  10  11
ATOM     11  C   UNL     1      44.220  39.608  38.115  1.00  0.00     0.053 C 
BRANCH  11  12
ATOM     12  C   UNL     1      43.064  40.532  38.336  1.00  0.00     0.041 C 
ATOM     13  O   UNL     1      41.972  40.335  37.738  1.00  0.00    -0.550 OA
ATOM     14  O   UNL     1      43.178  41.588  39.233  1.00  0.00    -0.550 OA
ENDBRANCH  11  12
ENDBRANCH  10  11
ENDBRANCH   9  10
ENDBRANCH   8   9
ENDBRANCH   7   8
ENDBRANCH   6   7
ENDBRANCH   5   6
ENDBRANCH   4   5
ENDBRANCH   3   4
ENDBRANCH   2   3
ENDBRANCH   1   2
BRANCH   1  15
ATOM     15  C   UNL     1      47.031  45.515  35.177  1.00  0.00     0.000 C 
BRANCH  15  16
ATOM     16  C   UNL     1      48.471  45.230  35.641  1.00  0.00     0.000 C 
BRANCH  16  17
ATOM     17  C   UNL     1      48.898  46.119  36.819  1.00  0.00     0.000 C 
BRANCH  17  18
ATOM     18  C   UNL     1      48.471  45.538  38.179  1.00  0.00    -0.000 C 
BRANCH  18  19
ATOM     19  C   UNL     1      47.668  46.542  39.021  1.00  0.00    -0.000 C 
BRANCH  19  20
ATOM     20  C   UNL     1      46.213  46.096  39.246  1.00  0.00    -0.000 C 
BRANCH  20  21
ATOM     21  C   UNL     1      45.255  46.609  38.155  1.00  0.00    -0.000 C 
BRANCH  21  22
ATOM     22  C   UNL     1      44.474  47.882  38.526  1.00  0.00    -0.000 C 
BRANCH  22  23
ATOM     23  C   UNL     1      44.899  49.109  37.699  1.00  0.00    -0.000 C 
BRANCH  23  24
ATOM     24  C   UNL     1      45.659  48.712  36.415  1.00  0.00    -0.000 C 
BRANCH  24  25
ATOM     25  C   UNL     1      47.100  49.246  36.358  1.00  0.00    -0.003 C 
ATOM     26  C   UNL     1      47.476  50.086  37.577  1.00  0.00     0.004 C 
ENDBRANCH  24  25
ENDBRANCH  23  24
ENDBRANCH  22  23
ENDBRANCH  21  22
ENDBRANCH  20  21
ENDBRANCH  19  20
ENDBRANCH  18  19
ENDBRANCH  17  18
ENDBRANCH  16  17
ENDBRANCH  15  16
ENDBRANCH   1  15
TORSDOF 22
ENDMDL
MODEL 9
REMARK VINA RESULT:    -4.813     14.639     17.333
REMARK INTER + INTRA:         -14.458
REMARK INTER:                 -10.862
REMARK INTRA:                  -3.596
REMARK UNBOUND:                -3.454
REMARK SMILES CCCCCCCCCCCCCCCCCCCCCCCC(=O)[O-]
REMARK SMILES IDX 13 1 14 2 15 3 16 4 17 5 18 6 19 7 20 8 21 9 22 10 23 11
REMARK SMILES IDX 24 12 25 13 26 14 12 15 11 16 10 17 9 18 8 19 7 20 6 21 5 22
REMARK SMILES IDX 4 23 3 24 2 25 1 26
REMARK H PARENT
REMARK Flexibility Score: inf
ROOT
ATOM      1  C   UNL     1      46.001  44.858  34.667  1.00  0.00     0.000 C 
ENDROOT
BRANCH   1   2
ATOM      2  C   UNL     1      46.101  45.878  35.813  1.00  0.00     0.000 C 
BRANCH   2   3
ATOM      3  C   UNL     1      47.509  45.947  36.432  1.00  0.00     0.000 C 
BRANCH   3   4
ATOM      4  C   UNL     1      47.543  46.236  37.947  1.00  0.00     0.000 C 
BRANCH   4   5
ATOM      5  C   UNL     1      46.901  45.154  38.833  1.00  0.00     0.000 C 
BRANCH   5   6
ATOM      6  C   UNL     1      45.582  45.613  39.478  1.00  0.00     0.000 C 
BRANCH   6   7
ATOM      7  C   UNL     1      45.531  47.131  39.720  1.00  0.00     0.000 C 
BRANCH   7   8
ATOM      8  C   UNL     1      44.287  47.842  39.151  1.00  0.00     0.000 C 
BRANCH   8   9
ATOM      9  C   UNL     1      44.490  48.523  37.786  1.00  0.00     0.000 C 
BRANCH   9  10
ATOM     10  C   UNL     1      45.262  49.846  37.885  1.00  0.00     0.006 C 
BRANCH  10  11
ATOM     11  C   UNL     1      46.518  49.813  37.008  1.00  0.00     0.053 C 
BRANCH  11  12
ATOM     12  C   UNL     1      47.751  49.875  37.853  1.00  0.00     0.041 C 
ATOM     13  O   UNL     1      47.662  50.108  39.088  1.00  0.00    -0.550 OA
ATOM     14  O   UNL     1      48.997  49.636  37.285  1.00  0.00    -0.550 OA
ENDBRANCH  11  12
ENDBRANCH  10  11
ENDBRANCH   9  10
ENDBRANCH   8   9
ENDBRANCH   7   8
ENDBRANCH   6   7
ENDBRANCH   5   6
ENDBRANCH   4   5
ENDBRANCH   3   4
ENDBRANCH   2   3
ENDBRANCH   1   2
BRANCH   1  15
ATOM     15  C   UNL     1      46.768  43.561  34.970  1.00  0.00     0.000 C 
BRANCH  15  16
ATOM     16  C   UNL     1      46.001  42.631  35.927  1.00  0.00     0.000 C 
BRANCH  16  17
ATOM     17  C   UNL     1      46.931  41.896  36.905  1.00  0.00     0.000 C 
BRANCH  17  18
ATOM     18  C   UNL     1      46.236  41.565  38.238  1.00  0.00    -0.000 C 
BRANCH  18  19
ATOM     19  C   UNL     1      44.843  42.203  38.351  1.00  0.00    -0.000 C 
BRANCH  19  20
ATOM     20  C   UNL     1      43.781  41.218  38.868  1.00  0.00    -0.000 C 
BRANCH  20  21
ATOM     21  C   UNL     1      44.142  39.747  38.587  1.00  0.00    -0.000 C 
BRANCH  21  22
ATOM     22  C   UNL     1      44.382  38.888  39.842  1.00  0.00    -0.000 C 
BRANCH  22  23
ATOM     23  C   UNL     1      45.386  37.746  39.603  1.00  0.00    -0.000 C 
BRANCH  23  24
ATOM     24  C   UNL     1      45.754  37.596  38.111  1.00  0.00    -0.000 C 
BRANCH  24  25
ATOM     25  C   UNL     1      47.251  37.344  37.864  1.00  0.00    -0.003 C 
ATOM     26  C   UNL     1      48.147  38.425  38.465  1.00  0.00     0.004 C 
ENDBRANCH  24  25
ENDBRANCH  23  24
ENDBRANCH  22  23
ENDBRANCH  21  22
ENDBRANCH  20  21
ENDBRANCH  19  20
ENDBRANCH  18  19
ENDBRANCH  17  18
ENDBRANCH  16  17
ENDBRANCH  15  16
ENDBRANCH   1  15
TORSDOF 22
ENDMDL
