MODEL 1
REMARK VINA RESULT:    -2.802      0.000      0.000
REMARK INTER + INTRA:          -3.641
REMARK INTER:                  -3.457
REMARK INTRA:                  -0.184
REMARK UNBOUND:                -0.184
REMARK SMILES CCCCCC(=O)[O-]
REMARK SMILES IDX 4 1 5 2 6 3 7 4 8 5 3 6 2 7 1 8
REMARK H PARENT
REMARK Flexibility Score: inf
ROOT
ATOM      1  C   UNL     1      55.356  82.228  32.639  1.00  0.00     0.006 C 
ENDROOT
BRANCH   1   2
ATOM      2  C   UNL     1      54.367  82.027  31.483  1.00  0.00     0.053 C 
BRANCH   2   3
ATOM      3  C   UNL     1      52.960  82.182  31.968  1.00  0.00     0.041 C 
ATOM      4  O   UNL     1      52.137  81.238  31.838  1.00  0.00    -0.550 OA
ATOM      5  O   UNL     1      52.542  83.387  32.517  1.00  0.00    -0.550 OA
ENDBRANCH   2   3
ENDBRANCH   1   2
BRANCH   1   6
ATOM      6  C   UNL     1      56.102  83.569  32.552  1.00  0.00     0.000 C 
BRANCH   6   7
ATOM      7  C   UNL     1      55.953  84.240  31.179  1.00  0.00    -0.003 C 
ATOM      8  C   UNL     1      57.274  84.224  30.413  1.00  0.00     0.004 C 
ENDBRANCH   6   7
ENDBRANCH   1   6
TORSDOF 4
ENDMDL
MODEL 2
REMARK VINA RESULT:    -2.756      1.472      1.923
REMARK INTER + INTRA:          -3.584
REMARK INTER:                  -3.368
REMARK INTRA:                  -0.216
REMARK UNBOUND:                -0.184
REMARK SMILES CCCCCC(=O)[O-]
REMARK SMILES IDX 4 1 5 2 6 3 7 4 8 5 3 6 2 7 1 8
REMARK H PARENT
REMARK Flexibility Score: inf
ROOT
ATOM      1  C   UNL     1      56.058  83.409  32.511  1.00  0.00     0.006 C 
ENDROOT
BRANCH   1   2
ATOM      2  C   UNL     1      55.242  82.117  32.655  1.00  0.00     0.053 C 
BRANCH   2   3
ATOM      3  C   UNL     1      54.602  81.757  31.352  1.00  0.00     0.041 C 
ATOM      4  O   UNL     1      53.347  81.706  31.255  1.00  0.00    -0.550 OA
ATOM      5  O   UNL     1      55.390  81.427  30.257  1.00  0.00    -0.550 OA
ENDBRANCH   2   3
ENDBRANCH   1   2
BRANCH   1   6
ATOM      6  C   UNL     1      55.269  84.532  31.818  1.00  0.00     0.000 C 
BRANCH   6   7
ATOM      7  C   UNL     1      55.931  85.002  30.515  1.00  0.00    -0.003 C 
ATOM      8  C   UNL     1      57.300  84.351  30.329  1.00  0.00     0.004 C 
ENDBRANCH   6   7
ENDBRANCH   1   6
TORSDOF 4
ENDMDL
MODEL 3
REMARK VINA RESULT:    -2.677      1.538      2.228
REMARK INTER + INTRA:          -3.487
REMARK INTER:                  -3.316
REMARK INTRA:                  -0.171
REMARK UNBOUND:                -0.184
REMARK SMILES CCCCCC(=O)[O-]
REMARK SMILES IDX 4 1 5 2 6 3 7 4 8 5 3 6 2 7 1 8
REMARK H PARENT
REMARK Flexibility Score: inf
ROOT
ATOM      1  C   UNL     1      54.956  85.124  32.630  1.00  0.00     0.006 C 
ENDROOT
BRANCH   1   2
ATOM      2  C   UNL     1      53.744  84.926  31.710  1.00  0.00     0.053 C 
BRANCH   2   3
ATOM      3  C   UNL     1      52.608  84.316  32.468  1.00  0.00     0.041 C 
ATOM      4  O   UNL     1      51.917  85.021  33.250  1.00  0.00    -0.550 OA
ATOM      5  O   UNL     1      52.343  82.958  32.351  1.00  0.00    -0.550 OA
ENDBRANCH   2   3
ENDBRANCH   1   2
BRANCH   1   6
ATOM      6  C   UNL     1      55.982  83.986  32.509  1.00  0.00     0.000 C 
BRANCH   6   7
ATOM      7  C   UNL     1      56.201  83.540  31.056  1.00  0.00    -0.003 C 
ATOM      8  C   UNL     1      57.370  84.290  30.422  1.00  0.00     0.004 C 
ENDBRANCH   6   7
ENDBRANCH   1   6
TORSDOF 4
ENDMDL
MODEL 4
REMARK VINA RESULT:    -2.665      1.327      1.730
REMARK INTER + INTRA:          -3.472
REMARK INTER:                  -3.309
REMARK INTRA:                  -0.163
REMARK UNBOUND:                -0.184
REMARK SMILES CCCCCC(=O)[O-]
REMARK SMILES IDX 4 1 5 2 6 3 7 4 8 5 3 6 2 7 1 8
REMARK H PARENT
REMARK Flexibility Score: inf
ROOT
ATOM      1  C   UNL     1      53.873  84.295  31.450  1.00  0.00     0.006 C 
ENDROOT
BRANCH   1   2
ATOM      2  C   UNL     1      52.787  83.556  32.244  1.00  0.00     0.053 C 
BRANCH   2   3
ATOM      3  C   UNL     1      52.968  82.076  32.124  1.00  0.00     0.041 C 
ATOM      4  O   UNL     1      52.333  81.429  31.250  1.00  0.00    -0.550 OA
ATOM      5  O   UNL     1      53.800  81.403  33.008  1.00  0.00    -0.550 OA
ENDBRANCH   2   3
ENDBRANCH   1   2
BRANCH   1   6
ATOM      6  C   UNL     1      55.032  84.773  32.338  1.00  0.00     0.000 C 
BRANCH   6   7
ATOM      7  C   UNL     1      56.263  83.860  32.246  1.00  0.00    -0.003 C 
ATOM      8  C   UNL     1      56.929  83.972  30.877  1.00  0.00     0.004 C 
ENDBRANCH   6   7
ENDBRANCH   1   6
TORSDOF 4
ENDMDL
MODEL 5
REMARK VINA RESULT:    -2.659      1.108      1.930
REMARK INTER + INTRA:          -3.465
REMARK INTER:                  -3.277
REMARK INTRA:                  -0.187
REMARK UNBOUND:                -0.184
REMARK SMILES CCCCCC(=O)[O-]
REMARK SMILES IDX 4 1 5 2 6 3 7 4 8 5 3 6 2 7 1 8
REMARK H PARENT
REMARK Flexibility Score: inf
ROOT
ATOM      1  C   UNL     1      55.004  81.708  31.540  1.00  0.00     0.006 C 
ENDROOT
BRANCH   1   2
ATOM      2  C   UNL     1      53.859  81.758  32.561  1.00  0.00     0.053 C 
BRANCH   2   3
ATOM      3  C   UNL     1      52.560  82.041  31.875  1.00  0.00     0.041 C 
ATOM      4  O   UNL     1      52.017  83.171  31.987  1.00  0.00    -0.550 OA
ATOM      5  O   UNL     1      51.922  81.040  31.154  1.00  0.00    -0.550 OA
ENDBRANCH   2   3
ENDBRANCH   1   2
BRANCH   1   6
ATOM      6  C   UNL     1      55.596  83.096  31.247  1.00  0.00     0.000 C 
BRANCH   6   7
ATOM      7  C   UNL     1      55.897  83.892  32.525  1.00  0.00    -0.003 C 
ATOM      8  C   UNL     1      55.002  85.125  32.627  1.00  0.00     0.004 C 
ENDBRANCH   6   7
ENDBRANCH   1   6
TORSDOF 4
ENDMDL
MODEL 6
REMARK VINA RESULT:    -2.654     23.492     24.220
REMARK INTER + INTRA:          -3.458
REMARK INTER:                  -3.249
REMARK INTRA:                  -0.209
REMARK UNBOUND:                -0.184
REMARK SMILES CCCCCC(=O)[O-]
REMARK SMILES IDX 4 1 5 2 6 3 7 4 8 5 3 6 2 7 1 8
REMARK H PARENT
REMARK Flexibility Score: inf
ROOT
ATOM      1  C   UNL     1      66.239  67.727  48.396  1.00  0.00     0.006 C 
ENDROOT
BRANCH   1   2
ATOM      2  C   UNL     1      64.768  67.465  48.744  1.00  0.00     0.053 C 
BRANCH   2   3
ATOM      3  C   UNL     1      63.871  68.282  47.869  1.00  0.00     0.041 C 
ATOM      4  O   UNL     1      62.834  68.814  48.346  1.00  0.00    -0.550 OA
ATOM      5  O   UNL     1      64.152  68.416  46.516  1.00  0.00    -0.550 OA
ENDBRANCH   2   3
ENDBRANCH   1   2
BRANCH   1   6
ATOM      6  C   UNL     1      66.769  69.032  49.011  1.00  0.00     0.000 C 
BRANCH   6   7
ATOM      7  C   UNL     1      67.847  69.699  48.145  1.00  0.00    -0.003 C 
ATOM      8  C   UNL     1      67.750  69.233  46.694  1.00  0.00     0.004 C 
ENDBRANCH   6   7
ENDBRANCH   1   6
TORSDOF 4
ENDMDL
MODEL 7
REMARK VINA RESULT:    -2.606     14.997     15.714
REMARK INTER + INTRA:          -3.399
REMARK INTER:                  -3.318
REMARK INTRA:                  -0.081
REMARK UNBOUND:                -0.184
REMARK SMILES CCCCCC(=O)[O-]
REMARK SMILES IDX 4 1 5 2 6 3 7 4 8 5 3 6 2 7 1 8
REMARK H PARENT
REMARK Flexibility Score: inf
ROOT
ATOM      1  C   UNL     1      48.967  81.813  46.057  1.00  0.00     0.006 C 
ENDROOT
BRANCH   1   2
ATOM      2  C   UNL     1      49.653  81.066  47.209  1.00  0.00     0.053 C 
BRANCH   2   3
ATOM      3  C   UNL     1      48.969  79.761  47.466  1.00  0.00     0.041 C 
ATOM      4  O   UNL     1      48.316  79.586  48.529  1.00  0.00    -0.550 OA
ATOM      5  O   UNL     1      49.094  78.719  46.557  1.00  0.00    -0.550 OA
ENDBRANCH   2   3
ENDBRANCH   1   2
BRANCH   1   6
ATOM      6  C   UNL     1      49.257  83.322  46.075  1.00  0.00     0.000 C 
BRANCH   6   7
ATOM      7  C   UNL     1      49.777  83.840  44.726  1.00  0.00    -0.003 C 
ATOM      8  C   UNL     1      51.257  84.202  44.812  1.00  0.00     0.004 C 
ENDBRANCH   6   7
ENDBRANCH   1   6
TORSDOF 4
ENDMDL
MODEL 8
REMARK VINA RESULT:    -2.591      2.263      3.916
REMARK INTER + INTRA:          -3.381
REMARK INTER:                  -3.237
REMARK INTRA:                  -0.144
REMARK UNBOUND:                -0.184
REMARK SMILES CCCCCC(=O)[O-]
REMARK SMILES IDX 4 1 5 2 6 3 7 4 8 5 3 6 2 7 1 8
REMARK H PARENT
REMARK Flexibility Score: inf
ROOT
ATOM      1  C   UNL     1      55.047  81.777  32.131  1.00  0.00     0.006 C 
ENDROOT
BRANCH   1   2
ATOM      2  C   UNL     1      55.854  82.930  32.743  1.00  0.00     0.053 C 
BRANCH   2   3
ATOM      3  C   UNL     1      56.124  83.981  31.713  1.00  0.00     0.041 C 
ATOM      4  O   UNL     1      57.205  83.973  31.067  1.00  0.00    -0.550 OA
ATOM      5  O   UNL     1      55.205  85.001  31.501  1.00  0.00    -0.550 OA
ENDBRANCH   2   3
ENDBRANCH   1   2
BRANCH   1   6
ATOM      6  C   UNL     1      53.596  81.738  32.636  1.00  0.00     0.000 C 
BRANCH   6   7
ATOM      7  C   UNL     1      52.602  82.326  31.624  1.00  0.00    -0.003 C 
ATOM      8  C   UNL     1      52.155  81.269  30.617  1.00  0.00     0.004 C 
ENDBRANCH   6   7
ENDBRANCH   1   6
TORSDOF 4
ENDMDL
MODEL 9
REMARK VINA RESULT:    -2.575     23.552     24.200
REMARK INTER + INTRA:          -3.362
REMARK INTER:                  -3.241
REMARK INTRA:                  -0.121
REMARK UNBOUND:                -0.184
REMARK SMILES CCCCCC(=O)[O-]
REMARK SMILES IDX 4 1 5 2 6 3 7 4 8 5 3 6 2 7 1 8
REMARK H PARENT
REMARK Flexibility Score: inf
ROOT
ATOM      1  C   UNL     1      65.175  67.565  46.333  1.00  0.00     0.006 C 
ENDROOT
BRANCH   1   2
ATOM      2  C   UNL     1      65.857  66.327  45.735  1.00  0.00     0.053 C 
BRANCH   2   3
ATOM      3  C   UNL     1      66.812  66.727  44.655  1.00  0.00     0.041 C 
ATOM      4  O   UNL     1      66.638  66.324  43.475  1.00  0.00    -0.550 OA
ATOM      5  O   UNL     1      67.922  67.503  44.961  1.00  0.00    -0.550 OA
ENDBRANCH   2   3
ENDBRANCH   1   2
BRANCH   1   6
ATOM      6  C   UNL     1      65.675  67.889  47.749  1.00  0.00     0.000 C 
BRANCH   6   7
ATOM      7  C   UNL     1      64.527  68.137  48.739  1.00  0.00    -0.003 C 
ATOM      8  C   UNL     1      63.248  68.535  48.006  1.00  0.00     0.004 C 
ENDBRANCH   6   7
ENDBRANCH   1   6
TORSDOF 4
ENDMDL
