MODEL 1
REMARK VINA RESULT:    -5.591      0.000      0.000
REMARK INTER + INTRA:          -6.489
REMARK INTER:                  -6.408
REMARK INTRA:                  -0.081
REMARK UNBOUND:                -0.081
REMARK SMILES COc1cc(C(=O)[O-])ccc1O
REMARK SMILES IDX 5 1 9 2 4 3 10 4 3 5 11 6 6 7 7 8 8 9 2 10 1 11 12 12
REMARK H PARENT 12 13
REMARK Flexibility Score: inf
ROOT
ATOM      1  C   UNL     1       5.539 -62.791 188.519  1.00  0.00     0.001 A 
ATOM      2  C   UNL     1       6.676 -63.518 188.128  1.00  0.00     0.014 A 
ATOM      3  C   UNL     1       5.641 -61.886 189.591  1.00  0.00     0.060 A 
ATOM      4  C   UNL     1       7.889 -63.344 188.795  1.00  0.00     0.051 A 
ATOM      5  C   UNL     1       6.865 -61.708 190.266  1.00  0.00     0.161 A 
ATOM      6  C   UNL     1       7.987 -62.443 189.862  1.00  0.00     0.157 A 
ENDROOT
BRANCH   1   7
ATOM      7  C   UNL     1       4.251 -62.972 187.813  1.00  0.00     0.072 C 
ATOM      8  O   UNL     1       3.376 -62.065 187.829  1.00  0.00    -0.545 OA
ATOM      9  O   UNL     1       3.987 -64.148 187.119  1.00  0.00    -0.545 OA
ENDBRANCH   1   7
BRANCH   5  10
ATOM     10  O   UNL     1       7.004 -60.814 191.341  1.00  0.00    -0.493 OA
ATOM     11  C   UNL     1       5.968 -59.963 191.822  1.00  0.00     0.278 C 
ENDBRANCH   5  10
BRANCH   6  12
ATOM     12  O   UNL     1       9.200 -62.271 190.527  1.00  0.00    -0.504 OA
ATOM     13  H   UNL     1       9.264 -61.734 191.384  1.00  0.00     0.293 HD
ENDBRANCH   6  12
TORSDOF 3
ENDMDL
MODEL 2
REMARK VINA RESULT:    -5.257      1.658      3.190
REMARK INTER + INTRA:          -6.106
REMARK INTER:                  -6.021
REMARK INTRA:                  -0.085
REMARK UNBOUND:                -0.081
REMARK SMILES COc1cc(C(=O)[O-])ccc1O
REMARK SMILES IDX 5 1 9 2 4 3 10 4 3 5 11 6 6 7 7 8 8 9 2 10 1 11 12 12
REMARK H PARENT 12 13
REMARK Flexibility Score: inf
ROOT
ATOM      1  C   UNL     1       5.360 -61.494 189.582  1.00  0.00     0.001 A 
ATOM      2  C   UNL     1       6.119 -61.150 190.713  1.00  0.00     0.014 A 
ATOM      3  C   UNL     1       5.901 -62.390 188.643  1.00  0.00     0.060 A 
ATOM      4  C   UNL     1       7.392 -61.691 190.901  1.00  0.00     0.051 A 
ATOM      5  C   UNL     1       7.186 -62.938 188.829  1.00  0.00     0.161 A 
ATOM      6  C   UNL     1       7.927 -62.582 189.963  1.00  0.00     0.157 A 
ENDROOT
BRANCH   1   7
ATOM      7  C   UNL     1       4.010 -60.922 189.381  1.00  0.00     0.072 C 
ATOM      8  O   UNL     1       3.757 -59.736 189.722  1.00  0.00    -0.545 OA
ATOM      9  O   UNL     1       2.999 -61.687 188.810  1.00  0.00    -0.545 OA
ENDBRANCH   1   7
BRANCH   5  10
ATOM     10  O   UNL     1       7.757 -63.835 187.912  1.00  0.00    -0.493 OA
ATOM     11  C   UNL     1       7.041 -64.863 187.235  1.00  0.00     0.278 C 
ENDBRANCH   5  10
BRANCH   6  12
ATOM     12  O   UNL     1       9.199 -63.121 190.152  1.00  0.00    -0.504 OA
ATOM     13  H   UNL     1       9.425 -64.063 189.856  1.00  0.00     0.293 HD
ENDBRANCH   6  12
TORSDOF 3
ENDMDL
MODEL 3
REMARK VINA RESULT:    -5.246      1.628      3.976
REMARK INTER + INTRA:          -6.093
REMARK INTER:                  -6.016
REMARK INTRA:                  -0.078
REMARK UNBOUND:                -0.081
REMARK SMILES COc1cc(C(=O)[O-])ccc1O
REMARK SMILES IDX 5 1 9 2 4 3 10 4 3 5 11 6 6 7 7 8 8 9 2 10 1 11 12 12
REMARK H PARENT 12 13
REMARK Flexibility Score: inf
ROOT
ATOM      1  C   UNL     1       6.090 -61.550 189.623  1.00  0.00     0.001 A 
ATOM      2  C   UNL     1       7.453 -61.895 189.615  1.00  0.00     0.014 A 
ATOM      3  C   UNL     1       5.185 -62.324 188.876  1.00  0.00     0.060 A 
ATOM      4  C   UNL     1       7.899 -62.990 188.874  1.00  0.00     0.051 A 
ATOM      5  C   UNL     1       5.632 -63.431 188.127  1.00  0.00     0.161 A 
ATOM      6  C   UNL     1       6.995 -63.758 188.131  1.00  0.00     0.157 A 
ENDROOT
BRANCH   1   7
ATOM      7  C   UNL     1       5.613 -60.390 190.409  1.00  0.00     0.072 C 
ATOM      8  O   UNL     1       4.859 -59.527 189.886  1.00  0.00    -0.545 OA
ATOM      9  O   UNL     1       5.991 -60.235 191.738  1.00  0.00    -0.545 OA
ENDBRANCH   1   7
BRANCH   5  10
ATOM     10  O   UNL     1       4.757 -64.225 187.369  1.00  0.00    -0.493 OA
ATOM     11  C   UNL     1       3.417 -63.867 187.046  1.00  0.00     0.278 C 
ENDBRANCH   5  10
BRANCH   6  12
ATOM     12  O   UNL     1       7.443 -64.851 187.391  1.00  0.00    -0.504 OA
ATOM     13  H   UNL     1       6.974 -65.147 186.544  1.00  0.00     0.293 HD
ENDBRANCH   6  12
TORSDOF 3
ENDMDL
MODEL 4
REMARK VINA RESULT:    -4.849      2.132      3.245
REMARK INTER + INTRA:          -5.638
REMARK INTER:                  -5.555
REMARK INTRA:                  -0.084
REMARK UNBOUND:                -0.081
REMARK SMILES COc1cc(C(=O)[O-])ccc1O
REMARK SMILES IDX 5 1 9 2 4 3 10 4 3 5 11 6 6 7 7 8 8 9 2 10 1 11 12 12
REMARK H PARENT 12 13
REMARK Flexibility Score: inf
ROOT
ATOM      1  C   UNL     1       4.075 -62.499 188.478  1.00  0.00     0.001 A 
ATOM      2  C   UNL     1       3.654 -63.623 187.747  1.00  0.00     0.014 A 
ATOM      3  C   UNL     1       5.437 -62.367 188.803  1.00  0.00     0.060 A 
ATOM      4  C   UNL     1       4.575 -64.593 187.350  1.00  0.00     0.051 A 
ATOM      5  C   UNL     1       6.370 -63.344 188.404  1.00  0.00     0.161 A 
ATOM      6  C   UNL     1       5.930 -64.458 187.676  1.00  0.00     0.157 A 
ENDROOT
BRANCH   1   7
ATOM      7  C   UNL     1       3.101 -61.468 188.899  1.00  0.00     0.072 C 
ATOM      8  O   UNL     1       3.342 -60.722 189.886  1.00  0.00    -0.545 OA
ATOM      9  O   UNL     1       1.904 -61.307 188.211  1.00  0.00    -0.545 OA
ENDBRANCH   1   7
BRANCH   5  10
ATOM     10  O   UNL     1       7.737 -63.245 188.711  1.00  0.00    -0.493 OA
ATOM     11  C   UNL     1       8.259 -62.599 189.868  1.00  0.00     0.278 C 
ENDBRANCH   5  10
BRANCH   6  12
ATOM     12  O   UNL     1       6.849 -65.429 187.279  1.00  0.00    -0.504 OA
ATOM     13  H   UNL     1       7.635 -65.685 187.863  1.00  0.00     0.293 HD
ENDBRANCH   6  12
TORSDOF 3
ENDMDL
MODEL 5
REMARK VINA RESULT:    -4.798      1.519      4.966
REMARK INTER + INTRA:          -5.580
REMARK INTER:                  -5.499
REMARK INTRA:                  -0.082
REMARK UNBOUND:                -0.081
REMARK SMILES COc1cc(C(=O)[O-])ccc1O
REMARK SMILES IDX 5 1 9 2 4 3 10 4 3 5 11 6 6 7 7 8 8 9 2 10 1 11 12 12
REMARK H PARENT 12 13
REMARK Flexibility Score: inf
ROOT
ATOM      1  C   UNL     1       6.096 -62.591 188.851  1.00  0.00     0.001 A 
ATOM      2  C   UNL     1       5.597 -61.478 189.549  1.00  0.00     0.014 A 
ATOM      3  C   UNL     1       5.220 -63.341 188.047  1.00  0.00     0.060 A 
ATOM      4  C   UNL     1       4.252 -61.123 189.445  1.00  0.00     0.051 A 
ATOM      5  C   UNL     1       3.860 -62.986 187.939  1.00  0.00     0.161 A 
ATOM      6  C   UNL     1       3.382 -61.873 188.644  1.00  0.00     0.157 A 
ENDROOT
BRANCH   1   7
ATOM      7  C   UNL     1       7.523 -62.969 188.959  1.00  0.00     0.072 C 
ATOM      8  O   UNL     1       8.034 -63.783 188.145  1.00  0.00    -0.545 OA
ATOM      9  O   UNL     1       8.321 -62.428 189.961  1.00  0.00    -0.545 OA
ENDBRANCH   1   7
BRANCH   5  10
ATOM     10  O   UNL     1       2.957 -63.712 187.146  1.00  0.00    -0.493 OA
ATOM     11  C   UNL     1       3.324 -64.773 186.269  1.00  0.00     0.278 C 
ENDBRANCH   5  10
BRANCH   6  12
ATOM     12  O   UNL     1       2.038 -61.518 188.542  1.00  0.00    -0.504 OA
ATOM     13  H   UNL     1       1.391 -61.663 189.307  1.00  0.00     0.293 HD
ENDBRANCH   6  12
TORSDOF 3
ENDMDL
MODEL 6
REMARK VINA RESULT:    -4.740      1.952      4.006
REMARK INTER + INTRA:          -5.513
REMARK INTER:                  -5.410
REMARK INTRA:                  -0.103
REMARK UNBOUND:                -0.081
REMARK SMILES COc1cc(C(=O)[O-])ccc1O
REMARK SMILES IDX 5 1 9 2 4 3 10 4 3 5 11 6 6 7 7 8 8 9 2 10 1 11 12 12
REMARK H PARENT 12 13
REMARK Flexibility Score: inf
ROOT
ATOM      1  C   UNL     1       5.954 -62.976 188.503  1.00  0.00     0.001 A 
ATOM      2  C   UNL     1       4.960 -63.713 187.836  1.00  0.00     0.014 A 
ATOM      3  C   UNL     1       5.587 -61.821 189.215  1.00  0.00     0.060 A 
ATOM      4  C   UNL     1       3.627 -63.302 187.880  1.00  0.00     0.051 A 
ATOM      5  C   UNL     1       4.241 -61.403 189.262  1.00  0.00     0.161 A 
ATOM      6  C   UNL     1       3.265 -62.151 188.590  1.00  0.00     0.157 A 
ENDROOT
BRANCH   1   7
ATOM      7  C   UNL     1       7.368 -63.410 188.458  1.00  0.00     0.072 C 
ATOM      8  O   UNL     1       7.783 -64.153 187.528  1.00  0.00    -0.545 OA
ATOM      9  O   UNL     1       8.262 -63.004 189.443  1.00  0.00    -0.545 OA
ENDBRANCH   1   7
BRANCH   5  10
ATOM     10  O   UNL     1       3.838 -60.255 189.963  1.00  0.00    -0.493 OA
ATOM     11  C   UNL     1       4.047 -58.920 189.513  1.00  0.00     0.278 C 
ENDBRANCH   5  10
BRANCH   6  12
ATOM     12  O   UNL     1       1.933 -61.741 188.633  1.00  0.00    -0.504 OA
ATOM     13  H   UNL     1       1.629 -60.879 188.198  1.00  0.00     0.293 HD
ENDBRANCH   6  12
TORSDOF 3
ENDMDL
MODEL 7
REMARK VINA RESULT:    -4.712      1.557      2.863
REMARK INTER + INTRA:          -5.482
REMARK INTER:                  -5.385
REMARK INTRA:                  -0.097
REMARK UNBOUND:                -0.081
REMARK SMILES COc1cc(C(=O)[O-])ccc1O
REMARK SMILES IDX 5 1 9 2 4 3 10 4 3 5 11 6 6 7 7 8 8 9 2 10 1 11 12 12
REMARK H PARENT 12 13
REMARK Flexibility Score: inf
ROOT
ATOM      1  C   UNL     1       4.398 -63.002 188.153  1.00  0.00     0.001 A 
ATOM      2  C   UNL     1       3.477 -62.072 188.666  1.00  0.00     0.014 A 
ATOM      3  C   UNL     1       5.762 -62.854 188.461  1.00  0.00     0.060 A 
ATOM      4  C   UNL     1       3.912 -61.017 189.468  1.00  0.00     0.051 A 
ATOM      5  C   UNL     1       6.204 -61.790 189.271  1.00  0.00     0.161 A 
ATOM      6  C   UNL     1       5.271 -60.872 189.772  1.00  0.00     0.157 A 
ENDROOT
BRANCH   1   7
ATOM      7  C   UNL     1       3.939 -64.123 187.303  1.00  0.00     0.072 C 
ATOM      8  O   UNL     1       4.151 -65.317 187.645  1.00  0.00    -0.545 OA
ATOM      9  O   UNL     1       3.265 -63.875 186.112  1.00  0.00    -0.545 OA
ENDBRANCH   1   7
BRANCH   5  10
ATOM     10  O   UNL     1       7.558 -61.611 189.598  1.00  0.00    -0.493 OA
ATOM     11  C   UNL     1       8.250 -62.344 190.604  1.00  0.00     0.278 C 
ENDBRANCH   5  10
BRANCH   6  12
ATOM     12  O   UNL     1       5.704 -59.817 190.573  1.00  0.00    -0.504 OA
ATOM     13  H   UNL     1       5.099 -59.397 191.270  1.00  0.00     0.293 HD
ENDBRANCH   6  12
TORSDOF 3
ENDMDL
MODEL 8
REMARK VINA RESULT:    -4.704      1.946      2.855
REMARK INTER + INTRA:          -5.473
REMARK INTER:                  -5.375
REMARK INTRA:                  -0.098
REMARK UNBOUND:                -0.081
REMARK SMILES COc1cc(C(=O)[O-])ccc1O
REMARK SMILES IDX 5 1 9 2 4 3 10 4 3 5 11 6 6 7 7 8 8 9 2 10 1 11 12 12
REMARK H PARENT 12 13
REMARK Flexibility Score: inf
ROOT
ATOM      1  C   UNL     1       6.570 -62.735 189.102  1.00  0.00     0.001 A 
ATOM      2  C   UNL     1       7.572 -62.558 190.072  1.00  0.00     0.014 A 
ATOM      3  C   UNL     1       5.428 -61.916 189.143  1.00  0.00     0.060 A 
ATOM      4  C   UNL     1       7.434 -61.583 191.061  1.00  0.00     0.051 A 
ATOM      5  C   UNL     1       5.285 -60.930 190.140  1.00  0.00     0.161 A 
ATOM      6  C   UNL     1       6.295 -60.770 191.098  1.00  0.00     0.157 A 
ENDROOT
BRANCH   1   7
ATOM      7  C   UNL     1       6.714 -63.767 188.052  1.00  0.00     0.072 C 
ATOM      8  O   UNL     1       7.833 -63.986 187.516  1.00  0.00    -0.545 OA
ATOM      9  O   UNL     1       5.615 -64.512 187.641  1.00  0.00    -0.545 OA
ENDBRANCH   1   7
BRANCH   5  10
ATOM     10  O   UNL     1       4.158 -60.095 190.212  1.00  0.00    -0.493 OA
ATOM     11  C   UNL     1       3.976 -58.916 189.434  1.00  0.00     0.278 C 
ENDBRANCH   5  10
BRANCH   6  12
ATOM     12  O   UNL     1       6.159 -59.797 192.087  1.00  0.00    -0.504 OA
ATOM     13  H   UNL     1       5.350 -59.188 192.125  1.00  0.00     0.293 HD
ENDBRANCH   6  12
TORSDOF 3
ENDMDL
MODEL 9
REMARK VINA RESULT:    -4.585      1.361      4.511
REMARK INTER + INTRA:          -5.336
REMARK INTER:                  -5.237
REMARK INTRA:                  -0.099
REMARK UNBOUND:                -0.081
REMARK SMILES COc1cc(C(=O)[O-])ccc1O
REMARK SMILES IDX 5 1 9 2 4 3 10 4 3 5 11 6 6 7 7 8 8 9 2 10 1 11 12 12
REMARK H PARENT 12 13
REMARK Flexibility Score: inf
ROOT
ATOM      1  C   UNL     1       6.049 -62.764 188.896  1.00  0.00     0.001 A 
ATOM      2  C   UNL     1       6.293 -63.940 188.166  1.00  0.00     0.014 A 
ATOM      3  C   UNL     1       4.766 -62.190 188.857  1.00  0.00     0.060 A 
ATOM      4  C   UNL     1       5.276 -64.528 187.413  1.00  0.00     0.051 A 
ATOM      5  C   UNL     1       3.736 -62.781 188.099  1.00  0.00     0.161 A 
ATOM      6  C   UNL     1       4.000 -63.953 187.377  1.00  0.00     0.157 A 
ENDROOT
BRANCH   1   7
ATOM      7  C   UNL     1       7.126 -62.138 189.695  1.00  0.00     0.072 C 
ATOM      8  O   UNL     1       6.894 -61.117 190.396  1.00  0.00    -0.545 OA
ATOM      9  O   UNL     1       8.410 -62.670 189.685  1.00  0.00    -0.545 OA
ENDBRANCH   1   7
BRANCH   5  10
ATOM     10  O   UNL     1       2.444 -62.235 188.037  1.00  0.00    -0.493 OA
ATOM     11  C   UNL     1       2.055 -61.178 187.166  1.00  0.00     0.278 C 
ENDBRANCH   5  10
BRANCH   6  12
ATOM     12  O   UNL     1       2.985 -64.542 186.624  1.00  0.00    -0.504 OA
ATOM     13  H   UNL     1       2.819 -65.541 186.647  1.00  0.00     0.293 HD
ENDBRANCH   6  12
TORSDOF 3
ENDMDL
