MODEL 1
REMARK VINA RESULT:    -4.010      0.000      0.000
REMARK INTER + INTRA:          -8.677
REMARK INTER:                  -7.526
REMARK INTRA:                  -1.151
REMARK UNBOUND:                -1.151
REMARK SMILES O=C([O-])CCCCCCCCCCCCCCC(=O)[O-]
REMARK SMILES IDX 10 1 9 2 8 3 7 4 6 5 5 6 4 7 2 8 1 9 3 10 11 11 12 12 13 13
REMARK SMILES IDX 14 14 15 15 16 16 17 17 18 18 19 19 20 20
REMARK H PARENT
REMARK Flexibility Score: inf
ROOT
ATOM      1  C   UNL     1      -8.925  -7.029  -7.825  1.00  0.00     0.000 C 
ENDROOT
BRANCH   1   2
ATOM      2  C   UNL     1      -8.052  -5.957  -8.497  1.00  0.00     0.000 C 
BRANCH   2   3
ATOM      3  C   UNL     1      -6.816  -5.593  -7.657  1.00  0.00     0.000 C 
BRANCH   3   4
ATOM      4  C   UNL     1      -6.992  -5.970  -6.171  1.00  0.00     0.000 C 
BRANCH   4   5
ATOM      5  C   UNL     1      -5.673  -6.344  -5.473  1.00  0.00     0.000 C 
BRANCH   5   6
ATOM      6  C   UNL     1      -4.462  -5.582  -6.035  1.00  0.00     0.006 C 
BRANCH   6   7
ATOM      7  C   UNL     1      -4.528  -4.081  -5.725  1.00  0.00     0.053 C 
BRANCH   7   8
ATOM      8  C   UNL     1      -3.161  -3.491  -5.552  1.00  0.00     0.041 C 
ATOM      9  O   UNL     1      -2.174  -4.237  -5.314  1.00  0.00    -0.550 OA
ATOM     10  O   UNL     1      -2.972  -2.123  -5.690  1.00  0.00    -0.550 OA
ENDBRANCH   7   8
ENDBRANCH   6   7
ENDBRANCH   5   6
ENDBRANCH   4   5
ENDBRANCH   3   4
ENDBRANCH   2   3
ENDBRANCH   1   2
BRANCH   1  11
ATOM     11  C   UNL     1     -10.426  -6.789  -8.051  1.00  0.00     0.000 C 
BRANCH  11  12
ATOM     12  C   UNL     1     -11.035  -5.990  -6.893  1.00  0.00     0.000 C 
BRANCH  12  13
ATOM     13  C   UNL     1     -10.875  -6.737  -5.563  1.00  0.00     0.000 C 
BRANCH  13  14
ATOM     14  C   UNL     1     -11.026  -5.778  -4.373  1.00  0.00     0.000 C 
BRANCH  14  15
ATOM     15  C   UNL     1     -11.078  -4.303  -4.801  1.00  0.00     0.000 C 
BRANCH  15  16
ATOM     16  C   UNL     1     -10.794  -3.338  -3.636  1.00  0.00     0.006 C 
BRANCH  16  17
ATOM     17  C   UNL     1     -10.459  -4.083  -2.336  1.00  0.00     0.053 C 
BRANCH  17  18
ATOM     18  C   UNL     1      -9.032  -3.876  -1.930  1.00  0.00     0.041 C 
ATOM     19  O   UNL     1      -8.386  -4.809  -1.385  1.00  0.00    -0.550 OA
ATOM     20  O   UNL     1      -8.407  -2.661  -2.179  1.00  0.00    -0.550 OA
ENDBRANCH  17  18
ENDBRANCH  16  17
ENDBRANCH  15  16
ENDBRANCH  14  15
ENDBRANCH  13  14
ENDBRANCH  12  13
ENDBRANCH  11  12
ENDBRANCH   1  11
TORSDOF 15
ENDMDL
MODEL 2
REMARK VINA RESULT:    -3.838      1.678      5.645
REMARK INTER + INTRA:          -8.354
REMARK INTER:                  -7.107
REMARK INTRA:                  -1.248
REMARK UNBOUND:                -1.151
REMARK SMILES O=C([O-])CCCCCCCCCCCCCCC(=O)[O-]
REMARK SMILES IDX 10 1 9 2 8 3 7 4 6 5 5 6 4 7 2 8 1 9 3 10 11 11 12 12 13 13
REMARK SMILES IDX 14 14 15 15 16 16 17 17 18 18 19 19 20 20
REMARK H PARENT
REMARK Flexibility Score: inf
ROOT
ATOM      1  C   UNL     1      -9.800  -6.822  -6.464  1.00  0.00     0.000 C 
ENDROOT
BRANCH   1   2
ATOM      2  C   UNL     1     -10.659  -7.109  -5.223  1.00  0.00     0.000 C 
BRANCH   2   3
ATOM      3  C   UNL     1     -10.578  -5.984  -4.177  1.00  0.00     0.000 C 
BRANCH   3   4
ATOM      4  C   UNL     1     -10.461  -4.591  -4.831  1.00  0.00     0.000 C 
BRANCH   4   5
ATOM      5  C   UNL     1     -10.957  -3.447  -3.930  1.00  0.00     0.000 C 
BRANCH   5   6
ATOM      6  C   UNL     1     -11.125  -3.871  -2.462  1.00  0.00     0.006 C 
BRANCH   6   7
ATOM      7  C   UNL     1     -10.251  -3.039  -1.515  1.00  0.00     0.053 C 
BRANCH   7   8
ATOM      8  C   UNL     1      -8.795  -3.341  -1.697  1.00  0.00     0.041 C 
ATOM      9  O   UNL     1      -7.971  -2.405  -1.873  1.00  0.00    -0.550 OA
ATOM     10  O   UNL     1      -8.343  -4.653  -1.635  1.00  0.00    -0.550 OA
ENDBRANCH   7   8
ENDBRANCH   6   7
ENDBRANCH   5   6
ENDBRANCH   4   5
ENDBRANCH   3   4
ENDBRANCH   2   3
ENDBRANCH   1   2
BRANCH   1  11
ATOM     11  C   UNL     1     -10.649  -6.542  -7.714  1.00  0.00     0.000 C 
BRANCH  11  12
ATOM     12  C   UNL     1      -9.969  -7.089  -8.974  1.00  0.00     0.000 C 
BRANCH  12  13
ATOM     13  C   UNL     1      -9.617  -5.957  -9.946  1.00  0.00     0.000 C 
BRANCH  13  14
ATOM     14  C   UNL     1      -8.919  -4.801  -9.213  1.00  0.00     0.000 C 
BRANCH  14  15
ATOM     15  C   UNL     1      -7.387  -4.914  -9.248  1.00  0.00     0.000 C 
BRANCH  15  16
ATOM     16  C   UNL     1      -6.843  -5.897  -8.197  1.00  0.00     0.006 C 
BRANCH  16  17
ATOM     17  C   UNL     1      -6.313  -5.176  -6.950  1.00  0.00     0.053 C 
BRANCH  17  18
ATOM     18  C   UNL     1      -5.675  -6.129  -5.986  1.00  0.00     0.041 C 
ATOM     19  O   UNL     1      -4.491  -5.944  -5.601  1.00  0.00    -0.550 OA
ATOM     20  O   UNL     1      -6.399  -7.207  -5.492  1.00  0.00    -0.550 OA
ENDBRANCH  17  18
ENDBRANCH  16  17
ENDBRANCH  15  16
ENDBRANCH  14  15
ENDBRANCH  13  14
ENDBRANCH  12  13
ENDBRANCH  11  12
ENDBRANCH   1  11
TORSDOF 15
ENDMDL
MODEL 3
REMARK VINA RESULT:    -3.662      1.822      2.915
REMARK INTER + INTRA:          -8.024
REMARK INTER:                  -6.384
REMARK INTRA:                  -1.640
REMARK UNBOUND:                -1.151
REMARK SMILES O=C([O-])CCCCCCCCCCCCCCC(=O)[O-]
REMARK SMILES IDX 10 1 9 2 8 3 7 4 6 5 5 6 4 7 2 8 1 9 3 10 11 11 12 12 13 13
REMARK SMILES IDX 14 14 15 15 16 16 17 17 18 18 19 19 20 20
REMARK H PARENT
REMARK Flexibility Score: inf
ROOT
ATOM      1  C   UNL     1     -11.070  -4.908  -7.874  1.00  0.00     0.000 C 
ENDROOT
BRANCH   1   2
ATOM      2  C   UNL     1     -10.693  -4.227  -9.198  1.00  0.00     0.000 C 
BRANCH   2   3
ATOM      3  C   UNL     1      -9.854  -5.138 -10.111  1.00  0.00     0.000 C 
BRANCH   3   4
ATOM      4  C   UNL     1      -8.343  -4.844  -9.996  1.00  0.00     0.000 C 
BRANCH   4   5
ATOM      5  C   UNL     1      -7.609  -5.781  -9.022  1.00  0.00     0.000 C 
BRANCH   5   6
ATOM      6  C   UNL     1      -7.385  -5.150  -7.638  1.00  0.00     0.006 C 
BRANCH   6   7
ATOM      7  C   UNL     1      -5.935  -5.300  -7.161  1.00  0.00     0.053 C 
BRANCH   7   8
ATOM      8  C   UNL     1      -5.822  -6.281  -6.034  1.00  0.00     0.041 C 
ATOM      9  O   UNL     1      -6.809  -6.995  -5.714  1.00  0.00    -0.550 OA
ATOM     10  O   UNL     1      -4.616  -6.434  -5.363  1.00  0.00    -0.550 OA
ENDBRANCH   7   8
ENDBRANCH   6   7
ENDBRANCH   5   6
ENDBRANCH   4   5
ENDBRANCH   3   4
ENDBRANCH   2   3
ENDBRANCH   1   2
BRANCH   1  11
ATOM     11  C   UNL     1     -11.116  -6.440  -7.993  1.00  0.00     0.000 C 
BRANCH  11  12
ATOM     12  C   UNL     1     -10.264  -7.102  -6.905  1.00  0.00     0.000 C 
BRANCH  12  13
ATOM     13  C   UNL     1     -10.925  -6.967  -5.528  1.00  0.00     0.000 C 
BRANCH  13  14
ATOM     14  C   UNL     1      -9.974  -6.298  -4.524  1.00  0.00     0.000 C 
BRANCH  14  15
ATOM     15  C   UNL     1     -10.223  -4.788  -4.385  1.00  0.00     0.000 C 
BRANCH  15  16
ATOM     16  C   UNL     1     -10.984  -4.430  -3.097  1.00  0.00     0.006 C 
BRANCH  16  17
ATOM     17  C   UNL     1     -10.389  -3.201  -2.396  1.00  0.00     0.053 C 
BRANCH  17  18
ATOM     18  C   UNL     1      -8.969  -3.431  -1.980  1.00  0.00     0.041 C 
ATOM     19  O   UNL     1      -8.130  -2.495  -2.040  1.00  0.00    -0.550 OA
ATOM     20  O   UNL     1      -8.579  -4.675  -1.500  1.00  0.00    -0.550 OA
ENDBRANCH  17  18
ENDBRANCH  16  17
ENDBRANCH  15  16
ENDBRANCH  14  15
ENDBRANCH  13  14
ENDBRANCH  12  13
ENDBRANCH  11  12
ENDBRANCH   1  11
TORSDOF 15
ENDMDL
MODEL 4
REMARK VINA RESULT:    -3.574      2.321      5.800
REMARK INTER + INTRA:          -7.859
REMARK INTER:                  -6.952
REMARK INTRA:                  -0.907
REMARK UNBOUND:                -1.151
REMARK SMILES O=C([O-])CCCCCCCCCCCCCCC(=O)[O-]
REMARK SMILES IDX 10 1 9 2 8 3 7 4 6 5 5 6 4 7 2 8 1 9 3 10 11 11 12 12 13 13
REMARK SMILES IDX 14 14 15 15 16 16 17 17 18 18 19 19 20 20
REMARK H PARENT
REMARK Flexibility Score: inf
ROOT
ATOM      1  C   UNL     1     -10.405  -4.460  -7.241  1.00  0.00     0.000 C 
ENDROOT
BRANCH   1   2
ATOM      2  C   UNL     1     -11.118  -5.732  -6.758  1.00  0.00     0.000 C 
BRANCH   2   3
ATOM      3  C   UNL     1     -10.596  -6.219  -5.395  1.00  0.00     0.000 C 
BRANCH   3   4
ATOM      4  C   UNL     1     -11.125  -5.357  -4.229  1.00  0.00     0.000 C 
BRANCH   4   5
ATOM      5  C   UNL     1     -10.235  -4.142  -3.913  1.00  0.00     0.000 C 
BRANCH   5   6
ATOM      6  C   UNL     1      -9.007  -4.505  -3.063  1.00  0.00     0.006 C 
BRANCH   6   7
ATOM      7  C   UNL     1      -8.851  -3.584  -1.847  1.00  0.00     0.053 C 
BRANCH   7   8
ATOM      8  C   UNL     1     -10.178  -3.106  -1.341  1.00  0.00     0.041 C 
ATOM      9  O   UNL     1     -10.744  -2.119  -1.881  1.00  0.00    -0.550 OA
ATOM     10  O   UNL     1     -10.807  -3.774  -0.299  1.00  0.00    -0.550 OA
ENDBRANCH   7   8
ENDBRANCH   6   7
ENDBRANCH   5   6
ENDBRANCH   4   5
ENDBRANCH   3   4
ENDBRANCH   2   3
ENDBRANCH   1   2
BRANCH   1  11
ATOM     11  C   UNL     1     -10.468  -4.295  -8.768  1.00  0.00     0.000 C 
BRANCH  11  12
ATOM     12  C   UNL     1     -10.707  -5.643  -9.456  1.00  0.00     0.000 C 
BRANCH  12  13
ATOM     13  C   UNL     1      -9.383  -6.379  -9.703  1.00  0.00     0.000 C 
BRANCH  13  14
ATOM     14  C   UNL     1      -8.254  -5.386 -10.016  1.00  0.00     0.000 C 
BRANCH  14  15
ATOM     15  C   UNL     1      -6.944  -5.727  -9.287  1.00  0.00     0.000 C 
BRANCH  15  16
ATOM     16  C   UNL     1      -6.981  -5.348  -7.796  1.00  0.00     0.006 C 
BRANCH  16  17
ATOM     17  C   UNL     1      -7.470  -6.506  -6.916  1.00  0.00     0.053 C 
BRANCH  17  18
ATOM     18  C   UNL     1      -6.637  -6.655  -5.680  1.00  0.00     0.041 C 
ATOM     19  O   UNL     1      -5.416  -6.347  -5.696  1.00  0.00    -0.550 OA
ATOM     20  O   UNL     1      -7.215  -7.110  -4.502  1.00  0.00    -0.550 OA
ENDBRANCH  17  18
ENDBRANCH  16  17
ENDBRANCH  15  16
ENDBRANCH  14  15
ENDBRANCH  13  14
ENDBRANCH  12  13
ENDBRANCH  11  12
ENDBRANCH   1  11
TORSDOF 15
ENDMDL
MODEL 5
REMARK VINA RESULT:    -3.294      1.928      5.475
REMARK INTER + INTRA:          -7.333
REMARK INTER:                  -6.001
REMARK INTRA:                  -1.332
REMARK UNBOUND:                -1.151
REMARK SMILES O=C([O-])CCCCCCCCCCCCCCC(=O)[O-]
REMARK SMILES IDX 10 1 9 2 8 3 7 4 6 5 5 6 4 7 2 8 1 9 3 10 11 11 12 12 13 13
REMARK SMILES IDX 14 14 15 15 16 16 17 17 18 18 19 19 20 20
REMARK H PARENT
REMARK Flexibility Score: inf
ROOT
ATOM      1  C   UNL     1     -10.409  -6.162  -5.232  1.00  0.00     0.000 C 
ENDROOT
BRANCH   1   2
ATOM      2  C   UNL     1     -10.956  -4.783  -5.631  1.00  0.00     0.000 C 
BRANCH   2   3
ATOM      3  C   UNL     1     -11.059  -3.821  -4.434  1.00  0.00     0.000 C 
BRANCH   3   4
ATOM      4  C   UNL     1     -11.068  -4.572  -3.086  1.00  0.00     0.000 C 
BRANCH   4   5
ATOM      5  C   UNL     1     -11.125  -3.638  -1.865  1.00  0.00     0.000 C 
BRANCH   5   6
ATOM      6  C   UNL     1     -10.029  -3.939  -0.830  1.00  0.00     0.006 C 
BRANCH   6   7
ATOM      7  C   UNL     1      -8.644  -4.071  -1.475  1.00  0.00     0.053 C 
BRANCH   7   8
ATOM      8  C   UNL     1      -8.177  -2.770  -2.054  1.00  0.00     0.041 C 
ATOM      9  O   UNL     1      -8.143  -2.608  -3.303  1.00  0.00    -0.550 OA
ATOM     10  O   UNL     1      -7.816  -1.725  -1.215  1.00  0.00    -0.550 OA
ENDBRANCH   7   8
ENDBRANCH   6   7
ENDBRANCH   5   6
ENDBRANCH   4   5
ENDBRANCH   3   4
ENDBRANCH   2   3
ENDBRANCH   1   2
BRANCH   1  11
ATOM     11  C   UNL     1     -10.041  -7.024  -6.451  1.00  0.00     0.000 C 
BRANCH  11  12
ATOM     12  C   UNL     1     -11.060  -6.840  -7.580  1.00  0.00     0.000 C 
BRANCH  12  13
ATOM     13  C   UNL     1     -10.359  -6.690  -8.936  1.00  0.00     0.000 C 
BRANCH  13  14
ATOM     14  C   UNL     1      -8.836  -6.817  -8.784  1.00  0.00     0.000 C 
BRANCH  14  15
ATOM     15  C   UNL     1      -8.138  -5.456  -8.637  1.00  0.00     0.000 C 
BRANCH  15  16
ATOM     16  C   UNL     1      -6.674  -5.587  -8.183  1.00  0.00     0.006 C 
BRANCH  16  17
ATOM     17  C   UNL     1      -6.490  -5.211  -6.706  1.00  0.00     0.053 C 
BRANCH  17  18
ATOM     18  C   UNL     1      -5.932  -6.349  -5.908  1.00  0.00     0.041 C 
ATOM     19  O   UNL     1      -6.671  -7.310  -5.571  1.00  0.00    -0.550 OA
ATOM     20  O   UNL     1      -4.587  -6.360  -5.559  1.00  0.00    -0.550 OA
ENDBRANCH  17  18
ENDBRANCH  16  17
ENDBRANCH  15  16
ENDBRANCH  14  15
ENDBRANCH  13  14
ENDBRANCH  12  13
ENDBRANCH  11  12
ENDBRANCH   1  11
TORSDOF 15
ENDMDL
MODEL 6
REMARK VINA RESULT:    -3.290      2.657      6.276
REMARK INTER + INTRA:          -7.326
REMARK INTER:                  -6.470
REMARK INTRA:                  -0.856
REMARK UNBOUND:                -1.151
REMARK SMILES O=C([O-])CCCCCCCCCCCCCCC(=O)[O-]
REMARK SMILES IDX 10 1 9 2 8 3 7 4 6 5 5 6 4 7 2 8 1 9 3 10 11 11 12 12 13 13
REMARK SMILES IDX 14 14 15 15 16 16 17 17 18 18 19 19 20 20
REMARK H PARENT
REMARK Flexibility Score: inf
ROOT
ATOM      1  C   UNL     1      -8.617  -7.484  -5.342  1.00  0.00     0.000 C 
ENDROOT
BRANCH   1   2
ATOM      2  C   UNL     1      -9.974  -6.964  -5.840  1.00  0.00     0.000 C 
BRANCH   2   3
ATOM      3  C   UNL     1     -10.661  -6.039  -4.820  1.00  0.00     0.000 C 
BRANCH   3   4
ATOM      4  C   UNL     1     -10.459  -4.548  -5.161  1.00  0.00     0.000 C 
BRANCH   4   5
ATOM      5  C   UNL     1     -11.076  -3.593  -4.125  1.00  0.00     0.000 C 
BRANCH   5   6
ATOM      6  C   UNL     1     -11.086  -4.177  -2.704  1.00  0.00     0.006 C 
BRANCH   6   7
ATOM      7  C   UNL     1     -10.327  -3.291  -1.708  1.00  0.00     0.053 C 
BRANCH   7   8
ATOM      8  C   UNL     1      -8.847  -3.516  -1.783  1.00  0.00     0.041 C 
ATOM      9  O   UNL     1      -8.071  -2.552  -2.022  1.00  0.00    -0.550 OA
ATOM     10  O   UNL     1      -8.323  -4.780  -1.553  1.00  0.00    -0.550 OA
ENDBRANCH   7   8
ENDBRANCH   6   7
ENDBRANCH   5   6
ENDBRANCH   4   5
ENDBRANCH   3   4
ENDBRANCH   2   3
ENDBRANCH   1   2
BRANCH   1  11
ATOM     11  C   UNL     1      -7.645  -6.347  -4.992  1.00  0.00     0.000 C 
BRANCH  11  12
ATOM     12  C   UNL     1      -6.333  -6.485  -5.773  1.00  0.00     0.000 C 
BRANCH  12  13
ATOM     13  C   UNL     1      -5.992  -5.185  -6.511  1.00  0.00     0.000 C 
BRANCH  13  14
ATOM     14  C   UNL     1      -6.355  -5.286  -8.000  1.00  0.00     0.000 C 
BRANCH  14  15
ATOM     15  C   UNL     1      -7.717  -5.960  -8.234  1.00  0.00     0.000 C 
BRANCH  15  16
ATOM     16  C   UNL     1      -8.034  -6.151  -9.728  1.00  0.00     0.006 C 
BRANCH  16  17
ATOM     17  C   UNL     1      -9.495  -5.815 -10.057  1.00  0.00     0.053 C 
BRANCH  17  18
ATOM     18  C   UNL     1      -9.820  -4.386  -9.747  1.00  0.00     0.041 C 
ATOM     19  O   UNL     1     -10.874  -4.097  -9.122  1.00  0.00    -0.550 OA
ATOM     20  O   UNL     1      -8.946  -3.376 -10.125  1.00  0.00    -0.550 OA
ENDBRANCH  17  18
ENDBRANCH  16  17
ENDBRANCH  15  16
ENDBRANCH  14  15
ENDBRANCH  13  14
ENDBRANCH  12  13
ENDBRANCH  11  12
ENDBRANCH   1  11
TORSDOF 15
ENDMDL
MODEL 7
REMARK VINA RESULT:    -3.146     17.838     19.897
REMARK INTER + INTRA:          -7.056
REMARK INTER:                  -6.389
REMARK INTRA:                  -0.667
REMARK UNBOUND:                -1.151
REMARK SMILES O=C([O-])CCCCCCCCCCCCCCC(=O)[O-]
REMARK SMILES IDX 10 1 9 2 8 3 7 4 6 5 5 6 4 7 2 8 1 9 3 10 11 11 12 12 13 13
REMARK SMILES IDX 14 14 15 15 16 16 17 17 18 18 19 19 20 20
REMARK H PARENT
REMARK Flexibility Score: inf
ROOT
ATOM      1  C   UNL     1      -4.371   7.373   7.411  1.00  0.00     0.000 C 
ENDROOT
BRANCH   1   2
ATOM      2  C   UNL     1      -3.358   6.893   8.462  1.00  0.00     0.000 C 
BRANCH   2   3
ATOM      3  C   UNL     1      -3.139   7.923   9.584  1.00  0.00     0.000 C 
BRANCH   3   4
ATOM      4  C   UNL     1      -1.644   8.247   9.790  1.00  0.00     0.000 C 
BRANCH   4   5
ATOM      5  C   UNL     1      -1.352   9.754   9.892  1.00  0.00     0.000 C 
BRANCH   5   6
ATOM      6  C   UNL     1       0.129  10.093   9.657  1.00  0.00     0.006 C 
BRANCH   6   7
ATOM      7  C   UNL     1       0.532   9.940   8.184  1.00  0.00     0.053 C 
BRANCH   7   8
ATOM      8  C   UNL     1       1.869   9.279   8.042  1.00  0.00     0.041 C 
ATOM      9  O   UNL     1       2.029   8.344   7.214  1.00  0.00    -0.550 OA
ATOM     10  O   UNL     1       2.948   9.722   8.796  1.00  0.00    -0.550 OA
ENDBRANCH   7   8
ENDBRANCH   6   7
ENDBRANCH   5   6
ENDBRANCH   4   5
ENDBRANCH   3   4
ENDBRANCH   2   3
ENDBRANCH   1   2
BRANCH   1  11
ATOM     11  C   UNL     1      -4.918   8.775   7.722  1.00  0.00     0.000 C 
BRANCH  11  12
ATOM     12  C   UNL     1      -6.082   8.702   8.716  1.00  0.00     0.000 C 
BRANCH  12  13
ATOM     13  C   UNL     1      -7.046   9.880   8.525  1.00  0.00     0.000 C 
BRANCH  13  14
ATOM     14  C   UNL     1      -8.316   9.694   9.368  1.00  0.00     0.000 C 
BRANCH  14  15
ATOM     15  C   UNL     1      -8.642   8.216   9.632  1.00  0.00     0.000 C 
BRANCH  15  16
ATOM     16  C   UNL     1     -10.039   7.818   9.125  1.00  0.00     0.006 C 
BRANCH  16  17
ATOM     17  C   UNL     1      -9.982   7.116   7.761  1.00  0.00     0.053 C 
BRANCH  17  18
ATOM     18  C   UNL     1     -10.524   7.983   6.667  1.00  0.00     0.041 C 
ATOM     19  O   UNL     1     -10.669   7.522   5.505  1.00  0.00    -0.550 OA
ATOM     20  O   UNL     1     -10.893   9.295   6.938  1.00  0.00    -0.550 OA
ENDBRANCH  17  18
ENDBRANCH  16  17
ENDBRANCH  15  16
ENDBRANCH  14  15
ENDBRANCH  13  14
ENDBRANCH  12  13
ENDBRANCH  11  12
ENDBRANCH   1  11
TORSDOF 15
ENDMDL
