MODEL 1
REMARK VINA RESULT:    12.932      0.000      0.000
REMARK INTER + INTRA:          14.697
REMARK INTER:                  14.444
REMARK INTRA:                   0.254
REMARK UNBOUND:                 0.254
REMARK SMILES C=C(C)[C@@H]1CC[C@@]2(C(=O)[O-])CC[C@]3(C)[C@@H](CC[C@H]4[C@]5(C)CCC(=O)C(C)(C)[C@@H]5CC[C@@]43C)[C@@H]12
REMARK SMILES IDX 7 1 6 2 33 3 11 4 5 5 15 6 4 7 12 8 16 9 13 10 17 11 31 12
REMARK SMILES IDX 14 13 18 14 30 15 32 16 19 17 29 18 21 19 20 20 28 21 22 22
REMARK SMILES IDX 25 23 23 24 26 25 27 26 24 27 8 28 9 29 10 30 2 31 3 32 1 33
REMARK H PARENT
REMARK Flexibility Score: inf
ROOT
ATOM      1  C   UNL     1     -18.140  10.762 -29.512  1.00  0.00     0.014 C 
ATOM      2  C   UNL     1     -19.149   9.875 -30.289  1.00  0.00     0.014 C 
ATOM      3  C   UNL     1     -18.544  12.240 -29.848  1.00  0.00     0.012 C 
ATOM      4  C   UNL     1     -16.696  10.418 -29.974  1.00  0.00     0.014 C 
ATOM      5  C   UNL     1     -19.842  10.776 -31.299  1.00  0.00     0.009 C 
ATOM      6  C   UNL     1     -17.404  13.121 -30.489  1.00  0.00     0.000 C 
ATOM      7  C   UNL     1     -19.855  12.168 -30.670  1.00  0.00     0.018 C 
ATOM      8  C   UNL     1     -15.619  11.471 -29.632  1.00  0.00     0.008 C 
ATOM      9  C   UNL     1     -17.199  12.920 -32.019  1.00  0.00     0.005 C 
ATOM     10  C   UNL     1     -16.052  12.990 -29.683  1.00  0.00    -0.024 C 
ATOM     11  C   UNL     1     -16.131  13.842 -32.596  1.00  0.00     0.005 C 
ATOM     12  C   UNL     1     -14.907  13.954 -30.327  1.00  0.00    -0.024 C 
ATOM     13  C   UNL     1     -16.330  13.416 -28.200  1.00  0.00     0.012 C 
ATOM     14  C   UNL     1     -14.767  13.661 -31.883  1.00  0.00     0.002 C 
ATOM     15  C   UNL     1     -13.521  13.715 -29.640  1.00  0.00     0.008 C 
ATOM     16  C   UNL     1     -15.289  15.451 -30.057  1.00  0.00     0.012 C 
ATOM     17  C   UNL     1     -13.533  14.334 -32.643  1.00  0.00    -0.025 C 
ATOM     18  C   UNL     1     -12.309  14.346 -30.355  1.00  0.00     0.006 C 
ATOM     19  C   UNL     1     -13.390  13.825 -34.117  1.00  0.00     0.015 C 
ATOM     20  C   UNL     1     -13.707  15.889 -32.786  1.00  0.00     0.012 C 
ATOM     21  C   UNL     1     -12.183  14.028 -31.874  1.00  0.00     0.008 C 
ATOM     22  C   UNL     1     -13.011  12.363 -34.240  1.00  0.00     0.077 C 
ATOM     23  C   UNL     1     -11.401  12.664 -32.195  1.00  0.00     0.027 C 
ATOM     24  C   UNL     1     -11.676  12.162 -33.607  1.00  0.00     0.138 C 
ATOM     25  C   UNL     1     -11.743  11.492 -31.253  1.00  0.00     0.020 C 
ATOM     26  C   UNL     1      -9.875  12.927 -32.060  1.00  0.00     0.020 C 
ATOM     27  O   UNL     1     -10.842  11.490 -34.200  1.00  0.00    -0.299 OA
ENDROOT
BRANCH   1  28
ATOM     28  C   UNL     1     -18.306  10.482 -28.018  1.00  0.00     0.048 C 
ATOM     29  O   UNL     1     -17.386  10.742 -27.196  1.00  0.00    -0.550 OA
ATOM     30  O   UNL     1     -19.467   9.881 -27.547  1.00  0.00    -0.550 OA
ENDBRANCH   1  28
BRANCH   7  31
ATOM     31  C   UNL     1     -21.081  12.446 -29.799  1.00  0.00    -0.077 C 
ATOM     32  C   UNL     1     -21.824  11.280 -29.197  1.00  0.00     0.039 C 
ATOM     33  C   UNL     1     -21.547  13.691 -29.609  1.00  0.00     0.008 C 
ENDBRANCH   7  31
TORSDOF 2
ENDMDL
MODEL 2
REMARK VINA RESULT:    14.839      9.520     12.946
REMARK INTER + INTRA:          16.828
REMARK INTER:                  17.056
REMARK INTRA:                  -0.228
REMARK UNBOUND:                 0.254
REMARK SMILES C=C(C)[C@@H]1CC[C@@]2(C(=O)[O-])CC[C@]3(C)[C@@H](CC[C@H]4[C@]5(C)CCC(=O)C(C)(C)[C@@H]5CC[C@@]43C)[C@@H]12
REMARK SMILES IDX 7 1 6 2 33 3 11 4 5 5 15 6 4 7 12 8 16 9 13 10 17 11 31 12
REMARK SMILES IDX 14 13 18 14 30 15 32 16 19 17 29 18 21 19 20 20 28 21 22 22
REMARK SMILES IDX 25 23 23 24 26 25 27 26 24 27 8 28 9 29 10 30 2 31 3 32 1 33
REMARK H PARENT
REMARK Flexibility Score: inf
ROOT
ATOM      1  C   UNL     1     -25.643  18.042 -30.763  1.00  0.00     0.014 C 
ATOM      2  C   UNL     1     -26.581  19.275 -30.674  1.00  0.00     0.014 C 
ATOM      3  C   UNL     1     -25.882  17.442 -32.192  1.00  0.00     0.012 C 
ATOM      4  C   UNL     1     -26.005  17.042 -29.628  1.00  0.00     0.014 C 
ATOM      5  C   UNL     1     -27.565  19.165 -31.829  1.00  0.00     0.009 C 
ATOM      6  C   UNL     1     -26.341  15.933 -32.222  1.00  0.00     0.000 C 
ATOM      7  C   UNL     1     -26.820  18.425 -32.938  1.00  0.00     0.018 C 
ATOM      8  C   UNL     1     -25.478  15.603 -29.816  1.00  0.00     0.008 C 
ATOM      9  C   UNL     1     -27.858  15.702 -31.966  1.00  0.00     0.005 C 
ATOM     10  C   UNL     1     -25.434  15.037 -31.291  1.00  0.00    -0.024 C 
ATOM     11  C   UNL     1     -28.256  14.234 -32.071  1.00  0.00     0.005 C 
ATOM     12  C   UNL     1     -25.887  13.475 -31.384  1.00  0.00    -0.024 C 
ATOM     13  C   UNL     1     -23.948  15.187 -31.772  1.00  0.00     0.012 C 
ATOM     14  C   UNL     1     -27.444  13.346 -31.094  1.00  0.00     0.002 C 
ATOM     15  C   UNL     1     -25.105  12.600 -30.348  1.00  0.00     0.008 C 
ATOM     16  C   UNL     1     -25.520  12.921 -32.805  1.00  0.00     0.012 C 
ATOM     17  C   UNL     1     -28.030  11.872 -30.903  1.00  0.00    -0.025 C 
ATOM     18  C   UNL     1     -25.652  11.174 -30.136  1.00  0.00     0.006 C 
ATOM     19  C   UNL     1     -29.525  11.879 -30.437  1.00  0.00     0.015 C 
ATOM     20  C   UNL     1     -28.051  11.068 -32.253  1.00  0.00     0.012 C 
ATOM     21  C   UNL     1     -27.176  11.076 -29.833  1.00  0.00     0.008 C 
ATOM     22  C   UNL     1     -29.743  12.433 -29.042  1.00  0.00     0.077 C 
ATOM     23  C   UNL     1     -27.546  11.227 -28.279  1.00  0.00     0.027 C 
ATOM     24  C   UNL     1     -29.015  11.570 -28.068  1.00  0.00     0.138 C 
ATOM     25  C   UNL     1     -26.745  12.312 -27.532  1.00  0.00     0.020 C 
ATOM     26  C   UNL     1     -27.255   9.875 -27.570  1.00  0.00     0.020 C 
ATOM     27  O   UNL     1     -29.590  11.234 -27.040  1.00  0.00    -0.299 OA
ENDROOT
BRANCH   1  28
ATOM     28  C   UNL     1     -24.200  18.524 -30.613  1.00  0.00     0.048 C 
ATOM     29  O   UNL     1     -23.839  19.215 -29.621  1.00  0.00    -0.550 OA
ATOM     30  O   UNL     1     -23.267  18.250 -31.606  1.00  0.00    -0.550 OA
ENDBRANCH   1  28
BRANCH   7  31
ATOM     31  C   UNL     1     -26.038  19.340 -33.882  1.00  0.00    -0.077 C 
ATOM     32  C   UNL     1     -26.786  20.405 -34.646  1.00  0.00     0.039 C 
ATOM     33  C   UNL     1     -24.722  19.180 -34.095  1.00  0.00     0.008 C 
ENDBRANCH   7  31
TORSDOF 2
ENDMDL
MODEL 3
REMARK VINA RESULT:    15.913      9.106     11.089
REMARK INTER + INTRA:          18.028
REMARK INTER:                  18.670
REMARK INTRA:                  -0.642
REMARK UNBOUND:                 0.254
REMARK SMILES C=C(C)[C@@H]1CC[C@@]2(C(=O)[O-])CC[C@]3(C)[C@@H](CC[C@H]4[C@]5(C)CCC(=O)C(C)(C)[C@@H]5CC[C@@]43C)[C@@H]12
REMARK SMILES IDX 7 1 6 2 33 3 11 4 5 5 15 6 4 7 12 8 16 9 13 10 17 11 31 12
REMARK SMILES IDX 14 13 18 14 30 15 32 16 19 17 29 18 21 19 20 20 28 21 22 22
REMARK SMILES IDX 25 23 23 24 26 25 27 26 24 27 8 28 9 29 10 30 2 31 3 32 1 33
REMARK H PARENT
REMARK Flexibility Score: inf
ROOT
ATOM      1  C   UNL     1     -25.860  12.762 -31.086  1.00  0.00     0.014 C 
ATOM      2  C   UNL     1     -26.478  11.685 -32.017  1.00  0.00     0.014 C 
ATOM      3  C   UNL     1     -27.082  13.566 -30.518  1.00  0.00     0.012 C 
ATOM      4  C   UNL     1     -24.890  13.655 -31.910  1.00  0.00     0.014 C 
ATOM      5  C   UNL     1     -27.924  12.087 -32.260  1.00  0.00     0.009 C 
ATOM      6  C   UNL     1     -27.054  15.119 -30.794  1.00  0.00     0.000 C 
ATOM      7  C   UNL     1     -28.361  12.839 -31.004  1.00  0.00     0.018 C 
ATOM      8  C   UNL     1     -24.522  15.009 -31.266  1.00  0.00     0.008 C 
ATOM      9  C   UNL     1     -27.543  15.544 -32.208  1.00  0.00     0.005 C 
ATOM     10  C   UNL     1     -25.648  15.743 -30.435  1.00  0.00    -0.024 C 
ATOM     11  C   UNL     1     -27.556  17.057 -32.397  1.00  0.00     0.005 C 
ATOM     12  C   UNL     1     -25.661  17.355 -30.670  1.00  0.00    -0.024 C 
ATOM     13  C   UNL     1     -25.350  15.430 -28.927  1.00  0.00     0.012 C 
ATOM     14  C   UNL     1     -26.160  17.681 -32.143  1.00  0.00     0.002 C 
ATOM     15  C   UNL     1     -24.233  17.963 -30.473  1.00  0.00     0.008 C 
ATOM     16  C   UNL     1     -26.584  18.021 -29.591  1.00  0.00     0.012 C 
ATOM     17  C   UNL     1     -26.014  19.192 -32.644  1.00  0.00    -0.025 C 
ATOM     18  C   UNL     1     -24.058  19.418 -30.954  1.00  0.00     0.006 C 
ATOM     19  C   UNL     1     -26.358  19.353 -34.163  1.00  0.00     0.015 C 
ATOM     20  C   UNL     1     -27.021  20.153 -31.916  1.00  0.00     0.012 C 
ATOM     21  C   UNL     1     -24.536  19.707 -32.407  1.00  0.00     0.008 C 
ATOM     22  C   UNL     1     -25.384  18.668 -35.102  1.00  0.00     0.077 C 
ATOM     23  C   UNL     1     -23.426  19.420 -33.531  1.00  0.00     0.027 C 
ATOM     24  C   UNL     1     -24.037  19.281 -34.920  1.00  0.00     0.138 C 
ATOM     25  C   UNL     1     -22.597  18.141 -33.301  1.00  0.00     0.020 C 
ATOM     26  C   UNL     1     -22.429  20.612 -33.555  1.00  0.00     0.020 C 
ATOM     27  O   UNL     1     -23.386  19.568 -35.916  1.00  0.00    -0.299 OA
ENDROOT
BRANCH   1  28
ATOM     28  C   UNL     1     -25.110  12.051 -29.960  1.00  0.00     0.048 C 
ATOM     29  O   UNL     1     -25.715  11.613 -28.943  1.00  0.00    -0.550 OA
ATOM     30  O   UNL     1     -23.727  11.923 -30.016  1.00  0.00    -0.550 OA
ENDBRANCH   1  28
BRANCH   7  31
ATOM     31  C   UNL     1     -28.946  11.941 -29.912  1.00  0.00    -0.077 C 
ATOM     32  C   UNL     1     -29.451  10.571 -30.292  1.00  0.00     0.039 C 
ATOM     33  C   UNL     1     -29.079  12.363 -28.644  1.00  0.00     0.008 C 
ENDBRANCH   7  31
TORSDOF 2
ENDMDL
