MODEL 1
REMARK VINA RESULT:     0.000      0.000      0.000
REMARK INTER + INTRA:          -0.194
REMARK INTER:                   0.000
REMARK INTRA:                  -0.194
REMARK UNBOUND:                -0.194
REMARK SMILES O=C([O-])CCC(=O)[O-]
REMARK SMILES IDX 4 1 2 2 1 3 3 4 5 5 6 6 7 7 8 8
REMARK H PARENT
REMARK Flexibility Score: inf
ROOT
ATOM      1  C   UNL     1     171.389 194.415 191.017  1.00  0.00     0.059 C 
ENDROOT
BRANCH   1   2
ATOM      2  C   UNL     1     172.171 195.584 191.524  1.00  0.00     0.042 C 
ATOM      3  O   UNL     1     171.596 196.683 191.747  1.00  0.00    -0.550 OA
ATOM      4  O   UNL     1     173.544 195.478 191.705  1.00  0.00    -0.550 OA
ENDBRANCH   1   2
BRANCH   1   5
ATOM      5  C   UNL     1     171.967 193.920 189.689  1.00  0.00     0.059 C 
BRANCH   5   6
ATOM      6  C   UNL     1     171.801 194.959 188.626  1.00  0.00     0.042 C 
ATOM      7  O   UNL     1     172.807 195.406 188.015  1.00  0.00    -0.550 OA
ATOM      8  O   UNL     1     170.540 195.471 188.344  1.00  0.00    -0.550 OA
ENDBRANCH   5   6
ENDBRANCH   1   5
TORSDOF 3
ENDMDL
MODEL 2
REMARK VINA RESULT:     0.000      6.787      7.352
REMARK INTER + INTRA:          -0.194
REMARK INTER:                   0.000
REMARK INTRA:                  -0.194
REMARK UNBOUND:                -0.194
REMARK SMILES O=C([O-])CCC(=O)[O-]
REMARK SMILES IDX 4 1 2 2 1 3 3 4 5 5 6 6 7 7 8 8
REMARK H PARENT
REMARK Flexibility Score: inf
ROOT
ATOM      1  C   UNL     1     179.532 194.440 190.333  1.00  0.00     0.059 C 
ENDROOT
BRANCH   1   2
ATOM      2  C   UNL     1     179.631 195.525 189.309  1.00  0.00     0.042 C 
ATOM      3  O   UNL     1     178.775 196.449 189.279  1.00  0.00    -0.550 OA
ATOM      4  O   UNL     1     180.641 195.493 188.355  1.00  0.00    -0.550 OA
ENDBRANCH   1   2
BRANCH   1   5
ATOM      5  C   UNL     1     179.446 193.070 189.655  1.00  0.00     0.059 C 
BRANCH   5   6
ATOM      6  C   UNL     1     178.176 192.952 188.873  1.00  0.00     0.042 C 
ATOM      7  O   UNL     1     178.213 192.705 187.640  1.00  0.00    -0.550 OA
ATOM      8  O   UNL     1     176.953 193.164 189.498  1.00  0.00    -0.550 OA
ENDBRANCH   5   6
ENDBRANCH   1   5
TORSDOF 3
ENDMDL
MODEL 3
REMARK VINA RESULT:     0.000     17.477     18.508
REMARK INTER + INTRA:          -0.194
REMARK INTER:                   0.000
REMARK INTRA:                  -0.194
REMARK UNBOUND:                -0.194
REMARK SMILES O=C([O-])CCC(=O)[O-]
REMARK SMILES IDX 4 1 2 2 1 3 3 4 5 5 6 6 7 7 8 8
REMARK H PARENT
REMARK Flexibility Score: inf
ROOT
ATOM      1  C   UNL     1     173.952 182.353 201.986  1.00  0.00     0.059 C 
ENDROOT
BRANCH   1   2
ATOM      2  C   UNL     1     174.548 181.154 202.652  1.00  0.00     0.042 C 
ATOM      3  O   UNL     1     175.460 180.499 202.080  1.00  0.00    -0.550 OA
ATOM      4  O   UNL     1     174.065 180.730 203.883  1.00  0.00    -0.550 OA
ENDBRANCH   1   2
BRANCH   1   5
ATOM      5  C   UNL     1     172.440 182.179 201.823  1.00  0.00     0.059 C 
BRANCH   5   6
ATOM      6  C   UNL     1     172.140 181.054 200.886  1.00  0.00     0.042 C 
ATOM      7  O   UNL     1     171.437 180.082 201.267  1.00  0.00    -0.550 OA
ATOM      8  O   UNL     1     172.680 181.053 199.605  1.00  0.00    -0.550 OA
ENDBRANCH   5   6
ENDBRANCH   1   5
TORSDOF 3
ENDMDL
MODEL 4
REMARK VINA RESULT:     0.000     14.848     15.938
REMARK INTER + INTRA:          -0.194
REMARK INTER:                   0.000
REMARK INTRA:                  -0.194
REMARK UNBOUND:                -0.194
REMARK SMILES O=C([O-])CCC(=O)[O-]
REMARK SMILES IDX 4 1 2 2 1 3 3 4 5 5 6 6 7 7 8 8
REMARK H PARENT
REMARK Flexibility Score: inf
ROOT
ATOM      1  C   UNL     1     180.052 184.939 198.895  1.00  0.00     0.059 C 
ENDROOT
BRANCH   1   2
ATOM      2  C   UNL     1     180.440 183.499 198.798  1.00  0.00     0.042 C 
ATOM      3  O   UNL     1     181.576 183.121 199.192  1.00  0.00    -0.550 OA
ATOM      4  O   UNL     1     179.569 182.579 198.228  1.00  0.00    -0.550 OA
ENDBRANCH   1   2
BRANCH   1   5
ATOM      5  C   UNL     1     179.679 185.488 197.516  1.00  0.00     0.059 C 
BRANCH   5   6
ATOM      6  C   UNL     1     180.872 185.491 196.614  1.00  0.00     0.042 C 
ATOM      7  O   UNL     1     180.843 184.864 195.523  1.00  0.00    -0.550 OA
ATOM      8  O   UNL     1     182.034 186.147 197.001  1.00  0.00    -0.550 OA
ENDBRANCH   5   6
ENDBRANCH   1   5
TORSDOF 3
ENDMDL
MODEL 5
REMARK VINA RESULT:     0.000     10.138     11.383
REMARK INTER + INTRA:          -0.194
REMARK INTER:                   0.000
REMARK INTRA:                  -0.194
REMARK UNBOUND:                -0.194
REMARK SMILES O=C([O-])CCC(=O)[O-]
REMARK SMILES IDX 4 1 2 2 1 3 3 4 5 5 6 6 7 7 8 8
REMARK H PARENT
REMARK Flexibility Score: inf
ROOT
ATOM      1  C   UNL     1     173.486 186.509 197.480  1.00  0.00     0.059 C 
ENDROOT
BRANCH   1   2
ATOM      2  C   UNL     1     172.465 186.817 196.432  1.00  0.00     0.042 C 
ATOM      3  O   UNL     1     172.744 187.603 195.487  1.00  0.00    -0.550 OA
ATOM      4  O   UNL     1     171.189 186.276 196.522  1.00  0.00    -0.550 OA
ENDBRANCH   1   2
BRANCH   1   5
ATOM      5  C   UNL     1     172.955 186.872 198.868  1.00  0.00     0.059 C 
BRANCH   5   6
ATOM      6  C   UNL     1     172.751 188.350 198.981  1.00  0.00     0.042 C 
ATOM      7  O   UNL     1     171.616 188.812 199.269  1.00  0.00    -0.550 OA
ATOM      8  O   UNL     1     173.803 189.219 198.718  1.00  0.00    -0.550 OA
ENDBRANCH   5   6
ENDBRANCH   1   5
TORSDOF 3
ENDMDL
MODEL 6
REMARK VINA RESULT:     0.000     12.379     13.376
REMARK INTER + INTRA:          -0.194
REMARK INTER:                   0.000
REMARK INTRA:                  -0.194
REMARK UNBOUND:                -0.194
REMARK SMILES O=C([O-])CCC(=O)[O-]
REMARK SMILES IDX 4 1 2 2 1 3 3 4 5 5 6 6 7 7 8 8
REMARK H PARENT
REMARK Flexibility Score: inf
ROOT
ATOM      1  C   UNL     1     180.049 190.377 197.398  1.00  0.00     0.059 C 
ENDROOT
BRANCH   1   2
ATOM      2  C   UNL     1     180.964 189.228 197.120  1.00  0.00     0.042 C 
ATOM      3  O   UNL     1     180.555 188.236 196.459  1.00  0.00    -0.550 OA
ATOM      4  O   UNL     1     182.256 189.227 197.631  1.00  0.00    -0.550 OA
ENDBRANCH   1   2
BRANCH   1   5
ATOM      5  C   UNL     1     179.922 190.608 198.905  1.00  0.00     0.059 C 
BRANCH   5   6
ATOM      6  C   UNL     1     179.253 189.441 199.560  1.00  0.00     0.042 C 
ATOM      7  O   UNL     1     179.835 188.813 200.482  1.00  0.00    -0.550 OA
ATOM      8  O   UNL     1     178.006 189.017 199.117  1.00  0.00    -0.550 OA
ENDBRANCH   5   6
ENDBRANCH   1   5
TORSDOF 3
ENDMDL
MODEL 7
REMARK VINA RESULT:     0.000      6.169      7.102
REMARK INTER + INTRA:          -0.194
REMARK INTER:                   0.000
REMARK INTRA:                  -0.194
REMARK UNBOUND:                -0.194
REMARK SMILES O=C([O-])CCC(=O)[O-]
REMARK SMILES IDX 4 1 2 2 1 3 3 4 5 5 6 6 7 7 8 8
REMARK H PARENT
REMARK Flexibility Score: inf
ROOT
ATOM      1  C   UNL     1     168.042 190.837 194.119  1.00  0.00     0.059 C 
ENDROOT
BRANCH   1   2
ATOM      2  C   UNL     1     168.364 190.524 195.545  1.00  0.00     0.042 C 
ATOM      3  O   UNL     1     167.497 190.694 196.443  1.00  0.00    -0.550 OA
ATOM      4  O   UNL     1     169.638 190.090 195.892  1.00  0.00    -0.550 OA
ENDBRANCH   1   2
BRANCH   1   5
ATOM      5  C   UNL     1     169.023 191.872 193.563  1.00  0.00     0.059 C 
BRANCH   5   6
ATOM      6  C   UNL     1     168.860 193.180 194.269  1.00  0.00     0.042 C 
ATOM      7  O   UNL     1     169.837 193.705 194.864  1.00  0.00    -0.550 OA
ATOM      8  O   UNL     1     167.615 193.796 194.314  1.00  0.00    -0.550 OA
ENDBRANCH   5   6
ENDBRANCH   1   5
TORSDOF 3
ENDMDL
MODEL 8
REMARK VINA RESULT:     0.000      6.050      6.615
REMARK INTER + INTRA:          -0.194
REMARK INTER:                   0.000
REMARK INTRA:                  -0.194
REMARK UNBOUND:                -0.194
REMARK SMILES O=C([O-])CCC(=O)[O-]
REMARK SMILES IDX 4 1 2 2 1 3 3 4 5 5 6 6 7 7 8 8
REMARK H PARENT
REMARK Flexibility Score: inf
ROOT
ATOM      1  C   UNL     1     166.411 190.780 192.240  1.00  0.00     0.059 C 
ENDROOT
BRANCH   1   2
ATOM      2  C   UNL     1     167.448 190.176 193.132  1.00  0.00     0.042 C 
ATOM      3  O   UNL     1     167.414 190.385 194.374  1.00  0.00    -0.550 OA
ATOM      4  O   UNL     1     168.480 189.422 192.589  1.00  0.00    -0.550 OA
ENDBRANCH   1   2
BRANCH   1   5
ATOM      5  C   UNL     1     167.069 191.650 191.166  1.00  0.00     0.059 C 
BRANCH   5   6
ATOM      6  C   UNL     1     167.746 192.829 191.790  1.00  0.00     0.042 C 
ATOM      7  O   UNL     1     168.977 193.022 191.610  1.00  0.00    -0.550 OA
ATOM      8  O   UNL     1     167.027 193.688 192.612  1.00  0.00    -0.550 OA
ENDBRANCH   5   6
ENDBRANCH   1   5
TORSDOF 3
ENDMDL
MODEL 9
REMARK VINA RESULT:     0.000      9.777     10.826
REMARK INTER + INTRA:          -0.193
REMARK INTER:                   0.000
REMARK INTRA:                  -0.193
REMARK UNBOUND:                -0.194
REMARK SMILES O=C([O-])CCC(=O)[O-]
REMARK SMILES IDX 4 1 2 2 1 3 3 4 5 5 6 6 7 7 8 8
REMARK H PARENT
REMARK Flexibility Score: inf
ROOT
ATOM      1  C   UNL     1     172.520 184.684 191.823  1.00  0.00     0.059 C 
ENDROOT
BRANCH   1   2
ATOM      2  C   UNL     1     173.276 185.882 191.344  1.00  0.00     0.042 C 
ATOM      3  O   UNL     1     174.449 185.757 190.902  1.00  0.00    -0.550 OA
ATOM      4  O   UNL     1     172.705 187.146 191.430  1.00  0.00    -0.550 OA
ENDBRANCH   1   2
BRANCH   1   5
ATOM      5  C   UNL     1     172.088 184.871 193.279  1.00  0.00     0.059 C 
BRANCH   5   6
ATOM      6  C   UNL     1     173.283 184.932 194.177  1.00  0.00     0.042 C 
ATOM      7  O   UNL     1     173.474 185.938 194.909  1.00  0.00    -0.550 OA
ATOM      8  O   UNL     1     174.213 183.900 194.168  1.00  0.00    -0.550 OA
ENDBRANCH   5   6
ENDBRANCH   1   5
TORSDOF 3
ENDMDL
