MODEL 1
REMARK VINA RESULT:    -4.806      0.000      0.000
REMARK INTER + INTRA:          -9.666
REMARK INTER:                  -8.740
REMARK INTRA:                  -0.926
REMARK UNBOUND:                -0.926
REMARK SMILES CCCCCCCCCCCCCCCC(=O)[O-]
REMARK SMILES IDX 9 1 10 2 11 3 12 4 13 5 14 6 15 7 16 8 17 9 18 10 8 11 7 12
REMARK SMILES IDX 6 13 5 14 4 15 3 16 2 17 1 18
REMARK H PARENT
REMARK Flexibility Score: inf
ROOT
ATOM      1  C   UNL     1     112.114 102.381 112.359  1.00  0.00     0.000 C 
ENDROOT
BRANCH   1   2
ATOM      2  C   UNL     1     113.600 102.075 112.114  1.00  0.00     0.000 C 
BRANCH   2   3
ATOM      3  C   UNL     1     114.279 103.116 111.211  1.00  0.00     0.000 C 
BRANCH   3   4
ATOM      4  C   UNL     1     114.302 104.495 111.883  1.00  0.00     0.000 C 
BRANCH   4   5
ATOM      5  C   UNL     1     114.885 104.407 113.301  1.00  0.00     0.000 C 
BRANCH   5   6
ATOM      6  C   UNL     1     116.169 105.238 113.473  1.00  0.00     0.006 C 
BRANCH   6   7
ATOM      7  C   UNL     1     117.428 104.585 112.880  1.00  0.00     0.053 C 
BRANCH   7   8
ATOM      8  C   UNL     1     118.667 105.361 113.205  1.00  0.00     0.041 C 
ATOM      9  O   UNL     1     119.015 106.332 112.484  1.00  0.00    -0.550 OA
ATOM     10  O   UNL     1     119.420 105.032 114.326  1.00  0.00    -0.550 OA
ENDBRANCH   7   8
ENDBRANCH   6   7
ENDBRANCH   5   6
ENDBRANCH   4   5
ENDBRANCH   3   4
ENDBRANCH   2   3
ENDBRANCH   1   2
BRANCH   1  11
ATOM     11  C   UNL     1     111.199 101.757 111.291  1.00  0.00     0.000 C 
BRANCH  11  12
ATOM     12  C   UNL     1     110.435 102.814 110.476  1.00  0.00    -0.000 C 
BRANCH  12  13
ATOM     13  C   UNL     1     110.096 104.067 111.299  1.00  0.00    -0.000 C 
BRANCH  13  14
ATOM     14  C   UNL     1     108.924 104.833 110.672  1.00  0.00    -0.000 C 
BRANCH  14  15
ATOM     15  C   UNL     1     109.115 106.350 110.821  1.00  0.00    -0.000 C 
BRANCH  15  16
ATOM     16  C   UNL     1     107.946 107.033 111.552  1.00  0.00    -0.000 C 
BRANCH  16  17
ATOM     17  C   UNL     1     107.544 106.376 112.884  1.00  0.00    -0.003 C 
ATOM     18  C   UNL     1     106.103 106.682 113.291  1.00  0.00     0.004 C 
ENDBRANCH  16  17
ENDBRANCH  15  16
ENDBRANCH  14  15
ENDBRANCH  13  14
ENDBRANCH  12  13
ENDBRANCH  11  12
ENDBRANCH   1  11
TORSDOF 14
ENDMDL
MODEL 2
REMARK VINA RESULT:    -4.628      0.576      1.159
REMARK INTER + INTRA:          -9.341
REMARK INTER:                  -8.566
REMARK INTRA:                  -0.775
REMARK UNBOUND:                -0.926
REMARK SMILES CCCCCCCCCCCCCCCC(=O)[O-]
REMARK SMILES IDX 9 1 10 2 11 3 12 4 13 5 14 6 15 7 16 8 17 9 18 10 8 11 7 12
REMARK SMILES IDX 6 13 5 14 4 15 3 16 2 17 1 18
REMARK H PARENT
REMARK Flexibility Score: inf
ROOT
ATOM      1  C   UNL     1     111.972 101.932 111.184  1.00  0.00     0.000 C 
ENDROOT
BRANCH   1   2
ATOM      2  C   UNL     1     113.340 102.088 111.868  1.00  0.00     0.000 C 
BRANCH   2   3
ATOM      3  C   UNL     1     114.291 103.011 111.090  1.00  0.00     0.000 C 
BRANCH   3   4
ATOM      4  C   UNL     1     114.337 104.408 111.722  1.00  0.00     0.000 C 
BRANCH   4   5
ATOM      5  C   UNL     1     114.667 104.326 113.219  1.00  0.00     0.000 C 
BRANCH   5   6
ATOM      6  C   UNL     1     116.006 104.996 113.575  1.00  0.00     0.006 C 
BRANCH   6   7
ATOM      7  C   UNL     1     117.175 104.597 112.660  1.00  0.00     0.053 C 
BRANCH   7   8
ATOM      8  C   UNL     1     118.487 105.105 113.174  1.00  0.00     0.041 C 
ATOM      9  O   UNL     1     119.013 104.586 114.192  1.00  0.00    -0.550 OA
ATOM     10  O   UNL     1     119.145 106.131 112.506  1.00  0.00    -0.550 OA
ENDBRANCH   7   8
ENDBRANCH   6   7
ENDBRANCH   5   6
ENDBRANCH   4   5
ENDBRANCH   3   4
ENDBRANCH   2   3
ENDBRANCH   1   2
BRANCH   1  11
ATOM     11  C   UNL     1     110.891 102.825 111.817  1.00  0.00     0.000 C 
BRANCH  11  12
ATOM     12  C   UNL     1     110.173 103.707 110.782  1.00  0.00    -0.000 C 
BRANCH  12  13
ATOM     13  C   UNL     1     109.092 104.600 111.411  1.00  0.00    -0.000 C 
BRANCH  13  14
ATOM     14  C   UNL     1     108.996 105.943 110.677  1.00  0.00    -0.000 C 
BRANCH  14  15
ATOM     15  C   UNL     1     108.065 106.912 111.421  1.00  0.00    -0.000 C 
BRANCH  15  16
ATOM     16  C   UNL     1     107.760 106.465 112.861  1.00  0.00    -0.000 C 
BRANCH  16  17
ATOM     17  C   UNL     1     106.295 106.067 113.119  1.00  0.00    -0.003 C 
ATOM     18  C   UNL     1     105.477 107.183 113.766  1.00  0.00     0.004 C 
ENDBRANCH  16  17
ENDBRANCH  15  16
ENDBRANCH  14  15
ENDBRANCH  13  14
ENDBRANCH  12  13
ENDBRANCH  11  12
ENDBRANCH   1  11
TORSDOF 14
ENDMDL
MODEL 3
REMARK VINA RESULT:    -4.512      3.895      8.224
REMARK INTER + INTRA:          -9.130
REMARK INTER:                  -8.158
REMARK INTRA:                  -0.972
REMARK UNBOUND:                -0.926
REMARK SMILES CCCCCCCCCCCCCCCC(=O)[O-]
REMARK SMILES IDX 9 1 10 2 11 3 12 4 13 5 14 6 15 7 16 8 17 9 18 10 8 11 7 12
REMARK SMILES IDX 6 13 5 14 4 15 3 16 2 17 1 18
REMARK H PARENT
REMARK Flexibility Score: inf
ROOT
ATOM      1  C   UNL     1     113.511 102.080 112.271  1.00  0.00     0.000 C 
ENDROOT
BRANCH   1   2
ATOM      2  C   UNL     1     111.995 102.310 112.390  1.00  0.00     0.000 C 
BRANCH   2   3
ATOM      3  C   UNL     1     111.202 101.630 111.263  1.00  0.00     0.000 C 
BRANCH   3   4
ATOM      4  C   UNL     1     110.397 102.660 110.460  1.00  0.00     0.000 C 
BRANCH   4   5
ATOM      5  C   UNL     1     110.005 103.858 111.336  1.00  0.00     0.000 C 
BRANCH   5   6
ATOM      6  C   UNL     1     108.981 104.786 110.657  1.00  0.00     0.006 C 
BRANCH   6   7
ATOM      7  C   UNL     1     109.214 106.282 110.917  1.00  0.00     0.053 C 
BRANCH   7   8
ATOM      8  C   UNL     1     108.097 106.894 111.705  1.00  0.00     0.041 C 
ATOM      9  O   UNL     1     107.342 107.751 111.176  1.00  0.00    -0.550 OA
ATOM     10  O   UNL     1     107.869 106.492 113.016  1.00  0.00    -0.550 OA
ENDBRANCH   7   8
ENDBRANCH   6   7
ENDBRANCH   5   6
ENDBRANCH   4   5
ENDBRANCH   3   4
ENDBRANCH   2   3
ENDBRANCH   1   2
BRANCH   1  11
ATOM     11  C   UNL     1     114.117 102.767 111.035  1.00  0.00     0.000 C 
BRANCH  11  12
ATOM     12  C   UNL     1     115.126 103.867 111.406  1.00  0.00    -0.000 C 
BRANCH  12  13
ATOM     13  C   UNL     1     114.701 104.670 112.644  1.00  0.00    -0.000 C 
BRANCH  13  14
ATOM     14  C   UNL     1     115.903 104.958 113.551  1.00  0.00    -0.000 C 
BRANCH  14  15
ATOM     15  C   UNL     1     117.220 104.577 112.858  1.00  0.00    -0.000 C 
BRANCH  15  16
ATOM     16  C   UNL     1     118.445 104.711 113.780  1.00  0.00    -0.000 C 
BRANCH  16  17
ATOM     17  C   UNL     1     119.453 105.796 113.362  1.00  0.00    -0.003 C 
ATOM     18  C   UNL     1     119.251 106.280 111.927  1.00  0.00     0.004 C 
ENDBRANCH  16  17
ENDBRANCH  15  16
ENDBRANCH  14  15
ENDBRANCH  13  14
ENDBRANCH  12  13
ENDBRANCH  11  12
ENDBRANCH   1  11
TORSDOF 14
ENDMDL
MODEL 4
REMARK VINA RESULT:    -4.122      4.607      8.647
REMARK INTER + INTRA:          -8.421
REMARK INTER:                  -7.617
REMARK INTRA:                  -0.803
REMARK UNBOUND:                -0.926
REMARK SMILES CCCCCCCCCCCCCCCC(=O)[O-]
REMARK SMILES IDX 9 1 10 2 11 3 12 4 13 5 14 6 15 7 16 8 17 9 18 10 8 11 7 12
REMARK SMILES IDX 6 13 5 14 4 15 3 16 2 17 1 18
REMARK H PARENT
REMARK Flexibility Score: inf
ROOT
ATOM      1  C   UNL     1     111.419 101.929 111.524  1.00  0.00     0.000 C 
ENDROOT
BRANCH   1   2
ATOM      2  C   UNL     1     110.742 103.021 110.680  1.00  0.00     0.000 C 
BRANCH   2   3
ATOM      3  C   UNL     1     109.925 104.007 111.530  1.00  0.00     0.000 C 
BRANCH   3   4
ATOM      4  C   UNL     1     108.936 104.792 110.660  1.00  0.00     0.000 C 
BRANCH   4   5
ATOM      5  C   UNL     1     109.055 106.302 110.915  1.00  0.00     0.000 C 
BRANCH   5   6
ATOM      6  C   UNL     1     107.776 106.909 111.519  1.00  0.00     0.006 C 
BRANCH   6   7
ATOM      7  C   UNL     1     107.508 106.499 112.976  1.00  0.00     0.053 C 
BRANCH   7   8
ATOM      8  C   UNL     1     106.043 106.389 113.267  1.00  0.00     0.041 C 
ATOM      9  O   UNL     1     105.528 105.267 113.513  1.00  0.00    -0.550 OA
ATOM     10  O   UNL     1     105.253 107.532 113.299  1.00  0.00    -0.550 OA
ENDBRANCH   7   8
ENDBRANCH   6   7
ENDBRANCH   5   6
ENDBRANCH   4   5
ENDBRANCH   3   4
ENDBRANCH   2   3
ENDBRANCH   1   2
BRANCH   1  11
ATOM     11  C   UNL     1     112.673 102.440 112.255  1.00  0.00     0.000 C 
BRANCH  11  12
ATOM     12  C   UNL     1     113.904 102.513 111.336  1.00  0.00    -0.000 C 
BRANCH  12  13
ATOM     13  C   UNL     1     114.667 103.840 111.470  1.00  0.00    -0.000 C 
BRANCH  13  14
ATOM     14  C   UNL     1     114.507 104.425 112.878  1.00  0.00    -0.000 C 
BRANCH  14  15
ATOM     15  C   UNL     1     115.865 104.846 113.458  1.00  0.00    -0.000 C 
BRANCH  15  16
ATOM     16  C   UNL     1     117.052 104.435 112.568  1.00  0.00    -0.000 C 
BRANCH  16  17
ATOM     17  C   UNL     1     118.440 104.754 113.151  1.00  0.00    -0.003 C 
ATOM     18  C   UNL     1     119.018 106.071 112.634  1.00  0.00     0.004 C 
ENDBRANCH  16  17
ENDBRANCH  15  16
ENDBRANCH  14  15
ENDBRANCH  13  14
ENDBRANCH  12  13
ENDBRANCH  11  12
ENDBRANCH   1  11
TORSDOF 14
ENDMDL
MODEL 5
REMARK VINA RESULT:    -4.088      1.346      2.457
REMARK INTER + INTRA:          -8.359
REMARK INTER:                  -7.384
REMARK INTRA:                  -0.975
REMARK UNBOUND:                -0.926
REMARK SMILES CCCCCCCCCCCCCCCC(=O)[O-]
REMARK SMILES IDX 9 1 10 2 11 3 12 4 13 5 14 6 15 7 16 8 17 9 18 10 8 11 7 12
REMARK SMILES IDX 6 13 5 14 4 15 3 16 2 17 1 18
REMARK H PARENT
REMARK Flexibility Score: inf
ROOT
ATOM      1  C   UNL     1     114.086 102.771 111.173  1.00  0.00     0.000 C 
ENDROOT
BRANCH   1   2
ATOM      2  C   UNL     1     114.523 104.200 111.532  1.00  0.00     0.000 C 
BRANCH   2   3
ATOM      3  C   UNL     1     114.597 104.435 113.048  1.00  0.00     0.000 C 
BRANCH   3   4
ATOM      4  C   UNL     1     116.028 104.780 113.481  1.00  0.00     0.000 C 
BRANCH   4   5
ATOM      5  C   UNL     1     117.005 104.656 112.303  1.00  0.00     0.000 C 
BRANCH   5   6
ATOM      6  C   UNL     1     118.409 104.194 112.736  1.00  0.00     0.006 C 
BRANCH   6   7
ATOM      7  C   UNL     1     119.097 105.127 113.745  1.00  0.00     0.053 C 
BRANCH   7   8
ATOM      8  C   UNL     1     119.360 104.443 115.051  1.00  0.00     0.041 C 
ATOM      9  O   UNL     1     119.795 105.098 116.034  1.00  0.00    -0.550 OA
ATOM     10  O   UNL     1     119.090 103.087 115.193  1.00  0.00    -0.550 OA
ENDBRANCH   7   8
ENDBRANCH   6   7
ENDBRANCH   5   6
ENDBRANCH   4   5
ENDBRANCH   3   4
ENDBRANCH   2   3
ENDBRANCH   1   2
BRANCH   1  11
ATOM     11  C   UNL     1     113.296 102.094 112.306  1.00  0.00     0.000 C 
BRANCH  11  12
ATOM     12  C   UNL     1     111.795 102.426 112.261  1.00  0.00    -0.000 C 
BRANCH  12  13
ATOM     13  C   UNL     1     111.083 101.795 111.054  1.00  0.00    -0.000 C 
BRANCH  13  14
ATOM     14  C   UNL     1     110.129 102.798 110.394  1.00  0.00    -0.000 C 
BRANCH  14  15
ATOM     15  C   UNL     1     110.041 104.095 111.212  1.00  0.00    -0.000 C 
BRANCH  15  16
ATOM     16  C   UNL     1     108.887 105.010 110.764  1.00  0.00    -0.000 C 
BRANCH  16  17
ATOM     17  C   UNL     1     108.511 106.115 111.767  1.00  0.00    -0.003 C 
ATOM     18  C   UNL     1     108.245 107.464 111.100  1.00  0.00     0.004 C 
ENDBRANCH  16  17
ENDBRANCH  15  16
ENDBRANCH  14  15
ENDBRANCH  13  14
ENDBRANCH  12  13
ENDBRANCH  11  12
ENDBRANCH   1  11
TORSDOF 14
ENDMDL
MODEL 6
REMARK VINA RESULT:    -4.076      4.828      8.761
REMARK INTER + INTRA:          -8.338
REMARK INTER:                  -7.552
REMARK INTRA:                  -0.786
REMARK UNBOUND:                -0.926
REMARK SMILES CCCCCCCCCCCCCCCC(=O)[O-]
REMARK SMILES IDX 9 1 10 2 11 3 12 4 13 5 14 6 15 7 16 8 17 9 18 10 8 11 7 12
REMARK SMILES IDX 6 13 5 14 4 15 3 16 2 17 1 18
REMARK H PARENT
REMARK Flexibility Score: inf
ROOT
ATOM      1  C   UNL     1     110.816 102.977 111.811  1.00  0.00     0.000 C 
ENDROOT
BRANCH   1   2
ATOM      2  C   UNL     1     110.078 103.742 110.701  1.00  0.00     0.000 C 
BRANCH   2   3
ATOM      3  C   UNL     1     108.940 104.621 111.241  1.00  0.00     0.000 C 
BRANCH   3   4
ATOM      4  C   UNL     1     108.992 106.025 110.627  1.00  0.00     0.000 C 
BRANCH   4   5
ATOM      5  C   UNL     1     108.460 107.077 111.610  1.00  0.00     0.000 C 
BRANCH   5   6
ATOM      6  C   UNL     1     107.534 106.478 112.684  1.00  0.00     0.006 C 
BRANCH   6   7
ATOM      7  C   UNL     1     106.203 107.226 112.861  1.00  0.00     0.053 C 
BRANCH   7   8
ATOM      8  C   UNL     1     105.310 106.552 113.857  1.00  0.00     0.041 C 
ATOM      9  O   UNL     1     104.894 105.383 113.647  1.00  0.00    -0.550 OA
ATOM     10  O   UNL     1     104.964 107.204 115.034  1.00  0.00    -0.550 OA
ENDBRANCH   7   8
ENDBRANCH   6   7
ENDBRANCH   5   6
ENDBRANCH   4   5
ENDBRANCH   3   4
ENDBRANCH   2   3
ENDBRANCH   1   2
BRANCH   1  11
ATOM     11  C   UNL     1     111.908 102.044 111.260  1.00  0.00     0.000 C 
BRANCH  11  12
ATOM     12  C   UNL     1     113.255 102.220 111.981  1.00  0.00    -0.000 C 
BRANCH  12  13
ATOM     13  C   UNL     1     114.276 103.011 111.148  1.00  0.00    -0.000 C 
BRANCH  13  14
ATOM     14  C   UNL     1     114.530 104.393 111.761  1.00  0.00    -0.000 C 
BRANCH  14  15
ATOM     15  C   UNL     1     114.831 104.284 113.263  1.00  0.00    -0.000 C 
BRANCH  15  16
ATOM     16  C   UNL     1     116.131 105.001 113.668  1.00  0.00    -0.000 C 
BRANCH  16  17
ATOM     17  C   UNL     1     117.359 104.647 112.811  1.00  0.00    -0.003 C 
ATOM     18  C   UNL     1     118.608 104.360 113.643  1.00  0.00     0.004 C 
ENDBRANCH  16  17
ENDBRANCH  15  16
ENDBRANCH  14  15
ENDBRANCH  13  14
ENDBRANCH  12  13
ENDBRANCH  11  12
ENDBRANCH   1  11
TORSDOF 14
ENDMDL
MODEL 7
REMARK VINA RESULT:    -3.825      1.312      2.652
REMARK INTER + INTRA:          -7.881
REMARK INTER:                  -7.197
REMARK INTRA:                  -0.684
REMARK UNBOUND:                -0.926
REMARK SMILES CCCCCCCCCCCCCCCC(=O)[O-]
REMARK SMILES IDX 9 1 10 2 11 3 12 4 13 5 14 6 15 7 16 8 17 9 18 10 8 11 7 12
REMARK SMILES IDX 6 13 5 14 4 15 3 16 2 17 1 18
REMARK H PARENT
REMARK Flexibility Score: inf
ROOT
ATOM      1  C   UNL     1     110.180 102.782 110.628  1.00  0.00     0.000 C 
ENDROOT
BRANCH   1   2
ATOM      2  C   UNL     1     111.138 101.927 111.473  1.00  0.00     0.000 C 
BRANCH   2   3
ATOM      3  C   UNL     1     112.158 102.773 112.252  1.00  0.00     0.000 C 
BRANCH   3   4
ATOM      4  C   UNL     1     113.584 102.253 112.033  1.00  0.00     0.000 C 
BRANCH   4   5
ATOM      5  C   UNL     1     114.311 103.073 110.958  1.00  0.00     0.000 C 
BRANCH   5   6
ATOM      6  C   UNL     1     115.549 103.809 111.502  1.00  0.00     0.006 C 
BRANCH   6   7
ATOM      7  C   UNL     1     115.612 103.891 113.036  1.00  0.00     0.053 C 
BRANCH   7   8
ATOM      8  C   UNL     1     116.468 105.029 113.501  1.00  0.00     0.041 C 
ATOM      9  O   UNL     1     115.955 106.153 113.739  1.00  0.00    -0.550 OA
ATOM     10  O   UNL     1     117.829 104.837 113.703  1.00  0.00    -0.550 OA
ENDBRANCH   7   8
ENDBRANCH   6   7
ENDBRANCH   5   6
ENDBRANCH   4   5
ENDBRANCH   3   4
ENDBRANCH   2   3
ENDBRANCH   1   2
BRANCH   1  11
ATOM     11  C   UNL     1     109.877 104.144 111.276  1.00  0.00     0.000 C 
BRANCH  11  12
ATOM     12  C   UNL     1     108.869 104.974 110.463  1.00  0.00    -0.000 C 
BRANCH  12  13
ATOM     13  C   UNL     1     108.564 106.335 111.108  1.00  0.00    -0.000 C 
BRANCH  13  14
ATOM     14  C   UNL     1     108.235 106.174 112.597  1.00  0.00    -0.000 C 
BRANCH  14  15
ATOM     15  C   UNL     1     106.931 106.903 112.955  1.00  0.00    -0.000 C 
BRANCH  15  16
ATOM     16  C   UNL     1     105.838 105.954 113.478  1.00  0.00    -0.000 C 
BRANCH  16  17
ATOM     17  C   UNL     1     104.625 106.654 114.117  1.00  0.00    -0.003 C 
ATOM     18  C   UNL     1     103.292 106.209 113.517  1.00  0.00     0.004 C 
ENDBRANCH  16  17
ENDBRANCH  15  16
ENDBRANCH  14  15
ENDBRANCH  13  14
ENDBRANCH  12  13
ENDBRANCH  11  12
ENDBRANCH   1  11
TORSDOF 14
ENDMDL
MODEL 8
REMARK VINA RESULT:    -3.271      2.058      4.257
REMARK INTER + INTRA:          -6.873
REMARK INTER:                  -6.266
REMARK INTRA:                  -0.607
REMARK UNBOUND:                -0.926
REMARK SMILES CCCCCCCCCCCCCCCC(=O)[O-]
REMARK SMILES IDX 9 1 10 2 11 3 12 4 13 5 14 6 15 7 16 8 17 9 18 10 8 11 7 12
REMARK SMILES IDX 6 13 5 14 4 15 3 16 2 17 1 18
REMARK H PARENT
REMARK Flexibility Score: inf
ROOT
ATOM      1  C   UNL     1     108.893 104.685 110.697  1.00  0.00     0.000 C 
ENDROOT
BRANCH   1   2
ATOM      2  C   UNL     1     110.152 104.006 111.259  1.00  0.00     0.000 C 
BRANCH   2   3
ATOM      3  C   UNL     1     110.304 102.553 110.785  1.00  0.00     0.000 C 
BRANCH   3   4
ATOM      4  C   UNL     1     111.598 101.931 111.327  1.00  0.00     0.000 C 
BRANCH   4   5
ATOM      5  C   UNL     1     112.590 103.018 111.765  1.00  0.00     0.000 C 
BRANCH   5   6
ATOM      6  C   UNL     1     114.059 102.584 111.611  1.00  0.00     0.006 C 
BRANCH   6   7
ATOM      7  C   UNL     1     115.013 103.715 111.196  1.00  0.00     0.053 C 
BRANCH   7   8
ATOM      8  C   UNL     1     115.850 104.191 112.344  1.00  0.00     0.041 C 
ATOM      9  O   UNL     1     117.106 104.154 112.271  1.00  0.00    -0.550 OA
ATOM     10  O   UNL     1     115.241 104.707 113.481  1.00  0.00    -0.550 OA
ENDBRANCH   7   8
ENDBRANCH   6   7
ENDBRANCH   5   6
ENDBRANCH   4   5
ENDBRANCH   3   4
ENDBRANCH   2   3
ENDBRANCH   1   2
BRANCH   1  11
ATOM     11  C   UNL     1     108.737 106.136 111.185  1.00  0.00     0.000 C 
BRANCH  11  12
ATOM     12  C   UNL     1     108.129 106.224 112.595  1.00  0.00    -0.000 C 
BRANCH  12  13
ATOM     13  C   UNL     1     106.737 106.874 112.602  1.00  0.00    -0.000 C 
BRANCH  13  14
ATOM     14  C   UNL     1     105.852 106.263 113.694  1.00  0.00    -0.000 C 
BRANCH  14  15
ATOM     15  C   UNL     1     104.883 107.308 114.269  1.00  0.00    -0.000 C 
BRANCH  15  16
ATOM     16  C   UNL     1     104.161 106.823 115.538  1.00  0.00    -0.000 C 
BRANCH  16  17
ATOM     17  C   UNL     1     104.764 107.331 116.860  1.00  0.00    -0.003 C 
ATOM     18  C   UNL     1     105.385 108.722 116.738  1.00  0.00     0.004 C 
ENDBRANCH  16  17
ENDBRANCH  15  16
ENDBRANCH  14  15
ENDBRANCH  13  14
ENDBRANCH  12  13
ENDBRANCH  11  12
ENDBRANCH   1  11
TORSDOF 14
ENDMDL
MODEL 9
REMARK VINA RESULT:    -3.146      4.882      8.691
REMARK INTER + INTRA:          -6.646
REMARK INTER:                  -6.108
REMARK INTRA:                  -0.538
REMARK UNBOUND:                -0.926
REMARK SMILES CCCCCCCCCCCCCCCC(=O)[O-]
REMARK SMILES IDX 9 1 10 2 11 3 12 4 13 5 14 6 15 7 16 8 17 9 18 10 8 11 7 12
REMARK SMILES IDX 6 13 5 14 4 15 3 16 2 17 1 18
REMARK H PARENT
REMARK Flexibility Score: inf
ROOT
ATOM      1  C   UNL     1     109.293 103.777 110.861  1.00  0.00     0.000 C 
ENDROOT
BRANCH   1   2
ATOM      2  C   UNL     1     108.850 105.154 110.340  1.00  0.00     0.000 C 
BRANCH   2   3
ATOM      3  C   UNL     1     109.442 106.315 111.154  1.00  0.00     0.000 C 
BRANCH   3   4
ATOM      4  C   UNL     1     108.607 107.590 110.977  1.00  0.00     0.000 C 
BRANCH   4   5
ATOM      5  C   UNL     1     107.339 107.544 111.843  1.00  0.00     0.000 C 
BRANCH   5   6
ATOM      6  C   UNL     1     107.404 106.467 112.941  1.00  0.00     0.006 C 
BRANCH   6   7
ATOM      7  C   UNL     1     106.038 105.891 113.343  1.00  0.00     0.053 C 
BRANCH   7   8
ATOM      8  C   UNL     1     105.106 106.954 113.839  1.00  0.00     0.041 C 
ATOM      9  O   UNL     1     105.026 107.204 115.070  1.00  0.00    -0.550 OA
ATOM     10  O   UNL     1     104.350 107.693 112.937  1.00  0.00    -0.550 OA
ENDBRANCH   7   8
ENDBRANCH   6   7
ENDBRANCH   5   6
ENDBRANCH   4   5
ENDBRANCH   3   4
ENDBRANCH   2   3
ENDBRANCH   1   2
BRANCH   1  11
ATOM     11  C   UNL     1     110.808 103.706 111.125  1.00  0.00     0.000 C 
BRANCH  11  12
ATOM     12  C   UNL     1     111.269 102.299 111.542  1.00  0.00    -0.000 C 
BRANCH  12  13
ATOM     13  C   UNL     1     112.638 102.307 112.241  1.00  0.00    -0.000 C 
BRANCH  13  14
ATOM     14  C   UNL     1     113.766 102.559 111.234  1.00  0.00    -0.000 C 
BRANCH  14  15
ATOM     15  C   UNL     1     114.553 103.828 111.595  1.00  0.00    -0.000 C 
BRANCH  15  16
ATOM     16  C   UNL     1     114.713 104.024 113.113  1.00  0.00    -0.000 C 
BRANCH  16  17
ATOM     17  C   UNL     1     115.615 105.203 113.521  1.00  0.00    -0.003 C 
ATOM     18  C   UNL     1     117.103 104.858 113.484  1.00  0.00     0.004 C 
ENDBRANCH  16  17
ENDBRANCH  15  16
ENDBRANCH  14  15
ENDBRANCH  13  14
ENDBRANCH  12  13
ENDBRANCH  11  12
ENDBRANCH   1  11
TORSDOF 14
ENDMDL
