MODEL 1
REMARK VINA RESULT:    -4.066      0.000      0.000
REMARK INTER + INTRA:          -5.206
REMARK INTER:                  -4.898
REMARK INTRA:                  -0.308
REMARK UNBOUND:                -0.308
REMARK SMILES Oc1cc(O)c2cc(O)c(-c3ccc(O)c(O)c3)[o+]c2c1
REMARK SMILES IDX 10 1 19 2 20 3 21 4 2 5 3 6 4 7 6 8 7 9 8 10 11 11 12 12
REMARK SMILES IDX 13 13 14 14 18 15 16 16 15 17 17 19 9 21 1 23 5 25
REMARK H PARENT 15 18 17 20 9 22 1 24 5 26
REMARK Flexibility Score: inf
ROOT
ATOM      1  C   UNL     1      73.464  75.537  78.997  1.00  0.00     0.402 A 
ATOM      2  O   UNL     1      73.750  76.115  80.160  1.00  0.00    -0.202 OA
ATOM      3  C   UNL     1      73.783  75.457  81.313  1.00  0.00     0.368 A 
ATOM      4  C   UNL     1      74.096  76.152  82.484  1.00  0.00     0.162 A 
ATOM      5  C   UNL     1      74.142  75.483  83.711  1.00  0.00     0.128 A 
ATOM      6  C   UNL     1      73.874  74.114  83.767  1.00  0.00     0.093 A 
ATOM      7  C   UNL     1      73.558  73.394  82.608  1.00  0.00     0.136 A 
ATOM      8  C   UNL     1      73.509  74.069  81.360  1.00  0.00     0.125 A 
ATOM      9  C   UNL     1      73.187  73.432  80.150  1.00  0.00     0.078 A 
ATOM     10  C   UNL     1      73.153  74.164  78.960  1.00  0.00     0.223 A 
ENDROOT
BRANCH   1  11
ATOM     11  C   UNL     1      73.469  76.377  77.776  1.00  0.00     0.087 A 
ATOM     12  C   UNL     1      72.251  76.843  77.256  1.00  0.00     0.022 A 
ATOM     13  C   UNL     1      72.233  77.654  76.118  1.00  0.00     0.051 A 
ATOM     14  C   UNL     1      73.431  78.021  75.493  1.00  0.00     0.157 A 
ATOM     15  C   UNL     1      74.671  76.765  77.157  1.00  0.00     0.068 A 
ATOM     16  C   UNL     1      74.653  77.579  76.016  1.00  0.00     0.158 A 
BRANCH  14  17
ATOM     17  O   UNL     1      73.417  78.827  74.356  1.00  0.00    -0.504 OA
ATOM     18  H   UNL     1      74.197  78.844  73.709  1.00  0.00     0.293 HD
ENDBRANCH  14  17
BRANCH  16  19
ATOM     19  O   UNL     1      75.845  77.958  75.401  1.00  0.00    -0.504 OA
ATOM     20  H   UNL     1      76.054  77.697  74.444  1.00  0.00     0.293 HD
ENDBRANCH  16  19
ENDBRANCH   1  11
BRANCH  10  21
ATOM     21  O   UNL     1      72.786  73.544  77.766  1.00  0.00    -0.500 OA
ATOM     22  H   UNL     1      72.440  72.592  77.746  1.00  0.00     0.294 HD
ENDBRANCH  10  21
BRANCH   5  23
ATOM     23  O   UNL     1      74.453  76.171  84.883  1.00  0.00    -0.507 OA
ATOM     24  H   UNL     1      75.310  75.988  85.392  1.00  0.00     0.293 HD
ENDBRANCH   5  23
BRANCH   7  25
ATOM     25  O   UNL     1      73.307  72.026  82.748  1.00  0.00    -0.507 OA
ATOM     26  H   UNL     1      72.601  71.520  82.234  1.00  0.00     0.293 HD
ENDBRANCH   7  25
TORSDOF 6
ENDMDL
MODEL 2
REMARK VINA RESULT:    -3.980     20.867     23.490
REMARK INTER + INTRA:          -5.103
REMARK INTER:                  -4.985
REMARK INTRA:                  -0.117
REMARK UNBOUND:                -0.308
REMARK SMILES Oc1cc(O)c2cc(O)c(-c3ccc(O)c(O)c3)[o+]c2c1
REMARK SMILES IDX 10 1 19 2 20 3 21 4 2 5 3 6 4 7 6 8 7 9 8 10 11 11 12 12
REMARK SMILES IDX 13 13 14 14 18 15 16 16 15 17 17 19 9 21 1 23 5 25
REMARK H PARENT 15 18 17 20 9 22 1 24 5 26
REMARK Flexibility Score: inf
ROOT
ATOM      1  C   UNL     1      90.838  84.922  90.687  1.00  0.00     0.402 A 
ATOM      2  O   UNL     1      90.760  85.876  91.611  1.00  0.00    -0.202 OA
ATOM      3  C   UNL     1      90.674  87.169  91.320  1.00  0.00     0.368 A 
ATOM      4  C   UNL     1      90.594  88.097  92.362  1.00  0.00     0.162 A 
ATOM      5  C   UNL     1      90.499  89.464  92.084  1.00  0.00     0.128 A 
ATOM      6  C   UNL     1      90.483  89.904  90.759  1.00  0.00     0.093 A 
ATOM      7  C   UNL     1      90.563  88.995  89.696  1.00  0.00     0.136 A 
ATOM      8  C   UNL     1      90.661  87.606  89.974  1.00  0.00     0.125 A 
ATOM      9  C   UNL     1      90.759  86.624  88.975  1.00  0.00     0.078 A 
ATOM     10  C   UNL     1      90.858  85.275  89.324  1.00  0.00     0.223 A 
ENDROOT
BRANCH   1  11
ATOM     11  C   UNL     1      90.920  83.514  91.139  1.00  0.00     0.087 A 
ATOM     12  C   UNL     1      91.886  83.149  92.090  1.00  0.00     0.022 A 
ATOM     13  C   UNL     1      91.969  81.831  92.545  1.00  0.00     0.051 A 
ATOM     14  C   UNL     1      91.077  80.862  92.067  1.00  0.00     0.157 A 
ATOM     15  C   UNL     1      90.014  82.542  90.676  1.00  0.00     0.068 A 
ATOM     16  C   UNL     1      90.095  81.219  91.134  1.00  0.00     0.158 A 
BRANCH  14  17
ATOM     17  O   UNL     1      91.157  79.545  92.517  1.00  0.00    -0.504 OA
ATOM     18  H   UNL     1      91.877  79.250  93.166  1.00  0.00     0.293 HD
ENDBRANCH  14  17
BRANCH  16  19
ATOM     19  O   UNL     1      89.200  80.256  90.671  1.00  0.00    -0.504 OA
ATOM     20  H   UNL     1      88.542  80.458  89.928  1.00  0.00     0.293 HD
ENDBRANCH  16  19
ENDBRANCH   1  11
BRANCH  10  21
ATOM     21  O   UNL     1      91.005  84.303  88.334  1.00  0.00    -0.500 OA
ATOM     22  H   UNL     1      90.209  83.942  87.821  1.00  0.00     0.294 HD
ENDBRANCH  10  21
BRANCH   5  23
ATOM     23  O   UNL     1      90.419  90.395  93.118  1.00  0.00    -0.507 OA
ATOM     24  H   UNL     1      91.250  90.770  93.558  1.00  0.00     0.293 HD
ENDBRANCH   5  23
BRANCH   7  25
ATOM     25  O   UNL     1      90.537  89.516  88.400  1.00  0.00    -0.507 OA
ATOM     26  H   UNL     1      91.194  90.195  88.045  1.00  0.00     0.293 HD
ENDBRANCH   7  25
TORSDOF 6
ENDMDL
MODEL 3
REMARK VINA RESULT:    -3.927      4.358      7.302
REMARK INTER + INTRA:          -5.038
REMARK INTER:                  -4.706
REMARK INTRA:                  -0.332
REMARK UNBOUND:                -0.308
REMARK SMILES Oc1cc(O)c2cc(O)c(-c3ccc(O)c(O)c3)[o+]c2c1
REMARK SMILES IDX 10 1 19 2 20 3 21 4 2 5 3 6 4 7 6 8 7 9 8 10 11 11 12 12
REMARK SMILES IDX 13 13 14 14 18 15 16 16 15 17 17 19 9 21 1 23 5 25
REMARK H PARENT 15 18 17 20 9 22 1 24 5 26
REMARK Flexibility Score: inf
ROOT
ATOM      1  C   UNL     1      75.698  73.090  77.449  1.00  0.00     0.402 A 
ATOM      2  O   UNL     1      76.948  73.518  77.602  1.00  0.00    -0.202 OA
ATOM      3  C   UNL     1      77.896  73.346  76.688  1.00  0.00     0.368 A 
ATOM      4  C   UNL     1      79.181  73.835  76.940  1.00  0.00     0.162 A 
ATOM      5  C   UNL     1      80.196  73.670  75.993  1.00  0.00     0.128 A 
ATOM      6  C   UNL     1      79.926  73.016  74.790  1.00  0.00     0.093 A 
ATOM      7  C   UNL     1      78.646  72.516  74.513  1.00  0.00     0.136 A 
ATOM      8  C   UNL     1      77.613  72.679  75.472  1.00  0.00     0.125 A 
ATOM      9  C   UNL     1      76.305  72.200  75.287  1.00  0.00     0.078 A 
ATOM     10  C   UNL     1      75.340  72.394  76.279  1.00  0.00     0.223 A 
ENDROOT
BRANCH   1  11
ATOM     11  C   UNL     1      74.729  73.352  78.538  1.00  0.00     0.087 A 
ATOM     12  C   UNL     1      73.839  74.432  78.424  1.00  0.00     0.022 A 
ATOM     13  C   UNL     1      72.902  74.686  79.429  1.00  0.00     0.051 A 
ATOM     14  C   UNL     1      72.832  73.855  80.555  1.00  0.00     0.157 A 
ATOM     15  C   UNL     1      74.641  72.509  79.660  1.00  0.00     0.068 A 
ATOM     16  C   UNL     1      73.700  72.762  80.669  1.00  0.00     0.158 A 
BRANCH  14  17
ATOM     17  O   UNL     1      71.901  74.107  81.562  1.00  0.00    -0.504 OA
ATOM     18  H   UNL     1      70.947  74.373  81.346  1.00  0.00     0.293 HD
ENDBRANCH  14  17
BRANCH  16  19
ATOM     19  O   UNL     1      73.618  71.929  81.783  1.00  0.00    -0.504 OA
ATOM     20  H   UNL     1      74.180  72.093  82.611  1.00  0.00     0.293 HD
ENDBRANCH  16  19
ENDBRANCH   1  11
BRANCH  10  21
ATOM     21  O   UNL     1      74.056  71.875  76.117  1.00  0.00    -0.500 OA
ATOM     22  H   UNL     1      73.344  71.985  76.830  1.00  0.00     0.294 HD
ENDBRANCH  10  21
BRANCH   5  23
ATOM     23  O   UNL     1      81.480  74.155  76.237  1.00  0.00    -0.507 OA
ATOM     24  H   UNL     1      82.015  74.625  75.517  1.00  0.00     0.293 HD
ENDBRANCH   5  23
BRANCH   7  25
ATOM     25  O   UNL     1      78.457  71.877  73.285  1.00  0.00    -0.507 OA
ATOM     26  H   UNL     1      78.189  70.909  73.181  1.00  0.00     0.293 HD
ENDBRANCH   7  25
TORSDOF 6
ENDMDL
MODEL 4
REMARK VINA RESULT:    -3.923      3.247      4.325
REMARK INTER + INTRA:          -5.034
REMARK INTER:                  -4.686
REMARK INTRA:                  -0.349
REMARK UNBOUND:                -0.308
REMARK SMILES Oc1cc(O)c2cc(O)c(-c3ccc(O)c(O)c3)[o+]c2c1
REMARK SMILES IDX 10 1 19 2 20 3 21 4 2 5 3 6 4 7 6 8 7 9 8 10 11 11 12 12
REMARK SMILES IDX 13 13 14 14 18 15 16 16 15 17 17 19 9 21 1 23 5 25
REMARK H PARENT 15 18 17 20 9 22 1 24 5 26
REMARK Flexibility Score: inf
ROOT
ATOM      1  C   UNL     1      75.199  73.681  81.254  1.00  0.00     0.402 A 
ATOM      2  O   UNL     1      75.821  74.570  82.023  1.00  0.00    -0.202 OA
ATOM      3  C   UNL     1      75.373  74.943  83.216  1.00  0.00     0.368 A 
ATOM      4  C   UNL     1      76.098  75.884  83.952  1.00  0.00     0.162 A 
ATOM      5  C   UNL     1      75.651  76.293  85.212  1.00  0.00     0.128 A 
ATOM      6  C   UNL     1      74.474  75.757  85.739  1.00  0.00     0.093 A 
ATOM      7  C   UNL     1      73.728  74.813  85.022  1.00  0.00     0.136 A 
ATOM      8  C   UNL     1      74.177  74.397  83.741  1.00  0.00     0.125 A 
ATOM      9  C   UNL     1      73.488  73.467  82.946  1.00  0.00     0.078 A 
ATOM     10  C   UNL     1      73.989  73.109  81.691  1.00  0.00     0.223 A 
ENDROOT
BRANCH   1  11
ATOM     11  C   UNL     1      75.805  73.339  79.946  1.00  0.00     0.087 A 
ATOM     12  C   UNL     1      76.659  72.228  79.851  1.00  0.00     0.022 A 
ATOM     13  C   UNL     1      77.226  71.875  78.624  1.00  0.00     0.051 A 
ATOM     14  C   UNL     1      76.935  72.618  77.472  1.00  0.00     0.157 A 
ATOM     15  C   UNL     1      75.501  74.070  78.784  1.00  0.00     0.068 A 
ATOM     16  C   UNL     1      76.068  73.715  77.551  1.00  0.00     0.158 A 
BRANCH  14  17
ATOM     17  O   UNL     1      77.501  72.271  76.246  1.00  0.00    -0.504 OA
ATOM     18  H   UNL     1      78.368  71.749  76.192  1.00  0.00     0.293 HD
ENDBRANCH  14  17
BRANCH  16  19
ATOM     19  O   UNL     1      75.769  74.443  76.401  1.00  0.00    -0.504 OA
ATOM     20  H   UNL     1      74.996  75.098  76.374  1.00  0.00     0.293 HD
ENDBRANCH  16  19
ENDBRANCH   1  11
BRANCH  10  21
ATOM     21  O   UNL     1      73.280  72.223  80.880  1.00  0.00    -0.500 OA
ATOM     22  H   UNL     1      73.436  71.222  80.922  1.00  0.00     0.294 HD
ENDBRANCH  10  21
BRANCH   5  23
ATOM     23  O   UNL     1      76.370  77.230  85.951  1.00  0.00    -0.507 OA
ATOM     24  H   UNL     1      75.918  77.824  86.636  1.00  0.00     0.293 HD
ENDBRANCH   5  23
BRANCH   7  25
ATOM     25  O   UNL     1      72.564  74.323  85.620  1.00  0.00    -0.507 OA
ATOM     26  H   UNL     1      71.665  74.274  85.164  1.00  0.00     0.293 HD
ENDBRANCH   7  25
TORSDOF 6
ENDMDL
MODEL 5
REMARK VINA RESULT:    -3.913      3.306      3.905
REMARK INTER + INTRA:          -5.022
REMARK INTER:                  -4.721
REMARK INTRA:                  -0.301
REMARK UNBOUND:                -0.308
REMARK SMILES Oc1cc(O)c2cc(O)c(-c3ccc(O)c(O)c3)[o+]c2c1
REMARK SMILES IDX 10 1 19 2 20 3 21 4 2 5 3 6 4 7 6 8 7 9 8 10 11 11 12 12
REMARK SMILES IDX 13 13 14 14 18 15 16 16 15 17 17 19 9 21 1 23 5 25
REMARK H PARENT 15 18 17 20 9 22 1 24 5 26
REMARK Flexibility Score: inf
ROOT
ATOM      1  C   UNL     1      75.392  73.303  78.046  1.00  0.00     0.402 A 
ATOM      2  O   UNL     1      76.047  73.715  79.128  1.00  0.00    -0.202 OA
ATOM      3  C   UNL     1      75.488  73.803  80.330  1.00  0.00     0.368 A 
ATOM      4  C   UNL     1      76.259  74.245  81.408  1.00  0.00     0.162 A 
ATOM      5  C   UNL     1      75.696  74.344  82.684  1.00  0.00     0.128 A 
ATOM      6  C   UNL     1      74.358  74.000  82.882  1.00  0.00     0.093 A 
ATOM      7  C   UNL     1      73.563  73.555  81.818  1.00  0.00     0.136 A 
ATOM      8  C   UNL     1      74.129  73.454  80.521  1.00  0.00     0.125 A 
ATOM      9  C   UNL     1      73.406  73.031  79.393  1.00  0.00     0.078 A 
ATOM     10  C   UNL     1      74.030  72.962  78.145  1.00  0.00     0.223 A 
ENDROOT
BRANCH   1  11
ATOM     11  C   UNL     1      76.130  73.238  76.763  1.00  0.00     0.087 A 
ATOM     12  C   UNL     1      76.529  71.989  76.260  1.00  0.00     0.022 A 
ATOM     13  C   UNL     1      77.207  71.901  75.041  1.00  0.00     0.051 A 
ATOM     14  C   UNL     1      77.484  73.059  74.303  1.00  0.00     0.157 A 
ATOM     15  C   UNL     1      76.393  74.395  76.008  1.00  0.00     0.068 A 
ATOM     16  C   UNL     1      77.072  74.308  74.785  1.00  0.00     0.158 A 
BRANCH  14  17
ATOM     17  O   UNL     1      78.164  72.976  73.088  1.00  0.00    -0.504 OA
ATOM     18  H   UNL     1      77.703  73.181  72.209  1.00  0.00     0.293 HD
ENDBRANCH  14  17
BRANCH  16  19
ATOM     19  O   UNL     1      77.337  75.456  74.041  1.00  0.00    -0.504 OA
ATOM     20  H   UNL     1      77.679  75.404  73.088  1.00  0.00     0.293 HD
ENDBRANCH  16  19
ENDBRANCH   1  11
BRANCH  10  21
ATOM     21  O   UNL     1      73.300  72.590  77.016  1.00  0.00    -0.500 OA
ATOM     22  H   UNL     1      72.598  73.198  76.612  1.00  0.00     0.294 HD
ENDBRANCH  10  21
BRANCH   5  23
ATOM     23  O   UNL     1      76.459  74.783  83.764  1.00  0.00    -0.507 OA
ATOM     24  H   UNL     1      77.197  74.212  84.159  1.00  0.00     0.293 HD
ENDBRANCH   5  23
BRANCH   7  25
ATOM     25  O   UNL     1      72.234  73.227  82.100  1.00  0.00    -0.507 OA
ATOM     26  H   UNL     1      71.561  73.865  82.498  1.00  0.00     0.293 HD
ENDBRANCH   7  25
TORSDOF 6
ENDMDL
MODEL 6
REMARK VINA RESULT:    -3.903      2.920      4.914
REMARK INTER + INTRA:          -5.009
REMARK INTER:                  -4.823
REMARK INTRA:                  -0.187
REMARK UNBOUND:                -0.308
REMARK SMILES Oc1cc(O)c2cc(O)c(-c3ccc(O)c(O)c3)[o+]c2c1
REMARK SMILES IDX 10 1 19 2 20 3 21 4 2 5 3 6 4 7 6 8 7 9 8 10 11 11 12 12
REMARK SMILES IDX 13 13 14 14 18 15 16 16 15 17 17 19 9 21 1 23 5 25
REMARK H PARENT 15 18 17 20 9 22 1 24 5 26
REMARK Flexibility Score: inf
ROOT
ATOM      1  C   UNL     1      74.507  74.562  82.224  1.00  0.00     0.402 A 
ATOM      2  O   UNL     1      75.470  75.479  82.204  1.00  0.00    -0.202 OA
ATOM      3  C   UNL     1      75.928  76.079  83.297  1.00  0.00     0.368 A 
ATOM      4  C   UNL     1      76.945  77.030  83.174  1.00  0.00     0.162 A 
ATOM      5  C   UNL     1      77.449  77.674  84.309  1.00  0.00     0.128 A 
ATOM      6  C   UNL     1      76.934  77.366  85.569  1.00  0.00     0.093 A 
ATOM      7  C   UNL     1      75.914  76.418  85.719  1.00  0.00     0.136 A 
ATOM      8  C   UNL     1      75.398  75.762  84.571  1.00  0.00     0.125 A 
ATOM      9  C   UNL     1      74.369  74.809  84.623  1.00  0.00     0.078 A 
ATOM     10  C   UNL     1      73.908  74.208  83.448  1.00  0.00     0.223 A 
ENDROOT
BRANCH   1  11
ATOM     11  C   UNL     1      74.089  73.957  80.938  1.00  0.00     0.087 A 
ATOM     12  C   UNL     1      74.255  72.577  80.739  1.00  0.00     0.022 A 
ATOM     13  C   UNL     1      73.849  71.981  79.542  1.00  0.00     0.051 A 
ATOM     14  C   UNL     1      73.258  72.753  78.534  1.00  0.00     0.157 A 
ATOM     15  C   UNL     1      73.476  74.725  79.931  1.00  0.00     0.068 A 
ATOM     16  C   UNL     1      73.067  74.127  78.730  1.00  0.00     0.158 A 
BRANCH  14  17
ATOM     17  O   UNL     1      72.853  72.163  77.337  1.00  0.00    -0.504 OA
ATOM     18  H   UNL     1      73.197  71.254  77.053  1.00  0.00     0.293 HD
ENDBRANCH  14  17
BRANCH  16  19
ATOM     19  O   UNL     1      72.465  74.890  77.731  1.00  0.00    -0.504 OA
ATOM     20  H   UNL     1      72.980  75.599  77.223  1.00  0.00     0.293 HD
ENDBRANCH  16  19
ENDBRANCH   1  11
BRANCH  10  21
ATOM     21  O   UNL     1      72.852  73.298  83.493  1.00  0.00    -0.500 OA
ATOM     22  H   UNL     1      71.945  73.515  83.098  1.00  0.00     0.294 HD
ENDBRANCH  10  21
BRANCH   5  23
ATOM     23  O   UNL     1      78.463  78.623  84.194  1.00  0.00    -0.507 OA
ATOM     24  H   UNL     1      78.265  79.617  84.226  1.00  0.00     0.293 HD
ENDBRANCH   5  23
BRANCH   7  25
ATOM     25  O   UNL     1      75.456  76.164  87.015  1.00  0.00    -0.507 OA
ATOM     26  H   UNL     1      75.510  76.822  87.778  1.00  0.00     0.293 HD
ENDBRANCH   7  25
TORSDOF 6
ENDMDL
MODEL 7
REMARK VINA RESULT:    -3.888      3.662      6.990
REMARK INTER + INTRA:          -4.991
REMARK INTER:                  -4.656
REMARK INTRA:                  -0.335
REMARK UNBOUND:                -0.308
REMARK SMILES Oc1cc(O)c2cc(O)c(-c3ccc(O)c(O)c3)[o+]c2c1
REMARK SMILES IDX 10 1 19 2 20 3 21 4 2 5 3 6 4 7 6 8 7 9 8 10 11 11 12 12
REMARK SMILES IDX 13 13 14 14 18 15 16 16 15 17 17 19 9 21 1 23 5 25
REMARK H PARENT 15 18 17 20 9 22 1 24 5 26
REMARK Flexibility Score: inf
ROOT
ATOM      1  C   UNL     1      74.572  72.870  78.652  1.00  0.00     0.402 A 
ATOM      2  O   UNL     1      75.851  73.229  78.595  1.00  0.00    -0.202 OA
ATOM      3  C   UNL     1      76.591  73.123  77.498  1.00  0.00     0.368 A 
ATOM      4  C   UNL     1      77.928  73.529  77.536  1.00  0.00     0.162 A 
ATOM      5  C   UNL     1      78.728  73.431  76.394  1.00  0.00     0.128 A 
ATOM      6  C   UNL     1      78.190  72.926  75.209  1.00  0.00     0.093 A 
ATOM      7  C   UNL     1      76.853  72.511  75.144  1.00  0.00     0.136 A 
ATOM      8  C   UNL     1      76.038  72.607  76.301  1.00  0.00     0.125 A 
ATOM      9  C   UNL     1      74.693  72.203  76.333  1.00  0.00     0.078 A 
ATOM     10  C   UNL     1      73.952  72.323  77.512  1.00  0.00     0.223 A 
ENDROOT
BRANCH   1  11
ATOM     11  C   UNL     1      73.850  73.047  79.933  1.00  0.00     0.087 A 
ATOM     12  C   UNL     1      73.768  71.972  80.833  1.00  0.00     0.022 A 
ATOM     13  C   UNL     1      73.109  72.122  82.056  1.00  0.00     0.051 A 
ATOM     14  C   UNL     1      72.537  73.352  82.404  1.00  0.00     0.157 A 
ATOM     15  C   UNL     1      73.291  74.286  80.295  1.00  0.00     0.068 A 
ATOM     16  C   UNL     1      72.632  74.438  81.524  1.00  0.00     0.158 A 
BRANCH  14  17
ATOM     17  O   UNL     1      71.877  73.506  83.622  1.00  0.00    -0.504 OA
ATOM     18  H   UNL     1      71.743  74.419  84.040  1.00  0.00     0.293 HD
ENDBRANCH  14  17
BRANCH  16  19
ATOM     19  O   UNL     1      72.074  75.665  81.878  1.00  0.00    -0.504 OA
ATOM     20  H   UNL     1      71.953  75.932  82.849  1.00  0.00     0.293 HD
ENDBRANCH  16  19
ENDBRANCH   1  11
BRANCH  10  21
ATOM     21  O   UNL     1      72.631  71.876  77.559  1.00  0.00    -0.500 OA
ATOM     22  H   UNL     1      72.379  70.933  77.289  1.00  0.00     0.294 HD
ENDBRANCH  10  21
BRANCH   5  23
ATOM     23  O   UNL     1      80.062  73.835  76.425  1.00  0.00    -0.507 OA
ATOM     24  H   UNL     1      80.568  74.058  75.576  1.00  0.00     0.293 HD
ENDBRANCH   5  23
BRANCH   7  25
ATOM     25  O   UNL     1      76.391  72.020  73.920  1.00  0.00    -0.507 OA
ATOM     26  H   UNL     1      76.175  71.051  73.739  1.00  0.00     0.293 HD
ENDBRANCH   7  25
TORSDOF 6
ENDMDL
MODEL 8
REMARK VINA RESULT:    -3.864      3.640      6.967
REMARK INTER + INTRA:          -4.962
REMARK INTER:                  -4.633
REMARK INTRA:                  -0.330
REMARK UNBOUND:                -0.308
REMARK SMILES Oc1cc(O)c2cc(O)c(-c3ccc(O)c(O)c3)[o+]c2c1
REMARK SMILES IDX 10 1 19 2 20 3 21 4 2 5 3 6 4 7 6 8 7 9 8 10 11 11 12 12
REMARK SMILES IDX 13 13 14 14 18 15 16 16 15 17 17 19 9 21 1 23 5 25
REMARK H PARENT 15 18 17 20 9 22 1 24 5 26
REMARK Flexibility Score: inf
ROOT
ATOM      1  C   UNL     1      74.565  74.437  82.352  1.00  0.00     0.402 A 
ATOM      2  O   UNL     1      73.801  74.122  81.311  1.00  0.00    -0.202 OA
ATOM      3  C   UNL     1      74.258  73.495  80.233  1.00  0.00     0.368 A 
ATOM      4  C   UNL     1      73.375  73.205  79.189  1.00  0.00     0.162 A 
ATOM      5  C   UNL     1      73.829  72.543  78.044  1.00  0.00     0.128 A 
ATOM      6  C   UNL     1      75.171  72.169  77.944  1.00  0.00     0.093 A 
ATOM      7  C   UNL     1      76.076  72.449  78.975  1.00  0.00     0.136 A 
ATOM      8  C   UNL     1      75.620  73.122  80.138  1.00  0.00     0.125 A 
ATOM      9  C   UNL     1      76.458  73.456  81.216  1.00  0.00     0.078 A 
ATOM     10  C   UNL     1      75.938  74.125  82.327  1.00  0.00     0.223 A 
ENDROOT
BRANCH   1  11
ATOM     11  C   UNL     1      73.935  75.128  83.501  1.00  0.00     0.087 A 
ATOM     12  C   UNL     1      73.301  74.370  84.499  1.00  0.00     0.022 A 
ATOM     13  C   UNL     1      72.718  74.998  85.602  1.00  0.00     0.051 A 
ATOM     14  C   UNL     1      72.773  76.392  85.731  1.00  0.00     0.157 A 
ATOM     15  C   UNL     1      74.006  76.525  83.645  1.00  0.00     0.068 A 
ATOM     16  C   UNL     1      73.422  77.157  84.753  1.00  0.00     0.158 A 
BRANCH  14  17
ATOM     17  O   UNL     1      72.190  77.023  86.829  1.00  0.00    -0.504 OA
ATOM     18  H   UNL     1      72.346  76.692  87.773  1.00  0.00     0.293 HD
ENDBRANCH  14  17
BRANCH  16  19
ATOM     19  O   UNL     1      73.488  78.542  84.892  1.00  0.00    -0.504 OA
ATOM     20  H   UNL     1      74.195  78.984  85.468  1.00  0.00     0.293 HD
ENDBRANCH  16  19
ENDBRANCH   1  11
BRANCH  10  21
ATOM     21  O   UNL     1      76.778  74.500  83.375  1.00  0.00    -0.500 OA
ATOM     22  H   UNL     1      77.779  74.349  83.335  1.00  0.00     0.294 HD
ENDBRANCH  10  21
BRANCH   5  23
ATOM     23  O   UNL     1      72.954  72.250  77.000  1.00  0.00    -0.507 OA
ATOM     24  H   UNL     1      72.980  71.357  76.522  1.00  0.00     0.293 HD
ENDBRANCH   5  23
BRANCH   7  25
ATOM     25  O   UNL     1      77.400  72.038  78.798  1.00  0.00    -0.507 OA
ATOM     26  H   UNL     1      77.707  71.077  78.820  1.00  0.00     0.293 HD
ENDBRANCH   7  25
TORSDOF 6
ENDMDL
MODEL 9
REMARK VINA RESULT:    -3.848      3.446      4.797
REMARK INTER + INTRA:          -4.944
REMARK INTER:                  -4.608
REMARK INTRA:                  -0.336
REMARK UNBOUND:                -0.308
REMARK SMILES Oc1cc(O)c2cc(O)c(-c3ccc(O)c(O)c3)[o+]c2c1
REMARK SMILES IDX 10 1 19 2 20 3 21 4 2 5 3 6 4 7 6 8 7 9 8 10 11 11 12 12
REMARK SMILES IDX 13 13 14 14 18 15 16 16 15 17 17 19 9 21 1 23 5 25
REMARK H PARENT 15 18 17 20 9 22 1 24 5 26
REMARK Flexibility Score: inf
ROOT
ATOM      1  C   UNL     1      73.688  74.419  81.937  1.00  0.00     0.402 A 
ATOM      2  O   UNL     1      73.660  75.747  81.991  1.00  0.00    -0.202 OA
ATOM      3  C   UNL     1      73.236  76.427  83.050  1.00  0.00     0.368 A 
ATOM      4  C   UNL     1      73.247  77.824  83.012  1.00  0.00     0.162 A 
ATOM      5  C   UNL     1      72.809  78.563  84.115  1.00  0.00     0.128 A 
ATOM      6  C   UNL     1      72.359  77.903  85.260  1.00  0.00     0.093 A 
ATOM      7  C   UNL     1      72.337  76.504  85.324  1.00  0.00     0.136 A 
ATOM      8  C   UNL     1      72.779  75.749  84.206  1.00  0.00     0.125 A 
ATOM      9  C   UNL     1      72.780  74.345  84.175  1.00  0.00     0.078 A 
ATOM     10  C   UNL     1      73.226  73.669  83.035  1.00  0.00     0.223 A 
ENDROOT
BRANCH   1  11
ATOM     11  C   UNL     1      74.193  73.777  80.701  1.00  0.00     0.087 A 
ATOM     12  C   UNL     1      75.519  73.317  80.656  1.00  0.00     0.022 A 
ATOM     13  C   UNL     1      76.011  72.691  79.508  1.00  0.00     0.051 A 
ATOM     14  C   UNL     1      75.181  72.502  78.396  1.00  0.00     0.157 A 
ATOM     15  C   UNL     1      73.358  73.567  79.589  1.00  0.00     0.068 A 
ATOM     16  C   UNL     1      73.851  72.937  78.438  1.00  0.00     0.158 A 
BRANCH  14  17
ATOM     17  O   UNL     1      75.669  71.879  77.247  1.00  0.00    -0.504 OA
ATOM     18  H   UNL     1      76.354  71.135  77.300  1.00  0.00     0.293 HD
ENDBRANCH  14  17
BRANCH  16  19
ATOM     19  O   UNL     1      73.023  72.735  77.335  1.00  0.00    -0.504 OA
ATOM     20  H   UNL     1      72.026  72.910  77.381  1.00  0.00     0.293 HD
ENDBRANCH  16  19
ENDBRANCH   1  11
BRANCH  10  21
ATOM     21  O   UNL     1      73.181  72.276  82.985  1.00  0.00    -0.500 OA
ATOM     22  H   UNL     1      74.008  71.723  82.791  1.00  0.00     0.294 HD
ENDBRANCH  10  21
BRANCH   5  23
ATOM     23  O   UNL     1      72.817  79.956  84.083  1.00  0.00    -0.507 OA
ATOM     24  H   UNL     1      71.966  80.494  84.195  1.00  0.00     0.293 HD
ENDBRANCH   5  23
BRANCH   7  25
ATOM     25  O   UNL     1      71.876  75.921  86.507  1.00  0.00    -0.507 OA
ATOM     26  H   UNL     1      71.633  76.436  87.340  1.00  0.00     0.293 HD
ENDBRANCH   7  25
TORSDOF 6
ENDMDL
