MODEL 1
REMARK VINA RESULT:    -3.992      0.000      0.000
REMARK INTER + INTRA:          -5.742
REMARK INTER:                  -6.093
REMARK INTRA:                   0.351
REMARK UNBOUND:                 0.351
REMARK SMILES CC1=CCC[C@@H](C)C(=O)C[C@@H](C(C)C)C(=O)C1
REMARK SMILES IDX 8 1 9 2 6 3 7 4 5 5 4 6 3 7 2 8 1 9 10 11 11 12 15 13 16 14
REMARK SMILES IDX 17 15 12 17 13 18 14 19
REMARK H PARENT
REMARK Flexibility Score: 70.00
ROOT
ATOM      1  C   UNL     1      84.478   4.544  27.236  1.00  0.00     0.136 C 
ATOM      2  O   UNL     1      84.614   4.129  26.097  1.00  0.00    -0.299 OA
ENDROOT
BRANCH   1   3
ATOM      3  C   UNL     1      85.006   3.699  28.384  1.00  0.00     0.053 C 
ATOM      4  C   UNL     1      86.541   3.685  28.341  1.00  0.00     0.016 C 
BRANCH   3   5
ATOM      5  C   UNL     1      84.437   2.250  28.311  1.00  0.00     0.015 C 
BRANCH   5   6
ATOM      6  C   UNL     1      82.894   2.106  28.377  1.00  0.00     0.028 C 
BRANCH   6   7
ATOM      7  C   UNL     1      82.261   2.194  29.747  1.00  0.00    -0.028 C 
ATOM      8  C   UNL     1      81.418   3.164  30.160  1.00  0.00    -0.070 CG0
ATOM      9  C   UNL     1      80.764   2.986  31.512  1.00  0.00     0.039 C 
ATOM     10  G   UNL     1      81.018   4.327  29.272  1.00  0.00     0.000 G0
ENDBRANCH   6   7
ENDBRANCH   5   6
ENDBRANCH   3   5
ENDBRANCH   1   3
BRANCH   1  11
ATOM     11  C   UNL     1      83.953   5.945  27.464  1.00  0.00     0.087 C 
BRANCH  11  12
ATOM     12  C   UNL     1      82.465   6.114  27.912  1.00  0.00     0.066 C 
BRANCH  12  13
ATOM     13  C   UNL     1      82.068   5.390  29.192  1.00  0.00     0.140 C 
ATOM     14  O   UNL     1      82.617   5.723  30.234  1.00  0.00    -0.299 OA
BRANCH  13  15
ATOM     15  C   UNL     1      81.027   4.302  29.256  1.00  0.00     0.106 CG0
ATOM     16  G   UNL     1      81.443   3.161  30.165  1.00  0.00     0.000 G0
ENDBRANCH  13  15
ENDBRANCH  12  13
BRANCH  12  17
ATOM     17  C   UNL     1      81.346   6.005  26.822  1.00  0.00    -0.006 C 
ATOM     18  C   UNL     1      80.338   7.164  26.861  1.00  0.00     0.008 C 
ATOM     19  C   UNL     1      81.858   5.747  25.392  1.00  0.00     0.008 C 
ENDBRANCH  12  17
ENDBRANCH  11  12
ENDBRANCH   1  11
TORSDOF 1
ENDMDL
MODEL 2
REMARK VINA RESULT:    -3.830      1.625      3.841
REMARK INTER + INTRA:          -5.494
REMARK INTER:                  -6.206
REMARK INTRA:                   0.712
REMARK UNBOUND:                 0.351
REMARK SMILES CC1=CCC[C@@H](C)C(=O)C[C@@H](C(C)C)C(=O)C1
REMARK SMILES IDX 8 1 9 2 6 3 7 4 5 5 4 6 3 7 2 8 1 9 10 11 11 12 15 13 16 14
REMARK SMILES IDX 17 15 12 17 13 18 14 19
REMARK H PARENT
REMARK Flexibility Score: 70.00
ROOT
ATOM      1  C   UNL     1      81.791   5.452  26.324  1.00  0.00     0.136 C 
ATOM      2  O   UNL     1      82.147   6.202  25.430  1.00  0.00    -0.299 OA
ENDROOT
BRANCH   1   3
ATOM      3  C   UNL     1      81.001   6.034  27.486  1.00  0.00     0.053 C 
ATOM      4  C   UNL     1      80.030   7.100  26.957  1.00  0.00     0.016 C 
BRANCH   3   5
ATOM      5  C   UNL     1      81.958   6.638  28.557  1.00  0.00     0.015 C 
BRANCH   5   6
ATOM      6  C   UNL     1      82.530   5.655  29.611  1.00  0.00     0.028 C 
BRANCH   6   7
ATOM      7  C   UNL     1      81.570   4.638  30.184  1.00  0.00    -0.028 C 
ATOM      8  C   UNL     1      81.745   3.299  30.171  1.00  0.00    -0.070 CG0
ATOM      9  C   UNL     1      80.749   2.461  30.939  1.00  0.00     0.039 C 
ATOM     10  G   UNL     1      82.957   2.644  29.536  1.00  0.00     0.000 G0
ENDBRANCH   6   7
ENDBRANCH   5   6
ENDBRANCH   3   5
ENDBRANCH   1   3
BRANCH   1  11
ATOM     11  C   UNL     1      81.988   3.960  26.173  1.00  0.00     0.087 C 
BRANCH  11  12
ATOM     12  C   UNL     1      83.162   3.285  26.954  1.00  0.00     0.066 C 
BRANCH  12  13
ATOM     13  C   UNL     1      82.758   2.335  28.074  1.00  0.00     0.140 C 
ATOM     14  O   UNL     1      82.260   1.260  27.764  1.00  0.00    -0.299 OA
BRANCH  13  15
ATOM     15  C   UNL     1      82.952   2.629  29.539  1.00  0.00     0.106 CG0
ATOM     16  G   UNL     1      81.734   3.287  30.159  1.00  0.00     0.000 G0
ENDBRANCH  13  15
ENDBRANCH  12  13
BRANCH  12  17
ATOM     17  C   UNL     1      84.383   4.173  27.369  1.00  0.00    -0.006 C 
ATOM     18  C   UNL     1      85.543   3.373  27.980  1.00  0.00     0.008 C 
ATOM     19  C   UNL     1      84.877   5.146  26.280  1.00  0.00     0.008 C 
ENDBRANCH  12  17
ENDBRANCH  11  12
ENDBRANCH   1  11
TORSDOF 1
ENDMDL
MODEL 3
REMARK VINA RESULT:    -2.841      1.487      3.856
REMARK INTER + INTRA:          -3.985
REMARK INTER:                  -5.725
REMARK INTRA:                   1.740
REMARK UNBOUND:                 0.351
REMARK SMILES CC1=CCC[C@@H](C)C(=O)C[C@@H](C(C)C)C(=O)C1
REMARK SMILES IDX 8 1 9 2 6 3 7 4 5 5 4 6 3 7 2 8 1 9 10 11 11 12 15 13 16 14
REMARK SMILES IDX 17 15 12 17 13 18 14 19
REMARK H PARENT
REMARK Flexibility Score: 70.00
ROOT
ATOM      1  C   UNL     1      83.768   2.745  27.887  1.00  0.00     0.136 C 
ATOM      2  O   UNL     1      83.050   2.085  27.154  1.00  0.00    -0.299 OA
ENDROOT
BRANCH   1   3
ATOM      3  C   UNL     1      84.990   3.422  27.287  1.00  0.00     0.053 C 
ATOM      4  C   UNL     1      86.099   3.498  28.347  1.00  0.00     0.016 C 
BRANCH   3   5
ATOM      5  C   UNL     1      84.631   4.843  26.758  1.00  0.00     0.015 C 
BRANCH   5   6
ATOM      6  C   UNL     1      83.642   4.910  25.566  1.00  0.00     0.028 C 
BRANCH   6   7
ATOM      7  C   UNL     1      82.264   5.460  25.856  1.00  0.00    -0.028 C 
ATOM      8  C   UNL     1      81.864   5.993  27.030  1.00  0.00    -0.070 CG0
ATOM      9  C   UNL     1      80.496   6.637  27.070  1.00  0.00     0.039 C 
ATOM     10  G   UNL     1      82.778   6.081  28.237  1.00  0.00     0.000 G0
ENDBRANCH   6   7
ENDBRANCH   5   6
ENDBRANCH   3   5
ENDBRANCH   1   3
BRANCH   1  11
ATOM     11  C   UNL     1      83.337   3.013  29.313  1.00  0.00     0.087 C 
BRANCH  11  12
ATOM     12  C   UNL     1      82.041   3.854  29.550  1.00  0.00     0.066 C 
BRANCH  12  13
ATOM     13  C   UNL     1      82.201   5.366  29.451  1.00  0.00     0.140 C 
ATOM     14  O   UNL     1      81.870   6.043  30.415  1.00  0.00    -0.299 OA
BRANCH  13  15
ATOM     15  C   UNL     1      82.763   6.076  28.246  1.00  0.00     0.106 CG0
ATOM     16  G   UNL     1      81.836   5.994  27.048  1.00  0.00     0.000 G0
ENDBRANCH  13  15
ENDBRANCH  12  13
BRANCH  12  17
ATOM     17  C   UNL     1      81.106   3.454  30.740  1.00  0.00    -0.006 C 
ATOM     18  C   UNL     1      80.825   1.946  30.818  1.00  0.00     0.008 C 
ATOM     19  C   UNL     1      81.521   4.025  32.110  1.00  0.00     0.008 C 
ENDBRANCH  12  17
ENDBRANCH  11  12
ENDBRANCH   1  11
TORSDOF 1
ENDMDL
MODEL 4
REMARK VINA RESULT:    -2.792      1.786      4.718
REMARK INTER + INTRA:          -3.909
REMARK INTER:                  -4.177
REMARK INTRA:                   0.268
REMARK UNBOUND:                 0.351
REMARK SMILES CC1=CCC[C@@H](C)C(=O)C[C@@H](C(C)C)C(=O)C1
REMARK SMILES IDX 8 1 9 2 6 3 7 4 5 5 4 6 3 7 2 8 1 9 10 11 11 12 15 13 16 14
REMARK SMILES IDX 17 15 12 17 13 18 14 19
REMARK H PARENT
REMARK Flexibility Score: 70.00
ROOT
ATOM      1  C   UNL     1      81.615   6.097  28.374  1.00  0.00     0.136 C 
ATOM      2  O   UNL     1      82.288   6.722  29.176  1.00  0.00    -0.299 OA
ENDROOT
BRANCH   1   3
ATOM      3  C   UNL     1      81.493   6.632  26.956  1.00  0.00     0.053 C 
ATOM      4  C   UNL     1      80.155   7.372  26.807  1.00  0.00     0.016 C 
BRANCH   3   5
ATOM      5  C   UNL     1      81.607   5.477  25.918  1.00  0.00     0.015 C 
BRANCH   5   6
ATOM      6  C   UNL     1      83.020   5.197  25.343  1.00  0.00     0.028 C 
BRANCH   6   7
ATOM      7  C   UNL     1      84.126   4.957  26.344  1.00  0.00    -0.028 C 
ATOM      8  C   UNL     1      84.206   3.905  27.187  1.00  0.00    -0.070 CG0
ATOM      9  C   UNL     1      85.473   3.760  27.999  1.00  0.00     0.039 C 
ATOM     10  G   UNL     1      83.145   2.823  27.240  1.00  0.00     0.000 G0
ENDBRANCH   6   7
ENDBRANCH   5   6
ENDBRANCH   3   5
ENDBRANCH   1   3
BRANCH   1  11
ATOM     11  C   UNL     1      81.069   4.738  28.754  1.00  0.00     0.087 C 
BRANCH  11  12
ATOM     12  C   UNL     1      82.016   3.740  29.497  1.00  0.00     0.066 C 
BRANCH  12  13
ATOM     13  C   UNL     1      82.606   2.624  28.646  1.00  0.00     0.140 C 
ATOM     14  O   UNL     1      82.632   1.494  29.117  1.00  0.00    -0.299 OA
BRANCH  13  15
ATOM     15  C   UNL     1      83.141   2.821  27.250  1.00  0.00     0.106 CG0
ATOM     16  G   UNL     1      84.208   3.897  27.191  1.00  0.00     0.000 G0
ENDBRANCH  13  15
ENDBRANCH  12  13
BRANCH  12  17
ATOM     17  C   UNL     1      81.582   3.217  30.907  1.00  0.00    -0.006 C 
ATOM     18  C   UNL     1      81.858   4.214  32.043  1.00  0.00     0.008 C 
ATOM     19  C   UNL     1      80.146   2.661  30.978  1.00  0.00     0.008 C 
ENDBRANCH  12  17
ENDBRANCH  11  12
ENDBRANCH   1  11
TORSDOF 1
ENDMDL
MODEL 5
REMARK VINA RESULT:    -2.675      1.686      3.725
REMARK INTER + INTRA:          -3.731
REMARK INTER:                  -4.898
REMARK INTRA:                   1.167
REMARK UNBOUND:                 0.351
REMARK SMILES CC1=CCC[C@@H](C)C(=O)C[C@@H](C(C)C)C(=O)C1
REMARK SMILES IDX 8 1 9 2 6 3 7 4 5 5 4 6 3 7 2 8 1 9 10 11 11 12 15 13 16 14
REMARK SMILES IDX 17 15 12 17 13 18 14 19
REMARK H PARENT
REMARK Flexibility Score: 70.00
ROOT
ATOM      1  C   UNL     1      81.953   4.687  29.982  1.00  0.00     0.136 C 
ATOM      2  O   UNL     1      82.107   4.818  31.185  1.00  0.00    -0.299 OA
ENDROOT
BRANCH   1   3
ATOM      3  C   UNL     1      81.343   3.394  29.466  1.00  0.00     0.053 C 
ATOM      4  C   UNL     1      81.519   2.292  30.522  1.00  0.00     0.016 C 
BRANCH   3   5
ATOM      5  C   UNL     1      81.995   2.975  28.115  1.00  0.00     0.015 C 
BRANCH   5   6
ATOM      6  C   UNL     1      83.087   1.875  28.183  1.00  0.00     0.028 C 
BRANCH   6   7
ATOM      7  C   UNL     1      84.472   2.317  28.593  1.00  0.00    -0.028 C 
ATOM      8  C   UNL     1      85.183   3.309  28.016  1.00  0.00    -0.070 CG0
ATOM      9  C   UNL     1      86.483   3.708  28.675  1.00  0.00     0.039 C 
ATOM     10  G   UNL     1      84.659   4.102  26.833  1.00  0.00     0.000 G0
ENDBRANCH   6   7
ENDBRANCH   5   6
ENDBRANCH   3   5
ENDBRANCH   1   3
BRANCH   1  11
ATOM     11  C   UNL     1      82.207   5.862  29.063  1.00  0.00     0.087 C 
BRANCH  11  12
ATOM     12  C   UNL     1      82.546   5.570  27.565  1.00  0.00     0.066 C 
BRANCH  12  13
ATOM     13  C   UNL     1      84.025   5.413  27.235  1.00  0.00     0.140 C 
ATOM     14  O   UNL     1      84.741   6.401  27.324  1.00  0.00    -0.299 OA
BRANCH  13  15
ATOM     15  C   UNL     1      84.663   4.110  26.825  1.00  0.00     0.106 CG0
ATOM     16  G   UNL     1      85.187   3.329  28.015  1.00  0.00     0.000 G0
ENDBRANCH  13  15
ENDBRANCH  12  13
BRANCH  12  17
ATOM     17  C   UNL     1      81.798   6.392  26.462  1.00  0.00    -0.006 C 
ATOM     18  C   UNL     1      81.561   5.603  25.164  1.00  0.00     0.008 C 
ATOM     19  C   UNL     1      80.512   7.096  26.939  1.00  0.00     0.008 C 
ENDBRANCH  12  17
ENDBRANCH  11  12
ENDBRANCH   1  11
TORSDOF 1
ENDMDL
MODEL 6
REMARK VINA RESULT:    -2.493     11.677     13.455
REMARK INTER + INTRA:          -3.453
REMARK INTER:                  -3.680
REMARK INTRA:                   0.227
REMARK UNBOUND:                 0.351
REMARK SMILES CC1=CCC[C@@H](C)C(=O)C[C@@H](C(C)C)C(=O)C1
REMARK SMILES IDX 8 1 9 2 6 3 7 4 5 5 4 6 3 7 2 8 1 9 10 11 11 12 15 13 16 14
REMARK SMILES IDX 17 15 12 17 13 18 14 19
REMARK H PARENT
REMARK Flexibility Score: 70.00
ROOT
ATOM      1  C   UNL     1      84.113  -7.888  27.268  1.00  0.00     0.136 C 
ATOM      2  O   UNL     1      84.912  -8.468  26.551  1.00  0.00    -0.299 OA
ENDROOT
BRANCH   1   3
ATOM      3  C   UNL     1      84.592  -7.368  28.614  1.00  0.00     0.053 C 
ATOM      4  C   UNL     1      85.310  -6.025  28.413  1.00  0.00     0.016 C 
BRANCH   3   5
ATOM      5  C   UNL     1      85.531  -8.401  29.304  1.00  0.00     0.015 C 
BRANCH   5   6
ATOM      6  C   UNL     1      84.895  -9.757  29.708  1.00  0.00     0.028 C 
BRANCH   6   7
ATOM      7  C   UNL     1      83.861  -9.721  30.810  1.00  0.00    -0.028 C 
ATOM      8  C   UNL     1      82.529  -9.857  30.640  1.00  0.00    -0.070 CG0
ATOM      9  C   UNL     1      81.677  -9.956  31.884  1.00  0.00     0.039 C 
ATOM     10  G   UNL     1      81.898 -10.045  29.273  1.00  0.00     0.000 G0
ENDBRANCH   6   7
ENDBRANCH   5   6
ENDBRANCH   3   5
ENDBRANCH   1   3
BRANCH   1  11
ATOM     11  C   UNL     1      82.737  -7.553  26.736  1.00  0.00     0.087 C 
BRANCH  11  12
ATOM     12  C   UNL     1      81.539  -8.468  27.151  1.00  0.00     0.066 C 
BRANCH  12  13
ATOM     13  C   UNL     1      81.426  -8.782  28.637  1.00  0.00     0.140 C 
ATOM     14  O   UNL     1      80.908  -7.944  29.363  1.00  0.00    -0.299 OA
BRANCH  13  15
ATOM     15  C   UNL     1      81.893 -10.071  29.264  1.00  0.00     0.106 CG0
ATOM     16  G   UNL     1      82.513  -9.853  30.631  1.00  0.00     0.000 G0
ENDBRANCH  13  15
ENDBRANCH  12  13
BRANCH  12  17
ATOM     17  C   UNL     1      81.232  -9.729  26.274  1.00  0.00    -0.006 C 
ATOM     18  C   UNL     1      79.732  -9.951  26.025  1.00  0.00     0.008 C 
ATOM     19  C   UNL     1      82.043  -9.822  24.967  1.00  0.00     0.008 C 
ENDBRANCH  12  17
ENDBRANCH  11  12
ENDBRANCH   1  11
TORSDOF 1
ENDMDL
MODEL 7
REMARK VINA RESULT:    -2.244     11.436     13.226
REMARK INTER + INTRA:          -3.073
REMARK INTER:                  -4.004
REMARK INTRA:                   0.931
REMARK UNBOUND:                 0.351
REMARK SMILES CC1=CCC[C@@H](C)C(=O)C[C@@H](C(C)C)C(=O)C1
REMARK SMILES IDX 8 1 9 2 6 3 7 4 5 5 4 6 3 7 2 8 1 9 10 11 11 12 15 13 16 14
REMARK SMILES IDX 17 15 12 17 13 18 14 19
REMARK H PARENT
REMARK Flexibility Score: 70.00
ROOT
ATOM      1  C   UNL     1      84.939  -7.458  29.283  1.00  0.00     0.136 C 
ATOM      2  O   UNL     1      85.895  -8.212  29.347  1.00  0.00    -0.299 OA
ENDROOT
BRANCH   1   3
ATOM      3  C   UNL     1      84.395  -6.864  30.572  1.00  0.00     0.053 C 
ATOM      4  C   UNL     1      85.172  -5.581  30.907  1.00  0.00     0.016 C 
BRANCH   3   5
ATOM      5  C   UNL     1      84.494  -7.891  31.739  1.00  0.00     0.015 C 
BRANCH   5   6
ATOM      6  C   UNL     1      83.863  -9.286  31.491  1.00  0.00     0.028 C 
BRANCH   6   7
ATOM      7  C   UNL     1      82.356  -9.343  31.391  1.00  0.00    -0.028 C 
ATOM      8  C   UNL     1      81.651  -9.523  30.253  1.00  0.00    -0.070 CG0
ATOM      9  C   UNL     1      80.158  -9.713  30.384  1.00  0.00     0.039 C 
ATOM     10  G   UNL     1      82.318  -9.670  28.899  1.00  0.00     0.000 G0
ENDBRANCH   6   7
ENDBRANCH   5   6
ENDBRANCH   3   5
ENDBRANCH   1   3
BRANCH   1  11
ATOM     11  C   UNL     1      84.435  -7.003  27.930  1.00  0.00     0.087 C 
BRANCH  11  12
ATOM     12  C   UNL     1      83.375  -7.890  27.198  1.00  0.00     0.066 C 
BRANCH  12  13
ATOM     13  C   UNL     1      82.236  -8.416  28.062  1.00  0.00     0.140 C 
ATOM     14  O   UNL     1      81.186  -7.788  28.073  1.00  0.00    -0.299 OA
BRANCH  13  15
ATOM     15  C   UNL     1      82.318  -9.674  28.888  1.00  0.00     0.106 CG0
ATOM     16  G   UNL     1      81.668  -9.511  30.249  1.00  0.00     0.000 G0
ENDBRANCH  13  15
ENDBRANCH  12  13
BRANCH  12  17
ATOM     17  C   UNL     1      83.886  -8.980  26.198  1.00  0.00    -0.006 C 
ATOM     18  C   UNL     1      84.653 -10.125  26.878  1.00  0.00     0.008 C 
ATOM     19  C   UNL     1      82.819  -9.515  25.222  1.00  0.00     0.008 C 
ENDBRANCH  12  17
ENDBRANCH  11  12
ENDBRANCH   1  11
TORSDOF 1
ENDMDL
MODEL 8
REMARK VINA RESULT:    -2.088      1.882      4.283
REMARK INTER + INTRA:          -2.835
REMARK INTER:                  -3.936
REMARK INTRA:                   1.102
REMARK UNBOUND:                 0.351
REMARK SMILES CC1=CCC[C@@H](C)C(=O)C[C@@H](C(C)C)C(=O)C1
REMARK SMILES IDX 8 1 9 2 6 3 7 4 5 5 4 6 3 7 2 8 1 9 10 11 11 12 15 13 16 14
REMARK SMILES IDX 17 15 12 17 13 18 14 19
REMARK H PARENT
REMARK Flexibility Score: 70.00
ROOT
ATOM      1  C   UNL     1      82.451   1.920  28.394  1.00  0.00     0.136 C 
ATOM      2  O   UNL     1      81.866   0.901  28.067  1.00  0.00    -0.299 OA
ENDROOT
BRANCH   1   3
ATOM      3  C   UNL     1      82.119   2.546  29.739  1.00  0.00     0.053 C 
ATOM      4  C   UNL     1      81.319   1.543  30.583  1.00  0.00     0.016 C 
BRANCH   3   5
ATOM      5  C   UNL     1      81.321   3.871  29.549  1.00  0.00     0.015 C 
BRANCH   5   6
ATOM      6  C   UNL     1      82.148   5.183  29.535  1.00  0.00     0.028 C 
BRANCH   6   7
ATOM      7  C   UNL     1      81.602   6.321  28.704  1.00  0.00    -0.028 C 
ATOM      8  C   UNL     1      81.273   6.250  27.397  1.00  0.00    -0.070 CG0
ATOM      9  C   UNL     1      80.591   7.453  26.786  1.00  0.00     0.039 C 
ATOM     10  G   UNL     1      81.442   4.981  26.583  1.00  0.00     0.000 G0
ENDBRANCH   6   7
ENDBRANCH   5   6
ENDBRANCH   3   5
ENDBRANCH   1   3
BRANCH   1  11
ATOM     11  C   UNL     1      83.596   2.430  27.547  1.00  0.00     0.087 C 
BRANCH  11  12
ATOM     12  C   UNL     1      83.765   3.975  27.382  1.00  0.00     0.066 C 
BRANCH  12  13
ATOM     13  C   UNL     1      82.880   4.633  26.331  1.00  0.00     0.140 C 
ATOM     14  O   UNL     1      83.371   4.875  25.236  1.00  0.00    -0.299 OA
BRANCH  13  15
ATOM     15  C   UNL     1      81.431   4.986  26.551  1.00  0.00     0.106 CG0
ATOM     16  G   UNL     1      81.266   6.233  27.397  1.00  0.00     0.000 G0
ENDBRANCH  13  15
ENDBRANCH  12  13
BRANCH  12  17
ATOM     17  C   UNL     1      85.216   4.564  27.359  1.00  0.00    -0.006 C 
ATOM     18  C   UNL     1      85.293   6.021  27.842  1.00  0.00     0.008 C 
ATOM     19  C   UNL     1      86.283   3.684  28.040  1.00  0.00     0.008 C 
ENDBRANCH  12  17
ENDBRANCH  11  12
ENDBRANCH   1  11
TORSDOF 1
ENDMDL
MODEL 9
REMARK VINA RESULT:    -1.534      2.034      5.094
REMARK INTER + INTRA:          -1.990
REMARK INTER:                  -2.029
REMARK INTRA:                   0.039
REMARK UNBOUND:                 0.351
REMARK SMILES CC1=CCC[C@@H](C)C(=O)C[C@@H](C(C)C)C(=O)C1
REMARK SMILES IDX 8 1 9 2 6 3 7 4 5 5 4 6 3 7 2 8 1 9 10 11 11 12 15 13 16 14
REMARK SMILES IDX 17 15 12 17 13 18 14 19
REMARK H PARENT
REMARK Flexibility Score: 70.00
ROOT
ATOM      1  C   UNL     1      81.914   6.572  28.472  1.00  0.00     0.136 C 
ATOM      2  O   UNL     1      81.335   6.910  29.491  1.00  0.00    -0.299 OA
ENDROOT
BRANCH   1   3
ATOM      3  C   UNL     1      81.227   6.807  27.136  1.00  0.00     0.053 C 
ATOM      4  C   UNL     1      80.143   7.882  27.305  1.00  0.00     0.016 C 
BRANCH   3   5
ATOM      5  C   UNL     1      80.615   5.483  26.588  1.00  0.00     0.015 C 
BRANCH   5   6
ATOM      6  C   UNL     1      81.334   4.835  25.377  1.00  0.00     0.028 C 
BRANCH   6   7
ATOM      7  C   UNL     1      82.666   5.428  24.979  1.00  0.00    -0.028 C 
ATOM      8  C   UNL     1      83.876   4.924  25.300  1.00  0.00    -0.070 CG0
ATOM      9  C   UNL     1      85.088   5.572  24.671  1.00  0.00     0.039 C 
ATOM     10  G   UNL     1      84.039   3.675  26.146  1.00  0.00     0.000 G0
ENDBRANCH   6   7
ENDBRANCH   5   6
ENDBRANCH   3   5
ENDBRANCH   1   3
BRANCH   1  11
ATOM     11  C   UNL     1      83.348   6.096  28.549  1.00  0.00     0.087 C 
BRANCH  11  12
ATOM     12  C   UNL     1      83.614   4.558  28.633  1.00  0.00     0.066 C 
BRANCH  12  13
ATOM     13  C   UNL     1      84.509   3.977  27.545  1.00  0.00     0.140 C 
ATOM     14  O   UNL     1      85.671   3.721  27.833  1.00  0.00    -0.299 OA
BRANCH  13  15
ATOM     15  C   UNL     1      84.044   3.678  26.143  1.00  0.00     0.106 CG0
ATOM     16  G   UNL     1      83.893   4.935  25.308  1.00  0.00     0.000 G0
ENDBRANCH  13  15
ENDBRANCH  12  13
BRANCH  12  17
ATOM     17  C   UNL     1      82.406   3.613  28.946  1.00  0.00    -0.006 C 
ATOM     18  C   UNL     1      82.616   2.169  28.464  1.00  0.00     0.008 C 
ATOM     19  C   UNL     1      81.910   3.656  30.404  1.00  0.00     0.008 C 
ENDBRANCH  12  17
ENDBRANCH  11  12
ENDBRANCH   1  11
TORSDOF 1
ENDMDL
