MODEL 1
REMARK VINA RESULT:    -2.922      0.000      0.000
REMARK INTER + INTRA:         -10.421
REMARK INTER:                  -6.338
REMARK INTRA:                  -4.083
REMARK UNBOUND:                -4.083
REMARK SMILES CCCCCCCCCCCCCCCCCCCCCC(=O)[O-]
REMARK SMILES IDX 12 1 11 2 10 3 9 4 8 5 7 6 6 7 5 8 4 9 3 10 2 11 1 12 13 13
REMARK SMILES IDX 14 14 15 15 16 16 17 17 18 18 19 19 20 20 21 21 22 22 23 23
REMARK SMILES IDX 24 24
REMARK H PARENT
REMARK Flexibility Score: inf
ROOT
ATOM      1  C   UNL     1      57.169  26.507  53.385  1.00  0.00     0.000 C 
ENDROOT
BRANCH   1   2
ATOM      2  C   UNL     1      58.611  26.105  53.027  1.00  0.00     0.000 C 
BRANCH   2   3
ATOM      3  C   UNL     1      59.567  27.309  52.971  1.00  0.00     0.000 C 
BRANCH   3   4
ATOM      4  C   UNL     1      58.887  28.675  52.755  1.00  0.00    -0.000 C 
BRANCH   4   5
ATOM      5  C   UNL     1      59.348  29.409  51.477  1.00  0.00    -0.000 C 
BRANCH   5   6
ATOM      6  C   UNL     1      58.466  29.071  50.261  1.00  0.00    -0.000 C 
BRANCH   6   7
ATOM      7  C   UNL     1      59.204  28.238  49.197  1.00  0.00    -0.000 C 
BRANCH   7   8
ATOM      8  C   UNL     1      60.732  28.161  49.375  1.00  0.00    -0.000 C 
BRANCH   8   9
ATOM      9  C   UNL     1      61.225  26.734  49.674  1.00  0.00    -0.000 C 
BRANCH   9  10
ATOM     10  C   UNL     1      60.087  25.692  49.652  1.00  0.00    -0.000 C 
BRANCH  10  11
ATOM     11  C   UNL     1      60.448  24.321  50.252  1.00  0.00    -0.003 C 
ATOM     12  C   UNL     1      61.952  24.133  50.453  1.00  0.00     0.004 C 
ENDBRANCH  10  11
ENDBRANCH   9  10
ENDBRANCH   8   9
ENDBRANCH   7   8
ENDBRANCH   6   7
ENDBRANCH   5   6
ENDBRANCH   4   5
ENDBRANCH   3   4
ENDBRANCH   2   3
ENDBRANCH   1   2
BRANCH   1  13
ATOM     13  C   UNL     1      56.154  26.131  52.288  1.00  0.00     0.000 C 
BRANCH  13  14
ATOM     14  C   UNL     1      56.765  25.851  50.902  1.00  0.00     0.000 C 
BRANCH  14  15
ATOM     15  C   UNL     1      55.975  26.511  49.758  1.00  0.00     0.000 C 
BRANCH  15  16
ATOM     16  C   UNL     1      54.453  26.316  49.888  1.00  0.00     0.000 C 
BRANCH  16  17
ATOM     17  C   UNL     1      53.614  27.605  49.805  1.00  0.00     0.000 C 
BRANCH  17  18
ATOM     18  C   UNL     1      54.377  28.851  50.288  1.00  0.00     0.000 C 
BRANCH  18  19
ATOM     19  C   UNL     1      54.067  29.194  51.755  1.00  0.00     0.000 C 
BRANCH  19  20
ATOM     20  C   UNL     1      55.294  29.750  52.498  1.00  0.00     0.006 C 
BRANCH  20  21
ATOM     21  C   UNL     1      55.223  29.498  54.010  1.00  0.00     0.053 C 
BRANCH  21  22
ATOM     22  C   UNL     1      55.012  30.766  54.779  1.00  0.00     0.041 C 
ATOM     23  O   UNL     1      54.342  30.757  55.847  1.00  0.00    -0.550 OA
ATOM     24  O   UNL     1      55.593  31.950  54.342  1.00  0.00    -0.550 OA
ENDBRANCH  21  22
ENDBRANCH  20  21
ENDBRANCH  19  20
ENDBRANCH  18  19
ENDBRANCH  17  18
ENDBRANCH  16  17
ENDBRANCH  15  16
ENDBRANCH  14  15
ENDBRANCH  13  14
ENDBRANCH   1  13
TORSDOF 20
ENDMDL
MODEL 2
REMARK VINA RESULT:    -2.868      1.956      3.611
REMARK INTER + INTRA:         -10.304
REMARK INTER:                  -6.669
REMARK INTRA:                  -3.635
REMARK UNBOUND:                -4.083
REMARK SMILES CCCCCCCCCCCCCCCCCCCCCC(=O)[O-]
REMARK SMILES IDX 12 1 11 2 10 3 9 4 8 5 7 6 6 7 5 8 4 9 3 10 2 11 1 12 13 13
REMARK SMILES IDX 14 14 15 15 16 16 17 17 18 18 19 19 20 20 21 21 22 22 23 23
REMARK SMILES IDX 24 24
REMARK H PARENT
REMARK Flexibility Score: inf
ROOT
ATOM      1  C   UNL     1      60.230  25.386  50.108  1.00  0.00     0.000 C 
ENDROOT
BRANCH   1   2
ATOM      2  C   UNL     1      59.260  26.317  49.359  1.00  0.00     0.000 C 
BRANCH   2   3
ATOM      3  C   UNL     1      59.823  27.738  49.178  1.00  0.00     0.000 C 
BRANCH   3   4
ATOM      4  C   UNL     1      58.908  28.873  49.678  1.00  0.00    -0.000 C 
BRANCH   4   5
ATOM      5  C   UNL     1      59.289  29.416  51.073  1.00  0.00    -0.000 C 
BRANCH   5   6
ATOM      6  C   UNL     1      60.784  29.223  51.384  1.00  0.00    -0.000 C 
BRANCH   6   7
ATOM      7  C   UNL     1      61.596  30.526  51.263  1.00  0.00    -0.000 C 
BRANCH   7   8
ATOM      8  C   UNL     1      62.351  30.702  49.933  1.00  0.00    -0.000 C 
BRANCH   8   9
ATOM      9  C   UNL     1      63.755  30.070  49.958  1.00  0.00    -0.000 C 
BRANCH   9  10
ATOM     10  C   UNL     1      64.084  29.294  48.667  1.00  0.00    -0.000 C 
BRANCH  10  11
ATOM     11  C   UNL     1      63.428  27.905  48.557  1.00  0.00    -0.003 C 
ATOM     12  C   UNL     1      63.509  27.102  49.855  1.00  0.00     0.004 C 
ENDBRANCH  10  11
ENDBRANCH   9  10
ENDBRANCH   8   9
ENDBRANCH   7   8
ENDBRANCH   6   7
ENDBRANCH   5   6
ENDBRANCH   4   5
ENDBRANCH   3   4
ENDBRANCH   2   3
ENDBRANCH   1   2
BRANCH   1  13
ATOM     13  C   UNL     1      60.050  25.440  51.637  1.00  0.00     0.000 C 
BRANCH  13  14
ATOM     14  C   UNL     1      58.594  25.323  52.127  1.00  0.00     0.000 C 
BRANCH  14  15
ATOM     15  C   UNL     1      58.156  26.524  52.983  1.00  0.00     0.000 C 
BRANCH  15  16
ATOM     16  C   UNL     1      56.874  27.200  52.461  1.00  0.00     0.000 C 
BRANCH  16  17
ATOM     17  C   UNL     1      56.065  26.378  51.442  1.00  0.00     0.000 C 
BRANCH  17  18
ATOM     18  C   UNL     1      55.725  27.167  50.165  1.00  0.00     0.000 C 
BRANCH  18  19
ATOM     19  C   UNL     1      54.267  26.964  49.723  1.00  0.00     0.000 C 
BRANCH  19  20
ATOM     20  C   UNL     1      53.325  28.034  50.303  1.00  0.00     0.006 C 
BRANCH  20  21
ATOM     21  C   UNL     1      54.008  29.401  50.438  1.00  0.00     0.053 C 
BRANCH  21  22
ATOM     22  C   UNL     1      53.839  29.978  51.810  1.00  0.00     0.041 C 
ATOM     23  O   UNL     1      53.441  31.165  51.954  1.00  0.00    -0.550 OA
ATOM     24  O   UNL     1      54.078  29.191  52.930  1.00  0.00    -0.550 OA
ENDBRANCH  21  22
ENDBRANCH  20  21
ENDBRANCH  19  20
ENDBRANCH  18  19
ENDBRANCH  17  18
ENDBRANCH  16  17
ENDBRANCH  15  16
ENDBRANCH  14  15
ENDBRANCH  13  14
ENDBRANCH   1  13
TORSDOF 20
ENDMDL
MODEL 3
REMARK VINA RESULT:    -2.813      3.637      6.192
REMARK INTER + INTRA:         -10.185
REMARK INTER:                  -6.569
REMARK INTRA:                  -3.616
REMARK UNBOUND:                -4.083
REMARK SMILES CCCCCCCCCCCCCCCCCCCCCC(=O)[O-]
REMARK SMILES IDX 12 1 11 2 10 3 9 4 8 5 7 6 6 7 5 8 4 9 3 10 2 11 1 12 13 13
REMARK SMILES IDX 14 14 15 15 16 16 17 17 18 18 19 19 20 20 21 21 22 22 23 23
REMARK SMILES IDX 24 24
REMARK H PARENT
REMARK Flexibility Score: inf
ROOT
ATOM      1  C   UNL     1      54.207  26.704  49.469  1.00  0.00     0.000 C 
ENDROOT
BRANCH   1   2
ATOM      2  C   UNL     1      52.928  27.327  50.056  1.00  0.00     0.000 C 
BRANCH   2   3
ATOM      3  C   UNL     1      53.127  28.789  50.494  1.00  0.00     0.000 C 
BRANCH   3   4
ATOM      4  C   UNL     1      54.585  29.288  50.467  1.00  0.00    -0.000 C 
BRANCH   4   5
ATOM      5  C   UNL     1      55.327  29.127  51.811  1.00  0.00    -0.000 C 
BRANCH   5   6
ATOM      6  C   UNL     1      56.848  28.984  51.622  1.00  0.00    -0.000 C 
BRANCH   6   7
ATOM      7  C   UNL     1      57.236  28.500  50.213  1.00  0.00    -0.000 C 
BRANCH   7   8
ATOM      8  C   UNL     1      58.665  28.864  49.770  1.00  0.00    -0.000 C 
BRANCH   8   9
ATOM      9  C   UNL     1      59.528  29.398  50.927  1.00  0.00    -0.000 C 
BRANCH   9  10
ATOM     10  C   UNL     1      60.989  28.908  50.858  1.00  0.00    -0.000 C 
BRANCH  10  11
ATOM     11  C   UNL     1      61.448  28.058  52.057  1.00  0.00    -0.003 C 
ATOM     12  C   UNL     1      61.655  28.879  53.329  1.00  0.00     0.004 C 
ENDBRANCH  10  11
ENDBRANCH   9  10
ENDBRANCH   8   9
ENDBRANCH   7   8
ENDBRANCH   6   7
ENDBRANCH   5   6
ENDBRANCH   4   5
ENDBRANCH   3   4
ENDBRANCH   2   3
ENDBRANCH   1   2
BRANCH   1  13
ATOM     13  C   UNL     1      54.717  25.505  50.290  1.00  0.00     0.000 C 
BRANCH  13  14
ATOM     14  C   UNL     1      54.038  25.315  51.659  1.00  0.00     0.000 C 
BRANCH  14  15
ATOM     15  C   UNL     1      55.018  24.848  52.750  1.00  0.00     0.000 C 
BRANCH  15  16
ATOM     16  C   UNL     1      56.337  25.644  52.756  1.00  0.00     0.000 C 
BRANCH  16  17
ATOM     17  C   UNL     1      57.612  24.807  52.548  1.00  0.00     0.000 C 
BRANCH  17  18
ATOM     18  C   UNL     1      58.725  25.578  51.816  1.00  0.00     0.000 C 
BRANCH  18  19
ATOM     19  C   UNL     1      58.878  25.134  50.352  1.00  0.00     0.000 C 
BRANCH  19  20
ATOM     20  C   UNL     1      60.303  25.360  49.818  1.00  0.00     0.006 C 
BRANCH  20  21
ATOM     21  C   UNL     1      61.291  24.302  50.327  1.00  0.00     0.053 C 
BRANCH  21  22
ATOM     22  C   UNL     1      60.767  22.912  50.142  1.00  0.00     0.041 C 
ATOM     23  O   UNL     1      60.806  22.364  49.007  1.00  0.00    -0.550 OA
ATOM     24  O   UNL     1      60.276  22.202  51.232  1.00  0.00    -0.550 OA
ENDBRANCH  21  22
ENDBRANCH  20  21
ENDBRANCH  19  20
ENDBRANCH  18  19
ENDBRANCH  17  18
ENDBRANCH  16  17
ENDBRANCH  15  16
ENDBRANCH  14  15
ENDBRANCH  13  14
ENDBRANCH   1  13
TORSDOF 20
ENDMDL
MODEL 4
REMARK VINA RESULT:    -2.808      8.602     11.378
REMARK INTER + INTRA:         -10.173
REMARK INTER:                  -6.799
REMARK INTRA:                  -3.374
REMARK UNBOUND:                -4.083
REMARK SMILES CCCCCCCCCCCCCCCCCCCCCC(=O)[O-]
REMARK SMILES IDX 12 1 11 2 10 3 9 4 8 5 7 6 6 7 5 8 4 9 3 10 2 11 1 12 13 13
REMARK SMILES IDX 14 14 15 15 16 16 17 17 18 18 19 19 20 20 21 21 22 22 23 23
REMARK SMILES IDX 24 24
REMARK H PARENT
REMARK Flexibility Score: inf
ROOT
ATOM      1  C   UNL     1      64.655  31.767  59.579  1.00  0.00     0.000 C 
ENDROOT
BRANCH   1   2
ATOM      2  C   UNL     1      64.589  31.055  60.942  1.00  0.00     0.000 C 
BRANCH   2   3
ATOM      3  C   UNL     1      64.369  29.538  60.810  1.00  0.00     0.000 C 
BRANCH   3   4
ATOM      4  C   UNL     1      62.977  29.038  61.244  1.00  0.00    -0.000 C 
BRANCH   4   5
ATOM      5  C   UNL     1      62.148  30.088  62.015  1.00  0.00    -0.000 C 
BRANCH   5   6
ATOM      6  C   UNL     1      60.924  30.566  61.213  1.00  0.00    -0.000 C 
BRANCH   6   7
ATOM      7  C   UNL     1      61.045  32.029  60.746  1.00  0.00    -0.000 C 
BRANCH   7   8
ATOM      8  C   UNL     1      60.636  32.281  59.283  1.00  0.00    -0.000 C 
BRANCH   8   9
ATOM      9  C   UNL     1      60.119  31.011  58.583  1.00  0.00    -0.000 C 
BRANCH   9  10
ATOM     10  C   UNL     1      60.981  30.606  57.370  1.00  0.00    -0.000 C 
BRANCH  10  11
ATOM     11  C   UNL     1      62.241  29.789  57.709  1.00  0.00    -0.003 C 
ATOM     12  C   UNL     1      62.023  28.280  57.603  1.00  0.00     0.004 C 
ENDBRANCH  10  11
ENDBRANCH   9  10
ENDBRANCH   8   9
ENDBRANCH   7   8
ENDBRANCH   6   7
ENDBRANCH   5   6
ENDBRANCH   4   5
ENDBRANCH   3   4
ENDBRANCH   2   3
ENDBRANCH   1   2
BRANCH   1  13
ATOM     13  C   UNL     1      64.528  33.298  59.698  1.00  0.00     0.000 C 
BRANCH  13  14
ATOM     14  C   UNL     1      64.215  33.818  61.114  1.00  0.00     0.000 C 
BRANCH  14  15
ATOM     15  C   UNL     1      64.592  35.298  61.301  1.00  0.00     0.000 C 
BRANCH  15  16
ATOM     16  C   UNL     1      63.386  36.248  61.174  1.00  0.00     0.000 C 
BRANCH  16  17
ATOM     17  C   UNL     1      62.020  35.557  61.007  1.00  0.00     0.000 C 
BRANCH  17  18
ATOM     18  C   UNL     1      60.988  36.434  60.276  1.00  0.00     0.000 C 
BRANCH  18  19
ATOM     19  C   UNL     1      60.731  35.958  58.836  1.00  0.00     0.000 C 
BRANCH  19  20
ATOM     20  C   UNL     1      59.287  36.228  58.379  1.00  0.00     0.006 C 
BRANCH  20  21
ATOM     21  C   UNL     1      59.105  36.014  56.870  1.00  0.00     0.053 C 
BRANCH  21  22
ATOM     22  C   UNL     1      58.485  34.686  56.565  1.00  0.00     0.041 C 
ATOM     23  O   UNL     1      58.389  34.289  55.372  1.00  0.00    -0.550 OA
ATOM     24  O   UNL     1      58.054  33.864  57.599  1.00  0.00    -0.550 OA
ENDBRANCH  21  22
ENDBRANCH  20  21
ENDBRANCH  19  20
ENDBRANCH  18  19
ENDBRANCH  17  18
ENDBRANCH  16  17
ENDBRANCH  15  16
ENDBRANCH  14  15
ENDBRANCH  13  14
ENDBRANCH   1  13
TORSDOF 20
ENDMDL
MODEL 5
REMARK VINA RESULT:    -2.796      2.880      6.694
REMARK INTER + INTRA:         -10.148
REMARK INTER:                  -6.012
REMARK INTRA:                  -4.136
REMARK UNBOUND:                -4.083
REMARK SMILES CCCCCCCCCCCCCCCCCCCCCC(=O)[O-]
REMARK SMILES IDX 12 1 11 2 10 3 9 4 8 5 7 6 6 7 5 8 4 9 3 10 2 11 1 12 13 13
REMARK SMILES IDX 14 14 15 15 16 16 17 17 18 18 19 19 20 20 21 21 22 22 23 23
REMARK SMILES IDX 24 24
REMARK H PARENT
REMARK Flexibility Score: inf
ROOT
ATOM      1  C   UNL     1      57.669  27.801  52.464  1.00  0.00     0.000 C 
ENDROOT
BRANCH   1   2
ATOM      2  C   UNL     1      57.533  28.970  51.471  1.00  0.00     0.000 C 
BRANCH   2   3
ATOM      3  C   UNL     1      56.748  28.585  50.205  1.00  0.00     0.000 C 
BRANCH   3   4
ATOM      4  C   UNL     1      56.092  27.191  50.240  1.00  0.00    -0.000 C 
BRANCH   4   5
ATOM      5  C   UNL     1      54.548  27.225  50.215  1.00  0.00    -0.000 C 
BRANCH   5   6
ATOM      6  C   UNL     1      53.998  28.662  50.194  1.00  0.00    -0.000 C 
BRANCH   6   7
ATOM      7  C   UNL     1      53.308  29.061  51.512  1.00  0.00    -0.000 C 
BRANCH   7   8
ATOM      8  C   UNL     1      53.904  28.419  52.778  1.00  0.00    -0.000 C 
BRANCH   8   9
ATOM      9  C   UNL     1      54.502  29.457  53.745  1.00  0.00    -0.000 C 
BRANCH   9  10
ATOM     10  C   UNL     1      54.678  30.845  53.097  1.00  0.00    -0.000 C 
BRANCH  10  11
ATOM     11  C   UNL     1      55.956  31.599  53.510  1.00  0.00    -0.003 C 
ATOM     12  C   UNL     1      56.755  30.874  54.592  1.00  0.00     0.004 C 
ENDBRANCH  10  11
ENDBRANCH   9  10
ENDBRANCH   8   9
ENDBRANCH   7   8
ENDBRANCH   6   7
ENDBRANCH   5   6
ENDBRANCH   4   5
ENDBRANCH   3   4
ENDBRANCH   2   3
ENDBRANCH   1   2
BRANCH   1  13
ATOM     13  C   UNL     1      59.000  27.828  53.239  1.00  0.00     0.000 C 
BRANCH  13  14
ATOM     14  C   UNL     1      59.815  26.523  53.180  1.00  0.00     0.000 C 
BRANCH  14  15
ATOM     15  C   UNL     1      59.220  25.492  52.204  1.00  0.00     0.000 C 
BRANCH  15  16
ATOM     16  C   UNL     1      60.293  24.746  51.389  1.00  0.00     0.000 C 
BRANCH  16  17
ATOM     17  C   UNL     1      60.637  25.371  50.025  1.00  0.00     0.000 C 
BRANCH  17  18
ATOM     18  C   UNL     1      59.580  26.380  49.542  1.00  0.00     0.000 C 
BRANCH  18  19
ATOM     19  C   UNL     1      60.198  27.737  49.163  1.00  0.00     0.000 C 
BRANCH  19  20
ATOM     20  C   UNL     1      61.201  28.238  50.216  1.00  0.00     0.006 C 
BRANCH  20  21
ATOM     21  C   UNL     1      61.064  29.743  50.482  1.00  0.00     0.053 C 
BRANCH  21  22
ATOM     22  C   UNL     1      62.221  30.516  49.927  1.00  0.00     0.041 C 
ATOM     23  O   UNL     1      62.188  31.776  49.903  1.00  0.00    -0.550 OA
ATOM     24  O   UNL     1      63.353  29.849  49.477  1.00  0.00    -0.550 OA
ENDBRANCH  21  22
ENDBRANCH  20  21
ENDBRANCH  19  20
ENDBRANCH  18  19
ENDBRANCH  17  18
ENDBRANCH  16  17
ENDBRANCH  15  16
ENDBRANCH  14  15
ENDBRANCH  13  14
ENDBRANCH   1  13
TORSDOF 20
ENDMDL
MODEL 6
REMARK VINA RESULT:    -2.778      2.758      6.987
REMARK INTER + INTRA:         -10.108
REMARK INTER:                  -6.555
REMARK INTRA:                  -3.553
REMARK UNBOUND:                -4.083
REMARK SMILES CCCCCCCCCCCCCCCCCCCCCC(=O)[O-]
REMARK SMILES IDX 12 1 11 2 10 3 9 4 8 5 7 6 6 7 5 8 4 9 3 10 2 11 1 12 13 13
REMARK SMILES IDX 14 14 15 15 16 16 17 17 18 18 19 19 20 20 21 21 22 22 23 23
REMARK SMILES IDX 24 24
REMARK H PARENT
REMARK Flexibility Score: inf
ROOT
ATOM      1  C   UNL     1      57.643  28.008  52.897  1.00  0.00     0.000 C 
ENDROOT
BRANCH   1   2
ATOM      2  C   UNL     1      56.462  27.084  52.552  1.00  0.00     0.000 C 
BRANCH   2   3
ATOM      3  C   UNL     1      56.827  26.019  51.504  1.00  0.00     0.000 C 
BRANCH   3   4
ATOM      4  C   UNL     1      55.940  26.011  50.243  1.00  0.00    -0.000 C 
BRANCH   4   5
ATOM      5  C   UNL     1      55.368  27.395  49.871  1.00  0.00    -0.000 C 
BRANCH   5   6
ATOM      6  C   UNL     1      53.828  27.403  49.851  1.00  0.00    -0.000 C 
BRANCH   6   7
ATOM      7  C   UNL     1      53.230  28.793  50.136  1.00  0.00    -0.000 C 
BRANCH   7   8
ATOM      8  C   UNL     1      54.031  29.654  51.131  1.00  0.00    -0.000 C 
BRANCH   8   9
ATOM      9  C   UNL     1      53.568  29.464  52.587  1.00  0.00    -0.000 C 
BRANCH   9  10
ATOM     10  C   UNL     1      54.501  30.151  53.604  1.00  0.00    -0.000 C 
BRANCH  10  11
ATOM     11  C   UNL     1      55.081  31.503  53.147  1.00  0.00    -0.003 C 
ATOM     12  C   UNL     1      54.137  32.676  53.404  1.00  0.00     0.004 C 
ENDBRANCH  10  11
ENDBRANCH   9  10
ENDBRANCH   8   9
ENDBRANCH   7   8
ENDBRANCH   6   7
ENDBRANCH   5   6
ENDBRANCH   4   5
ENDBRANCH   3   4
ENDBRANCH   2   3
ENDBRANCH   1   2
BRANCH   1  13
ATOM     13  C   UNL     1      57.745  29.224  51.957  1.00  0.00     0.000 C 
BRANCH  13  14
ATOM     14  C   UNL     1      59.029  29.286  51.107  1.00  0.00     0.000 C 
BRANCH  14  15
ATOM     15  C   UNL     1      58.798  28.860  49.647  1.00  0.00     0.000 C 
BRANCH  15  16
ATOM     16  C   UNL     1      59.489  27.530  49.291  1.00  0.00     0.000 C 
BRANCH  16  17
ATOM     17  C   UNL     1      60.263  26.862  50.442  1.00  0.00     0.000 C 
BRANCH  17  18
ATOM     18  C   UNL     1      61.747  26.623  50.112  1.00  0.00     0.000 C 
BRANCH  18  19
ATOM     19  C   UNL     1      62.322  27.709  49.187  1.00  0.00     0.000 C 
BRANCH  19  20
ATOM     20  C   UNL     1      63.374  28.583  49.893  1.00  0.00     0.006 C 
BRANCH  20  21
ATOM     21  C   UNL     1      62.756  29.483  50.970  1.00  0.00     0.053 C 
BRANCH  21  22
ATOM     22  C   UNL     1      62.427  30.845  50.440  1.00  0.00     0.041 C 
ATOM     23  O   UNL     1      61.746  31.648  51.134  1.00  0.00    -0.550 OA
ATOM     24  O   UNL     1      62.909  31.244  49.200  1.00  0.00    -0.550 OA
ENDBRANCH  21  22
ENDBRANCH  20  21
ENDBRANCH  19  20
ENDBRANCH  18  19
ENDBRANCH  17  18
ENDBRANCH  16  17
ENDBRANCH  15  16
ENDBRANCH  14  15
ENDBRANCH  13  14
ENDBRANCH   1  13
TORSDOF 20
ENDMDL
MODEL 7
REMARK VINA RESULT:    -2.769      3.854      7.200
REMARK INTER + INTRA:         -10.088
REMARK INTER:                  -6.637
REMARK INTRA:                  -3.451
REMARK UNBOUND:                -4.083
REMARK SMILES CCCCCCCCCCCCCCCCCCCCCC(=O)[O-]
REMARK SMILES IDX 12 1 11 2 10 3 9 4 8 5 7 6 6 7 5 8 4 9 3 10 2 11 1 12 13 13
REMARK SMILES IDX 14 14 15 15 16 16 17 17 18 18 19 19 20 20 21 21 22 22 23 23
REMARK SMILES IDX 24 24
REMARK H PARENT
REMARK Flexibility Score: inf
ROOT
ATOM      1  C   UNL     1      56.540  26.410  50.827  1.00  0.00     0.000 C 
ENDROOT
BRANCH   1   2
ATOM      2  C   UNL     1      55.112  25.900  50.565  1.00  0.00     0.000 C 
BRANCH   2   3
ATOM      3  C   UNL     1      54.290  26.859  49.685  1.00  0.00     0.000 C 
BRANCH   3   4
ATOM      4  C   UNL     1      53.219  27.676  50.433  1.00  0.00    -0.000 C 
BRANCH   4   5
ATOM      5  C   UNL     1      53.293  29.196  50.168  1.00  0.00    -0.000 C 
BRANCH   5   6
ATOM      6  C   UNL     1      53.931  29.961  51.342  1.00  0.00    -0.000 C 
BRANCH   6   7
ATOM      7  C   UNL     1      54.035  29.114  52.625  1.00  0.00    -0.000 C 
BRANCH   7   8
ATOM      8  C   UNL     1      55.228  29.458  53.536  1.00  0.00    -0.000 C 
BRANCH   8   9
ATOM      9  C   UNL     1      56.026  28.214  53.965  1.00  0.00    -0.000 C 
BRANCH   9  10
ATOM     10  C   UNL     1      55.125  26.996  54.255  1.00  0.00    -0.000 C 
BRANCH  10  11
ATOM     11  C   UNL     1      55.868  25.655  54.401  1.00  0.00    -0.003 C 
ATOM     12  C   UNL     1      57.389  25.810  54.385  1.00  0.00     0.004 C 
ENDBRANCH  10  11
ENDBRANCH   9  10
ENDBRANCH   8   9
ENDBRANCH   7   8
ENDBRANCH   6   7
ENDBRANCH   5   6
ENDBRANCH   4   5
ENDBRANCH   3   4
ENDBRANCH   2   3
ENDBRANCH   1   2
BRANCH   1  13
ATOM     13  C   UNL     1      56.791  27.811  50.236  1.00  0.00     0.000 C 
BRANCH  13  14
ATOM     14  C   UNL     1      57.948  28.595  50.885  1.00  0.00     0.000 C 
BRANCH  14  15
ATOM     15  C   UNL     1      58.890  29.232  49.849  1.00  0.00     0.000 C 
BRANCH  15  16
ATOM     16  C   UNL     1      59.671  28.192  49.025  1.00  0.00     0.000 C 
BRANCH  16  17
ATOM     17  C   UNL     1      60.714  27.377  49.812  1.00  0.00     0.000 C 
BRANCH  17  18
ATOM     18  C   UNL     1      60.418  25.867  49.820  1.00  0.00     0.000 C 
BRANCH  18  19
ATOM     19  C   UNL     1      59.947  25.371  51.197  1.00  0.00     0.000 C 
BRANCH  19  20
ATOM     20  C   UNL     1      60.185  23.863  51.390  1.00  0.00     0.006 C 
BRANCH  20  21
ATOM     21  C   UNL     1      61.258  23.317  50.439  1.00  0.00     0.053 C 
BRANCH  21  22
ATOM     22  C   UNL     1      60.893  21.967  49.901  1.00  0.00     0.041 C 
ATOM     23  O   UNL     1      60.618  21.023  50.690  1.00  0.00    -0.550 OA
ATOM     24  O   UNL     1      60.813  21.763  48.529  1.00  0.00    -0.550 OA
ENDBRANCH  21  22
ENDBRANCH  20  21
ENDBRANCH  19  20
ENDBRANCH  18  19
ENDBRANCH  17  18
ENDBRANCH  16  17
ENDBRANCH  15  16
ENDBRANCH  14  15
ENDBRANCH  13  14
ENDBRANCH   1  13
TORSDOF 20
ENDMDL
MODEL 8
REMARK VINA RESULT:    -2.753      9.841     12.763
REMARK INTER + INTRA:         -10.053
REMARK INTER:                  -5.988
REMARK INTRA:                  -4.065
REMARK UNBOUND:                -4.083
REMARK SMILES CCCCCCCCCCCCCCCCCCCCCC(=O)[O-]
REMARK SMILES IDX 12 1 11 2 10 3 9 4 8 5 7 6 6 7 5 8 4 9 3 10 2 11 1 12 13 13
REMARK SMILES IDX 14 14 15 15 16 16 17 17 18 18 19 19 20 20 21 21 22 22 23 23
REMARK SMILES IDX 24 24
REMARK H PARENT
REMARK Flexibility Score: inf
ROOT
ATOM      1  C   UNL     1      63.968  28.525  58.407  1.00  0.00     0.000 C 
ENDROOT
BRANCH   1   2
ATOM      2  C   UNL     1      64.340  28.749  59.884  1.00  0.00     0.000 C 
BRANCH   2   3
ATOM      3  C   UNL     1      64.322  30.236  60.281  1.00  0.00     0.000 C 
BRANCH   3   4
ATOM      4  C   UNL     1      63.652  30.543  61.634  1.00  0.00    -0.000 C 
BRANCH   4   5
ATOM      5  C   UNL     1      62.213  29.997  61.759  1.00  0.00    -0.000 C 
BRANCH   5   6
ATOM      6  C   UNL     1      61.155  31.104  61.605  1.00  0.00    -0.000 C 
BRANCH   6   7
ATOM      7  C   UNL     1      60.768  31.365  60.137  1.00  0.00    -0.000 C 
BRANCH   7   8
ATOM      8  C   UNL     1      61.277  32.697  59.557  1.00  0.00    -0.000 C 
BRANCH   8   9
ATOM      9  C   UNL     1      61.645  33.719  60.648  1.00  0.00    -0.000 C 
BRANCH   9  10
ATOM     10  C   UNL     1      62.903  34.539  60.299  1.00  0.00    -0.000 C 
BRANCH  10  11
ATOM     11  C   UNL     1      64.175  34.142  61.072  1.00  0.00    -0.003 C 
ATOM     12  C   UNL     1      64.876  35.333  61.723  1.00  0.00     0.004 C 
ENDBRANCH  10  11
ENDBRANCH   9  10
ENDBRANCH   8   9
ENDBRANCH   7   8
ENDBRANCH   6   7
ENDBRANCH   5   6
ENDBRANCH   4   5
ENDBRANCH   3   4
ENDBRANCH   2   3
ENDBRANCH   1   2
BRANCH   1  13
ATOM     13  C   UNL     1      63.004  29.597  57.865  1.00  0.00     0.000 C 
BRANCH  13  14
ATOM     14  C   UNL     1      63.492  30.335  56.604  1.00  0.00     0.000 C 
BRANCH  14  15
ATOM     15  C   UNL     1      63.217  31.849  56.656  1.00  0.00     0.000 C 
BRANCH  15  16
ATOM     16  C   UNL     1      64.328  32.638  57.375  1.00  0.00     0.000 C 
BRANCH  16  17
ATOM     17  C   UNL     1      65.755  32.388  56.856  1.00  0.00     0.000 C 
BRANCH  17  18
ATOM     18  C   UNL     1      66.708  31.859  57.943  1.00  0.00     0.000 C 
BRANCH  18  19
ATOM     19  C   UNL     1      67.090  30.387  57.719  1.00  0.00     0.000 C 
BRANCH  19  20
ATOM     20  C   UNL     1      67.928  29.816  58.877  1.00  0.00     0.006 C 
BRANCH  20  21
ATOM     21  C   UNL     1      67.818  28.290  58.979  1.00  0.00     0.053 C 
BRANCH  21  22
ATOM     22  C   UNL     1      67.906  27.816  60.397  1.00  0.00     0.041 C 
ATOM     23  O   UNL     1      67.529  28.563  61.340  1.00  0.00    -0.550 OA
ATOM     24  O   UNL     1      68.361  26.533  60.676  1.00  0.00    -0.550 OA
ENDBRANCH  21  22
ENDBRANCH  20  21
ENDBRANCH  19  20
ENDBRANCH  18  19
ENDBRANCH  17  18
ENDBRANCH  16  17
ENDBRANCH  15  16
ENDBRANCH  14  15
ENDBRANCH  13  14
ENDBRANCH   1  13
TORSDOF 20
ENDMDL
MODEL 9
REMARK VINA RESULT:    -2.723      9.064     11.596
REMARK INTER + INTRA:          -9.989
REMARK INTER:                  -5.964
REMARK INTRA:                  -4.025
REMARK UNBOUND:                -4.083
REMARK SMILES CCCCCCCCCCCCCCCCCCCCCC(=O)[O-]
REMARK SMILES IDX 12 1 11 2 10 3 9 4 8 5 7 6 6 7 5 8 4 9 3 10 2 11 1 12 13 13
REMARK SMILES IDX 14 14 15 15 16 16 17 17 18 18 19 19 20 20 21 21 22 22 23 23
REMARK SMILES IDX 24 24
REMARK H PARENT
REMARK Flexibility Score: inf
ROOT
ATOM      1  C   UNL     1      63.429  32.199  57.265  1.00  0.00     0.000 C 
ENDROOT
BRANCH   1   2
ATOM      2  C   UNL     1      62.504  31.165  57.932  1.00  0.00     0.000 C 
BRANCH   2   3
ATOM      3  C   UNL     1      61.058  31.670  58.081  1.00  0.00     0.000 C 
BRANCH   3   4
ATOM      4  C   UNL     1      60.366  31.292  59.405  1.00  0.00    -0.000 C 
BRANCH   4   5
ATOM      5  C   UNL     1      61.052  31.876  60.659  1.00  0.00    -0.000 C 
BRANCH   5   6
ATOM      6  C   UNL     1      61.262  30.815  61.755  1.00  0.00    -0.000 C 
BRANCH   6   7
ATOM      7  C   UNL     1      62.696  30.253  61.780  1.00  0.00    -0.000 C 
BRANCH   7   8
ATOM      8  C   UNL     1      62.857  28.855  61.153  1.00  0.00    -0.000 C 
BRANCH   8   9
ATOM      9  C   UNL     1      64.084  28.757  60.228  1.00  0.00    -0.000 C 
BRANCH   9  10
ATOM     10  C   UNL     1      65.257  29.643  60.695  1.00  0.00    -0.000 C 
BRANCH  10  11
ATOM     11  C   UNL     1      66.500  29.609  59.788  1.00  0.00    -0.003 C 
ATOM     12  C   UNL     1      66.206  29.064  58.391  1.00  0.00     0.004 C 
ENDBRANCH  10  11
ENDBRANCH   9  10
ENDBRANCH   8   9
ENDBRANCH   7   8
ENDBRANCH   6   7
ENDBRANCH   5   6
ENDBRANCH   4   5
ENDBRANCH   3   4
ENDBRANCH   2   3
ENDBRANCH   1   2
BRANCH   1  13
ATOM     13  C   UNL     1      64.719  32.453  58.068  1.00  0.00     0.000 C 
BRANCH  13  14
ATOM     14  C   UNL     1      64.659  33.646  59.040  1.00  0.00     0.000 C 
BRANCH  14  15
ATOM     15  C   UNL     1      64.523  33.211  60.510  1.00  0.00     0.000 C 
BRANCH  15  16
ATOM     16  C   UNL     1      63.745  34.226  61.368  1.00  0.00     0.000 C 
BRANCH  16  17
ATOM     17  C   UNL     1      63.946  35.703  60.985  1.00  0.00     0.000 C 
BRANCH  17  18
ATOM     18  C   UNL     1      62.620  36.468  60.819  1.00  0.00     0.000 C 
BRANCH  18  19
ATOM     19  C   UNL     1      61.457  35.543  60.423  1.00  0.00     0.000 C 
BRANCH  19  20
ATOM     20  C   UNL     1      61.361  35.342  58.901  1.00  0.00     0.006 C 
BRANCH  20  21
ATOM     21  C   UNL     1      59.911  35.195  58.423  1.00  0.00     0.053 C 
BRANCH  21  22
ATOM     22  C   UNL     1      59.790  35.375  56.940  1.00  0.00     0.041 C 
ATOM     23  O   UNL     1      59.643  34.374  56.189  1.00  0.00    -0.550 OA
ATOM     24  O   UNL     1      59.794  36.652  56.392  1.00  0.00    -0.550 OA
ENDBRANCH  21  22
ENDBRANCH  20  21
ENDBRANCH  19  20
ENDBRANCH  18  19
ENDBRANCH  17  18
ENDBRANCH  16  17
ENDBRANCH  15  16
ENDBRANCH  14  15
ENDBRANCH  13  14
ENDBRANCH   1  13
TORSDOF 20
ENDMDL
