MODEL 1
REMARK VINA RESULT:    -4.238      0.000      0.000
REMARK INTER + INTRA:         -11.064
REMARK INTER:                  -8.946
REMARK INTRA:                  -2.118
REMARK UNBOUND:                -2.118
REMARK SMILES CCC(=O)CCCCC[C@H]1NC(=O)[C@@H]2CCCCN2C(=O)[C@@H]([C@H](C)CC)NC(=O)[C@H](Cc2cn(OC)c3ccccc23)NC1=O
REMARK SMILES IDX 9 1 10 2 44 3 43 4 45 6 30 7 28 8 27 9 29 11 22 12 23 14
REMARK SMILES IDX 24 15 25 16 26 17 31 18 32 19 33 20 42 21 34 22 37 23 41 24
REMARK SMILES IDX 38 25 40 26 39 27 35 28 36 29 11 30 12 31 13 33 14 34 19 35
REMARK SMILES IDX 15 36 18 37 16 38 17 39 20 40 21 41 8 43 7 44 6 45 5 46 3 47
REMARK SMILES IDX 4 48 2 49 1 50
REMARK H PARENT 43 5 27 10 11 32
REMARK Flexibility Score: 80.00
ROOT
ATOM      1  C   UNL     1      64.253  28.622  48.181  1.00  0.00     0.035 C 
ENDROOT
BRANCH   1   2
ATOM      2  C   UNL     1      64.411  29.549  49.408  1.00  0.00     0.171 C 
BRANCH   2   3
ATOM      3  C   UNL     1      63.399  29.264  50.491  1.00  0.00     0.243 C 
ATOM      4  N   UNL     1      61.987  29.376  50.237  1.00  0.00    -0.342 N 
ATOM      5  H   UNL     1      61.648  29.229  49.261  1.00  0.00     0.164 HD
ATOM      6  O   UNL     1      63.808  28.942  51.639  1.00  0.00    -0.273 OA
BRANCH   4   7
ATOM      7  C   UNL     1      61.040  29.984  51.182  1.00  0.00     0.175 C 
BRANCH   7   8
ATOM      8  C   UNL     1      61.626  31.266  51.724  1.00  0.00     0.243 C 
ATOM      9  N   UNL     1      61.521  32.486  50.977  1.00  0.00    -0.342 N 
ATOM     10  H   UNL     1      60.868  32.497  50.163  1.00  0.00     0.164 HD
ATOM     11  O   UNL     1      62.258  31.249  52.818  1.00  0.00    -0.273 OA
BRANCH   9  12
ATOM     12  C   UNL     1      62.541  33.536  51.082  1.00  0.00     0.174 CG0
ATOM     13  G   UNL     1      63.244  33.673  49.741  1.00  0.00     0.000 G0
BRANCH  12  14
ATOM     14  C   UNL     1      61.928  34.872  51.614  1.00  0.00     0.018 C 
ATOM     15  C   UNL     1      62.440  35.287  53.011  1.00  0.00     0.010 C 
BRANCH  14  16
ATOM     16  C   UNL     1      60.380  34.812  51.589  1.00  0.00     0.002 C 
ATOM     17  C   UNL     1      59.738  35.158  52.936  1.00  0.00     0.004 C 
ENDBRANCH  14  16
ENDBRANCH  12  14
ENDBRANCH   9  12
ENDBRANCH   7   8
BRANCH   7  18
ATOM     18  C   UNL     1      60.638  29.008  52.306  1.00  0.00     0.073 C 
BRANCH  18  19
ATOM     19  C   UNL     1      59.957  27.785  51.761  1.00  0.00    -0.016 A 
ATOM     20  C   UNL     1      60.568  26.563  51.495  1.00  0.00     0.134 A 
ATOM     21  C   UNL     1      58.633  27.639  51.373  1.00  0.00     0.006 A 
ATOM     22  N   UNL     1      59.662  25.696  50.991  1.00  0.00    -0.191 N 
ATOM     23  C   UNL     1      58.492  26.355  50.903  1.00  0.00     0.087 A 
ATOM     24  C   UNL     1      57.563  28.535  51.388  1.00  0.00     0.011 A 
ATOM     25  C   UNL     1      57.281  25.897  50.375  1.00  0.00     0.030 A 
ATOM     26  C   UNL     1      56.328  28.094  50.881  1.00  0.00     0.001 A 
ATOM     27  C   UNL     1      56.188  26.782  50.375  1.00  0.00     0.002 A 
BRANCH  22  28
ATOM     28  O   UNL     1      59.924  24.383  50.651  1.00  0.00    -0.417 OA
ATOM     29  C   UNL     1      59.517  23.305  51.487  1.00  0.00     0.313 C 
ENDBRANCH  22  28
ENDBRANCH  18  19
ENDBRANCH   7  18
ENDBRANCH   4   7
ENDBRANCH   2   3
BRANCH   2  30
ATOM     30  N   UNL     1      64.389  30.980  49.061  1.00  0.00    -0.343 N 
ATOM     31  C   UNL     1      65.540  31.812  48.809  1.00  0.00     0.243 C 
ATOM     32  H   UNL     1      63.446  31.382  48.862  1.00  0.00     0.164 HD
ATOM     33  O   UNL     1      66.701  31.322  48.820  1.00  0.00    -0.273 OA
BRANCH  31  34
ATOM     34  C   UNL     1      65.391  33.284  48.509  1.00  0.00     0.174 C 
ATOM     35  N   UNL     1      64.654  33.973  49.592  1.00  0.00    -0.329 N 
ATOM     36  C   UNL     1      66.733  33.949  48.128  1.00  0.00     0.035 C 
ATOM     37  C   UNL     1      65.356  34.756  50.627  1.00  0.00     0.120 C 
ATOM     38  C   UNL     1      67.478  34.573  49.307  1.00  0.00     0.004 C 
ATOM     39  C   UNL     1      66.555  35.516  50.065  1.00  0.00     0.022 C 
BRANCH  35  40
ATOM     40  C   UNL     1      63.243  33.679  49.736  1.00  0.00     0.246 CG0
ATOM     41  O   UNL     1      62.568  33.398  48.707  1.00  0.00    -0.272 OA
ATOM     42  G   UNL     1      62.572  33.545  51.093  1.00  0.00     0.000 G0
ENDBRANCH  35  40
ENDBRANCH  31  34
ENDBRANCH   2  30
ENDBRANCH   1   2
BRANCH   1  43
ATOM     43  C   UNL     1      65.489  27.736  47.958  1.00  0.00     0.003 C 
BRANCH  43  44
ATOM     44  C   UNL     1      66.617  28.048  48.959  1.00  0.00     0.001 C 
BRANCH  44  45
ATOM     45  C   UNL     1      66.997  26.876  49.888  1.00  0.00     0.008 C 
BRANCH  45  46
ATOM     46  C   UNL     1      65.797  26.076  50.425  1.00  0.00     0.075 C 
BRANCH  46  47
ATOM     47  C   UNL     1      65.777  24.657  49.910  1.00  0.00     0.132 C 
ATOM     48  O   UNL     1      66.655  24.284  49.147  1.00  0.00    -0.300 OA
BRANCH  47  49
ATOM     49  C   UNL     1      64.733  23.673  50.373  1.00  0.00     0.072 C 
ATOM     50  C   UNL     1      63.365  24.334  50.533  1.00  0.00     0.012 C 
ENDBRANCH  47  49
ENDBRANCH  46  47
ENDBRANCH  45  46
ENDBRANCH  44  45
ENDBRANCH  43  44
ENDBRANCH   1  43
TORSDOF 12
ENDMDL
MODEL 2
REMARK VINA RESULT:    -4.178      2.999      6.409
REMARK INTER + INTRA:         -10.936
REMARK INTER:                  -9.106
REMARK INTRA:                  -1.830
REMARK UNBOUND:                -2.118
REMARK SMILES CCC(=O)CCCCC[C@H]1NC(=O)[C@@H]2CCCCN2C(=O)[C@@H]([C@H](C)CC)NC(=O)[C@H](Cc2cn(OC)c3ccccc23)NC1=O
REMARK SMILES IDX 9 1 10 2 44 3 43 4 45 6 30 7 28 8 27 9 29 11 22 12 23 14
REMARK SMILES IDX 24 15 25 16 26 17 31 18 32 19 33 20 42 21 34 22 37 23 41 24
REMARK SMILES IDX 38 25 40 26 39 27 35 28 36 29 11 30 12 31 13 33 14 34 19 35
REMARK SMILES IDX 15 36 18 37 16 38 17 39 20 40 21 41 8 43 7 44 6 45 5 46 3 47
REMARK SMILES IDX 4 48 2 49 1 50
REMARK H PARENT 43 5 27 10 11 32
REMARK Flexibility Score: 80.00
ROOT
ATOM      1  C   UNL     1      59.722  27.420  49.613  1.00  0.00     0.035 C 
ENDROOT
BRANCH   1   2
ATOM      2  C   UNL     1      60.774  27.885  50.646  1.00  0.00     0.171 C 
BRANCH   2   3
ATOM      3  C   UNL     1      60.158  28.574  51.839  1.00  0.00     0.243 C 
ATOM      4  N   UNL     1      59.330  29.741  51.678  1.00  0.00    -0.342 N 
ATOM      5  H   UNL     1      58.813  29.858  50.779  1.00  0.00     0.164 HD
ATOM      6  O   UNL     1      60.393  28.125  52.993  1.00  0.00    -0.273 OA
BRANCH   4   7
ATOM      7  C   UNL     1      59.409  30.917  52.555  1.00  0.00     0.175 C 
BRANCH   7   8
ATOM      8  C   UNL     1      60.857  31.221  52.857  1.00  0.00     0.243 C 
ATOM      9  N   UNL     1      61.682  31.875  51.881  1.00  0.00    -0.342 N 
ATOM     10  H   UNL     1      61.206  32.301  51.057  1.00  0.00     0.164 HD
ATOM     11  O   UNL     1      61.356  30.848  53.956  1.00  0.00    -0.273 OA
BRANCH   9  12
ATOM     12  C   UNL     1      63.127  31.631  51.817  1.00  0.00     0.174 CG0
ATOM     13  G   UNL     1      63.497  31.240  50.396  1.00  0.00     0.000 G0
BRANCH  12  14
ATOM     14  C   UNL     1      63.933  32.853  52.367  1.00  0.00     0.018 C 
ATOM     15  C   UNL     1      64.559  32.619  53.759  1.00  0.00     0.010 C 
BRANCH  14  16
ATOM     16  C   UNL     1      63.060  34.132  52.362  1.00  0.00     0.002 C 
ATOM     17  C   UNL     1      63.279  35.011  51.126  1.00  0.00     0.004 C 
ENDBRANCH  14  16
ENDBRANCH  12  14
ENDBRANCH   9  12
ENDBRANCH   7   8
BRANCH   7  18
ATOM     18  C   UNL     1      58.572  30.739  53.837  1.00  0.00     0.073 C 
BRANCH  18  19
ATOM     19  C   UNL     1      57.264  31.472  53.753  1.00  0.00    -0.016 A 
ATOM     20  C   UNL     1      56.000  30.892  53.820  1.00  0.00     0.134 A 
ATOM     21  C   UNL     1      57.049  32.826  53.544  1.00  0.00     0.006 A 
ATOM     22  N   UNL     1      55.051  31.843  53.685  1.00  0.00    -0.191 N 
ATOM     23  C   UNL     1      55.687  33.014  53.502  1.00  0.00     0.087 A 
ATOM     24  C   UNL     1      57.940  33.887  53.378  1.00  0.00     0.011 A 
ATOM     25  C   UNL     1      55.129  34.270  53.245  1.00  0.00     0.030 A 
ATOM     26  C   UNL     1      57.404  35.166  53.139  1.00  0.00     0.001 A 
ATOM     27  C   UNL     1      56.006  35.356  53.071  1.00  0.00     0.002 A 
BRANCH  22  28
ATOM     28  O   UNL     1      53.689  31.618  53.740  1.00  0.00    -0.417 OA
ATOM     29  C   UNL     1      53.156  30.425  54.304  1.00  0.00     0.313 C 
ENDBRANCH  22  28
ENDBRANCH  18  19
ENDBRANCH   7  18
ENDBRANCH   4   7
ENDBRANCH   2   3
BRANCH   2  30
ATOM     30  N   UNL     1      61.827  28.732  50.062  1.00  0.00    -0.343 N 
ATOM     31  C   UNL     1      63.091  28.278  49.538  1.00  0.00     0.243 C 
ATOM     32  H   UNL     1      61.568  29.732  49.907  1.00  0.00     0.164 HD
ATOM     33  O   UNL     1      63.366  27.049  49.499  1.00  0.00    -0.273 OA
BRANCH  31  34
ATOM     34  C   UNL     1      64.115  29.254  49.007  1.00  0.00     0.174 C 
ATOM     35  N   UNL     1      64.472  30.258  50.035  1.00  0.00    -0.329 N 
ATOM     36  C   UNL     1      65.327  28.546  48.360  1.00  0.00     0.035 C 
ATOM     37  C   UNL     1      65.711  30.146  50.827  1.00  0.00     0.120 C 
ATOM     38  C   UNL     1      66.495  28.306  49.315  1.00  0.00     0.004 C 
ATOM     39  C   UNL     1      66.879  29.609  50.003  1.00  0.00     0.022 C 
BRANCH  35  40
ATOM     40  C   UNL     1      63.466  31.236  50.395  1.00  0.00     0.246 CG0
ATOM     41  O   UNL     1      62.734  31.724  49.489  1.00  0.00    -0.272 OA
ATOM     42  G   UNL     1      63.150  31.589  51.839  1.00  0.00     0.000 G0
ENDBRANCH  35  40
ENDBRANCH  31  34
ENDBRANCH   2  30
ENDBRANCH   1   2
BRANCH   1  43
ATOM     43  C   UNL     1      58.368  27.097  50.266  1.00  0.00     0.003 C 
BRANCH  43  44
ATOM     44  C   UNL     1      58.050  25.591  50.229  1.00  0.00     0.001 C 
BRANCH  44  45
ATOM     45  C   UNL     1      56.797  25.178  51.031  1.00  0.00     0.008 C 
BRANCH  45  46
ATOM     46  C   UNL     1      55.842  26.339  51.361  1.00  0.00     0.075 C 
BRANCH  46  47
ATOM     47  C   UNL     1      54.644  26.374  50.444  1.00  0.00     0.132 C 
ATOM     48  O   UNL     1      54.174  25.325  50.031  1.00  0.00    -0.300 OA
BRANCH  47  49
ATOM     49  C   UNL     1      53.974  27.677  50.084  1.00  0.00     0.072 C 
ATOM     50  C   UNL     1      54.662  28.868  50.748  1.00  0.00     0.012 C 
ENDBRANCH  47  49
ENDBRANCH  46  47
ENDBRANCH  45  46
ENDBRANCH  44  45
ENDBRANCH  43  44
ENDBRANCH   1  43
TORSDOF 12
ENDMDL
MODEL 3
REMARK VINA RESULT:    -3.787      1.457      1.936
REMARK INTER + INTRA:         -10.112
REMARK INTER:                  -9.080
REMARK INTRA:                  -1.033
REMARK UNBOUND:                -2.118
REMARK SMILES CCC(=O)CCCCC[C@H]1NC(=O)[C@@H]2CCCCN2C(=O)[C@@H]([C@H](C)CC)NC(=O)[C@H](Cc2cn(OC)c3ccccc23)NC1=O
REMARK SMILES IDX 9 1 10 2 44 3 43 4 45 6 30 7 28 8 27 9 29 11 22 12 23 14
REMARK SMILES IDX 24 15 25 16 26 17 31 18 32 19 33 20 42 21 34 22 37 23 41 24
REMARK SMILES IDX 38 25 40 26 39 27 35 28 36 29 11 30 12 31 13 33 14 34 19 35
REMARK SMILES IDX 15 36 18 37 16 38 17 39 20 40 21 41 8 43 7 44 6 45 5 46 3 47
REMARK SMILES IDX 4 48 2 49 1 50
REMARK H PARENT 43 5 27 10 11 32
REMARK Flexibility Score: 80.00
ROOT
ATOM      1  C   UNL     1      64.224  28.289  48.069  1.00  0.00     0.035 C 
ENDROOT
BRANCH   1   2
ATOM      2  C   UNL     1      64.357  29.266  49.259  1.00  0.00     0.171 C 
BRANCH   2   3
ATOM      3  C   UNL     1      63.341  29.007  50.346  1.00  0.00     0.243 C 
ATOM      4  N   UNL     1      61.948  29.310  50.148  1.00  0.00    -0.342 N 
ATOM      5  H   UNL     1      61.573  29.294  49.174  1.00  0.00     0.164 HD
ATOM      6  O   UNL     1      63.732  28.534  51.446  1.00  0.00    -0.273 OA
BRANCH   4   7
ATOM      7  C   UNL     1      61.103  29.938  51.173  1.00  0.00     0.175 C 
BRANCH   7   8
ATOM      8  C   UNL     1      61.816  31.140  51.743  1.00  0.00     0.243 C 
ATOM      9  N   UNL     1      61.317  32.464  51.501  1.00  0.00    -0.342 N 
ATOM     10  H   UNL     1      60.359  32.551  51.098  1.00  0.00     0.164 HD
ATOM     11  O   UNL     1      62.888  30.979  52.392  1.00  0.00    -0.273 OA
BRANCH   9  12
ATOM     12  C   UNL     1      62.219  33.620  51.442  1.00  0.00     0.174 CG0
ATOM     13  G   UNL     1      62.893  33.648  50.080  1.00  0.00     0.000 G0
BRANCH  12  14
ATOM     14  C   UNL     1      61.468  34.943  51.803  1.00  0.00     0.018 C 
ATOM     15  C   UNL     1      62.176  35.794  52.881  1.00  0.00     0.010 C 
BRANCH  14  16
ATOM     16  C   UNL     1      60.002  34.649  52.206  1.00  0.00     0.002 C 
ATOM     17  C   UNL     1      59.641  35.166  53.603  1.00  0.00     0.004 C 
ENDBRANCH  14  16
ENDBRANCH  12  14
ENDBRANCH   9  12
ENDBRANCH   7   8
BRANCH   7  18
ATOM     18  C   UNL     1      60.683  28.937  52.268  1.00  0.00     0.073 C 
BRANCH  18  19
ATOM     19  C   UNL     1      59.924  27.774  51.696  1.00  0.00    -0.016 A 
ATOM     20  C   UNL     1      60.473  26.555  51.307  1.00  0.00     0.134 A 
ATOM     21  C   UNL     1      58.572  27.694  51.396  1.00  0.00     0.006 A 
ATOM     22  N   UNL     1      59.505  25.752  50.815  1.00  0.00    -0.191 N 
ATOM     23  C   UNL     1      58.354  26.449  50.856  1.00  0.00     0.087 A 
ATOM     24  C   UNL     1      57.537  28.618  51.547  1.00  0.00     0.011 A 
ATOM     25  C   UNL     1      57.095  26.064  50.388  1.00  0.00     0.030 A 
ATOM     26  C   UNL     1      56.254  28.248  51.103  1.00  0.00     0.001 A 
ATOM     27  C   UNL     1      56.035  26.978  50.525  1.00  0.00     0.002 A 
BRANCH  22  28
ATOM     28  O   UNL     1      59.697  24.457  50.372  1.00  0.00    -0.417 OA
ATOM     29  C   UNL     1      60.617  23.582  51.015  1.00  0.00     0.313 C 
ENDBRANCH  22  28
ENDBRANCH  18  19
ENDBRANCH   7  18
ENDBRANCH   4   7
ENDBRANCH   2   3
BRANCH   2  30
ATOM     30  N   UNL     1      64.315  30.682  48.857  1.00  0.00    -0.343 N 
ATOM     31  C   UNL     1      65.215  31.718  49.298  1.00  0.00     0.243 C 
ATOM     32  H   UNL     1      63.646  30.913  48.090  1.00  0.00     0.164 HD
ATOM     33  O   UNL     1      66.182  31.448  50.059  1.00  0.00    -0.273 OA
BRANCH  31  34
ATOM     34  C   UNL     1      65.039  33.150  48.850  1.00  0.00     0.174 C 
ATOM     35  N   UNL     1      64.304  33.936  49.867  1.00  0.00    -0.329 N 
ATOM     36  C   UNL     1      66.367  33.793  48.388  1.00  0.00     0.035 C 
ATOM     37  C   UNL     1      65.004  34.831  50.808  1.00  0.00     0.120 C 
ATOM     38  C   UNL     1      67.115  34.545  49.486  1.00  0.00     0.004 C 
ATOM     39  C   UNL     1      66.184  35.547  50.156  1.00  0.00     0.022 C 
BRANCH  35  40
ATOM     40  C   UNL     1      62.899  33.637  50.058  1.00  0.00     0.246 CG0
ATOM     41  O   UNL     1      62.213  33.261  49.068  1.00  0.00    -0.272 OA
ATOM     42  G   UNL     1      62.250  33.611  51.432  1.00  0.00     0.000 G0
ENDBRANCH  35  40
ENDBRANCH  31  34
ENDBRANCH   2  30
ENDBRANCH   1   2
BRANCH   1  43
ATOM     43  C   UNL     1      65.556  27.601  47.729  1.00  0.00     0.003 C 
BRANCH  43  44
ATOM     44  C   UNL     1      66.677  28.615  47.439  1.00  0.00     0.001 C 
BRANCH  44  45
ATOM     45  C   UNL     1      68.011  28.324  48.159  1.00  0.00     0.008 C 
BRANCH  45  46
ATOM     46  C   UNL     1      68.376  26.831  48.241  1.00  0.00     0.075 C 
BRANCH  46  47
ATOM     47  C   UNL     1      69.298  26.403  47.125  1.00  0.00     0.132 C 
ATOM     48  O   UNL     1      69.728  27.242  46.349  1.00  0.00    -0.300 OA
BRANCH  47  49
ATOM     49  C   UNL     1      69.752  24.971  46.992  1.00  0.00     0.072 C 
ATOM     50  C   UNL     1      70.596  24.533  48.188  1.00  0.00     0.012 C 
ENDBRANCH  47  49
ENDBRANCH  46  47
ENDBRANCH  45  46
ENDBRANCH  44  45
ENDBRANCH  43  44
ENDBRANCH   1  43
TORSDOF 12
ENDMDL
MODEL 4
REMARK VINA RESULT:    -3.758      2.639      6.381
REMARK INTER + INTRA:         -10.050
REMARK INTER:                  -6.666
REMARK INTRA:                  -3.384
REMARK UNBOUND:                -2.118
REMARK SMILES CCC(=O)CCCCC[C@H]1NC(=O)[C@@H]2CCCCN2C(=O)[C@@H]([C@H](C)CC)NC(=O)[C@H](Cc2cn(OC)c3ccccc23)NC1=O
REMARK SMILES IDX 9 1 10 2 44 3 43 4 45 6 30 7 28 8 27 9 29 11 22 12 23 14
REMARK SMILES IDX 24 15 25 16 26 17 31 18 32 19 33 20 42 21 34 22 37 23 41 24
REMARK SMILES IDX 38 25 40 26 39 27 35 28 36 29 11 30 12 31 13 33 14 34 19 35
REMARK SMILES IDX 15 36 18 37 16 38 17 39 20 40 21 41 8 43 7 44 6 45 5 46 3 47
REMARK SMILES IDX 4 48 2 49 1 50
REMARK H PARENT 43 5 27 10 11 32
REMARK Flexibility Score: 80.00
ROOT
ATOM      1  C   UNL     1      59.289  30.549  53.461  1.00  0.00     0.035 C 
ENDROOT
BRANCH   1   2
ATOM      2  C   UNL     1      59.819  30.405  52.015  1.00  0.00     0.171 C 
BRANCH   2   3
ATOM      3  C   UNL     1      59.531  29.047  51.420  1.00  0.00     0.243 C 
ATOM      4  N   UNL     1      60.093  27.852  51.991  1.00  0.00    -0.342 N 
ATOM      5  H   UNL     1      60.323  27.852  53.010  1.00  0.00     0.164 HD
ATOM      6  O   UNL     1      58.802  28.972  50.396  1.00  0.00    -0.273 OA
BRANCH   4   7
ATOM      7  C   UNL     1      60.648  26.754  51.188  1.00  0.00     0.175 C 
BRANCH   7   8
ATOM      8  C   UNL     1      61.752  27.286  50.307  1.00  0.00     0.243 C 
ATOM      9  N   UNL     1      63.028  27.630  50.867  1.00  0.00    -0.342 N 
ATOM     10  H   UNL     1      63.225  27.317  51.843  1.00  0.00     0.164 HD
ATOM     11  O   UNL     1      61.531  27.480  49.078  1.00  0.00    -0.273 OA
BRANCH   9  12
ATOM     12  C   UNL     1      63.861  28.685  50.280  1.00  0.00     0.174 CG0
ATOM     13  G   UNL     1      63.943  29.847  51.257  1.00  0.00     0.000 G0
BRANCH  12  14
ATOM     14  C   UNL     1      65.254  28.130  49.839  1.00  0.00     0.018 C 
ATOM     15  C   UNL     1      65.559  28.315  48.337  1.00  0.00     0.010 C 
BRANCH  14  16
ATOM     16  C   UNL     1      65.408  26.646  50.255  1.00  0.00     0.002 C 
ATOM     17  C   UNL     1      66.493  25.904  49.467  1.00  0.00     0.004 C 
ENDBRANCH  14  16
ENDBRANCH  12  14
ENDBRANCH   9  12
ENDBRANCH   7   8
BRANCH   7  18
ATOM     18  C   UNL     1      59.559  26.023  50.377  1.00  0.00     0.073 C 
BRANCH  18  19
ATOM     19  C   UNL     1      58.481  25.472  51.266  1.00  0.00    -0.016 A 
ATOM     20  C   UNL     1      58.666  24.556  52.298  1.00  0.00     0.134 A 
ATOM     21  C   UNL     1      57.116  25.711  51.211  1.00  0.00     0.006 A 
ATOM     22  N   UNL     1      57.478  24.263  52.870  1.00  0.00    -0.191 N 
ATOM     23  C   UNL     1      56.536  24.952  52.201  1.00  0.00     0.087 A 
ATOM     24  C   UNL     1      56.354  26.520  50.367  1.00  0.00     0.011 A 
ATOM     25  C   UNL     1      55.150  24.917  52.379  1.00  0.00     0.030 A 
ATOM     26  C   UNL     1      54.958  26.519  50.539  1.00  0.00     0.001 A 
ATOM     27  C   UNL     1      54.358  25.721  51.539  1.00  0.00     0.002 A 
BRANCH  22  28
ATOM     28  O   UNL     1      57.303  23.416  53.948  1.00  0.00    -0.417 OA
ATOM     29  C   UNL     1      57.254  22.003  53.781  1.00  0.00     0.313 C 
ENDBRANCH  22  28
ENDBRANCH  18  19
ENDBRANCH   7  18
ENDBRANCH   4   7
ENDBRANCH   2   3
BRANCH   2  30
ATOM     30  N   UNL     1      61.251  30.719  51.887  1.00  0.00    -0.343 N 
ATOM     31  C   UNL     1      61.842  32.033  51.948  1.00  0.00     0.243 C 
ATOM     32  H   UNL     1      61.894  29.896  51.875  1.00  0.00     0.164 HD
ATOM     33  O   UNL     1      61.131  33.046  52.181  1.00  0.00    -0.273 OA
BRANCH  31  34
ATOM     34  C   UNL     1      63.326  32.233  51.752  1.00  0.00     0.174 C 
ATOM     35  N   UNL     1      63.874  31.236  50.804  1.00  0.00    -0.329 N 
ATOM     36  C   UNL     1      63.686  33.698  51.413  1.00  0.00     0.035 C 
ATOM     37  C   UNL     1      64.139  31.575  49.393  1.00  0.00     0.120 C 
ATOM     38  C   UNL     1      63.754  33.996  49.917  1.00  0.00     0.004 C 
ATOM     39  C   UNL     1      64.673  32.996  49.229  1.00  0.00     0.022 C 
BRANCH  35  40
ATOM     40  C   UNL     1      63.939  29.858  51.244  1.00  0.00     0.246 CG0
ATOM     41  O   UNL     1      63.899  29.607  52.481  1.00  0.00    -0.272 OA
ATOM     42  G   UNL     1      63.900  28.688  50.274  1.00  0.00     0.000 G0
ENDBRANCH  35  40
ENDBRANCH  31  34
ENDBRANCH   2  30
ENDBRANCH   1   2
BRANCH   1  43
ATOM     43  C   UNL     1      58.062  31.471  53.542  1.00  0.00     0.003 C 
BRANCH  43  44
ATOM     44  C   UNL     1      56.799  30.717  53.998  1.00  0.00     0.001 C 
BRANCH  44  45
ATOM     45  C   UNL     1      56.304  29.636  53.015  1.00  0.00     0.008 C 
BRANCH  45  46
ATOM     46  C   UNL     1      55.952  28.290  53.674  1.00  0.00     0.075 C 
BRANCH  46  47
ATOM     47  C   UNL     1      57.025  27.819  54.626  1.00  0.00     0.132 C 
ATOM     48  O   UNL     1      58.091  27.425  54.178  1.00  0.00    -0.300 OA
BRANCH  47  49
ATOM     49  C   UNL     1      56.832  27.892  56.119  1.00  0.00     0.072 C 
ATOM     50  C   UNL     1      55.452  28.438  56.484  1.00  0.00     0.012 C 
ENDBRANCH  47  49
ENDBRANCH  46  47
ENDBRANCH  45  46
ENDBRANCH  44  45
ENDBRANCH  43  44
ENDBRANCH   1  43
TORSDOF 12
ENDMDL
MODEL 5
REMARK VINA RESULT:    -3.736      9.846     12.857
REMARK INTER + INTRA:         -10.004
REMARK INTER:                  -8.125
REMARK INTRA:                  -1.879
REMARK UNBOUND:                -2.118
REMARK SMILES CCC(=O)CCCCC[C@H]1NC(=O)[C@@H]2CCCCN2C(=O)[C@@H]([C@H](C)CC)NC(=O)[C@H](Cc2cn(OC)c3ccccc23)NC1=O
REMARK SMILES IDX 9 1 10 2 44 3 43 4 45 6 30 7 28 8 27 9 29 11 22 12 23 14
REMARK SMILES IDX 24 15 25 16 26 17 31 18 32 19 33 20 42 21 34 22 37 23 41 24
REMARK SMILES IDX 38 25 40 26 39 27 35 28 36 29 11 30 12 31 13 33 14 34 19 35
REMARK SMILES IDX 15 36 18 37 16 38 17 39 20 40 21 41 8 43 7 44 6 45 5 46 3 47
REMARK SMILES IDX 4 48 2 49 1 50
REMARK H PARENT 43 5 27 10 11 32
REMARK Flexibility Score: 80.00
ROOT
ATOM      1  C   UNL     1      61.277  29.967  61.816  1.00  0.00     0.035 C 
ENDROOT
BRANCH   1   2
ATOM      2  C   UNL     1      61.418  28.931  60.678  1.00  0.00     0.171 C 
BRANCH   2   3
ATOM      3  C   UNL     1      60.113  28.252  60.338  1.00  0.00     0.243 C 
ATOM      4  N   UNL     1      59.276  27.695  61.368  1.00  0.00    -0.342 N 
ATOM      5  H   UNL     1      59.326  28.112  62.324  1.00  0.00     0.164 HD
ATOM      6  O   UNL     1      59.769  28.159  59.130  1.00  0.00    -0.273 OA
BRANCH   4   7
ATOM      7  C   UNL     1      58.596  26.399  61.246  1.00  0.00     0.175 C 
BRANCH   7   8
ATOM      8  C   UNL     1      59.469  25.447  60.463  1.00  0.00     0.243 C 
ATOM      9  N   UNL     1      60.669  24.916  61.045  1.00  0.00    -0.342 N 
ATOM     10  H   UNL     1      60.807  25.049  62.070  1.00  0.00     0.164 HD
ATOM     11  O   UNL     1      59.166  25.161  59.271  1.00  0.00    -0.273 OA
BRANCH   9  12
ATOM     12  C   UNL     1      61.825  24.557  60.215  1.00  0.00     0.174 CG0
ATOM     13  G   UNL     1      63.095  24.985  60.931  1.00  0.00     0.000 G0
BRANCH  12  14
ATOM     14  C   UNL     1      61.796  23.043  59.827  1.00  0.00     0.018 C 
ATOM     15  C   UNL     1      61.488  22.780  58.337  1.00  0.00     0.010 C 
BRANCH  14  16
ATOM     16  C   UNL     1      60.818  22.262  60.740  1.00  0.00     0.002 C 
ATOM     17  C   UNL     1      60.927  20.742  60.586  1.00  0.00     0.004 C 
ENDBRANCH  14  16
ENDBRANCH  12  14
ENDBRANCH   9  12
ENDBRANCH   7   8
BRANCH   7  18
ATOM     18  C   UNL     1      57.190  26.539  60.629  1.00  0.00     0.073 C 
BRANCH  18  19
ATOM     19  C   UNL     1      56.251  25.485  61.143  1.00  0.00    -0.016 A 
ATOM     20  C   UNL     1      55.804  25.361  62.455  1.00  0.00     0.134 A 
ATOM     21  C   UNL     1      55.694  24.419  60.451  1.00  0.00     0.006 A 
ATOM     22  N   UNL     1      54.991  24.288  62.565  1.00  0.00    -0.191 N 
ATOM     23  C   UNL     1      54.937  23.708  61.352  1.00  0.00     0.087 A 
ATOM     24  C   UNL     1      55.808  24.024  59.117  1.00  0.00     0.011 A 
ATOM     25  C   UNL     1      54.281  22.529  60.987  1.00  0.00     0.030 A 
ATOM     26  C   UNL     1      55.141  22.851  58.719  1.00  0.00     0.001 A 
ATOM     27  C   UNL     1      54.383  22.106  59.650  1.00  0.00     0.002 A 
BRANCH  22  28
ATOM     28  O   UNL     1      54.345  23.897  63.722  1.00  0.00    -0.417 OA
ATOM     29  C   UNL     1      54.922  22.943  64.607  1.00  0.00     0.313 C 
ENDBRANCH  22  28
ENDBRANCH  18  19
ENDBRANCH   7  18
ENDBRANCH   4   7
ENDBRANCH   2   3
BRANCH   2  30
ATOM     30  N   UNL     1      62.459  27.922  60.936  1.00  0.00    -0.343 N 
ATOM     31  C   UNL     1      63.819  27.961  60.455  1.00  0.00     0.243 C 
ATOM     32  H   UNL     1      62.211  27.185  61.631  1.00  0.00     0.164 HD
ATOM     33  O   UNL     1      64.236  28.945  59.789  1.00  0.00    -0.273 OA
BRANCH  31  34
ATOM     34  C   UNL     1      64.784  26.837  60.748  1.00  0.00     0.174 C 
ATOM     35  N   UNL     1      64.259  25.545  60.251  1.00  0.00    -0.329 N 
ATOM     36  C   UNL     1      66.224  27.159  60.285  1.00  0.00     0.035 C 
ATOM     37  C   UNL     1      64.724  24.958  58.981  1.00  0.00     0.120 C 
ATOM     38  C   UNL     1      66.552  26.670  58.876  1.00  0.00     0.004 C 
ATOM     39  C   UNL     1      66.215  25.191  58.747  1.00  0.00     0.022 C 
BRANCH  35  40
ATOM     40  C   UNL     1      63.116  24.978  60.937  1.00  0.00     0.246 CG0
ATOM     41  O   UNL     1      63.120  24.930  62.199  1.00  0.00    -0.272 OA
ATOM     42  G   UNL     1      61.844  24.576  60.209  1.00  0.00     0.000 G0
ENDBRANCH  35  40
ENDBRANCH  31  34
ENDBRANCH   2  30
ENDBRANCH   1   2
BRANCH   1  43
ATOM     43  C   UNL     1      61.095  31.397  61.283  1.00  0.00     0.003 C 
BRANCH  43  44
ATOM     44  C   UNL     1      61.500  31.522  59.803  1.00  0.00     0.001 C 
BRANCH  44  45
ATOM     45  C   UNL     1      61.796  32.962  59.335  1.00  0.00     0.008 C 
BRANCH  45  46
ATOM     46  C   UNL     1      61.344  34.056  60.319  1.00  0.00     0.075 C 
BRANCH  46  47
ATOM     47  C   UNL     1      62.508  34.816  60.907  1.00  0.00     0.132 C 
ATOM     48  O   UNL     1      62.382  36.005  61.155  1.00  0.00    -0.300 OA
BRANCH  47  49
ATOM     49  C   UNL     1      63.800  34.120  61.257  1.00  0.00     0.072 C 
ATOM     50  C   UNL     1      64.978  35.092  61.273  1.00  0.00     0.012 C 
ENDBRANCH  47  49
ENDBRANCH  46  47
ENDBRANCH  45  46
ENDBRANCH  44  45
ENDBRANCH  43  44
ENDBRANCH   1  43
TORSDOF 12
ENDMDL
MODEL 6
REMARK VINA RESULT:    -3.643      5.742      8.409
REMARK INTER + INTRA:          -9.808
REMARK INTER:                  -7.028
REMARK INTRA:                  -2.781
REMARK UNBOUND:                -2.118
REMARK SMILES CCC(=O)CCCCC[C@H]1NC(=O)[C@@H]2CCCCN2C(=O)[C@@H]([C@H](C)CC)NC(=O)[C@H](Cc2cn(OC)c3ccccc23)NC1=O
REMARK SMILES IDX 9 1 10 2 44 3 43 4 45 6 30 7 28 8 27 9 29 11 22 12 23 14
REMARK SMILES IDX 24 15 25 16 26 17 31 18 32 19 33 20 42 21 34 22 37 23 41 24
REMARK SMILES IDX 38 25 40 26 39 27 35 28 36 29 11 30 12 31 13 33 14 34 19 35
REMARK SMILES IDX 15 36 18 37 16 38 17 39 20 40 21 41 8 43 7 44 6 45 5 46 3 47
REMARK SMILES IDX 4 48 2 49 1 50
REMARK H PARENT 43 5 27 10 11 32
REMARK Flexibility Score: 80.00
ROOT
ATOM      1  C   UNL     1      65.770  31.407  56.101  1.00  0.00     0.035 C 
ENDROOT
BRANCH   1   2
ATOM      2  C   UNL     1      64.463  31.550  55.289  1.00  0.00     0.171 C 
BRANCH   2   3
ATOM      3  C   UNL     1      63.340  30.701  55.834  1.00  0.00     0.243 C 
ATOM      4  N   UNL     1      63.500  29.281  56.008  1.00  0.00    -0.342 N 
ATOM      5  H   UNL     1      64.461  28.909  56.175  1.00  0.00     0.164 HD
ATOM      6  O   UNL     1      62.243  31.249  56.119  1.00  0.00    -0.273 OA
BRANCH   4   7
ATOM      7  C   UNL     1      62.462  28.300  55.661  1.00  0.00     0.175 C 
BRANCH   7   8
ATOM      8  C   UNL     1      61.784  28.721  54.379  1.00  0.00     0.243 C 
ATOM      9  N   UNL     1      62.385  28.431  53.109  1.00  0.00    -0.342 N 
ATOM     10  H   UNL     1      63.185  27.761  53.097  1.00  0.00     0.164 HD
ATOM     11  O   UNL     1      60.707  29.380  54.431  1.00  0.00    -0.273 OA
BRANCH   9  12
ATOM     12  C   UNL     1      62.173  29.302  51.947  1.00  0.00     0.174 CG0
ATOM     13  G   UNL     1      63.522  29.793  51.449  1.00  0.00     0.000 G0
BRANCH  12  14
ATOM     14  C   UNL     1      61.316  28.588  50.852  1.00  0.00     0.018 C 
ATOM     15  C   UNL     1      59.799  28.856  50.966  1.00  0.00     0.010 C 
BRANCH  14  16
ATOM     16  C   UNL     1      61.608  27.067  50.833  1.00  0.00     0.002 C 
ATOM     17  C   UNL     1      60.356  26.212  50.616  1.00  0.00     0.004 C 
ENDBRANCH  14  16
ENDBRANCH  12  14
ENDBRANCH   9  12
ENDBRANCH   7   8
BRANCH   7  18
ATOM     18  C   UNL     1      61.456  28.092  56.810  1.00  0.00     0.073 C 
BRANCH  18  19
ATOM     19  C   UNL     1      62.141  28.036  58.145  1.00  0.00    -0.016 A 
ATOM     20  C   UNL     1      62.987  27.022  58.585  1.00  0.00     0.134 A 
ATOM     21  C   UNL     1      62.036  28.927  59.203  1.00  0.00     0.006 A 
ATOM     22  N   UNL     1      63.404  27.285  59.842  1.00  0.00    -0.191 N 
ATOM     23  C   UNL     1      62.815  28.433  60.222  1.00  0.00     0.087 A 
ATOM     24  C   UNL     1      61.312  30.112  59.344  1.00  0.00     0.011 A 
ATOM     25  C   UNL     1      62.884  29.068  61.466  1.00  0.00     0.030 A 
ATOM     26  C   UNL     1      61.379  30.782  60.578  1.00  0.00     0.001 A 
ATOM     27  C   UNL     1      62.160  30.262  61.635  1.00  0.00     0.002 A 
BRANCH  22  28
ATOM     28  O   UNL     1      64.282  26.501  60.567  1.00  0.00    -0.417 OA
ATOM     29  C   UNL     1      63.858  25.295  61.191  1.00  0.00     0.313 C 
ENDBRANCH  22  28
ENDBRANCH  18  19
ENDBRANCH   7  18
ENDBRANCH   4   7
ENDBRANCH   2   3
BRANCH   2  30
ATOM     30  N   UNL     1      64.641  31.290  53.851  1.00  0.00    -0.343 N 
ATOM     31  C   UNL     1      64.767  32.285  52.816  1.00  0.00     0.243 C 
ATOM     32  H   UNL     1      64.813  30.293  53.591  1.00  0.00     0.164 HD
ATOM     33  O   UNL     1      64.786  33.512  53.104  1.00  0.00    -0.273 OA
BRANCH  31  34
ATOM     34  C   UNL     1      64.896  31.892  51.363  1.00  0.00     0.174 C 
ATOM     35  N   UNL     1      63.706  31.138  50.911  1.00  0.00    -0.329 N 
ATOM     36  C   UNL     1      65.274  33.087  50.459  1.00  0.00     0.035 C 
ATOM     37  C   UNL     1      62.632  31.783  50.133  1.00  0.00     0.120 C 
ATOM     38  C   UNL     1      64.077  33.810  49.844  1.00  0.00     0.004 C 
ATOM     39  C   UNL     1      63.172  32.809  49.140  1.00  0.00     0.022 C 
BRANCH  35  40
ATOM     40  C   UNL     1      63.518  29.802  51.439  1.00  0.00     0.246 CG0
ATOM     41  O   UNL     1      64.527  29.061  51.603  1.00  0.00    -0.272 OA
ATOM     42  G   UNL     1      62.174  29.306  51.947  1.00  0.00     0.000 G0
ENDBRANCH  35  40
ENDBRANCH  31  34
ENDBRANCH   2  30
ENDBRANCH   1   2
BRANCH   1  43
ATOM     43  C   UNL     1      65.725  32.192  57.422  1.00  0.00     0.003 C 
BRANCH  43  44
ATOM     44  C   UNL     1      65.551  31.267  58.642  1.00  0.00     0.001 C 
BRANCH  44  45
ATOM     45  C   UNL     1      64.773  31.893  59.819  1.00  0.00     0.008 C 
BRANCH  45  46
ATOM     46  C   UNL     1      63.967  33.151  59.450  1.00  0.00     0.075 C 
BRANCH  46  47
ATOM     47  C   UNL     1      63.841  34.112  60.608  1.00  0.00     0.132 C 
ATOM     48  O   UNL     1      64.817  34.338  61.306  1.00  0.00    -0.300 OA
BRANCH  47  49
ATOM     49  C   UNL     1      62.553  34.849  60.875  1.00  0.00     0.072 C 
ATOM     50  C   UNL     1      61.420  34.348  59.982  1.00  0.00     0.012 C 
ENDBRANCH  47  49
ENDBRANCH  46  47
ENDBRANCH  45  46
ENDBRANCH  44  45
ENDBRANCH  43  44
ENDBRANCH   1  43
TORSDOF 12
ENDMDL
MODEL 7
REMARK VINA RESULT:    -3.641      5.231      9.493
REMARK INTER + INTRA:          -9.803
REMARK INTER:                  -8.035
REMARK INTRA:                  -1.767
REMARK UNBOUND:                -2.118
REMARK SMILES CCC(=O)CCCCC[C@H]1NC(=O)[C@@H]2CCCCN2C(=O)[C@@H]([C@H](C)CC)NC(=O)[C@H](Cc2cn(OC)c3ccccc23)NC1=O
REMARK SMILES IDX 9 1 10 2 44 3 43 4 45 6 30 7 28 8 27 9 29 11 22 12 23 14
REMARK SMILES IDX 24 15 25 16 26 17 31 18 32 19 33 20 42 21 34 22 37 23 41 24
REMARK SMILES IDX 38 25 40 26 39 27 35 28 36 29 11 30 12 31 13 33 14 34 19 35
REMARK SMILES IDX 15 36 18 37 16 38 17 39 20 40 21 41 8 43 7 44 6 45 5 46 3 47
REMARK SMILES IDX 4 48 2 49 1 50
REMARK H PARENT 43 5 27 10 11 32
REMARK Flexibility Score: 80.00
ROOT
ATOM      1  C   UNL     1      55.935  30.043  53.373  1.00  0.00     0.035 C 
ENDROOT
BRANCH   1   2
ATOM      2  C   UNL     1      56.681  28.732  53.710  1.00  0.00     0.171 C 
BRANCH   2   3
ATOM      3  C   UNL     1      57.178  28.691  55.134  1.00  0.00     0.243 C 
ATOM      4  N   UNL     1      57.933  29.784  55.690  1.00  0.00    -0.342 N 
ATOM      5  H   UNL     1      57.778  30.740  55.299  1.00  0.00     0.164 HD
ATOM      6  O   UNL     1      56.940  27.672  55.835  1.00  0.00    -0.273 OA
BRANCH   4   7
ATOM      7  C   UNL     1      59.116  29.601  56.541  1.00  0.00     0.175 C 
BRANCH   7   8
ATOM      8  C   UNL     1      59.915  28.420  56.042  1.00  0.00     0.243 C 
ATOM      9  N   UNL     1      61.086  28.623  55.238  1.00  0.00    -0.342 N 
ATOM     10  H   UNL     1      61.469  29.591  55.181  1.00  0.00     0.164 HD
ATOM     11  O   UNL     1      59.516  27.248  56.291  1.00  0.00    -0.273 OA
BRANCH   9  12
ATOM     12  C   UNL     1      61.505  27.635  54.236  1.00  0.00     0.174 CG0
ATOM     13  G   UNL     1      61.494  28.292  52.865  1.00  0.00     0.000 G0
BRANCH  12  14
ATOM     14  C   UNL     1      62.876  26.987  54.617  1.00  0.00     0.018 C 
ATOM     15  C   UNL     1      63.227  25.729  53.793  1.00  0.00     0.010 C 
BRANCH  14  16
ATOM     16  C   UNL     1      62.937  26.688  56.136  1.00  0.00     0.002 C 
ATOM     17  C   UNL     1      63.332  25.242  56.454  1.00  0.00     0.004 C 
ENDBRANCH  14  16
ENDBRANCH  12  14
ENDBRANCH   9  12
ENDBRANCH   7   8
BRANCH   7  18
ATOM     18  C   UNL     1      58.741  29.461  58.030  1.00  0.00     0.073 C 
BRANCH  18  19
ATOM     19  C   UNL     1      59.904  29.775  58.927  1.00  0.00    -0.016 A 
ATOM     20  C   UNL     1      60.703  28.842  59.582  1.00  0.00     0.134 A 
ATOM     21  C   UNL     1      60.375  31.020  59.320  1.00  0.00     0.006 A 
ATOM     22  N   UNL     1      61.638  29.477  60.322  1.00  0.00    -0.191 N 
ATOM     23  C   UNL     1      61.429  30.798  60.175  1.00  0.00     0.087 A 
ATOM     24  C   UNL     1      59.951  32.310  58.999  1.00  0.00     0.011 A 
ATOM     25  C   UNL     1      62.097  31.853  60.802  1.00  0.00     0.030 A 
ATOM     26  C   UNL     1      60.620  33.391  59.601  1.00  0.00     0.001 A 
ATOM     27  C   UNL     1      61.687  33.164  60.500  1.00  0.00     0.002 A 
BRANCH  22  28
ATOM     28  O   UNL     1      62.616  28.852  61.071  1.00  0.00    -0.417 OA
ATOM     29  C   UNL     1      63.687  28.148  60.452  1.00  0.00     0.313 C 
ENDBRANCH  22  28
ENDBRANCH  18  19
ENDBRANCH   7  18
ENDBRANCH   4   7
ENDBRANCH   2   3
BRANCH   2  30
ATOM     30  N   UNL     1      57.785  28.436  52.782  1.00  0.00    -0.343 N 
ATOM     31  C   UNL     1      58.690  29.398  52.203  1.00  0.00     0.243 C 
ATOM     32  H   UNL     1      57.994  27.424  52.637  1.00  0.00     0.164 HD
ATOM     33  O   UNL     1      58.620  30.616  52.518  1.00  0.00    -0.273 OA
BRANCH  31  34
ATOM     34  C   UNL     1      59.757  28.976  51.221  1.00  0.00     0.174 C 
ATOM     35  N   UNL     1      60.624  27.925  51.800  1.00  0.00    -0.329 N 
ATOM     36  C   UNL     1      59.177  28.629  49.831  1.00  0.00     0.035 C 
ATOM     37  C   UNL     1      60.442  26.501  51.463  1.00  0.00     0.120 C 
ATOM     38  C   UNL     1      58.845  27.150  49.643  1.00  0.00     0.004 C 
ATOM     39  C   UNL     1      60.054  26.296  50.001  1.00  0.00     0.022 C 
BRANCH  35  40
ATOM     40  C   UNL     1      61.516  28.309  52.875  1.00  0.00     0.246 CG0
ATOM     41  O   UNL     1      62.252  29.324  52.727  1.00  0.00    -0.272 OA
ATOM     42  G   UNL     1      61.495  27.630  54.235  1.00  0.00     0.000 G0
ENDBRANCH  35  40
ENDBRANCH  31  34
ENDBRANCH   2  30
ENDBRANCH   1   2
BRANCH   1  43
ATOM     43  C   UNL     1      54.524  30.083  53.980  1.00  0.00     0.003 C 
BRANCH  43  44
ATOM     44  C   UNL     1      53.473  29.449  53.050  1.00  0.00     0.001 C 
BRANCH  44  45
ATOM     45  C   UNL     1      53.647  29.788  51.554  1.00  0.00     0.008 C 
BRANCH  45  46
ATOM     46  C   UNL     1      53.391  28.607  50.601  1.00  0.00     0.075 C 
BRANCH  46  47
ATOM     47  C   UNL     1      54.627  27.771  50.377  1.00  0.00     0.132 C 
ATOM     48  O   UNL     1      55.724  28.309  50.388  1.00  0.00    -0.300 OA
BRANCH  47  49
ATOM     49  C   UNL     1      54.539  26.275  50.210  1.00  0.00     0.072 C 
ATOM     50  C   UNL     1      55.742  25.566  50.828  1.00  0.00     0.012 C 
ENDBRANCH  47  49
ENDBRANCH  46  47
ENDBRANCH  45  46
ENDBRANCH  44  45
ENDBRANCH  43  44
ENDBRANCH   1  43
TORSDOF 12
ENDMDL
MODEL 8
REMARK VINA RESULT:    -3.640      4.497      8.395
REMARK INTER + INTRA:          -9.801
REMARK INTER:                  -8.777
REMARK INTRA:                  -1.023
REMARK UNBOUND:                -2.118
REMARK SMILES CCC(=O)CCCCC[C@H]1NC(=O)[C@@H]2CCCCN2C(=O)[C@@H]([C@H](C)CC)NC(=O)[C@H](Cc2cn(OC)c3ccccc23)NC1=O
REMARK SMILES IDX 9 1 10 2 44 3 43 4 45 6 30 7 28 8 27 9 29 11 22 12 23 14
REMARK SMILES IDX 24 15 25 16 26 17 31 18 32 19 33 20 42 21 34 22 37 23 41 24
REMARK SMILES IDX 38 25 40 26 39 27 35 28 36 29 11 30 12 31 13 33 14 34 19 35
REMARK SMILES IDX 15 36 18 37 16 38 17 39 20 40 21 41 8 43 7 44 6 45 5 46 3 47
REMARK SMILES IDX 4 48 2 49 1 50
REMARK H PARENT 43 5 27 10 11 32
REMARK Flexibility Score: 80.00
ROOT
ATOM      1  C   UNL     1      62.799  24.844  50.376  1.00  0.00     0.035 C 
ENDROOT
BRANCH   1   2
ATOM      2  C   UNL     1      61.987  25.152  51.655  1.00  0.00     0.171 C 
BRANCH   2   3
ATOM      3  C   UNL     1      61.363  23.919  52.263  1.00  0.00     0.243 C 
ATOM      4  N   UNL     1      60.352  23.174  51.558  1.00  0.00    -0.342 N 
ATOM      5  H   UNL     1      60.353  23.205  50.515  1.00  0.00     0.164 HD
ATOM      6  O   UNL     1      61.725  23.554  53.413  1.00  0.00    -0.273 OA
BRANCH   4   7
ATOM      7  C   UNL     1      59.147  22.635  52.203  1.00  0.00     0.175 C 
BRANCH   7   8
ATOM      8  C   UNL     1      58.391  23.759  52.871  1.00  0.00     0.243 C 
ATOM      9  N   UNL     1      57.065  24.100  52.439  1.00  0.00    -0.342 N 
ATOM     10  H   UNL     1      56.580  23.433  51.801  1.00  0.00     0.164 HD
ATOM     11  O   UNL     1      58.952  24.434  53.779  1.00  0.00    -0.273 OA
BRANCH   9  12
ATOM     12  C   UNL     1      56.557  25.472  52.549  1.00  0.00     0.174 CG0
ATOM     13  G   UNL     1      56.984  26.255  51.318  1.00  0.00     0.000 G0
BRANCH  12  14
ATOM     14  C   UNL     1      55.014  25.487  52.804  1.00  0.00     0.018 C 
ATOM     15  C   UNL     1      54.504  26.767  53.501  1.00  0.00     0.010 C 
BRANCH  14  16
ATOM     16  C   UNL     1      54.576  24.221  53.583  1.00  0.00     0.002 C 
ATOM     17  C   UNL     1      53.456  23.440  52.889  1.00  0.00     0.004 C 
ENDBRANCH  14  16
ENDBRANCH  12  14
ENDBRANCH   9  12
ENDBRANCH   7   8
BRANCH   7  18
ATOM     18  C   UNL     1      59.478  21.493  53.185  1.00  0.00     0.073 C 
BRANCH  18  19
ATOM     19  C   UNL     1      58.587  20.303  52.973  1.00  0.00    -0.016 A 
ATOM     20  C   UNL     1      57.558  19.895  53.817  1.00  0.00     0.134 A 
ATOM     21  C   UNL     1      58.636  19.363  51.954  1.00  0.00     0.006 A 
ATOM     22  N   UNL     1      56.982  18.774  53.332  1.00  0.00    -0.191 N 
ATOM     23  C   UNL     1      57.647  18.443  52.210  1.00  0.00     0.087 A 
ATOM     24  C   UNL     1      59.475  19.247  50.845  1.00  0.00     0.011 A 
ATOM     25  C   UNL     1      57.463  17.320  51.397  1.00  0.00     0.030 A 
ATOM     26  C   UNL     1      59.298  18.137  49.999  1.00  0.00     0.001 A 
ATOM     27  C   UNL     1      58.298  17.178  50.274  1.00  0.00     0.002 A 
BRANCH  22  28
ATOM     28  O   UNL     1      55.907  18.122  53.904  1.00  0.00    -0.417 OA
ATOM     29  C   UNL     1      55.978  17.588  55.221  1.00  0.00     0.313 C 
ENDBRANCH  22  28
ENDBRANCH  18  19
ENDBRANCH   7  18
ENDBRANCH   4   7
ENDBRANCH   2   3
BRANCH   2  30
ATOM     30  N   UNL     1      60.963  26.191  51.458  1.00  0.00    -0.343 N 
ATOM     31  C   UNL     1      59.958  26.209  50.424  1.00  0.00     0.243 C 
ATOM     32  H   UNL     1      60.894  26.906  52.216  1.00  0.00     0.164 HD
ATOM     33  O   UNL     1      59.857  25.253  49.610  1.00  0.00    -0.273 OA
BRANCH  31  34
ATOM     34  C   UNL     1      58.989  27.361  50.295  1.00  0.00     0.174 C 
ATOM     35  N   UNL     1      57.971  27.318  51.369  1.00  0.00    -0.329 N 
ATOM     36  C   UNL     1      59.705  28.723  50.152  1.00  0.00     0.035 C 
ATOM     37  C   UNL     1      58.070  28.176  52.564  1.00  0.00     0.120 C 
ATOM     38  C   UNL     1      59.930  29.455  51.474  1.00  0.00     0.004 C 
ATOM     39  C   UNL     1      58.617  29.563  52.237  1.00  0.00     0.022 C 
BRANCH  35  40
ATOM     40  C   UNL     1      56.988  26.254  51.318  1.00  0.00     0.246 CG0
ATOM     41  O   UNL     1      56.555  25.873  50.195  1.00  0.00    -0.272 OA
ATOM     42  G   UNL     1      56.568  25.472  52.552  1.00  0.00     0.000 G0
ENDBRANCH  35  40
ENDBRANCH  31  34
ENDBRANCH   2  30
ENDBRANCH   1   2
BRANCH   1  43
ATOM     43  C   UNL     1      63.667  26.034  49.937  1.00  0.00     0.003 C 
BRANCH  43  44
ATOM     44  C   UNL     1      65.168  25.687  49.931  1.00  0.00     0.001 C 
BRANCH  44  45
ATOM     45  C   UNL     1      65.826  25.698  48.535  1.00  0.00     0.008 C 
BRANCH  45  46
ATOM     46  C   UNL     1      66.867  26.814  48.332  1.00  0.00     0.075 C 
BRANCH  46  47
ATOM     47  C   UNL     1      66.312  27.983  47.556  1.00  0.00     0.132 C 
ATOM     48  O   UNL     1      65.103  28.089  47.418  1.00  0.00    -0.300 OA
BRANCH  47  49
ATOM     49  C   UNL     1      67.216  29.059  47.010  1.00  0.00     0.072 C 
ATOM     50  C   UNL     1      68.289  28.480  46.089  1.00  0.00     0.012 C 
ENDBRANCH  47  49
ENDBRANCH  46  47
ENDBRANCH  45  46
ENDBRANCH  44  45
ENDBRANCH  43  44
ENDBRANCH   1  43
TORSDOF 12
ENDMDL
MODEL 9
REMARK VINA RESULT:    -3.574      8.683     12.823
REMARK INTER + INTRA:          -9.661
REMARK INTER:                  -7.524
REMARK INTRA:                  -2.137
REMARK UNBOUND:                -2.118
REMARK SMILES CCC(=O)CCCCC[C@H]1NC(=O)[C@@H]2CCCCN2C(=O)[C@@H]([C@H](C)CC)NC(=O)[C@H](Cc2cn(OC)c3ccccc23)NC1=O
REMARK SMILES IDX 9 1 10 2 44 3 43 4 45 6 30 7 28 8 27 9 29 11 22 12 23 14
REMARK SMILES IDX 24 15 25 16 26 17 31 18 32 19 33 20 42 21 34 22 37 23 41 24
REMARK SMILES IDX 38 25 40 26 39 27 35 28 36 29 11 30 12 31 13 33 14 34 19 35
REMARK SMILES IDX 15 36 18 37 16 38 17 39 20 40 21 41 8 43 7 44 6 45 5 46 3 47
REMARK SMILES IDX 4 48 2 49 1 50
REMARK H PARENT 43 5 27 10 11 32
REMARK Flexibility Score: 80.00
ROOT
ATOM      1  C   UNL     1      64.596  31.401  60.923  1.00  0.00     0.035 C 
ENDROOT
BRANCH   1   2
ATOM      2  C   UNL     1      64.666  29.857  60.946  1.00  0.00     0.171 C 
BRANCH   2   3
ATOM      3  C   UNL     1      65.999  29.325  60.476  1.00  0.00     0.243 C 
ATOM      4  N   UNL     1      66.540  29.702  59.196  1.00  0.00    -0.342 N 
ATOM      5  H   UNL     1      66.263  30.626  58.796  1.00  0.00     0.164 HD
ATOM      6  O   UNL     1      66.631  28.523  61.214  1.00  0.00    -0.273 OA
BRANCH   4   7
ATOM      7  C   UNL     1      67.199  28.757  58.285  1.00  0.00     0.175 C 
BRANCH   7   8
ATOM      8  C   UNL     1      66.372  27.497  58.186  1.00  0.00     0.243 C 
ATOM      9  N   UNL     1      65.116  27.505  57.493  1.00  0.00    -0.342 N 
ATOM     10  H   UNL     1      64.896  28.337  56.903  1.00  0.00     0.164 HD
ATOM     11  O   UNL     1      66.766  26.446  58.765  1.00  0.00    -0.273 OA
BRANCH   9  12
ATOM     12  C   UNL     1      64.025  26.603  57.880  1.00  0.00     0.174 CG0
ATOM     13  G   UNL     1      62.753  27.417  58.055  1.00  0.00     0.000 G0
BRANCH  12  14
ATOM     14  C   UNL     1      63.883  25.418  56.870  1.00  0.00     0.018 C 
ATOM     15  C   UNL     1      64.245  24.038  57.464  1.00  0.00     0.010 C 
BRANCH  14  16
ATOM     16  C   UNL     1      64.697  25.695  55.582  1.00  0.00     0.002 C 
ATOM     17  C   UNL     1      65.820  24.681  55.344  1.00  0.00     0.004 C 
ENDBRANCH  14  16
ENDBRANCH  12  14
ENDBRANCH   9  12
ENDBRANCH   7   8
BRANCH   7  18
ATOM     18  C   UNL     1      68.653  28.466  58.705  1.00  0.00     0.073 C 
BRANCH  18  19
ATOM     19  C   UNL     1      69.465  29.726  58.802  1.00  0.00    -0.016 A 
ATOM     20  C   UNL     1      69.435  30.786  57.901  1.00  0.00     0.134 A 
ATOM     21  C   UNL     1      70.422  30.061  59.750  1.00  0.00     0.006 A 
ATOM     22  N   UNL     1      70.310  31.741  58.285  1.00  0.00    -0.191 N 
ATOM     23  C   UNL     1      70.919  31.294  59.398  1.00  0.00     0.087 A 
ATOM     24  C   UNL     1      70.890  29.375  60.871  1.00  0.00     0.011 A 
ATOM     25  C   UNL     1      71.952  31.899  60.120  1.00  0.00     0.030 A 
ATOM     26  C   UNL     1      71.915  29.972  61.628  1.00  0.00     0.001 A 
ATOM     27  C   UNL     1      72.445  31.227  61.253  1.00  0.00     0.002 A 
BRANCH  22  28
ATOM     28  O   UNL     1      70.508  32.944  57.636  1.00  0.00    -0.417 OA
ATOM     29  C   UNL     1      69.479  33.924  57.561  1.00  0.00     0.313 C 
ENDBRANCH  22  28
ENDBRANCH  18  19
ENDBRANCH   7  18
ENDBRANCH   4   7
ENDBRANCH   2   3
BRANCH   2  30
ATOM     30  N   UNL     1      63.574  29.214  60.197  1.00  0.00    -0.343 N 
ATOM     31  C   UNL     1      62.216  29.046  60.651  1.00  0.00     0.243 C 
ATOM     32  H   UNL     1      63.787  28.975  59.203  1.00  0.00     0.164 HD
ATOM     33  O   UNL     1      61.847  29.514  61.761  1.00  0.00    -0.273 OA
BRANCH  31  34
ATOM     34  C   UNL     1      61.192  28.322  59.808  1.00  0.00     0.174 C 
ATOM     35  N   UNL     1      61.796  27.153  59.130  1.00  0.00    -0.329 N 
ATOM     36  C   UNL     1      59.898  28.005  60.591  1.00  0.00     0.035 C 
ATOM     37  C   UNL     1      61.618  25.783  59.647  1.00  0.00     0.120 C 
ATOM     38  C   UNL     1      59.886  26.627  61.250  1.00  0.00     0.004 C 
ATOM     39  C   UNL     1      60.222  25.557  60.220  1.00  0.00     0.022 C 
BRANCH  35  40
ATOM     40  C   UNL     1      62.748  27.411  58.069  1.00  0.00     0.246 CG0
ATOM     41  O   UNL     1      62.589  28.428  57.337  1.00  0.00    -0.272 OA
ATOM     42  G   UNL     1      64.018  26.593  57.894  1.00  0.00     0.000 G0
ENDBRANCH  35  40
ENDBRANCH  31  34
ENDBRANCH   2  30
ENDBRANCH   1   2
BRANCH   1  43
ATOM     43  C   UNL     1      63.888  31.933  59.667  1.00  0.00     0.003 C 
BRANCH  43  44
ATOM     44  C   UNL     1      62.700  32.850  60.014  1.00  0.00     0.001 C 
BRANCH  44  45
ATOM     45  C   UNL     1      61.354  32.424  59.390  1.00  0.00     0.008 C 
BRANCH  45  46
ATOM     46  C   UNL     1      61.485  31.593  58.101  1.00  0.00     0.075 C 
BRANCH  46  47
ATOM     47  C   UNL     1      60.903  32.300  56.901  1.00  0.00     0.132 C 
ATOM     48  O   UNL     1      61.614  32.523  55.934  1.00  0.00    -0.300 OA
BRANCH  47  49
ATOM     49  C   UNL     1      59.443  32.673  56.847  1.00  0.00     0.072 C 
ATOM     50  C   UNL     1      58.700  31.889  55.766  1.00  0.00     0.012 C 
ENDBRANCH  47  49
ENDBRANCH  46  47
ENDBRANCH  45  46
ENDBRANCH  44  45
ENDBRANCH  43  44
ENDBRANCH   1  43
TORSDOF 12
ENDMDL
