MODEL 1
REMARK VINA RESULT:    -5.211      0.000      0.000
REMARK INTER + INTRA:         -11.414
REMARK INTER:                  -9.780
REMARK INTRA:                  -1.634
REMARK UNBOUND:                -1.634
REMARK SMILES O=C([O-])CCCCCCCCCCCCCCC(=O)[O-]
REMARK SMILES IDX 10 1 9 2 8 3 7 4 6 5 5 6 4 7 2 8 1 9 3 10 11 11 12 12 13 13
REMARK SMILES IDX 14 14 15 15 16 16 17 17 18 18 19 19 20 20
REMARK H PARENT
REMARK Flexibility Score: inf
ROOT
ATOM      1  C   UNL     1      22.147  10.395  35.832  1.00  0.00     0.000 C 
ENDROOT
BRANCH   1   2
ATOM      2  C   UNL     1      20.944  10.087  34.916  1.00  0.00     0.000 C 
BRANCH   2   3
ATOM      3  C   UNL     1      19.630  10.797  35.299  1.00  0.00     0.000 C 
BRANCH   3   4
ATOM      4  C   UNL     1      19.808  12.079  36.133  1.00  0.00     0.000 C 
BRANCH   4   5
ATOM      5  C   UNL     1      19.381  13.346  35.374  1.00  0.00     0.000 C 
BRANCH   5   6
ATOM      6  C   UNL     1      20.562  14.047  34.677  1.00  0.00     0.006 C 
BRANCH   6   7
ATOM      7  C   UNL     1      20.410  14.171  33.153  1.00  0.00     0.053 C 
BRANCH   7   8
ATOM      8  C   UNL     1      20.818  12.916  32.444  1.00  0.00     0.041 C 
ATOM      9  O   UNL     1      19.945  12.107  32.033  1.00  0.00    -0.550 OA
ATOM     10  O   UNL     1      22.165  12.625  32.266  1.00  0.00    -0.550 OA
ENDBRANCH   7   8
ENDBRANCH   6   7
ENDBRANCH   5   6
ENDBRANCH   4   5
ENDBRANCH   3   4
ENDBRANCH   2   3
ENDBRANCH   1   2
BRANCH   1  11
ATOM     11  C   UNL     1      23.321  11.116  35.147  1.00  0.00     0.000 C 
BRANCH  11  12
ATOM     12  C   UNL     1      23.640  12.477  35.789  1.00  0.00     0.000 C 
BRANCH  12  13
ATOM     13  C   UNL     1      25.139  12.651  36.090  1.00  0.00     0.000 C 
BRANCH  13  14
ATOM     14  C   UNL     1      26.023  11.735  35.227  1.00  0.00     0.000 C 
BRANCH  14  15
ATOM     15  C   UNL     1      27.476  12.227  35.125  1.00  0.00     0.000 C 
BRANCH  15  16
ATOM     16  C   UNL     1      27.986  12.491  33.695  1.00  0.00     0.006 C 
BRANCH  16  17
ATOM     17  C   UNL     1      27.135  11.832  32.593  1.00  0.00     0.053 C 
BRANCH  17  18
ATOM     18  C   UNL     1      27.892  11.647  31.312  1.00  0.00     0.041 C 
ATOM     19  O   UNL     1      28.753  12.493  30.953  1.00  0.00    -0.550 OA
ATOM     20  O   UNL     1      27.675  10.517  30.533  1.00  0.00    -0.550 OA
ENDBRANCH  17  18
ENDBRANCH  16  17
ENDBRANCH  15  16
ENDBRANCH  14  15
ENDBRANCH  13  14
ENDBRANCH  12  13
ENDBRANCH  11  12
ENDBRANCH   1  11
TORSDOF 15
ENDMDL
MODEL 2
REMARK VINA RESULT:    -5.164      0.946      6.275
REMARK INTER + INTRA:         -11.326
REMARK INTER:                  -9.313
REMARK INTRA:                  -2.013
REMARK UNBOUND:                -1.634
REMARK SMILES O=C([O-])CCCCCCCCCCCCCCC(=O)[O-]
REMARK SMILES IDX 10 1 9 2 8 3 7 4 6 5 5 6 4 7 2 8 1 9 3 10 11 11 12 12 13 13
REMARK SMILES IDX 14 14 15 15 16 16 17 17 18 18 19 19 20 20
REMARK H PARENT
REMARK Flexibility Score: inf
ROOT
ATOM      1  C   UNL     1      22.071  10.615  35.894  1.00  0.00     0.000 C 
ENDROOT
BRANCH   1   2
ATOM      2  C   UNL     1      23.225  11.203  35.056  1.00  0.00     0.000 C 
BRANCH   2   3
ATOM      3  C   UNL     1      23.892  12.461  35.649  1.00  0.00     0.000 C 
BRANCH   3   4
ATOM      4  C   UNL     1      25.416  12.356  35.836  1.00  0.00     0.000 C 
BRANCH   4   5
ATOM      5  C   UNL     1      26.035  11.199  35.033  1.00  0.00     0.000 C 
BRANCH   5   6
ATOM      6  C   UNL     1      27.566  11.313  34.910  1.00  0.00     0.006 C 
BRANCH   6   7
ATOM      7  C   UNL     1      28.039  12.369  33.900  1.00  0.00     0.053 C 
BRANCH   7   8
ATOM      8  C   UNL     1      27.341  12.236  32.581  1.00  0.00     0.041 C 
ATOM      9  O   UNL     1      27.626  11.285  31.806  1.00  0.00    -0.550 OA
ATOM     10  O   UNL     1      26.399  13.180  32.193  1.00  0.00    -0.550 OA
ENDBRANCH   7   8
ENDBRANCH   6   7
ENDBRANCH   5   6
ENDBRANCH   4   5
ENDBRANCH   3   4
ENDBRANCH   2   3
ENDBRANCH   1   2
BRANCH   1  11
ATOM     11  C   UNL     1      20.920  10.000  35.079  1.00  0.00     0.000 C 
BRANCH  11  12
ATOM     12  C   UNL     1      19.569  10.688  35.344  1.00  0.00     0.000 C 
BRANCH  12  13
ATOM     13  C   UNL     1      19.709  11.948  36.215  1.00  0.00     0.000 C 
BRANCH  13  14
ATOM     14  C   UNL     1      19.352  13.234  35.452  1.00  0.00     0.000 C 
BRANCH  14  15
ATOM     15  C   UNL     1      20.557  13.854  34.725  1.00  0.00     0.000 C 
BRANCH  15  16
ATOM     16  C   UNL     1      20.406  13.995  33.197  1.00  0.00     0.006 C 
BRANCH  16  17
ATOM     17  C   UNL     1      21.300  13.039  32.386  1.00  0.00     0.053 C 
BRANCH  17  18
ATOM     18  C   UNL     1      20.579  11.794  31.961  1.00  0.00     0.041 C 
ATOM     19  O   UNL     1      21.225  10.756  31.661  1.00  0.00    -0.550 OA
ATOM     20  O   UNL     1      19.191  11.769  31.935  1.00  0.00    -0.550 OA
ENDBRANCH  17  18
ENDBRANCH  16  17
ENDBRANCH  15  16
ENDBRANCH  14  15
ENDBRANCH  13  14
ENDBRANCH  12  13
ENDBRANCH  11  12
ENDBRANCH   1  11
TORSDOF 15
ENDMDL
MODEL 3
REMARK VINA RESULT:    -5.158      1.706      2.661
REMARK INTER + INTRA:         -11.314
REMARK INTER:                  -9.463
REMARK INTRA:                  -1.851
REMARK UNBOUND:                -1.634
REMARK SMILES O=C([O-])CCCCCCCCCCCCCCC(=O)[O-]
REMARK SMILES IDX 10 1 9 2 8 3 7 4 6 5 5 6 4 7 2 8 1 9 3 10 11 11 12 12 13 13
REMARK SMILES IDX 14 14 15 15 16 16 17 17 18 18 19 19 20 20
REMARK H PARENT
REMARK Flexibility Score: inf
ROOT
ATOM      1  C   UNL     1      22.512  12.137  33.544  1.00  0.00     0.000 C 
ENDROOT
BRANCH   1   2
ATOM      2  C   UNL     1      21.382  13.004  32.952  1.00  0.00     0.000 C 
BRANCH   2   3
ATOM      3  C   UNL     1      20.709  13.972  33.946  1.00  0.00     0.000 C 
BRANCH   3   4
ATOM      4  C   UNL     1      19.291  13.562  34.386  1.00  0.00     0.000 C 
BRANCH   4   5
ATOM      5  C   UNL     1      19.216  13.190  35.876  1.00  0.00     0.000 C 
BRANCH   5   6
ATOM      6  C   UNL     1      19.367  11.677  36.119  1.00  0.00     0.006 C 
BRANCH   6   7
ATOM      7  C   UNL     1      19.096  10.810  34.880  1.00  0.00     0.053 C 
BRANCH   7   8
ATOM      8  C   UNL     1      20.029   9.641  34.798  1.00  0.00     0.041 C 
ATOM      9  O   UNL     1      20.455   9.247  33.680  1.00  0.00    -0.550 OA
ATOM     10  O   UNL     1      20.404   8.968  35.953  1.00  0.00    -0.550 OA
ENDBRANCH   7   8
ENDBRANCH   6   7
ENDBRANCH   5   6
ENDBRANCH   4   5
ENDBRANCH   3   4
ENDBRANCH   2   3
ENDBRANCH   1   2
BRANCH   1  11
ATOM     11  C   UNL     1      22.753  12.319  35.053  1.00  0.00     0.000 C 
BRANCH  11  12
ATOM     12  C   UNL     1      23.369  11.072  35.713  1.00  0.00     0.000 C 
BRANCH  12  13
ATOM     13  C   UNL     1      24.893  11.187  35.882  1.00  0.00     0.000 C 
BRANCH  13  14
ATOM     14  C   UNL     1      25.359  12.643  36.048  1.00  0.00     0.000 C 
BRANCH  14  15
ATOM     15  C   UNL     1      26.398  13.064  34.995  1.00  0.00     0.000 C 
BRANCH  15  16
ATOM     16  C   UNL     1      26.818  11.960  34.004  1.00  0.00     0.006 C 
BRANCH  16  17
ATOM     17  C   UNL     1      28.116  12.267  33.234  1.00  0.00     0.053 C 
BRANCH  17  18
ATOM     18  C   UNL     1      27.888  12.438  31.762  1.00  0.00     0.041 C 
ATOM     19  O   UNL     1      28.842  12.752  31.002  1.00  0.00    -0.550 OA
ATOM     20  O   UNL     1      26.628  12.213  31.223  1.00  0.00    -0.550 OA
ENDBRANCH  17  18
ENDBRANCH  16  17
ENDBRANCH  15  16
ENDBRANCH  14  15
ENDBRANCH  13  14
ENDBRANCH  12  13
ENDBRANCH  11  12
ENDBRANCH   1  11
TORSDOF 15
ENDMDL
MODEL 4
REMARK VINA RESULT:    -5.147      1.971      7.039
REMARK INTER + INTRA:         -11.294
REMARK INTER:                  -9.536
REMARK INTRA:                  -1.758
REMARK UNBOUND:                -1.634
REMARK SMILES O=C([O-])CCCCCCCCCCCCCCC(=O)[O-]
REMARK SMILES IDX 10 1 9 2 8 3 7 4 6 5 5 6 4 7 2 8 1 9 3 10 11 11 12 12 13 13
REMARK SMILES IDX 14 14 15 15 16 16 17 17 18 18 19 19 20 20
REMARK H PARENT
REMARK Flexibility Score: inf
ROOT
ATOM      1  C   UNL     1      24.797  11.294  35.920  1.00  0.00     0.000 C 
ENDROOT
BRANCH   1   2
ATOM      2  C   UNL     1      25.182  12.754  36.235  1.00  0.00     0.000 C 
BRANCH   2   3
ATOM      3  C   UNL     1      26.265  13.359  35.319  1.00  0.00     0.000 C 
BRANCH   3   4
ATOM      4  C   UNL     1      27.577  12.556  35.253  1.00  0.00     0.000 C 
BRANCH   4   5
ATOM      5  C   UNL     1      27.897  12.056  33.834  1.00  0.00     0.000 C 
BRANCH   5   6
ATOM      6  C   UNL     1      26.670  12.082  32.904  1.00  0.00     0.006 C 
BRANCH   6   7
ATOM      7  C   UNL     1      26.933  12.724  31.533  1.00  0.00     0.053 C 
BRANCH   7   8
ATOM      8  C   UNL     1      28.099  12.095  30.834  1.00  0.00     0.041 C 
ATOM      9  O   UNL     1      29.139  12.768  30.603  1.00  0.00    -0.550 OA
ATOM     10  O   UNL     1      28.027  10.774  30.409  1.00  0.00    -0.550 OA
ENDBRANCH   7   8
ENDBRANCH   6   7
ENDBRANCH   5   6
ENDBRANCH   4   5
ENDBRANCH   3   4
ENDBRANCH   2   3
ENDBRANCH   1   2
BRANCH   1  11
ATOM     11  C   UNL     1      23.391  11.104  35.323  1.00  0.00     0.000 C 
BRANCH  11  12
ATOM     12  C   UNL     1      22.510  12.358  35.462  1.00  0.00     0.000 C 
BRANCH  12  13
ATOM     13  C   UNL     1      21.902  12.803  34.120  1.00  0.00     0.000 C 
BRANCH  13  14
ATOM     14  C   UNL     1      22.471  12.018  32.927  1.00  0.00     0.000 C 
BRANCH  14  15
ATOM     15  C   UNL     1      21.443  11.069  32.288  1.00  0.00     0.000 C 
BRANCH  15  16
ATOM     16  C   UNL     1      20.203  10.761  33.151  1.00  0.00     0.006 C 
BRANCH  16  17
ATOM     17  C   UNL     1      20.315   9.462  33.971  1.00  0.00     0.053 C 
BRANCH  17  18
ATOM     18  C   UNL     1      19.897   9.643  35.400  1.00  0.00     0.041 C 
ATOM     19  O   UNL     1      19.390  10.730  35.782  1.00  0.00    -0.550 OA
ATOM     20  O   UNL     1      20.032   8.595  36.302  1.00  0.00    -0.550 OA
ENDBRANCH  17  18
ENDBRANCH  16  17
ENDBRANCH  15  16
ENDBRANCH  14  15
ENDBRANCH  13  14
ENDBRANCH  12  13
ENDBRANCH  11  12
ENDBRANCH   1  11
TORSDOF 15
ENDMDL
MODEL 5
REMARK VINA RESULT:    -5.074      0.873      6.578
REMARK INTER + INTRA:         -11.157
REMARK INTER:                  -9.788
REMARK INTRA:                  -1.370
REMARK UNBOUND:                -1.634
REMARK SMILES O=C([O-])CCCCCCCCCCCCCCC(=O)[O-]
REMARK SMILES IDX 10 1 9 2 8 3 7 4 6 5 5 6 4 7 2 8 1 9 3 10 11 11 12 12 13 13
REMARK SMILES IDX 14 14 15 15 16 16 17 17 18 18 19 19 20 20
REMARK H PARENT
REMARK Flexibility Score: inf
ROOT
ATOM      1  C   UNL     1      23.579  12.107  35.323  1.00  0.00     0.000 C 
ENDROOT
BRANCH   1   2
ATOM      2  C   UNL     1      25.055  12.089  35.770  1.00  0.00     0.000 C 
BRANCH   2   3
ATOM      3  C   UNL     1      26.003  11.268  34.872  1.00  0.00     0.000 C 
BRANCH   3   4
ATOM      4  C   UNL     1      27.502  11.502  35.132  1.00  0.00     0.000 C 
BRANCH   4   5
ATOM      5  C   UNL     1      28.232  12.092  33.913  1.00  0.00     0.000 C 
BRANCH   5   6
ATOM      6  C   UNL     1      27.422  13.200  33.215  1.00  0.00     0.006 C 
BRANCH   6   7
ATOM      7  C   UNL     1      26.935  12.830  31.805  1.00  0.00     0.053 C 
BRANCH   7   8
ATOM      8  C   UNL     1      28.017  12.195  30.986  1.00  0.00     0.041 C 
ATOM      9  O   UNL     1      27.927  10.987  30.643  1.00  0.00    -0.550 OA
ATOM     10  O   UNL     1      29.141  12.930  30.628  1.00  0.00    -0.550 OA
ENDBRANCH   7   8
ENDBRANCH   6   7
ENDBRANCH   5   6
ENDBRANCH   4   5
ENDBRANCH   3   4
ENDBRANCH   2   3
ENDBRANCH   1   2
BRANCH   1  11
ATOM     11  C   UNL     1      22.777  10.841  35.667  1.00  0.00     0.000 C 
BRANCH  11  12
ATOM     12  C   UNL     1      21.256  11.050  35.553  1.00  0.00     0.000 C 
BRANCH  12  13
ATOM     13  C   UNL     1      20.833  12.491  35.882  1.00  0.00     0.000 C 
BRANCH  13  14
ATOM     14  C   UNL     1      19.355  12.761  35.554  1.00  0.00     0.000 C 
BRANCH  14  15
ATOM     15  C   UNL     1      19.170  13.728  34.372  1.00  0.00     0.000 C 
BRANCH  15  16
ATOM     16  C   UNL     1      20.468  14.151  33.656  1.00  0.00     0.006 C 
BRANCH  16  17
ATOM     17  C   UNL     1      20.577  13.647  32.204  1.00  0.00     0.053 C 
BRANCH  17  18
ATOM     18  C   UNL     1      21.327  12.353  32.096  1.00  0.00     0.041 C 
ATOM     19  O   UNL     1      22.586  12.348  32.064  1.00  0.00    -0.550 OA
ATOM     20  O   UNL     1      20.636  11.149  32.072  1.00  0.00    -0.550 OA
ENDBRANCH  17  18
ENDBRANCH  16  17
ENDBRANCH  15  16
ENDBRANCH  14  15
ENDBRANCH  13  14
ENDBRANCH  12  13
ENDBRANCH  11  12
ENDBRANCH   1  11
TORSDOF 15
ENDMDL
MODEL 6
REMARK VINA RESULT:    -5.057      1.335      1.944
REMARK INTER + INTRA:         -11.126
REMARK INTER:                  -9.377
REMARK INTRA:                  -1.749
REMARK UNBOUND:                -1.634
REMARK SMILES O=C([O-])CCCCCCCCCCCCCCC(=O)[O-]
REMARK SMILES IDX 10 1 9 2 8 3 7 4 6 5 5 6 4 7 2 8 1 9 3 10 11 11 12 12 13 13
REMARK SMILES IDX 14 14 15 15 16 16 17 17 18 18 19 19 20 20
REMARK H PARENT
REMARK Flexibility Score: inf
ROOT
ATOM      1  C   UNL     1      20.596   9.958  35.649  1.00  0.00     0.000 C 
ENDROOT
BRANCH   1   2
ATOM      2  C   UNL     1      19.356  10.865  35.513  1.00  0.00     0.000 C 
BRANCH   2   3
ATOM      3  C   UNL     1      19.446  12.214  36.254  1.00  0.00     0.000 C 
BRANCH   3   4
ATOM      4  C   UNL     1      19.212  13.453  35.370  1.00  0.00     0.000 C 
BRANCH   4   5
ATOM      5  C   UNL     1      20.507  13.973  34.723  1.00  0.00     0.000 C 
BRANCH   5   6
ATOM      6  C   UNL     1      20.406  14.074  33.190  1.00  0.00     0.006 C 
BRANCH   6   7
ATOM      7  C   UNL     1      20.596  12.737  32.457  1.00  0.00     0.053 C 
BRANCH   7   8
ATOM      8  C   UNL     1      21.831  12.732  31.609  1.00  0.00     0.041 C 
ATOM      9  O   UNL     1      21.784  13.138  30.418  1.00  0.00    -0.550 OA
ATOM     10  O   UNL     1      23.027  12.250  32.126  1.00  0.00    -0.550 OA
ENDBRANCH   7   8
ENDBRANCH   6   7
ENDBRANCH   5   6
ENDBRANCH   4   5
ENDBRANCH   3   4
ENDBRANCH   2   3
ENDBRANCH   1   2
BRANCH   1  11
ATOM     11  C   UNL     1      21.850  10.451  34.907  1.00  0.00     0.000 C 
BRANCH  11  12
ATOM     12  C   UNL     1      23.026  10.745  35.855  1.00  0.00     0.000 C 
BRANCH  12  13
ATOM     13  C   UNL     1      23.595  12.162  35.668  1.00  0.00     0.000 C 
BRANCH  13  14
ATOM     14  C   UNL     1      25.109  12.228  35.927  1.00  0.00     0.000 C 
BRANCH  14  15
ATOM     15  C   UNL     1      25.909  11.247  35.054  1.00  0.00     0.000 C 
BRANCH  15  16
ATOM     16  C   UNL     1      27.433  11.477  35.027  1.00  0.00     0.006 C 
BRANCH  16  17
ATOM     17  C   UNL     1      27.973  11.957  33.666  1.00  0.00     0.053 C 
BRANCH  17  18
ATOM     18  C   UNL     1      27.205  13.123  33.118  1.00  0.00     0.041 C 
ATOM     19  O   UNL     1      27.253  14.243  33.692  1.00  0.00    -0.550 OA
ATOM     20  O   UNL     1      26.467  12.982  31.950  1.00  0.00    -0.550 OA
ENDBRANCH  17  18
ENDBRANCH  16  17
ENDBRANCH  15  16
ENDBRANCH  14  15
ENDBRANCH  13  14
ENDBRANCH  12  13
ENDBRANCH  11  12
ENDBRANCH   1  11
TORSDOF 15
ENDMDL
MODEL 7
REMARK VINA RESULT:    -5.051      1.722      7.027
REMARK INTER + INTRA:         -11.114
REMARK INTER:                  -9.590
REMARK INTRA:                  -1.524
REMARK UNBOUND:                -1.634
REMARK SMILES O=C([O-])CCCCCCCCCCCCCCC(=O)[O-]
REMARK SMILES IDX 10 1 9 2 8 3 7 4 6 5 5 6 4 7 2 8 1 9 3 10 11 11 12 12 13 13
REMARK SMILES IDX 14 14 15 15 16 16 17 17 18 18 19 19 20 20
REMARK H PARENT
REMARK Flexibility Score: inf
ROOT
ATOM      1  C   UNL     1      23.321  11.090  35.465  1.00  0.00     0.000 C 
ENDROOT
BRANCH   1   2
ATOM      2  C   UNL     1      24.793  11.175  35.917  1.00  0.00     0.000 C 
BRANCH   2   3
ATOM      3  C   UNL     1      25.376  12.601  35.988  1.00  0.00     0.000 C 
BRANCH   3   4
ATOM      4  C   UNL     1      26.677  12.807  35.190  1.00  0.00     0.000 C 
BRANCH   4   5
ATOM      5  C   UNL     1      27.306  11.482  34.726  1.00  0.00     0.000 C 
BRANCH   5   6
ATOM      6  C   UNL     1      28.430  11.687  33.693  1.00  0.00     0.006 C 
BRANCH   6   7
ATOM      7  C   UNL     1      28.045  12.598  32.517  1.00  0.00     0.053 C 
BRANCH   7   8
ATOM      8  C   UNL     1      27.222  11.875  31.494  1.00  0.00     0.041 C 
ATOM      9  O   UNL     1      26.083  12.307  31.177  1.00  0.00    -0.550 OA
ATOM     10  O   UNL     1      27.702  10.708  30.914  1.00  0.00    -0.550 OA
ENDBRANCH   7   8
ENDBRANCH   6   7
ENDBRANCH   5   6
ENDBRANCH   4   5
ENDBRANCH   3   4
ENDBRANCH   2   3
ENDBRANCH   1   2
BRANCH   1  11
ATOM     11  C   UNL     1      22.701  12.421  35.006  1.00  0.00     0.000 C 
BRANCH  11  12
ATOM     12  C   UNL     1      22.334  12.424  33.511  1.00  0.00     0.000 C 
BRANCH  12  13
ATOM     13  C   UNL     1      21.043  13.208  33.221  1.00  0.00     0.000 C 
BRANCH  13  14
ATOM     14  C   UNL     1      20.558  14.013  34.439  1.00  0.00     0.000 C 
BRANCH  14  15
ATOM     15  C   UNL     1      19.109  13.684  34.835  1.00  0.00     0.000 C 
BRANCH  15  16
ATOM     16  C   UNL     1      18.733  12.190  34.786  1.00  0.00     0.006 C 
BRANCH  16  17
ATOM     17  C   UNL     1      19.392  11.339  35.888  1.00  0.00     0.053 C 
BRANCH  17  18
ATOM     18  C   UNL     1      19.862  10.007  35.386  1.00  0.00     0.041 C 
ATOM     19  O   UNL     1      20.366   9.169  36.180  1.00  0.00    -0.550 OA
ATOM     20  O   UNL     1      19.707   9.674  34.046  1.00  0.00    -0.550 OA
ENDBRANCH  17  18
ENDBRANCH  16  17
ENDBRANCH  15  16
ENDBRANCH  14  15
ENDBRANCH  13  14
ENDBRANCH  12  13
ENDBRANCH  11  12
ENDBRANCH   1  11
TORSDOF 15
ENDMDL
MODEL 8
REMARK VINA RESULT:    -5.011      1.634      7.116
REMARK INTER + INTRA:         -11.039
REMARK INTER:                  -9.279
REMARK INTRA:                  -1.760
REMARK UNBOUND:                -1.634
REMARK SMILES O=C([O-])CCCCCCCCCCCCCCC(=O)[O-]
REMARK SMILES IDX 10 1 9 2 8 3 7 4 6 5 5 6 4 7 2 8 1 9 3 10 11 11 12 12 13 13
REMARK SMILES IDX 14 14 15 15 16 16 17 17 18 18 19 19 20 20
REMARK H PARENT
REMARK Flexibility Score: inf
ROOT
ATOM      1  C   UNL     1      22.325  10.661  35.872  1.00  0.00     0.000 C 
ENDROOT
BRANCH   1   2
ATOM      2  C   UNL     1      23.357  11.469  35.058  1.00  0.00     0.000 C 
BRANCH   2   3
ATOM      3  C   UNL     1      24.189  12.479  35.872  1.00  0.00     0.000 C 
BRANCH   3   4
ATOM      4  C   UNL     1      25.618  12.711  35.346  1.00  0.00     0.000 C 
BRANCH   4   5
ATOM      5  C   UNL     1      26.393  11.400  35.133  1.00  0.00     0.000 C 
BRANCH   5   6
ATOM      6  C   UNL     1      26.792  11.179  33.662  1.00  0.00     0.006 C 
BRANCH   6   7
ATOM      7  C   UNL     1      27.882  12.136  33.155  1.00  0.00     0.053 C 
BRANCH   7   8
ATOM      8  C   UNL     1      28.127  11.979  31.686  1.00  0.00     0.041 C 
ATOM      9  O   UNL     1      28.732  12.878  31.044  1.00  0.00    -0.550 OA
ATOM     10  O   UNL     1      27.661  10.853  31.018  1.00  0.00    -0.550 OA
ENDBRANCH   7   8
ENDBRANCH   6   7
ENDBRANCH   5   6
ENDBRANCH   4   5
ENDBRANCH   3   4
ENDBRANCH   2   3
ENDBRANCH   1   2
BRANCH   1  11
ATOM     11  C   UNL     1      21.193  10.027  35.046  1.00  0.00     0.000 C 
BRANCH  11  12
ATOM     12  C   UNL     1      21.256  10.410  33.557  1.00  0.00     0.000 C 
BRANCH  12  13
ATOM     13  C   UNL     1      19.866  10.696  32.962  1.00  0.00     0.000 C 
BRANCH  13  14
ATOM     14  C   UNL     1      19.776  12.089  32.316  1.00  0.00     0.000 C 
BRANCH  14  15
ATOM     15  C   UNL     1      20.918  13.024  32.750  1.00  0.00     0.000 C 
BRANCH  15  16
ATOM     16  C   UNL     1      20.505  14.186  33.674  1.00  0.00     0.006 C 
BRANCH  16  17
ATOM     17  C   UNL     1      20.502  13.828  35.172  1.00  0.00     0.053 C 
BRANCH  17  18
ATOM     18  C   UNL     1      19.170  13.326  35.644  1.00  0.00     0.041 C 
ATOM     19  O   UNL     1      18.107  13.754  35.122  1.00  0.00    -0.550 OA
ATOM     20  O   UNL     1      19.103  12.354  36.634  1.00  0.00    -0.550 OA
ENDBRANCH  17  18
ENDBRANCH  16  17
ENDBRANCH  15  16
ENDBRANCH  14  15
ENDBRANCH  13  14
ENDBRANCH  12  13
ENDBRANCH  11  12
ENDBRANCH   1  11
TORSDOF 15
ENDMDL
MODEL 9
REMARK VINA RESULT:    -4.996      1.665      7.030
REMARK INTER + INTRA:         -11.011
REMARK INTER:                  -9.321
REMARK INTRA:                  -1.689
REMARK UNBOUND:                -1.634
REMARK SMILES O=C([O-])CCCCCCCCCCCCCCC(=O)[O-]
REMARK SMILES IDX 10 1 9 2 8 3 7 4 6 5 5 6 4 7 2 8 1 9 3 10 11 11 12 12 13 13
REMARK SMILES IDX 14 14 15 15 16 16 17 17 18 18 19 19 20 20
REMARK H PARENT
REMARK Flexibility Score: inf
ROOT
ATOM      1  C   UNL     1      22.813  11.495  34.105  1.00  0.00     0.000 C 
ENDROOT
BRANCH   1   2
ATOM      2  C   UNL     1      23.525  12.003  35.376  1.00  0.00     0.000 C 
BRANCH   2   3
ATOM      3  C   UNL     1      24.746  11.174  35.820  1.00  0.00     0.000 C 
BRANCH   3   4
ATOM      4  C   UNL     1      26.072  11.563  35.141  1.00  0.00     0.000 C 
BRANCH   4   5
ATOM      5  C   UNL     1      26.365  13.070  35.228  1.00  0.00     0.000 C 
BRANCH   5   6
ATOM      6  C   UNL     1      27.584  13.488  34.384  1.00  0.00     0.006 C 
BRANCH   6   7
ATOM      7  C   UNL     1      28.096  12.395  33.434  1.00  0.00     0.053 C 
BRANCH   7   8
ATOM      8  C   UNL     1      27.801  12.713  32.001  1.00  0.00     0.041 C 
ATOM      9  O   UNL     1      28.725  12.704  31.145  1.00  0.00    -0.550 OA
ATOM     10  O   UNL     1      26.509  13.050  31.615  1.00  0.00    -0.550 OA
ENDBRANCH   7   8
ENDBRANCH   6   7
ENDBRANCH   5   6
ENDBRANCH   4   5
ENDBRANCH   3   4
ENDBRANCH   2   3
ENDBRANCH   1   2
BRANCH   1  11
ATOM     11  C   UNL     1      23.167  12.250  32.812  1.00  0.00     0.000 C 
BRANCH  11  12
ATOM     12  C   UNL     1      22.018  12.251  31.789  1.00  0.00     0.000 C 
BRANCH  12  13
ATOM     13  C   UNL     1      20.657  12.570  32.431  1.00  0.00     0.000 C 
BRANCH  13  14
ATOM     14  C   UNL     1      20.538  14.042  32.858  1.00  0.00     0.000 C 
BRANCH  14  15
ATOM     15  C   UNL     1      20.445  14.218  34.383  1.00  0.00     0.000 C 
BRANCH  15  16
ATOM     16  C   UNL     1      19.270  13.487  35.062  1.00  0.00     0.006 C 
BRANCH  16  17
ATOM     17  C   UNL     1      19.699  12.381  36.043  1.00  0.00     0.053 C 
BRANCH  17  18
ATOM     18  C   UNL     1      19.403  11.004  35.528  1.00  0.00     0.041 C 
ATOM     19  O   UNL     1      18.501  10.827  34.667  1.00  0.00    -0.550 OA
ATOM     20  O   UNL     1      20.150   9.920  35.970  1.00  0.00    -0.550 OA
ENDBRANCH  17  18
ENDBRANCH  16  17
ENDBRANCH  15  16
ENDBRANCH  14  15
ENDBRANCH  13  14
ENDBRANCH  12  13
ENDBRANCH  11  12
ENDBRANCH   1  11
TORSDOF 15
ENDMDL
