MODEL 1
REMARK VINA RESULT:    -4.582      0.000      0.000
REMARK INTER + INTRA:         -11.727
REMARK INTER:                  -9.940
REMARK INTRA:                  -1.787
REMARK UNBOUND:                -1.787
REMARK SMILES CCCCCCCCCCCCCCCCCCCCCC(=O)[O-]
REMARK SMILES IDX 12 1 11 2 10 3 9 4 8 5 7 6 6 7 5 8 4 9 3 10 2 11 1 12 13 13
REMARK SMILES IDX 14 14 15 15 16 16 17 17 18 18 19 19 20 20 21 21 22 22 23 23
REMARK SMILES IDX 24 24
REMARK H PARENT
REMARK Flexibility Score: inf
ROOT
ATOM      1  C   UNL     1      34.210   9.775  46.111  1.00  0.00     0.000 C 
ENDROOT
BRANCH   1   2
ATOM      2  C   UNL     1      35.090  10.813  45.384  1.00  0.00     0.000 C 
BRANCH   2   3
ATOM      3  C   UNL     1      36.032  11.622  46.298  1.00  0.00     0.000 C 
BRANCH   3   4
ATOM      4  C   UNL     1      35.862  13.153  46.220  1.00  0.00    -0.000 C 
BRANCH   4   5
ATOM      5  C   UNL     1      37.060  13.965  46.746  1.00  0.00    -0.000 C 
BRANCH   5   6
ATOM      6  C   UNL     1      37.856  14.645  45.624  1.00  0.00    -0.000 C 
BRANCH   6   7
ATOM      7  C   UNL     1      36.982  15.646  44.857  1.00  0.00    -0.000 C 
BRANCH   7   8
ATOM      8  C   UNL     1      37.301  17.089  45.273  1.00  0.00    -0.000 C 
BRANCH   8   9
ATOM      9  C   UNL     1      36.076  17.839  45.830  1.00  0.00    -0.000 C 
BRANCH   9  10
ATOM     10  C   UNL     1      35.709  17.493  47.285  1.00  0.00    -0.000 C 
BRANCH  10  11
ATOM     11  C   UNL     1      34.485  16.571  47.390  1.00  0.00    -0.003 C 
ATOM     12  C   UNL     1      33.576  16.996  48.540  1.00  0.00     0.004 C 
ENDBRANCH  10  11
ENDBRANCH   9  10
ENDBRANCH   8   9
ENDBRANCH   7   8
ENDBRANCH   6   7
ENDBRANCH   5   6
ENDBRANCH   4   5
ENDBRANCH   3   4
ENDBRANCH   2   3
ENDBRANCH   1   2
BRANCH   1  13
ATOM     13  C   UNL     1      33.998  10.040  47.611  1.00  0.00     0.000 C 
BRANCH  13  14
ATOM     14  C   UNL     1      32.515  10.072  48.008  1.00  0.00     0.000 C 
BRANCH  14  15
ATOM     15  C   UNL     1      32.127   8.806  48.782  1.00  0.00     0.000 C 
BRANCH  15  16
ATOM     16  C   UNL     1      30.601   8.643  48.848  1.00  0.00     0.000 C 
BRANCH  16  17
ATOM     17  C   UNL     1      30.164   7.167  48.734  1.00  0.00     0.000 C 
BRANCH  17  18
ATOM     18  C   UNL     1      30.837   6.406  47.574  1.00  0.00     0.000 C 
BRANCH  18  19
ATOM     19  C   UNL     1      31.619   5.149  47.989  1.00  0.00     0.000 C 
BRANCH  19  20
ATOM     20  C   UNL     1      33.097   5.198  47.563  1.00  0.00     0.006 C 
BRANCH  20  21
ATOM     21  C   UNL     1      33.410   6.435  46.712  1.00  0.00     0.053 C 
BRANCH  21  22
ATOM     22  C   UNL     1      34.075   6.070  45.422  1.00  0.00     0.041 C 
ATOM     23  O   UNL     1      33.986   6.832  44.424  1.00  0.00    -0.550 OA
ATOM     24  O   UNL     1      34.821   4.901  45.331  1.00  0.00    -0.550 OA
ENDBRANCH  21  22
ENDBRANCH  20  21
ENDBRANCH  19  20
ENDBRANCH  18  19
ENDBRANCH  17  18
ENDBRANCH  16  17
ENDBRANCH  15  16
ENDBRANCH  14  15
ENDBRANCH  13  14
ENDBRANCH   1  13
TORSDOF 20
ENDMDL
MODEL 2
REMARK VINA RESULT:    -4.571     18.498     20.059
REMARK INTER + INTRA:         -11.703
REMARK INTER:                  -8.047
REMARK INTRA:                  -3.656
REMARK UNBOUND:                -1.787
REMARK SMILES CCCCCCCCCCCCCCCCCCCCCC(=O)[O-]
REMARK SMILES IDX 12 1 11 2 10 3 9 4 8 5 7 6 6 7 5 8 4 9 3 10 2 11 1 12 13 13
REMARK SMILES IDX 14 14 15 15 16 16 17 17 18 18 19 19 20 20 21 21 22 22 23 23
REMARK SMILES IDX 24 24
REMARK H PARENT
REMARK Flexibility Score: inf
ROOT
ATOM      1  C   UNL     1      20.628  13.420  34.870  1.00  0.00     0.000 C 
ENDROOT
BRANCH   1   2
ATOM      2  C   UNL     1      19.323  13.169  35.653  1.00  0.00     0.000 C 
BRANCH   2   3
ATOM      3  C   UNL     1      18.068  12.969  34.781  1.00  0.00     0.000 C 
BRANCH   3   4
ATOM      4  C   UNL     1      18.315  12.264  33.432  1.00  0.00    -0.000 C 
BRANCH   4   5
ATOM      5  C   UNL     1      18.234  10.727  33.479  1.00  0.00    -0.000 C 
BRANCH   5   6
ATOM      6  C   UNL     1      18.466  10.077  32.108  1.00  0.00    -0.000 C 
BRANCH   6   7
ATOM      7  C   UNL     1      19.875   9.479  32.014  1.00  0.00    -0.000 C 
BRANCH   7   8
ATOM      8  C   UNL     1      20.842  10.452  31.325  1.00  0.00    -0.000 C 
BRANCH   8   9
ATOM      9  C   UNL     1      20.149  11.357  30.289  1.00  0.00    -0.000 C 
BRANCH   9  10
ATOM     10  C   UNL     1      20.771  12.757  30.130  1.00  0.00    -0.000 C 
BRANCH  10  11
ATOM     11  C   UNL     1      21.593  13.189  31.353  1.00  0.00    -0.003 C 
ATOM     12  C   UNL     1      21.595  14.707  31.504  1.00  0.00     0.004 C 
ENDBRANCH  10  11
ENDBRANCH   9  10
ENDBRANCH   8   9
ENDBRANCH   7   8
ENDBRANCH   6   7
ENDBRANCH   5   6
ENDBRANCH   4   5
ENDBRANCH   3   4
ENDBRANCH   2   3
ENDBRANCH   1   2
BRANCH   1  13
ATOM     13  C   UNL     1      21.824  12.555  35.306  1.00  0.00     0.000 C 
BRANCH  13  14
ATOM     14  C   UNL     1      21.827  11.166  34.651  1.00  0.00     0.000 C 
BRANCH  14  15
ATOM     15  C   UNL     1      21.784  10.060  35.712  1.00  0.00     0.000 C 
BRANCH  15  16
ATOM     16  C   UNL     1      20.340   9.613  35.988  1.00  0.00     0.000 C 
BRANCH  16  17
ATOM     17  C   UNL     1      20.058   8.189  35.465  1.00  0.00     0.000 C 
BRANCH  17  18
ATOM     18  C   UNL     1      19.359   7.275  36.491  1.00  0.00     0.000 C 
BRANCH  18  19
ATOM     19  C   UNL     1      18.326   6.303  35.898  1.00  0.00     0.000 C 
BRANCH  19  20
ATOM     20  C   UNL     1      17.875   6.703  34.481  1.00  0.00     0.006 C 
BRANCH  20  21
ATOM     21  C   UNL     1      18.097   5.575  33.466  1.00  0.00     0.053 C 
BRANCH  21  22
ATOM     22  C   UNL     1      19.167   5.919  32.477  1.00  0.00     0.041 C 
ATOM     23  O   UNL     1      18.861   6.251  31.301  1.00  0.00    -0.550 OA
ATOM     24  O   UNL     1      20.502   5.904  32.863  1.00  0.00    -0.550 OA
ENDBRANCH  21  22
ENDBRANCH  20  21
ENDBRANCH  19  20
ENDBRANCH  18  19
ENDBRANCH  17  18
ENDBRANCH  16  17
ENDBRANCH  15  16
ENDBRANCH  14  15
ENDBRANCH  13  14
ENDBRANCH   1  13
TORSDOF 20
ENDMDL
MODEL 3
REMARK VINA RESULT:    -4.563     18.541     20.109
REMARK INTER + INTRA:         -11.686
REMARK INTER:                  -8.293
REMARK INTRA:                  -3.392
REMARK UNBOUND:                -1.787
REMARK SMILES CCCCCCCCCCCCCCCCCCCCCC(=O)[O-]
REMARK SMILES IDX 12 1 11 2 10 3 9 4 8 5 7 6 6 7 5 8 4 9 3 10 2 11 1 12 13 13
REMARK SMILES IDX 14 14 15 15 16 16 17 17 18 18 19 19 20 20 21 21 22 22 23 23
REMARK SMILES IDX 24 24
REMARK H PARENT
REMARK Flexibility Score: inf
ROOT
ATOM      1  C   UNL     1      21.946  10.306  35.717  1.00  0.00     0.000 C 
ENDROOT
BRANCH   1   2
ATOM      2  C   UNL     1      22.107  11.457  34.703  1.00  0.00     0.000 C 
BRANCH   2   3
ATOM      3  C   UNL     1      21.458  12.791  35.122  1.00  0.00     0.000 C 
BRANCH   3   4
ATOM      4  C   UNL     1      20.093  12.660  35.828  1.00  0.00    -0.000 C 
BRANCH   4   5
ATOM      5  C   UNL     1      18.882  13.094  34.982  1.00  0.00    -0.000 C 
BRANCH   5   6
ATOM      6  C   UNL     1      18.125  11.906  34.373  1.00  0.00    -0.000 C 
BRANCH   6   7
ATOM      7  C   UNL     1      18.484  11.726  32.892  1.00  0.00    -0.000 C 
BRANCH   7   8
ATOM      8  C   UNL     1      19.137  10.358  32.646  1.00  0.00    -0.000 C 
BRANCH   8   9
ATOM      9  C   UNL     1      20.254  10.408  31.586  1.00  0.00    -0.000 C 
BRANCH   9  10
ATOM     10  C   UNL     1      20.403  11.759  30.862  1.00  0.00    -0.000 C 
BRANCH  10  11
ATOM     11  C   UNL     1      21.685  12.509  31.253  1.00  0.00    -0.003 C 
ATOM     12  C   UNL     1      21.375  13.941  31.678  1.00  0.00     0.004 C 
ENDBRANCH  10  11
ENDBRANCH   9  10
ENDBRANCH   8   9
ENDBRANCH   7   8
ENDBRANCH   6   7
ENDBRANCH   5   6
ENDBRANCH   4   5
ENDBRANCH   3   4
ENDBRANCH   2   3
ENDBRANCH   1   2
BRANCH   1  13
ATOM     13  C   UNL     1      20.985   9.186  35.282  1.00  0.00     0.000 C 
BRANCH  13  14
ATOM     14  C   UNL     1      19.738   9.090  36.172  1.00  0.00     0.000 C 
BRANCH  14  15
ATOM     15  C   UNL     1      19.462   7.637  36.574  1.00  0.00     0.000 C 
BRANCH  15  16
ATOM     16  C   UNL     1      19.696   6.681  35.394  1.00  0.00     0.000 C 
BRANCH  16  17
ATOM     17  C   UNL     1      18.384   6.314  34.669  1.00  0.00     0.000 C 
BRANCH  17  18
ATOM     18  C   UNL     1      18.574   5.949  33.183  1.00  0.00     0.000 C 
BRANCH  18  19
ATOM     19  C   UNL     1      19.914   6.391  32.572  1.00  0.00     0.000 C 
BRANCH  19  20
ATOM     20  C   UNL     1      19.822   6.651  31.057  1.00  0.00     0.006 C 
BRANCH  20  21
ATOM     21  C   UNL     1      19.503   5.371  30.272  1.00  0.00     0.053 C 
BRANCH  21  22
ATOM     22  C   UNL     1      20.701   4.860  29.534  1.00  0.00     0.041 C 
ATOM     23  O   UNL     1      20.827   3.628  29.305  1.00  0.00    -0.550 OA
ATOM     24  O   UNL     1      21.663   5.748  29.068  1.00  0.00    -0.550 OA
ENDBRANCH  21  22
ENDBRANCH  20  21
ENDBRANCH  19  20
ENDBRANCH  18  19
ENDBRANCH  17  18
ENDBRANCH  16  17
ENDBRANCH  15  16
ENDBRANCH  14  15
ENDBRANCH  13  14
ENDBRANCH   1  13
TORSDOF 20
ENDMDL
MODEL 4
REMARK VINA RESULT:    -4.560     18.526     20.958
REMARK INTER + INTRA:         -11.679
REMARK INTER:                  -7.858
REMARK INTRA:                  -3.821
REMARK UNBOUND:                -1.787
REMARK SMILES CCCCCCCCCCCCCCCCCCCCCC(=O)[O-]
REMARK SMILES IDX 12 1 11 2 10 3 9 4 8 5 7 6 6 7 5 8 4 9 3 10 2 11 1 12 13 13
REMARK SMILES IDX 14 14 15 15 16 16 17 17 18 18 19 19 20 20 21 21 22 22 23 23
REMARK SMILES IDX 24 24
REMARK H PARENT
REMARK Flexibility Score: inf
ROOT
ATOM      1  C   UNL     1      20.219  12.626  36.002  1.00  0.00     0.000 C 
ENDROOT
BRANCH   1   2
ATOM      2  C   UNL     1      21.307  12.752  34.916  1.00  0.00     0.000 C 
BRANCH   2   3
ATOM      3  C   UNL     1      22.101  11.461  34.636  1.00  0.00     0.000 C 
BRANCH   3   4
ATOM      4  C   UNL     1      21.985  10.373  35.723  1.00  0.00    -0.000 C 
BRANCH   4   5
ATOM      5  C   UNL     1      21.036   9.210  35.379  1.00  0.00    -0.000 C 
BRANCH   5   6
ATOM      6  C   UNL     1      19.917   9.029  36.414  1.00  0.00    -0.000 C 
BRANCH   6   7
ATOM      7  C   UNL     1      19.186   7.697  36.205  1.00  0.00    -0.000 C 
BRANCH   7   8
ATOM      8  C   UNL     1      19.605   7.038  34.883  1.00  0.00    -0.000 C 
BRANCH   8   9
ATOM      9  C   UNL     1      18.495   6.169  34.265  1.00  0.00    -0.000 C 
BRANCH   9  10
ATOM     10  C   UNL     1      18.717   5.782  32.791  1.00  0.00    -0.000 C 
BRANCH  10  11
ATOM     11  C   UNL     1      20.029   6.339  32.218  1.00  0.00    -0.003 C 
ATOM     12  C   UNL     1      19.767   7.205  30.989  1.00  0.00     0.004 C 
ENDBRANCH  10  11
ENDBRANCH   9  10
ENDBRANCH   8   9
ENDBRANCH   7   8
ENDBRANCH   6   7
ENDBRANCH   5   6
ENDBRANCH   4   5
ENDBRANCH   3   4
ENDBRANCH   2   3
ENDBRANCH   1   2
BRANCH   1  13
ATOM     13  C   UNL     1      18.779  12.851  35.507  1.00  0.00     0.000 C 
BRANCH  13  14
ATOM     14  C   UNL     1      18.592  12.485  34.028  1.00  0.00     0.000 C 
BRANCH  14  15
ATOM     15  C   UNL     1      17.954  11.097  33.883  1.00  0.00     0.000 C 
BRANCH  15  16
ATOM     16  C   UNL     1      18.786  10.200  32.954  1.00  0.00     0.000 C 
BRANCH  16  17
ATOM     17  C   UNL     1      19.319  10.965  31.724  1.00  0.00     0.000 C 
BRANCH  17  18
ATOM     18  C   UNL     1      20.803  10.689  31.413  1.00  0.00     0.000 C 
BRANCH  18  19
ATOM     19  C   UNL     1      21.629  11.928  31.031  1.00  0.00     0.000 C 
BRANCH  19  20
ATOM     20  C   UNL     1      20.818  13.235  31.116  1.00  0.00     0.006 C 
BRANCH  20  21
ATOM     21  C   UNL     1      21.628  14.374  31.747  1.00  0.00     0.053 C 
BRANCH  21  22
ATOM     22  C   UNL     1      22.184  15.301  30.711  1.00  0.00     0.041 C 
ATOM     23  O   UNL     1      23.195  14.968  30.038  1.00  0.00    -0.550 OA
ATOM     24  O   UNL     1      21.565  16.521  30.465  1.00  0.00    -0.550 OA
ENDBRANCH  21  22
ENDBRANCH  20  21
ENDBRANCH  19  20
ENDBRANCH  18  19
ENDBRANCH  17  18
ENDBRANCH  16  17
ENDBRANCH  15  16
ENDBRANCH  14  15
ENDBRANCH  13  14
ENDBRANCH   1  13
TORSDOF 20
ENDMDL
MODEL 5
REMARK VINA RESULT:    -4.516     18.081     20.561
REMARK INTER + INTRA:         -11.582
REMARK INTER:                  -7.643
REMARK INTRA:                  -3.939
REMARK UNBOUND:                -1.787
REMARK SMILES CCCCCCCCCCCCCCCCCCCCCC(=O)[O-]
REMARK SMILES IDX 12 1 11 2 10 3 9 4 8 5 7 6 6 7 5 8 4 9 3 10 2 11 1 12 13 13
REMARK SMILES IDX 14 14 15 15 16 16 17 17 18 18 19 19 20 20 21 21 22 22 23 23
REMARK SMILES IDX 24 24
REMARK H PARENT
REMARK Flexibility Score: inf
ROOT
ATOM      1  C   UNL     1      21.176  11.038  31.701  1.00  0.00     0.000 C 
ENDROOT
BRANCH   1   2
ATOM      2  C   UNL     1      20.346   9.799  32.093  1.00  0.00     0.000 C 
BRANCH   2   3
ATOM      3  C   UNL     1      18.821  10.021  32.127  1.00  0.00     0.000 C 
BRANCH   3   4
ATOM      4  C   UNL     1      17.998   9.034  31.275  1.00  0.00    -0.000 C 
BRANCH   4   5
ATOM      5  C   UNL     1      18.825   8.154  30.321  1.00  0.00    -0.000 C 
BRANCH   5   6
ATOM      6  C   UNL     1      18.877   6.684  30.761  1.00  0.00    -0.000 C 
BRANCH   6   7
ATOM      7  C   UNL     1      17.927   6.428  31.938  1.00  0.00    -0.000 C 
BRANCH   7   8
ATOM      8  C   UNL     1      18.665   5.757  33.106  1.00  0.00    -0.000 C 
BRANCH   8   9
ATOM      9  C   UNL     1      20.107   6.268  33.279  1.00  0.00    -0.000 C 
BRANCH   9  10
ATOM     10  C   UNL     1      20.387   6.981  34.615  1.00  0.00    -0.000 C 
BRANCH  10  11
ATOM     11  C   UNL     1      19.152   7.054  35.525  1.00  0.00    -0.003 C 
ATOM     12  C   UNL     1      19.403   6.340  36.850  1.00  0.00     0.004 C 
ENDBRANCH  10  11
ENDBRANCH   9  10
ENDBRANCH   8   9
ENDBRANCH   7   8
ENDBRANCH   6   7
ENDBRANCH   5   6
ENDBRANCH   4   5
ENDBRANCH   3   4
ENDBRANCH   2   3
ENDBRANCH   1   2
BRANCH   1  13
ATOM     13  C   UNL     1      20.370  12.187  31.068  1.00  0.00     0.000 C 
BRANCH  13  14
ATOM     14  C   UNL     1      20.172  13.373  32.022  1.00  0.00     0.000 C 
BRANCH  14  15
ATOM     15  C   UNL     1      21.274  13.410  33.088  1.00  0.00     0.000 C 
BRANCH  15  16
ATOM     16  C   UNL     1      20.704  13.797  34.461  1.00  0.00     0.000 C 
BRANCH  16  17
ATOM     17  C   UNL     1      19.379  13.068  34.771  1.00  0.00     0.000 C 
BRANCH  17  18
ATOM     18  C   UNL     1      19.456  12.130  35.992  1.00  0.00     0.000 C 
BRANCH  18  19
ATOM     19  C   UNL     1      19.759  10.659  35.662  1.00  0.00     0.000 C 
BRANCH  19  20
ATOM     20  C   UNL     1      21.142  10.207  36.168  1.00  0.00     0.006 C 
BRANCH  20  21
ATOM     21  C   UNL     1      22.225  10.356  35.092  1.00  0.00     0.053 C 
BRANCH  21  22
ATOM     22  C   UNL     1      23.382  11.172  35.577  1.00  0.00     0.041 C 
ATOM     23  O   UNL     1      23.202  12.349  35.986  1.00  0.00    -0.550 OA
ATOM     24  O   UNL     1      24.658  10.620  35.610  1.00  0.00    -0.550 OA
ENDBRANCH  21  22
ENDBRANCH  20  21
ENDBRANCH  19  20
ENDBRANCH  18  19
ENDBRANCH  17  18
ENDBRANCH  16  17
ENDBRANCH  15  16
ENDBRANCH  14  15
ENDBRANCH  13  14
ENDBRANCH   1  13
TORSDOF 20
ENDMDL
MODEL 6
REMARK VINA RESULT:    -4.457     18.794     21.218
REMARK INTER + INTRA:         -11.455
REMARK INTER:                  -8.358
REMARK INTRA:                  -3.097
REMARK UNBOUND:                -1.787
REMARK SMILES CCCCCCCCCCCCCCCCCCCCCC(=O)[O-]
REMARK SMILES IDX 12 1 11 2 10 3 9 4 8 5 7 6 6 7 5 8 4 9 3 10 2 11 1 12 13 13
REMARK SMILES IDX 14 14 15 15 16 16 17 17 18 18 19 19 20 20 21 21 22 22 23 23
REMARK SMILES IDX 24 24
REMARK H PARENT
REMARK Flexibility Score: inf
ROOT
ATOM      1  C   UNL     1      19.079  12.597  35.930  1.00  0.00     0.000 C 
ENDROOT
BRANCH   1   2
ATOM      2  C   UNL     1      20.137  13.553  35.344  1.00  0.00     0.000 C 
BRANCH   2   3
ATOM      3  C   UNL     1      21.529  12.928  35.122  1.00  0.00     0.000 C 
BRANCH   3   4
ATOM      4  C   UNL     1      21.723  11.528  35.739  1.00  0.00    -0.000 C 
BRANCH   4   5
ATOM      5  C   UNL     1      21.943  10.395  34.720  1.00  0.00    -0.000 C 
BRANCH   5   6
ATOM      6  C   UNL     1      20.744   9.441  34.622  1.00  0.00    -0.000 C 
BRANCH   6   7
ATOM      7  C   UNL     1      20.245   9.040  36.016  1.00  0.00    -0.000 C 
BRANCH   7   8
ATOM      8  C   UNL     1      19.431   7.739  35.958  1.00  0.00    -0.000 C 
BRANCH   8   9
ATOM      9  C   UNL     1      18.638   7.584  34.647  1.00  0.00    -0.000 C 
BRANCH   9  10
ATOM     10  C   UNL     1      18.854   6.248  33.911  1.00  0.00    -0.000 C 
BRANCH  10  11
ATOM     11  C   UNL     1      20.056   6.279  32.955  1.00  0.00    -0.003 C 
ATOM     12  C   UNL     1      19.796   7.213  31.777  1.00  0.00     0.004 C 
ENDBRANCH  10  11
ENDBRANCH   9  10
ENDBRANCH   8   9
ENDBRANCH   7   8
ENDBRANCH   6   7
ENDBRANCH   5   6
ENDBRANCH   4   5
ENDBRANCH   3   4
ENDBRANCH   2   3
ENDBRANCH   1   2
BRANCH   1  13
ATOM     13  C   UNL     1      18.077  12.032  34.908  1.00  0.00     0.000 C 
BRANCH  13  14
ATOM     14  C   UNL     1      18.231  12.656  33.514  1.00  0.00     0.000 C 
BRANCH  14  15
ATOM     15  C   UNL     1      18.682  11.607  32.490  1.00  0.00     0.000 C 
BRANCH  15  16
ATOM     16  C   UNL     1      20.038  11.982  31.873  1.00  0.00     0.000 C 
BRANCH  16  17
ATOM     17  C   UNL     1      20.123  13.481  31.514  1.00  0.00     0.000 C 
BRANCH  17  18
ATOM     18  C   UNL     1      21.560  14.038  31.500  1.00  0.00     0.000 C 
BRANCH  18  19
ATOM     19  C   UNL     1      21.975  14.731  30.192  1.00  0.00     0.000 C 
BRANCH  19  20
ATOM     20  C   UNL     1      23.218  15.624  30.359  1.00  0.00     0.006 C 
BRANCH  20  21
ATOM     21  C   UNL     1      23.077  16.954  29.607  1.00  0.00     0.053 C 
BRANCH  21  22
ATOM     22  C   UNL     1      22.709  18.076  30.527  1.00  0.00     0.041 C 
ATOM     23  O   UNL     1      23.133  19.241  30.309  1.00  0.00    -0.550 OA
ATOM     24  O   UNL     1      21.869  17.841  31.610  1.00  0.00    -0.550 OA
ENDBRANCH  21  22
ENDBRANCH  20  21
ENDBRANCH  19  20
ENDBRANCH  18  19
ENDBRANCH  17  18
ENDBRANCH  16  17
ENDBRANCH  15  16
ENDBRANCH  14  15
ENDBRANCH  13  14
ENDBRANCH   1  13
TORSDOF 20
ENDMDL
MODEL 7
REMARK VINA RESULT:    -4.454     18.864     21.312
REMARK INTER + INTRA:         -11.448
REMARK INTER:                  -8.133
REMARK INTRA:                  -3.314
REMARK UNBOUND:                -1.787
REMARK SMILES CCCCCCCCCCCCCCCCCCCCCC(=O)[O-]
REMARK SMILES IDX 12 1 11 2 10 3 9 4 8 5 7 6 6 7 5 8 4 9 3 10 2 11 1 12 13 13
REMARK SMILES IDX 14 14 15 15 16 16 17 17 18 18 19 19 20 20 21 21 22 22 23 23
REMARK SMILES IDX 24 24
REMARK H PARENT
REMARK Flexibility Score: inf
ROOT
ATOM      1  C   UNL     1      21.888  11.862  35.489  1.00  0.00     0.000 C 
ENDROOT
BRANCH   1   2
ATOM      2  C   UNL     1      21.257  13.249  35.253  1.00  0.00     0.000 C 
BRANCH   2   3
ATOM      3  C   UNL     1      19.754  13.346  35.580  1.00  0.00     0.000 C 
BRANCH   3   4
ATOM      4  C   UNL     1      19.015  11.994  35.664  1.00  0.00    -0.000 C 
BRANCH   4   5
ATOM      5  C   UNL     1      18.013  11.732  34.525  1.00  0.00    -0.000 C 
BRANCH   5   6
ATOM      6  C   UNL     1      18.041  10.279  34.031  1.00  0.00    -0.000 C 
BRANCH   6   7
ATOM      7  C   UNL     1      19.118   9.469  34.764  1.00  0.00    -0.000 C 
BRANCH   7   8
ATOM      8  C   UNL     1      19.547   8.247  33.938  1.00  0.00    -0.000 C 
BRANCH   8   9
ATOM      9  C   UNL     1      18.401   7.245  33.707  1.00  0.00    -0.000 C 
BRANCH   9  10
ATOM     10  C   UNL     1      18.419   6.014  34.632  1.00  0.00    -0.000 C 
BRANCH  10  11
ATOM     11  C   UNL     1      18.085   6.358  36.091  1.00  0.00    -0.003 C 
ATOM     12  C   UNL     1      19.312   6.202  36.986  1.00  0.00     0.004 C 
ENDBRANCH  10  11
ENDBRANCH   9  10
ENDBRANCH   8   9
ENDBRANCH   7   8
ENDBRANCH   6   7
ENDBRANCH   5   6
ENDBRANCH   4   5
ENDBRANCH   3   4
ENDBRANCH   2   3
ENDBRANCH   1   2
BRANCH   1  13
ATOM     13  C   UNL     1      22.360  11.138  34.215  1.00  0.00     0.000 C 
BRANCH  13  14
ATOM     14  C   UNL     1      21.992  11.892  32.929  1.00  0.00     0.000 C 
BRANCH  14  15
ATOM     15  C   UNL     1      21.106  11.028  32.023  1.00  0.00     0.000 C 
BRANCH  15  16
ATOM     16  C   UNL     1      20.027  11.877  31.332  1.00  0.00     0.000 C 
BRANCH  16  17
ATOM     17  C   UNL     1      20.101  13.363  31.741  1.00  0.00     0.000 C 
BRANCH  17  18
ATOM     18  C   UNL     1      20.060  14.340  30.549  1.00  0.00     0.000 C 
BRANCH  18  19
ATOM     19  C   UNL     1      21.428  14.659  29.924  1.00  0.00     0.000 C 
BRANCH  19  20
ATOM     20  C   UNL     1      22.378  15.377  30.900  1.00  0.00     0.006 C 
BRANCH  20  21
ATOM     21  C   UNL     1      23.043  16.602  30.261  1.00  0.00     0.053 C 
BRANCH  21  22
ATOM     22  C   UNL     1      22.443  17.881  30.756  1.00  0.00     0.041 C 
ATOM     23  O   UNL     1      21.739  17.891  31.799  1.00  0.00    -0.550 OA
ATOM     24  O   UNL     1      22.690  19.071  30.081  1.00  0.00    -0.550 OA
ENDBRANCH  21  22
ENDBRANCH  20  21
ENDBRANCH  19  20
ENDBRANCH  18  19
ENDBRANCH  17  18
ENDBRANCH  16  17
ENDBRANCH  15  16
ENDBRANCH  14  15
ENDBRANCH  13  14
ENDBRANCH   1  13
TORSDOF 20
ENDMDL
MODEL 8
REMARK VINA RESULT:    -4.435      3.548      8.816
REMARK INTER + INTRA:         -11.407
REMARK INTER:                  -9.340
REMARK INTRA:                  -2.067
REMARK UNBOUND:                -1.787
REMARK SMILES CCCCCCCCCCCCCCCCCCCCCC(=O)[O-]
REMARK SMILES IDX 12 1 11 2 10 3 9 4 8 5 7 6 6 7 5 8 4 9 3 10 2 11 1 12 13 13
REMARK SMILES IDX 14 14 15 15 16 16 17 17 18 18 19 19 20 20 21 21 22 22 23 23
REMARK SMILES IDX 24 24
REMARK H PARENT
REMARK Flexibility Score: inf
ROOT
ATOM      1  C   UNL     1      31.397   9.138  48.340  1.00  0.00     0.000 C 
ENDROOT
BRANCH   1   2
ATOM      2  C   UNL     1      30.330   8.335  49.112  1.00  0.00     0.000 C 
BRANCH   2   3
ATOM      3  C   UNL     1      29.835   7.059  48.402  1.00  0.00     0.000 C 
BRANCH   3   4
ATOM      4  C   UNL     1      30.811   5.866  48.445  1.00  0.00    -0.000 C 
BRANCH   4   5
ATOM      5  C   UNL     1      31.798   5.792  47.266  1.00  0.00    -0.000 C 
BRANCH   5   6
ATOM      6  C   UNL     1      33.156   5.196  47.662  1.00  0.00    -0.000 C 
BRANCH   6   7
ATOM      7  C   UNL     1      34.309   5.988  47.035  1.00  0.00    -0.000 C 
BRANCH   7   8
ATOM      8  C   UNL     1      34.355   5.784  45.513  1.00  0.00    -0.000 C 
BRANCH   8   9
ATOM      9  C   UNL     1      33.672   6.922  44.733  1.00  0.00    -0.000 C 
BRANCH   9  10
ATOM     10  C   UNL     1      34.041   8.343  45.200  1.00  0.00    -0.000 C 
BRANCH  10  11
ATOM     11  C   UNL     1      34.824   9.136  44.143  1.00  0.00    -0.003 C 
ATOM     12  C   UNL     1      34.004  10.313  43.622  1.00  0.00     0.004 C 
ENDBRANCH  10  11
ENDBRANCH   9  10
ENDBRANCH   8   9
ENDBRANCH   7   8
ENDBRANCH   6   7
ENDBRANCH   5   6
ENDBRANCH   4   5
ENDBRANCH   3   4
ENDBRANCH   2   3
ENDBRANCH   1   2
BRANCH   1  13
ATOM     13  C   UNL     1      32.797   9.138  48.978  1.00  0.00     0.000 C 
BRANCH  13  14
ATOM     14  C   UNL     1      33.679  10.293  48.483  1.00  0.00     0.000 C 
BRANCH  14  15
ATOM     15  C   UNL     1      35.151  10.052  48.843  1.00  0.00     0.000 C 
BRANCH  15  16
ATOM     16  C   UNL     1      36.070  11.035  48.101  1.00  0.00     0.000 C 
BRANCH  16  17
ATOM     17  C   UNL     1      35.419  11.589  46.815  1.00  0.00     0.000 C 
BRANCH  17  18
ATOM     18  C   UNL     1      35.927  12.987  46.412  1.00  0.00     0.000 C 
BRANCH  18  19
ATOM     19  C   UNL     1      37.424  13.061  46.070  1.00  0.00     0.000 C 
BRANCH  19  20
ATOM     20  C   UNL     1      37.899  14.495  45.777  1.00  0.00     0.006 C 
BRANCH  20  21
ATOM     21  C   UNL     1      36.784  15.359  45.174  1.00  0.00     0.053 C 
BRANCH  21  22
ATOM     22  C   UNL     1      36.457  16.532  46.044  1.00  0.00     0.041 C 
ATOM     23  O   UNL     1      35.652  17.414  45.645  1.00  0.00    -0.550 OA
ATOM     24  O   UNL     1      37.018  16.636  47.311  1.00  0.00    -0.550 OA
ENDBRANCH  21  22
ENDBRANCH  20  21
ENDBRANCH  19  20
ENDBRANCH  18  19
ENDBRANCH  17  18
ENDBRANCH  16  17
ENDBRANCH  15  16
ENDBRANCH  14  15
ENDBRANCH  13  14
ENDBRANCH   1  13
TORSDOF 20
ENDMDL
MODEL 9
REMARK VINA RESULT:    -4.418      3.113      9.780
REMARK INTER + INTRA:         -11.370
REMARK INTER:                  -9.236
REMARK INTRA:                  -2.134
REMARK UNBOUND:                -1.787
REMARK SMILES CCCCCCCCCCCCCCCCCCCCCC(=O)[O-]
REMARK SMILES IDX 12 1 11 2 10 3 9 4 8 5 7 6 6 7 5 8 4 9 3 10 2 11 1 12 13 13
REMARK SMILES IDX 14 14 15 15 16 16 17 17 18 18 19 19 20 20 21 21 22 22 23 23
REMARK SMILES IDX 24 24
REMARK H PARENT
REMARK Flexibility Score: inf
ROOT
ATOM      1  C   UNL     1      35.016  10.535  45.800  1.00  0.00     0.000 C 
ENDROOT
BRANCH   1   2
ATOM      2  C   UNL     1      33.976   9.630  46.494  1.00  0.00     0.000 C 
BRANCH   2   3
ATOM      3  C   UNL     1      34.025   9.644  48.034  1.00  0.00     0.000 C 
BRANCH   3   4
ATOM      4  C   UNL     1      32.852  10.374  48.719  1.00  0.00    -0.000 C 
BRANCH   4   5
ATOM      5  C   UNL     1      31.466   9.751  48.469  1.00  0.00    -0.000 C 
BRANCH   5   6
ATOM      6  C   UNL     1      31.307   8.372  49.125  1.00  0.00    -0.000 C 
BRANCH   6   7
ATOM      7  C   UNL     1      30.204   7.559  48.435  1.00  0.00    -0.000 C 
BRANCH   7   8
ATOM      8  C   UNL     1      30.734   6.196  47.968  1.00  0.00    -0.000 C 
BRANCH   8   9
ATOM      9  C   UNL     1      31.871   6.314  46.936  1.00  0.00    -0.000 C 
BRANCH   9  10
ATOM     10  C   UNL     1      33.242   5.807  47.419  1.00  0.00    -0.000 C 
BRANCH  10  11
ATOM     11  C   UNL     1      34.270   5.687  46.285  1.00  0.00    -0.003 C 
ATOM     12  C   UNL     1      33.801   6.432  45.038  1.00  0.00     0.004 C 
ENDBRANCH  10  11
ENDBRANCH   9  10
ENDBRANCH   8   9
ENDBRANCH   7   8
ENDBRANCH   6   7
ENDBRANCH   5   6
ENDBRANCH   4   5
ENDBRANCH   3   4
ENDBRANCH   2   3
ENDBRANCH   1   2
BRANCH   1  13
ATOM     13  C   UNL     1      36.062  11.159  46.740  1.00  0.00     0.000 C 
BRANCH  13  14
ATOM     14  C   UNL     1      35.730  12.608  47.125  1.00  0.00     0.000 C 
BRANCH  14  15
ATOM     15  C   UNL     1      36.029  13.566  45.966  1.00  0.00     0.000 C 
BRANCH  15  16
ATOM     16  C   UNL     1      37.494  14.029  45.995  1.00  0.00     0.000 C 
BRANCH  16  17
ATOM     17  C   UNL     1      37.631  15.553  45.797  1.00  0.00     0.000 C 
BRANCH  17  18
ATOM     18  C   UNL     1      36.393  16.212  45.157  1.00  0.00     0.000 C 
BRANCH  18  19
ATOM     19  C   UNL     1      35.887  17.476  45.872  1.00  0.00     0.000 C 
BRANCH  19  20
ATOM     20  C   UNL     1      36.252  17.501  47.367  1.00  0.00     0.006 C 
BRANCH  20  21
ATOM     21  C   UNL     1      35.069  17.938  48.241  1.00  0.00     0.053 C 
BRANCH  21  22
ATOM     22  C   UNL     1      34.067  16.839  48.411  1.00  0.00     0.041 C 
ATOM     23  O   UNL     1      34.440  15.636  48.416  1.00  0.00    -0.550 OA
ATOM     24  O   UNL     1      32.724  17.144  48.596  1.00  0.00    -0.550 OA
ENDBRANCH  21  22
ENDBRANCH  20  21
ENDBRANCH  19  20
ENDBRANCH  18  19
ENDBRANCH  17  18
ENDBRANCH  16  17
ENDBRANCH  15  16
ENDBRANCH  14  15
ENDBRANCH  13  14
ENDBRANCH   1  13
TORSDOF 20
ENDMDL
