MODEL 1
REMARK VINA RESULT:    -3.884      0.000      0.000
REMARK INTER + INTRA:          -5.705
REMARK INTER:                  -5.359
REMARK INTRA:                  -0.346
REMARK UNBOUND:                -0.346
REMARK SMILES CCCCCCCCO
REMARK SMILES IDX 5 1 4 2 3 3 2 4 1 5 6 6 7 7 8 8 9 9
REMARK H PARENT 9 10
REMARK Flexibility Score: inf
ROOT
ATOM      1  C   UNL     1     171.087 172.290 207.310  1.00  0.00     0.000 C 
ENDROOT
BRANCH   1   2
ATOM      2  C   UNL     1     170.791 172.206 205.804  1.00  0.00    -0.000 C 
BRANCH   2   3
ATOM      3  C   UNL     1     171.793 171.315 205.054  1.00  0.00    -0.000 C 
BRANCH   3   4
ATOM      4  C   UNL     1     172.970 172.140 204.523  1.00  0.00    -0.003 C 
ATOM      5  C   UNL     1     172.484 173.362 203.750  1.00  0.00     0.004 C 
ENDBRANCH   3   4
ENDBRANCH   2   3
ENDBRANCH   1   2
BRANCH   1   6
ATOM      6  C   UNL     1     171.228 170.907 207.963  1.00  0.00     0.002 C 
BRANCH   6   7
ATOM      7  C   UNL     1     172.391 170.889 208.964  1.00  0.00     0.028 C 
BRANCH   7   8
ATOM      8  C   UNL     1     173.722 170.613 208.261  1.00  0.00     0.156 C 
BRANCH   8   9
ATOM      9  O   UNL     1     174.654 170.100 209.173  1.00  0.00    -0.396 OA
ATOM     10  H   UNL     1     175.450 170.690 209.129  1.00  0.00     0.210 HD
ENDBRANCH   8   9
ENDBRANCH   7   8
ENDBRANCH   6   7
ENDBRANCH   1   6
TORSDOF 7
ENDMDL
MODEL 2
REMARK VINA RESULT:    -3.870      1.266      1.698
REMARK INTER + INTRA:          -5.686
REMARK INTER:                  -5.407
REMARK INTRA:                  -0.280
REMARK UNBOUND:                -0.346
REMARK SMILES CCCCCCCCO
REMARK SMILES IDX 5 1 4 2 3 3 2 4 1 5 6 6 7 7 8 8 9 9
REMARK H PARENT 9 10
REMARK Flexibility Score: inf
ROOT
ATOM      1  C   UNL     1     170.875 172.320 206.876  1.00  0.00     0.000 C 
ENDROOT
BRANCH   1   2
ATOM      2  C   UNL     1     171.541 172.392 205.493  1.00  0.00    -0.000 C 
BRANCH   2   3
ATOM      3  C   UNL     1     170.679 171.762 204.388  1.00  0.00    -0.000 C 
BRANCH   3   4
ATOM      4  C   UNL     1     171.067 170.297 204.159  1.00  0.00    -0.003 C 
ATOM      5  C   UNL     1     171.539 170.069 202.726  1.00  0.00     0.004 C 
ENDBRANCH   3   4
ENDBRANCH   2   3
ENDBRANCH   1   2
BRANCH   1   6
ATOM      6  C   UNL     1     171.410 171.162 207.731  1.00  0.00     0.002 C 
BRANCH   6   7
ATOM      7  C   UNL     1     172.926 171.009 207.561  1.00  0.00     0.028 C 
BRANCH   7   8
ATOM      8  C   UNL     1     173.598 170.645 208.887  1.00  0.00     0.156 C 
BRANCH   8   9
ATOM      9  O   UNL     1     174.672 169.772 208.663  1.00  0.00    -0.396 OA
ATOM     10  H   UNL     1     174.935 169.884 207.713  1.00  0.00     0.210 HD
ENDBRANCH   8   9
ENDBRANCH   7   8
ENDBRANCH   6   7
ENDBRANCH   1   6
TORSDOF 7
ENDMDL
MODEL 3
REMARK VINA RESULT:    -3.804      2.758      3.277
REMARK INTER + INTRA:          -5.596
REMARK INTER:                  -5.312
REMARK INTRA:                  -0.284
REMARK UNBOUND:                -0.346
REMARK SMILES CCCCCCCCO
REMARK SMILES IDX 5 1 4 2 3 3 2 4 1 5 6 6 7 7 8 8 9 9
REMARK H PARENT 9 10
REMARK Flexibility Score: inf
ROOT
ATOM      1  C   UNL     1     171.289 171.232 207.517  1.00  0.00     0.000 C 
ENDROOT
BRANCH   1   2
ATOM      2  C   UNL     1     172.594 171.282 206.706  1.00  0.00    -0.000 C 
BRANCH   2   3
ATOM      3  C   UNL     1     172.349 171.486 205.203  1.00  0.00    -0.000 C 
BRANCH   3   4
ATOM      4  C   UNL     1     171.081 172.312 204.961  1.00  0.00    -0.003 C 
ATOM      5  C   UNL     1     170.199 171.671 203.895  1.00  0.00     0.004 C 
ENDBRANCH   3   4
ENDBRANCH   2   3
ENDBRANCH   1   2
BRANCH   1   6
ATOM      6  C   UNL     1     171.528 171.338 209.030  1.00  0.00     0.002 C 
BRANCH   6   7
ATOM      7  C   UNL     1     170.706 172.482 209.636  1.00  0.00     0.028 C 
BRANCH   7   8
ATOM      8  C   UNL     1     169.707 173.044 208.622  1.00  0.00     0.156 C 
BRANCH   8   9
ATOM      9  O   UNL     1     168.661 173.700 209.285  1.00  0.00    -0.396 OA
ATOM     10  H   UNL     1     168.729 174.660 209.044  1.00  0.00     0.210 HD
ENDBRANCH   8   9
ENDBRANCH   7   8
ENDBRANCH   6   7
ENDBRANCH   1   6
TORSDOF 7
ENDMDL
MODEL 4
REMARK VINA RESULT:    -3.800      2.666      3.165
REMARK INTER + INTRA:          -5.590
REMARK INTER:                  -5.202
REMARK INTRA:                  -0.388
REMARK UNBOUND:                -0.346
REMARK SMILES CCCCCCCCO
REMARK SMILES IDX 5 1 4 2 3 3 2 4 1 5 6 6 7 7 8 8 9 9
REMARK H PARENT 9 10
REMARK Flexibility Score: inf
ROOT
ATOM      1  C   UNL     1     172.658 171.379 207.907  1.00  0.00     0.000 C 
ENDROOT
BRANCH   1   2
ATOM      2  C   UNL     1     172.736 171.237 206.379  1.00  0.00    -0.000 C 
BRANCH   2   3
ATOM      3  C   UNL     1     171.351 171.232 205.714  1.00  0.00    -0.000 C 
BRANCH   3   4
ATOM      4  C   UNL     1     171.257 172.318 204.637  1.00  0.00    -0.003 C 
ATOM      5  C   UNL     1     172.554 173.118 204.545  1.00  0.00     0.004 C 
ENDBRANCH   3   4
ENDBRANCH   2   3
ENDBRANCH   1   2
BRANCH   1   6
ATOM      6  C   UNL     1     172.264 172.796 208.350  1.00  0.00     0.002 C 
BRANCH   6   7
ATOM      7  C   UNL     1     171.081 172.757 209.325  1.00  0.00     0.028 C 
BRANCH   7   8
ATOM      8  C   UNL     1     169.746 172.766 208.575  1.00  0.00     0.156 C 
BRANCH   8   9
ATOM      9  O   UNL     1     168.996 173.894 208.936  1.00  0.00    -0.396 OA
ATOM     10  H   UNL     1     168.722 174.336 208.091  1.00  0.00     0.210 HD
ENDBRANCH   8   9
ENDBRANCH   7   8
ENDBRANCH   6   7
ENDBRANCH   1   6
TORSDOF 7
ENDMDL
MODEL 5
REMARK VINA RESULT:    -3.767      2.123      2.698
REMARK INTER + INTRA:          -5.545
REMARK INTER:                  -5.096
REMARK INTRA:                  -0.449
REMARK UNBOUND:                -0.346
REMARK SMILES CCCCCCCCO
REMARK SMILES IDX 5 1 4 2 3 3 2 4 1 5 6 6 7 7 8 8 9 9
REMARK H PARENT 9 10
REMARK Flexibility Score: inf
ROOT
ATOM      1  C   UNL     1     172.367 171.905 205.916  1.00  0.00     0.000 C 
ENDROOT
BRANCH   1   2
ATOM      2  C   UNL     1     170.975 172.408 205.500  1.00  0.00    -0.000 C 
BRANCH   2   3
ATOM      3  C   UNL     1     170.412 171.653 204.285  1.00  0.00    -0.000 C 
BRANCH   3   4
ATOM      4  C   UNL     1     171.039 170.260 204.168  1.00  0.00    -0.003 C 
ATOM      5  C   UNL     1     171.487 169.975 202.737  1.00  0.00     0.004 C 
ENDBRANCH   3   4
ENDBRANCH   2   3
ENDBRANCH   1   2
BRANCH   1   6
ATOM      6  C   UNL     1     172.430 171.493 207.393  1.00  0.00     0.002 C 
BRANCH   6   7
ATOM      7  C   UNL     1     171.088 171.744 208.092  1.00  0.00     0.028 C 
BRANCH   7   8
ATOM      8  C   UNL     1     170.553 170.464 208.739  1.00  0.00     0.156 C 
BRANCH   8   9
ATOM      9  O   UNL     1     170.157 169.551 207.752  1.00  0.00    -0.396 OA
ATOM     10  H   UNL     1     169.208 169.752 207.544  1.00  0.00     0.210 HD
ENDBRANCH   8   9
ENDBRANCH   7   8
ENDBRANCH   6   7
ENDBRANCH   1   6
TORSDOF 7
ENDMDL
MODEL 6
REMARK VINA RESULT:    -3.663      1.587      2.111
REMARK INTER + INTRA:          -5.400
REMARK INTER:                  -4.993
REMARK INTRA:                  -0.407
REMARK UNBOUND:                -0.346
REMARK SMILES CCCCCCCCO
REMARK SMILES IDX 5 1 4 2 3 3 2 4 1 5 6 6 7 7 8 8 9 9
REMARK H PARENT 9 10
REMARK Flexibility Score: inf
ROOT
ATOM      1  C   UNL     1     170.895 171.957 205.374  1.00  0.00     0.000 C 
ENDROOT
BRANCH   1   2
ATOM      2  C   UNL     1     172.177 171.253 204.903  1.00  0.00    -0.000 C 
BRANCH   2   3
ATOM      3  C   UNL     1     173.160 172.212 204.212  1.00  0.00    -0.000 C 
BRANCH   3   4
ATOM      4  C   UNL     1     172.459 173.513 203.804  1.00  0.00    -0.003 C 
ATOM      5  C   UNL     1     172.205 173.554 202.300  1.00  0.00     0.004 C 
ENDBRANCH   3   4
ENDBRANCH   2   3
ENDBRANCH   1   2
BRANCH   1   6
ATOM      6  C   UNL     1     170.930 172.312 206.868  1.00  0.00     0.002 C 
BRANCH   6   7
ATOM      7  C   UNL     1     171.905 171.403 207.626  1.00  0.00     0.028 C 
BRANCH   7   8
ATOM      8  C   UNL     1     172.913 172.225 208.433  1.00  0.00     0.156 C 
BRANCH   8   9
ATOM      9  O   UNL     1     173.134 173.463 207.815  1.00  0.00    -0.396 OA
ATOM     10  H   UNL     1     173.899 173.884 208.286  1.00  0.00     0.210 HD
ENDBRANCH   8   9
ENDBRANCH   7   8
ENDBRANCH   6   7
ENDBRANCH   1   6
TORSDOF 7
ENDMDL
MODEL 7
REMARK VINA RESULT:    -3.563      1.992      2.214
REMARK INTER + INTRA:          -5.263
REMARK INTER:                  -4.928
REMARK INTRA:                  -0.335
REMARK UNBOUND:                -0.346
REMARK SMILES CCCCCCCCO
REMARK SMILES IDX 5 1 4 2 3 3 2 4 1 5 6 6 7 7 8 8 9 9
REMARK H PARENT 9 10
REMARK Flexibility Score: inf
ROOT
ATOM      1  C   UNL     1     172.211 172.483 206.201  1.00  0.00     0.000 C 
ENDROOT
BRANCH   1   2
ATOM      2  C   UNL     1     170.996 172.244 205.290  1.00  0.00    -0.000 C 
BRANCH   2   3
ATOM      3  C   UNL     1     170.842 170.770 204.885  1.00  0.00    -0.000 C 
BRANCH   3   4
ATOM      4  C   UNL     1     170.851 170.617 203.360  1.00  0.00    -0.003 C 
ATOM      5  C   UNL     1     172.250 170.835 202.792  1.00  0.00     0.004 C 
ENDBRANCH   3   4
ENDBRANCH   2   3
ENDBRANCH   1   2
BRANCH   1   6
ATOM      6  C   UNL     1     172.677 171.205 206.913  1.00  0.00     0.002 C 
BRANCH   6   7
ATOM      7  C   UNL     1     173.067 171.498 208.367  1.00  0.00     0.028 C 
BRANCH   7   8
ATOM      8  C   UNL     1     172.816 172.966 208.722  1.00  0.00     0.156 C 
BRANCH   8   9
ATOM      9  O   UNL     1     172.821 173.135 210.114  1.00  0.00    -0.396 OA
ATOM     10  H   UNL     1     172.776 174.112 210.281  1.00  0.00     0.210 HD
ENDBRANCH   8   9
ENDBRANCH   7   8
ENDBRANCH   6   7
ENDBRANCH   1   6
TORSDOF 7
ENDMDL
MODEL 8
REMARK VINA RESULT:    -3.434      3.204      5.107
REMARK INTER + INTRA:          -5.085
REMARK INTER:                  -4.843
REMARK INTRA:                  -0.242
REMARK UNBOUND:                -0.346
REMARK SMILES CCCCCCCCO
REMARK SMILES IDX 5 1 4 2 3 3 2 4 1 5 6 6 7 7 8 8 9 9
REMARK H PARENT 9 10
REMARK Flexibility Score: inf
ROOT
ATOM      1  C   UNL     1     172.266 171.332 205.383  1.00  0.00     0.000 C 
ENDROOT
BRANCH   1   2
ATOM      2  C   UNL     1     172.450 171.402 206.907  1.00  0.00    -0.000 C 
BRANCH   2   3
ATOM      3  C   UNL     1     171.114 171.487 207.661  1.00  0.00    -0.000 C 
BRANCH   3   4
ATOM      4  C   UNL     1     171.042 172.765 208.505  1.00  0.00    -0.003 C 
ATOM      5  C   UNL     1     169.596 173.196 208.731  1.00  0.00     0.004 C 
ENDBRANCH   3   4
ENDBRANCH   2   3
ENDBRANCH   1   2
BRANCH   1   6
ATOM      6  C   UNL     1     171.514 172.547 204.821  1.00  0.00     0.002 C 
BRANCH   6   7
ATOM      7  C   UNL     1     172.465 173.478 204.059  1.00  0.00     0.028 C 
BRANCH   7   8
ATOM      8  C   UNL     1     172.373 173.248 202.549  1.00  0.00     0.156 C 
BRANCH   8   9
ATOM      9  O   UNL     1     171.751 174.341 201.930  1.00  0.00    -0.396 OA
ATOM     10  H   UNL     1     171.437 174.025 201.043  1.00  0.00     0.210 HD
ENDBRANCH   8   9
ENDBRANCH   7   8
ENDBRANCH   6   7
ENDBRANCH   1   6
TORSDOF 7
ENDMDL
MODEL 9
REMARK VINA RESULT:    -3.372      1.936      3.463
REMARK INTER + INTRA:          -5.000
REMARK INTER:                  -4.555
REMARK INTRA:                  -0.445
REMARK UNBOUND:                -0.346
REMARK SMILES CCCCCCCCO
REMARK SMILES IDX 5 1 4 2 3 3 2 4 1 5 6 6 7 7 8 8 9 9
REMARK H PARENT 9 10
REMARK Flexibility Score: inf
ROOT
ATOM      1  C   UNL     1     172.449 173.633 203.877  1.00  0.00     0.000 C 
ENDROOT
BRANCH   1   2
ATOM      2  C   UNL     1     172.202 172.901 202.548  1.00  0.00    -0.000 C 
BRANCH   2   3
ATOM      3  C   UNL     1     172.823 171.496 202.522  1.00  0.00    -0.000 C 
BRANCH   3   4
ATOM      4  C   UNL     1     171.774 170.442 202.149  1.00  0.00    -0.003 C 
ATOM      5  C   UNL     1     171.221 169.749 203.391  1.00  0.00     0.004 C 
ENDBRANCH   3   4
ENDBRANCH   2   3
ENDBRANCH   1   2
BRANCH   1   6
ATOM      6  C   UNL     1     172.552 172.673 205.071  1.00  0.00     0.002 C 
BRANCH   6   7
ATOM      7  C   UNL     1     171.204 172.546 205.791  1.00  0.00     0.028 C 
BRANCH   7   8
ATOM      8  C   UNL     1     171.197 171.351 206.747  1.00  0.00     0.156 C 
BRANCH   8   9
ATOM      9  O   UNL     1     172.492 170.829 206.879  1.00  0.00    -0.396 OA
ATOM     10  H   UNL     1     172.622 170.631 207.842  1.00  0.00     0.210 HD
ENDBRANCH   8   9
ENDBRANCH   7   8
ENDBRANCH   6   7
ENDBRANCH   1   6
TORSDOF 7
ENDMDL
