MODEL 1
REMARK VINA RESULT:    -7.328      0.000      0.000
REMARK INTER + INTRA:          -9.111
REMARK INTER:                  -8.827
REMARK INTRA:                  -0.284
REMARK UNBOUND:                -0.284
REMARK SMILES O=c1c(O)c(-c2ccc(O)c(O)c2)oc2cc(O)cc(O)c12
REMARK SMILES IDX 5 1 3 2 2 3 1 4 22 5 20 6 19 7 17 8 16 9 15 10 14 11 6 12
REMARK SMILES IDX 7 13 8 14 9 15 13 16 11 17 10 18 12 20 4 22 21 24 18 26
REMARK H PARENT 10 19 12 21 4 23 21 25 18 27
REMARK Flexibility Score: inf
ROOT
ATOM      1  C   UNL     1       3.501  -7.089   7.721  1.00  0.00     0.180 A 
ATOM      2  C   UNL     1       4.464  -7.958   8.270  1.00  0.00     0.208 A 
ATOM      3  C   UNL     1       4.129  -8.712   9.405  1.00  0.00     0.238 A 
ATOM      4  O   UNL     1       4.979  -9.501   9.898  1.00  0.00    -0.285 OA
ATOM      5  C   UNL     1       2.850  -8.571   9.982  1.00  0.00     0.111 A 
ATOM      6  C   UNL     1       2.435  -9.292  11.128  1.00  0.00     0.134 A 
ATOM      7  C   UNL     1       1.148  -9.089  11.649  1.00  0.00     0.093 A 
ATOM      8  C   UNL     1       0.271  -8.183  11.048  1.00  0.00     0.123 A 
ATOM      9  C   UNL     1       0.675  -7.470   9.916  1.00  0.00     0.094 A 
ATOM     10  C   UNL     1       1.953  -7.659   9.381  1.00  0.00     0.146 A 
ATOM     11  O   UNL     1       2.311  -6.971   8.302  1.00  0.00    -0.452 OA
ENDROOT
BRANCH   1  12
ATOM     12  C   UNL     1       3.772  -6.275   6.514  1.00  0.00     0.025 A 
ATOM     13  C   UNL     1       4.513  -5.088   6.635  1.00  0.00     0.016 A 
ATOM     14  C   UNL     1       4.764  -4.293   5.513  1.00  0.00     0.051 A 
ATOM     15  C   UNL     1       4.264  -4.666   4.258  1.00  0.00     0.157 A 
ATOM     16  C   UNL     1       3.255  -6.634   5.256  1.00  0.00     0.062 A 
ATOM     17  C   UNL     1       3.505  -5.835   4.131  1.00  0.00     0.158 A 
BRANCH  15  18
ATOM     18  O   UNL     1       4.513  -3.876   3.137  1.00  0.00    -0.504 OA
ATOM     19  H   UNL     1       3.817  -3.752   2.411  1.00  0.00     0.293 HD
ENDBRANCH  15  18
BRANCH  17  20
ATOM     20  O   UNL     1       2.997  -6.196   2.884  1.00  0.00    -0.504 OA
ATOM     21  H   UNL     1       3.034  -7.152   2.553  1.00  0.00     0.293 HD
ENDBRANCH  17  20
ENDBRANCH   1  12
BRANCH   2  22
ATOM     22  O   UNL     1       5.741  -8.041   7.708  1.00  0.00    -0.502 OA
ATOM     23  H   UNL     1       6.237  -7.226   7.366  1.00  0.00     0.293 HD
ENDBRANCH   2  22
BRANCH   6  24
ATOM     24  O   UNL     1       3.288 -10.203  11.752  1.00  0.00    -0.507 OA
ATOM     25  H   UNL     1       3.112 -11.201  11.727  1.00  0.00     0.293 HD
ENDBRANCH   6  24
BRANCH   8  26
ATOM     26  O   UNL     1      -1.001  -8.000  11.585  1.00  0.00    -0.508 OA
ATOM     27  H   UNL     1      -1.198  -8.196  12.559  1.00  0.00     0.293 HD
ENDBRANCH   8  26
TORSDOF 6
ENDMDL
MODEL 2
REMARK VINA RESULT:    -6.890      2.778      3.725
REMARK INTER + INTRA:          -8.584
REMARK INTER:                  -8.706
REMARK INTRA:                   0.122
REMARK UNBOUND:                -0.284
REMARK SMILES O=c1c(O)c(-c2ccc(O)c(O)c2)oc2cc(O)cc(O)c12
REMARK SMILES IDX 5 1 3 2 2 3 1 4 22 5 20 6 19 7 17 8 16 9 15 10 14 11 6 12
REMARK SMILES IDX 7 13 8 14 9 15 13 16 11 17 10 18 12 20 4 22 21 24 18 26
REMARK H PARENT 10 19 12 21 4 23 21 25 18 27
REMARK Flexibility Score: inf
ROOT
ATOM      1  C   UNL     1       3.832  -9.147   8.256  1.00  0.00     0.180 A 
ATOM      2  C   UNL     1       3.885  -8.468   9.488  1.00  0.00     0.208 A 
ATOM      3  C   UNL     1       2.810  -8.598  10.381  1.00  0.00     0.238 A 
ATOM      4  O   UNL     1       2.852  -8.003  11.492  1.00  0.00    -0.285 OA
ATOM      5  C   UNL     1       1.697  -9.384  10.021  1.00  0.00     0.111 A 
ATOM      6  C   UNL     1       0.572  -9.563  10.862  1.00  0.00     0.134 A 
ATOM      7  C   UNL     1      -0.503 -10.354  10.427  1.00  0.00     0.093 A 
ATOM      8  C   UNL     1      -0.474 -10.968   9.173  1.00  0.00     0.123 A 
ATOM      9  C   UNL     1       0.635 -10.795   8.339  1.00  0.00     0.094 A 
ATOM     10  C   UNL     1       1.716 -10.012   8.754  1.00  0.00     0.146 A 
ATOM     11  O   UNL     1       2.759  -9.868   7.944  1.00  0.00    -0.452 OA
ENDROOT
BRANCH   1  12
ATOM     12  C   UNL     1       4.935  -9.076   7.270  1.00  0.00     0.025 A 
ATOM     13  C   UNL     1       5.376 -10.252   6.641  1.00  0.00     0.016 A 
ATOM     14  C   UNL     1       6.429 -10.211   5.723  1.00  0.00     0.051 A 
ATOM     15  C   UNL     1       7.065  -8.997   5.432  1.00  0.00     0.157 A 
ATOM     16  C   UNL     1       5.591  -7.863   6.990  1.00  0.00     0.062 A 
ATOM     17  C   UNL     1       6.648  -7.822   6.070  1.00  0.00     0.158 A 
BRANCH  15  18
ATOM     18  O   UNL     1       8.114  -8.953   4.515  1.00  0.00    -0.504 OA
ATOM     19  H   UNL     1       8.100  -9.507   3.667  1.00  0.00     0.293 HD
ENDBRANCH  15  18
BRANCH  17  20
ATOM     20  O   UNL     1       7.292  -6.619   5.788  1.00  0.00    -0.504 OA
ATOM     21  H   UNL     1       8.184  -6.384   6.206  1.00  0.00     0.293 HD
ENDBRANCH  17  20
ENDBRANCH   1  12
BRANCH   2  22
ATOM     22  O   UNL     1       4.979  -7.655   9.799  1.00  0.00    -0.502 OA
ATOM     23  H   UNL     1       5.884  -7.772   9.359  1.00  0.00     0.293 HD
ENDBRANCH   2  22
BRANCH   6  24
ATOM     24  O   UNL     1       0.512  -8.963  12.120  1.00  0.00    -0.507 OA
ATOM     25  H   UNL     1      -0.304  -8.446  12.426  1.00  0.00     0.293 HD
ENDBRANCH   6  24
BRANCH   8  26
ATOM     26  O   UNL     1      -1.554 -11.748   8.766  1.00  0.00    -0.508 OA
ATOM     27  H   UNL     1      -2.395 -11.331   8.387  1.00  0.00     0.293 HD
ENDBRANCH   8  26
TORSDOF 6
ENDMDL
MODEL 3
REMARK VINA RESULT:    -6.872      2.204      6.634
REMARK INTER + INTRA:          -8.562
REMARK INTER:                  -8.253
REMARK INTRA:                  -0.309
REMARK UNBOUND:                -0.284
REMARK SMILES O=c1c(O)c(-c2ccc(O)c(O)c2)oc2cc(O)cc(O)c12
REMARK SMILES IDX 5 1 3 2 2 3 1 4 22 5 20 6 19 7 17 8 16 9 15 10 14 11 6 12
REMARK SMILES IDX 7 13 8 14 9 15 13 16 11 17 10 18 12 20 4 22 21 24 18 26
REMARK H PARENT 10 19 12 21 4 23 21 25 18 27
REMARK Flexibility Score: inf
ROOT
ATOM      1  C   UNL     1       3.381  -8.382   8.204  1.00  0.00     0.180 A 
ATOM      2  C   UNL     1       4.047  -9.563   7.826  1.00  0.00     0.208 A 
ATOM      3  C   UNL     1       5.217  -9.466   7.055  1.00  0.00     0.238 A 
ATOM      4  O   UNL     1       5.827 -10.517   6.720  1.00  0.00    -0.285 OA
ATOM      5  C   UNL     1       5.687  -8.196   6.661  1.00  0.00     0.111 A 
ATOM      6  C   UNL     1       6.855  -8.013   5.882  1.00  0.00     0.134 A 
ATOM      7  C   UNL     1       7.253  -6.716   5.521  1.00  0.00     0.093 A 
ATOM      8  C   UNL     1       6.509  -5.604   5.924  1.00  0.00     0.123 A 
ATOM      9  C   UNL     1       5.356  -5.781   6.695  1.00  0.00     0.094 A 
ATOM     10  C   UNL     1       4.944  -7.063   7.065  1.00  0.00     0.146 A 
ATOM     11  O   UNL     1       3.846  -7.203   7.801  1.00  0.00    -0.452 OA
ENDROOT
BRANCH   1  12
ATOM     12  C   UNL     1       2.154  -8.401   9.032  1.00  0.00     0.025 A 
ATOM     13  C   UNL     1       0.907  -8.593   8.414  1.00  0.00     0.016 A 
ATOM     14  C   UNL     1      -0.266  -8.595   9.173  1.00  0.00     0.051 A 
ATOM     15  C   UNL     1      -0.212  -8.389  10.558  1.00  0.00     0.157 A 
ATOM     16  C   UNL     1       2.201  -8.173  10.420  1.00  0.00     0.062 A 
ATOM     17  C   UNL     1       1.024  -8.173  11.181  1.00  0.00     0.158 A 
BRANCH  15  18
ATOM     18  O   UNL     1      -1.380  -8.391  11.318  1.00  0.00    -0.504 OA
ATOM     19  H   UNL     1      -1.366  -8.601  12.309  1.00  0.00     0.293 HD
ENDBRANCH  15  18
BRANCH  17  20
ATOM     20  O   UNL     1       1.074  -7.955  12.556  1.00  0.00    -0.504 OA
ATOM     21  H   UNL     1       0.684  -8.619  13.214  1.00  0.00     0.293 HD
ENDBRANCH  17  20
ENDBRANCH   1  12
BRANCH   2  22
ATOM     22  O   UNL     1       3.532 -10.811   8.188  1.00  0.00    -0.502 OA
ATOM     23  H   UNL     1       2.686 -10.909   8.738  1.00  0.00     0.293 HD
ENDBRANCH   2  22
BRANCH   6  24
ATOM     24  O   UNL     1       7.619  -9.102   5.463  1.00  0.00    -0.507 OA
ATOM     25  H   UNL     1       7.546  -9.474   4.523  1.00  0.00     0.293 HD
ENDBRANCH   6  24
BRANCH   8  26
ATOM     26  O   UNL     1       6.927  -4.328   5.553  1.00  0.00    -0.508 OA
ATOM     27  H   UNL     1       7.909  -4.099   5.456  1.00  0.00     0.293 HD
ENDBRANCH   8  26
TORSDOF 6
ENDMDL
MODEL 4
REMARK VINA RESULT:    -6.762      2.178      2.867
REMARK INTER + INTRA:          -8.429
REMARK INTER:                  -8.147
REMARK INTRA:                  -0.282
REMARK UNBOUND:                -0.284
REMARK SMILES O=c1c(O)c(-c2ccc(O)c(O)c2)oc2cc(O)cc(O)c12
REMARK SMILES IDX 5 1 3 2 2 3 1 4 22 5 20 6 19 7 17 8 16 9 15 10 14 11 6 12
REMARK SMILES IDX 7 13 8 14 9 15 13 16 11 17 10 18 12 20 4 22 21 24 18 26
REMARK H PARENT 10 19 12 21 4 23 21 25 18 27
REMARK Flexibility Score: inf
ROOT
ATOM      1  C   UNL     1       3.824  -7.871   8.216  1.00  0.00     0.180 A 
ATOM      2  C   UNL     1       4.055  -8.032   9.596  1.00  0.00     0.208 A 
ATOM      3  C   UNL     1       2.985  -8.407  10.424  1.00  0.00     0.238 A 
ATOM      4  O   UNL     1       3.182  -8.564  11.659  1.00  0.00    -0.285 OA
ATOM      5  C   UNL     1       1.704  -8.593   9.864  1.00  0.00     0.111 A 
ATOM      6  C   UNL     1       0.573  -8.967  10.630  1.00  0.00     0.134 A 
ATOM      7  C   UNL     1      -0.671  -9.124  10.000  1.00  0.00     0.093 A 
ATOM      8  C   UNL     1      -0.806  -8.915   8.626  1.00  0.00     0.123 A 
ATOM      9  C   UNL     1       0.308  -8.547   7.865  1.00  0.00     0.094 A 
ATOM     10  C   UNL     1       1.557  -8.387   8.473  1.00  0.00     0.146 A 
ATOM     11  O   UNL     1       2.600  -8.041   7.727  1.00  0.00    -0.452 OA
ENDROOT
BRANCH   1  12
ATOM     12  C   UNL     1       4.906  -7.496   7.276  1.00  0.00     0.025 A 
ATOM     13  C   UNL     1       4.930  -6.202   6.732  1.00  0.00     0.016 A 
ATOM     14  C   UNL     1       5.929  -5.833   5.827  1.00  0.00     0.051 A 
ATOM     15  C   UNL     1       6.908  -6.757   5.441  1.00  0.00     0.157 A 
ATOM     16  C   UNL     1       5.879  -8.428   6.869  1.00  0.00     0.062 A 
ATOM     17  C   UNL     1       6.880  -8.058   5.960  1.00  0.00     0.158 A 
BRANCH  15  18
ATOM     18  O   UNL     1       7.907  -6.392   4.540  1.00  0.00    -0.504 OA
ATOM     19  H   UNL     1       7.769  -5.643   3.873  1.00  0.00     0.293 HD
ENDBRANCH  15  18
BRANCH  17  20
ATOM     20  O   UNL     1       7.847  -8.979   5.564  1.00  0.00    -0.504 OA
ATOM     21  H   UNL     1       7.671  -9.650   4.826  1.00  0.00     0.293 HD
ENDBRANCH  17  20
ENDBRANCH   1  12
BRANCH   2  22
ATOM     22  O   UNL     1       5.323  -7.792  10.132  1.00  0.00    -0.502 OA
ATOM     23  H   UNL     1       5.918  -7.040   9.803  1.00  0.00     0.293 HD
ENDBRANCH   2  22
BRANCH   6  24
ATOM     24  O   UNL     1       0.674  -9.182  12.004  1.00  0.00    -0.507 OA
ATOM     25  H   UNL     1      -0.136  -9.401  12.570  1.00  0.00     0.293 HD
ENDBRANCH   6  24
BRANCH   8  26
ATOM     26  O   UNL     1      -2.053  -9.077   8.025  1.00  0.00    -0.508 OA
ATOM     27  H   UNL     1      -2.908  -8.826   8.506  1.00  0.00     0.293 HD
ENDBRANCH   8  26
TORSDOF 6
ENDMDL
MODEL 5
REMARK VINA RESULT:    -6.682      1.962      7.015
REMARK INTER + INTRA:          -8.332
REMARK INTER:                  -8.134
REMARK INTRA:                  -0.198
REMARK UNBOUND:                -0.284
REMARK SMILES O=c1c(O)c(-c2ccc(O)c(O)c2)oc2cc(O)cc(O)c12
REMARK SMILES IDX 5 1 3 2 2 3 1 4 22 5 20 6 19 7 17 8 16 9 15 10 14 11 6 12
REMARK SMILES IDX 7 13 8 14 9 15 13 16 11 17 10 18 12 20 4 22 21 24 18 26
REMARK H PARENT 10 19 12 21 4 23 21 25 18 27
REMARK Flexibility Score: inf
ROOT
ATOM      1  C   UNL     1       2.733  -7.061   7.697  1.00  0.00     0.180 A 
ATOM      2  C   UNL     1       2.587  -5.866   6.967  1.00  0.00     0.208 A 
ATOM      3  C   UNL     1       3.615  -5.473   6.096  1.00  0.00     0.238 A 
ATOM      4  O   UNL     1       3.490  -4.411   5.429  1.00  0.00    -0.285 OA
ATOM      5  C   UNL     1       4.775  -6.267   5.984  1.00  0.00     0.111 A 
ATOM      6  C   UNL     1       5.857  -5.940   5.132  1.00  0.00     0.134 A 
ATOM      7  C   UNL     1       6.982  -6.777   5.084  1.00  0.00     0.093 A 
ATOM      8  C   UNL     1       7.046  -7.931   5.869  1.00  0.00     0.123 A 
ATOM      9  C   UNL     1       5.979  -8.260   6.711  1.00  0.00     0.094 A 
ATOM     10  C   UNL     1       4.848  -7.440   6.772  1.00  0.00     0.146 A 
ATOM     11  O   UNL     1       3.847  -7.777   7.578  1.00  0.00    -0.452 OA
ENDROOT
BRANCH   1  12
ATOM     12  C   UNL     1       1.685  -7.552   8.621  1.00  0.00     0.025 A 
ATOM     13  C   UNL     1       0.453  -7.982   8.102  1.00  0.00     0.016 A 
ATOM     14  C   UNL     1      -0.558  -8.430   8.957  1.00  0.00     0.051 A 
ATOM     15  C   UNL     1      -0.358  -8.439  10.343  1.00  0.00     0.157 A 
ATOM     16  C   UNL     1       1.874  -7.543  10.015  1.00  0.00     0.062 A 
ATOM     17  C   UNL     1       0.859  -7.990  10.873  1.00  0.00     0.158 A 
BRANCH  15  18
ATOM     18  O   UNL     1      -1.363  -8.886  11.199  1.00  0.00    -0.504 OA
ATOM     19  H   UNL     1      -1.205  -8.989  12.194  1.00  0.00     0.293 HD
ENDBRANCH  15  18
BRANCH  17  20
ATOM     20  O   UNL     1       1.050  -7.987  12.254  1.00  0.00    -0.504 OA
ATOM     21  H   UNL     1       1.563  -7.247  12.717  1.00  0.00     0.293 HD
ENDBRANCH  17  20
ENDBRANCH   1  12
BRANCH   2  22
ATOM     22  O   UNL     1       1.449  -5.072   7.134  1.00  0.00    -0.502 OA
ATOM     23  H   UNL     1       0.569  -5.448   7.469  1.00  0.00     0.293 HD
ENDBRANCH   2  22
BRANCH   6  24
ATOM     24  O   UNL     1       5.824  -4.794   4.337  1.00  0.00    -0.507 OA
ATOM     25  H   UNL     1       6.558  -4.588   3.669  1.00  0.00     0.293 HD
ENDBRANCH   6  24
BRANCH   8  26
ATOM     26  O   UNL     1       8.174  -8.745   5.802  1.00  0.00    -0.508 OA
ATOM     27  H   UNL     1       8.107  -9.752   5.892  1.00  0.00     0.293 HD
ENDBRANCH   8  26
TORSDOF 6
ENDMDL
MODEL 6
REMARK VINA RESULT:    -6.677      1.579      3.233
REMARK INTER + INTRA:          -8.327
REMARK INTER:                  -7.996
REMARK INTRA:                  -0.331
REMARK UNBOUND:                -0.284
REMARK SMILES O=c1c(O)c(-c2ccc(O)c(O)c2)oc2cc(O)cc(O)c12
REMARK SMILES IDX 5 1 3 2 2 3 1 4 22 5 20 6 19 7 17 8 16 9 15 10 14 11 6 12
REMARK SMILES IDX 7 13 8 14 9 15 13 16 11 17 10 18 12 20 4 22 21 24 18 26
REMARK H PARENT 10 19 12 21 4 23 21 25 18 27
REMARK Flexibility Score: inf
ROOT
ATOM      1  C   UNL     1       3.368  -6.747   7.318  1.00  0.00     0.180 A 
ATOM      2  C   UNL     1       2.092  -6.189   7.528  1.00  0.00     0.208 A 
ATOM      3  C   UNL     1       1.334  -6.622   8.627  1.00  0.00     0.238 A 
ATOM      4  O   UNL     1       0.195  -6.120   8.830  1.00  0.00    -0.285 OA
ATOM      5  C   UNL     1       1.852  -7.616   9.482  1.00  0.00     0.111 A 
ATOM      6  C   UNL     1       1.150  -8.109  10.608  1.00  0.00     0.134 A 
ATOM      7  C   UNL     1       1.730  -9.108  11.406  1.00  0.00     0.093 A 
ATOM      8  C   UNL     1       2.993  -9.620  11.101  1.00  0.00     0.123 A 
ATOM      9  C   UNL     1       3.691  -9.135   9.991  1.00  0.00     0.094 A 
ATOM     10  C   UNL     1       3.131  -8.140   9.184  1.00  0.00     0.146 A 
ATOM     11  O   UNL     1       3.817  -7.693   8.137  1.00  0.00    -0.452 OA
ENDROOT
BRANCH   1  12
ATOM     12  C   UNL     1       4.235  -6.328   6.194  1.00  0.00     0.025 A 
ATOM     13  C   UNL     1       4.170  -7.025   4.975  1.00  0.00     0.016 A 
ATOM     14  C   UNL     1       4.994  -6.660   3.907  1.00  0.00     0.051 A 
ATOM     15  C   UNL     1       5.905  -5.605   4.046  1.00  0.00     0.157 A 
ATOM     16  C   UNL     1       5.166  -5.283   6.335  1.00  0.00     0.062 A 
ATOM     17  C   UNL     1       5.994  -4.919   5.264  1.00  0.00     0.158 A 
BRANCH  15  18
ATOM     18  O   UNL     1       6.727  -5.238   2.982  1.00  0.00    -0.504 OA
ATOM     19  H   UNL     1       7.032  -4.280   2.855  1.00  0.00     0.293 HD
ENDBRANCH  15  18
BRANCH  17  20
ATOM     20  O   UNL     1       6.911  -3.879   5.404  1.00  0.00    -0.504 OA
ATOM     21  H   UNL     1       7.080  -3.216   4.657  1.00  0.00     0.293 HD
ENDBRANCH  17  20
ENDBRANCH   1  12
BRANCH   2  22
ATOM     22  O   UNL     1       1.582  -5.241   6.636  1.00  0.00    -0.502 OA
ATOM     23  H   UNL     1       1.912  -4.283   6.615  1.00  0.00     0.293 HD
ENDBRANCH   2  22
BRANCH   6  24
ATOM     24  O   UNL     1      -0.114  -7.620  10.939  1.00  0.00    -0.507 OA
ATOM     25  H   UNL     1      -0.509  -7.747  11.863  1.00  0.00     0.293 HD
ENDBRANCH   6  24
BRANCH   8  26
ATOM     26  O   UNL     1       3.546 -10.610  11.909  1.00  0.00    -0.508 OA
ATOM     27  H   UNL     1       3.765 -10.438  12.883  1.00  0.00     0.293 HD
ENDBRANCH   8  26
TORSDOF 6
ENDMDL
MODEL 7
REMARK VINA RESULT:    -6.673      3.116      6.855
REMARK INTER + INTRA:          -8.322
REMARK INTER:                  -8.074
REMARK INTRA:                  -0.247
REMARK UNBOUND:                -0.284
REMARK SMILES O=c1c(O)c(-c2ccc(O)c(O)c2)oc2cc(O)cc(O)c12
REMARK SMILES IDX 5 1 3 2 2 3 1 4 22 5 20 6 19 7 17 8 16 9 15 10 14 11 6 12
REMARK SMILES IDX 7 13 8 14 9 15 13 16 11 17 10 18 12 20 4 22 21 24 18 26
REMARK H PARENT 10 19 12 21 4 23 21 25 18 27
REMARK Flexibility Score: inf
ROOT
ATOM      1  C   UNL     1       4.438  -8.442   7.758  1.00  0.00     0.180 A 
ATOM      2  C   UNL     1       5.037  -7.339   7.119  1.00  0.00     0.208 A 
ATOM      3  C   UNL     1       5.847  -7.563   5.995  1.00  0.00     0.238 A 
ATOM      4  O   UNL     1       6.379  -6.583   5.409  1.00  0.00    -0.285 OA
ATOM      5  C   UNL     1       6.063  -8.882   5.544  1.00  0.00     0.111 A 
ATOM      6  C   UNL     1       6.868  -9.193   4.423  1.00  0.00     0.134 A 
ATOM      7  C   UNL     1       7.042 -10.533   4.042  1.00  0.00     0.093 A 
ATOM      8  C   UNL     1       6.427 -11.563   4.757  1.00  0.00     0.123 A 
ATOM      9  C   UNL     1       5.629 -11.260   5.865  1.00  0.00     0.094 A 
ATOM     10  C   UNL     1       5.442  -9.933   6.260  1.00  0.00     0.146 A 
ATOM     11  O   UNL     1       4.676  -9.672   7.313  1.00  0.00    -0.452 OA
ENDROOT
BRANCH   1  12
ATOM     12  C   UNL     1       3.555  -8.285   8.936  1.00  0.00     0.025 A 
ATOM     13  C   UNL     1       3.982  -8.760  10.187  1.00  0.00     0.016 A 
ATOM     14  C   UNL     1       3.156  -8.641  11.309  1.00  0.00     0.051 A 
ATOM     15  C   UNL     1       1.887  -8.060  11.192  1.00  0.00     0.157 A 
ATOM     16  C   UNL     1       2.271  -7.721   8.820  1.00  0.00     0.062 A 
ATOM     17  C   UNL     1       1.442  -7.603   9.945  1.00  0.00     0.158 A 
BRANCH  15  18
ATOM     18  O   UNL     1       1.061  -7.938  12.309  1.00  0.00    -0.504 OA
ATOM     19  H   UNL     1       1.243  -8.456  13.160  1.00  0.00     0.293 HD
ENDBRANCH  15  18
BRANCH  17  20
ATOM     20  O   UNL     1       0.174  -7.038   9.829  1.00  0.00    -0.504 OA
ATOM     21  H   UNL     1       0.012  -6.056  10.016  1.00  0.00     0.293 HD
ENDBRANCH  17  20
ENDBRANCH   1  12
BRANCH   2  22
ATOM     22  O   UNL     1       4.847  -6.047   7.617  1.00  0.00    -0.502 OA
ATOM     23  H   UNL     1       5.448  -5.273   7.359  1.00  0.00     0.293 HD
ENDBRANCH   2  22
BRANCH   6  24
ATOM     24  O   UNL     1       7.497  -8.188   3.688  1.00  0.00    -0.507 OA
ATOM     25  H   UNL     1       7.278  -7.209   3.828  1.00  0.00     0.293 HD
ENDBRANCH   6  24
BRANCH   8  26
ATOM     26  O   UNL     1       6.615 -12.884   4.358  1.00  0.00    -0.508 OA
ATOM     27  H   UNL     1       7.500 -13.203   3.982  1.00  0.00     0.293 HD
ENDBRANCH   8  26
TORSDOF 6
ENDMDL
MODEL 8
REMARK VINA RESULT:    -6.575      2.107      3.396
REMARK INTER + INTRA:          -8.205
REMARK INTER:                  -7.912
REMARK INTRA:                  -0.293
REMARK UNBOUND:                -0.284
REMARK SMILES O=c1c(O)c(-c2ccc(O)c(O)c2)oc2cc(O)cc(O)c12
REMARK SMILES IDX 5 1 3 2 2 3 1 4 22 5 20 6 19 7 17 8 16 9 15 10 14 11 6 12
REMARK SMILES IDX 7 13 8 14 9 15 13 16 11 17 10 18 12 20 4 22 21 24 18 26
REMARK H PARENT 10 19 12 21 4 23 21 25 18 27
REMARK Flexibility Score: inf
ROOT
ATOM      1  C   UNL     1       3.199  -6.537   7.037  1.00  0.00     0.180 A 
ATOM      2  C   UNL     1       2.124  -6.795   6.166  1.00  0.00     0.208 A 
ATOM      3  C   UNL     1       0.940  -7.337   6.691  1.00  0.00     0.238 A 
ATOM      4  O   UNL     1      -0.033  -7.563   5.922  1.00  0.00    -0.285 OA
ATOM      5  C   UNL     1       0.859  -7.630   8.068  1.00  0.00     0.111 A 
ATOM      6  C   UNL     1      -0.295  -8.180   8.674  1.00  0.00     0.134 A 
ATOM      7  C   UNL     1      -0.294  -8.453  10.051  1.00  0.00     0.093 A 
ATOM      8  C   UNL     1       0.834  -8.186  10.830  1.00  0.00     0.123 A 
ATOM      9  C   UNL     1       1.976  -7.640  10.236  1.00  0.00     0.094 A 
ATOM     10  C   UNL     1       1.995  -7.361   8.866  1.00  0.00     0.146 A 
ATOM     11  O   UNL     1       3.092  -6.839   8.327  1.00  0.00    -0.452 OA
ENDROOT
BRANCH   1  12
ATOM     12  C   UNL     1       4.472  -5.948   6.562  1.00  0.00     0.025 A 
ATOM     13  C   UNL     1       4.547  -4.566   6.324  1.00  0.00     0.016 A 
ATOM     14  C   UNL     1       5.732  -3.991   5.856  1.00  0.00     0.051 A 
ATOM     15  C   UNL     1       6.854  -4.793   5.605  1.00  0.00     0.157 A 
ATOM     16  C   UNL     1       5.595  -6.751   6.288  1.00  0.00     0.062 A 
ATOM     17  C   UNL     1       6.783  -6.175   5.817  1.00  0.00     0.158 A 
BRANCH  15  18
ATOM     18  O   UNL     1       8.038  -4.223   5.140  1.00  0.00    -0.504 OA
ATOM     19  H   UNL     1       8.639  -4.711   4.487  1.00  0.00     0.293 HD
ENDBRANCH  15  18
BRANCH  17  20
ATOM     20  O   UNL     1       7.896  -6.971   5.553  1.00  0.00    -0.504 OA
ATOM     21  H   UNL     1       8.834  -6.590   5.557  1.00  0.00     0.293 HD
ENDBRANCH  17  20
ENDBRANCH   1  12
BRANCH   2  22
ATOM     22  O   UNL     1       2.248  -6.542   4.797  1.00  0.00    -0.502 OA
ATOM     23  H   UNL     1       1.529  -6.798   4.130  1.00  0.00     0.293 HD
ENDBRANCH   2  22
BRANCH   6  24
ATOM     24  O   UNL     1      -1.438  -8.460   7.925  1.00  0.00    -0.507 OA
ATOM     25  H   UNL     1      -1.861  -9.381   7.920  1.00  0.00     0.293 HD
ENDBRANCH   6  24
BRANCH   8  26
ATOM     26  O   UNL     1       0.809  -8.465  12.194  1.00  0.00    -0.508 OA
ATOM     27  H   UNL     1       0.253  -7.914  12.837  1.00  0.00     0.293 HD
ENDBRANCH   8  26
TORSDOF 6
ENDMDL
