MODEL 1
REMARK VINA RESULT:    -3.200      0.000      0.000
REMARK INTER + INTRA:          -8.663
REMARK INTER:                  -6.193
REMARK INTRA:                  -2.470
REMARK UNBOUND:                -2.470
REMARK SMILES CCCCCCCCCCCCCCCCCC(=O)[O-]
REMARK SMILES IDX 10 1 11 2 12 3 13 4 14 5 15 6 16 7 17 8 18 9 19 10 20 11
REMARK SMILES IDX 9 12 8 13 7 14 6 15 5 16 4 17 3 18 2 19 1 20
REMARK H PARENT
REMARK Flexibility Score: inf
ROOT
ATOM      1  C   UNL     1      35.704  11.783  22.465  1.00  0.00     0.000 C 
ENDROOT
BRANCH   1   2
ATOM      2  C   UNL     1      34.608  11.033  23.237  1.00  0.00     0.000 C 
BRANCH   2   3
ATOM      3  C   UNL     1      33.270  11.092  22.486  1.00  0.00     0.000 C 
BRANCH   3   4
ATOM      4  C   UNL     1      32.077  10.657  23.354  1.00  0.00     0.000 C 
BRANCH   4   5
ATOM      5  C   UNL     1      31.262   9.469  22.802  1.00  0.00     0.000 C 
BRANCH   5   6
ATOM      6  C   UNL     1      32.007   8.581  21.790  1.00  0.00     0.000 C 
BRANCH   6   7
ATOM      7  C   UNL     1      31.236   7.298  21.442  1.00  0.00     0.006 C 
BRANCH   7   8
ATOM      8  C   UNL     1      32.110   6.334  20.635  1.00  0.00     0.053 C 
BRANCH   8   9
ATOM      9  C   UNL     1      31.955   4.937  21.141  1.00  0.00     0.041 C 
ATOM     10  O   UNL     1      32.454   4.604  22.250  1.00  0.00    -0.550 OA
ATOM     11  O   UNL     1      31.303   3.985  20.367  1.00  0.00    -0.550 OA
ENDBRANCH   8   9
ENDBRANCH   7   8
ENDBRANCH   6   7
ENDBRANCH   5   6
ENDBRANCH   4   5
ENDBRANCH   3   4
ENDBRANCH   2   3
ENDBRANCH   1   2
BRANCH   1  12
ATOM     12  C   UNL     1      37.115  11.276  22.797  1.00  0.00     0.000 C 
BRANCH  12  13
ATOM     13  C   UNL     1      37.126   9.806  23.253  1.00  0.00    -0.000 C 
BRANCH  13  14
ATOM     14  C   UNL     1      37.712   8.865  22.179  1.00  0.00    -0.000 C 
BRANCH  14  15
ATOM     15  C   UNL     1      36.782   7.694  21.816  1.00  0.00    -0.000 C 
BRANCH  15  16
ATOM     16  C   UNL     1      35.484   8.153  21.131  1.00  0.00    -0.000 C 
BRANCH  16  17
ATOM     17  C   UNL     1      35.745   9.065  19.922  1.00  0.00    -0.000 C 
BRANCH  17  18
ATOM     18  C   UNL     1      34.447   9.500  19.220  1.00  0.00    -0.000 C 
BRANCH  18  19
ATOM     19  C   UNL     1      34.088   8.593  18.033  1.00  0.00    -0.003 C 
ATOM     20  C   UNL     1      32.592   8.601  17.716  1.00  0.00     0.004 C 
ENDBRANCH  18  19
ENDBRANCH  17  18
ENDBRANCH  16  17
ENDBRANCH  15  16
ENDBRANCH  14  15
ENDBRANCH  13  14
ENDBRANCH  12  13
ENDBRANCH   1  12
TORSDOF 16
ENDMDL
MODEL 2
REMARK VINA RESULT:    -3.167      2.085      4.431
REMARK INTER + INTRA:          -8.599
REMARK INTER:                  -6.911
REMARK INTRA:                  -1.688
REMARK UNBOUND:                -2.470
REMARK SMILES CCCCCCCCCCCCCCCCCC(=O)[O-]
REMARK SMILES IDX 10 1 11 2 12 3 13 4 14 5 15 6 16 7 17 8 18 9 19 10 20 11
REMARK SMILES IDX 9 12 8 13 7 14 6 15 5 16 4 17 3 18 2 19 1 20
REMARK H PARENT
REMARK Flexibility Score: inf
ROOT
ATOM      1  C   UNL     1      31.269   9.509  22.895  1.00  0.00     0.000 C 
ENDROOT
BRANCH   1   2
ATOM      2  C   UNL     1      32.029   8.773  21.781  1.00  0.00     0.000 C 
BRANCH   2   3
ATOM      3  C   UNL     1      31.281   7.501  21.355  1.00  0.00     0.000 C 
BRANCH   3   4
ATOM      4  C   UNL     1      32.219   6.407  20.817  1.00  0.00     0.000 C 
BRANCH   4   5
ATOM      5  C   UNL     1      32.017   5.008  21.434  1.00  0.00     0.000 C 
BRANCH   5   6
ATOM      6  C   UNL     1      33.309   4.295  21.871  1.00  0.00     0.000 C 
BRANCH   6   7
ATOM      7  C   UNL     1      33.636   3.069  21.005  1.00  0.00     0.006 C 
BRANCH   7   8
ATOM      8  C   UNL     1      32.456   2.094  20.968  1.00  0.00     0.053 C 
BRANCH   8   9
ATOM      9  C   UNL     1      32.939   0.694  20.764  1.00  0.00     0.041 C 
ATOM     10  O   UNL     1      34.174   0.444  20.750  1.00  0.00    -0.550 OA
ATOM     11  O   UNL     1      32.027  -0.331  20.539  1.00  0.00    -0.550 OA
ENDBRANCH   8   9
ENDBRANCH   7   8
ENDBRANCH   6   7
ENDBRANCH   5   6
ENDBRANCH   4   5
ENDBRANCH   3   4
ENDBRANCH   2   3
ENDBRANCH   1   2
BRANCH   1  12
ATOM     12  C   UNL     1      32.073  10.674  23.491  1.00  0.00     0.000 C 
BRANCH  12  13
ATOM     13  C   UNL     1      32.466  11.725  22.437  1.00  0.00    -0.000 C 
BRANCH  13  14
ATOM     14  C   UNL     1      33.983  12.011  22.433  1.00  0.00    -0.000 C 
BRANCH  14  15
ATOM     15  C   UNL     1      34.773  11.135  23.421  1.00  0.00    -0.000 C 
BRANCH  15  16
ATOM     16  C   UNL     1      35.923  10.367  22.749  1.00  0.00    -0.000 C 
BRANCH  16  17
ATOM     17  C   UNL     1      35.616  10.003  21.288  1.00  0.00    -0.000 C 
BRANCH  17  18
ATOM     18  C   UNL     1      35.420   8.491  21.084  1.00  0.00    -0.000 C 
BRANCH  18  19
ATOM     19  C   UNL     1      36.478   7.656  21.821  1.00  0.00    -0.003 C 
ATOM     20  C   UNL     1      36.470   6.187  21.399  1.00  0.00     0.004 C 
ENDBRANCH  18  19
ENDBRANCH  17  18
ENDBRANCH  16  17
ENDBRANCH  15  16
ENDBRANCH  14  15
ENDBRANCH  13  14
ENDBRANCH  12  13
ENDBRANCH   1  12
TORSDOF 16
ENDMDL
MODEL 3
REMARK VINA RESULT:    -3.103      2.864      5.624
REMARK INTER + INTRA:          -8.475
REMARK INTER:                  -6.149
REMARK INTRA:                  -2.326
REMARK UNBOUND:                -2.470
REMARK SMILES CCCCCCCCCCCCCCCCCC(=O)[O-]
REMARK SMILES IDX 10 1 11 2 12 3 13 4 14 5 15 6 16 7 17 8 18 9 19 10 20 11
REMARK SMILES IDX 9 12 8 13 7 14 6 15 5 16 4 17 3 18 2 19 1 20
REMARK H PARENT
REMARK Flexibility Score: inf
ROOT
ATOM      1  C   UNL     1      30.972   7.340  21.736  1.00  0.00     0.000 C 
ENDROOT
BRANCH   1   2
ATOM      2  C   UNL     1      31.802   8.630  21.819  1.00  0.00     0.000 C 
BRANCH   2   3
ATOM      3  C   UNL     1      31.283   9.545  22.938  1.00  0.00     0.000 C 
BRANCH   3   4
ATOM      4  C   UNL     1      32.183  10.769  23.176  1.00  0.00     0.000 C 
BRANCH   4   5
ATOM      5  C   UNL     1      33.635  10.623  22.677  1.00  0.00     0.000 C 
BRANCH   5   6
ATOM      6  C   UNL     1      34.688  11.386  23.500  1.00  0.00     0.000 C 
BRANCH   6   7
ATOM      7  C   UNL     1      36.093  11.317  22.882  1.00  0.00     0.006 C 
BRANCH   7   8
ATOM      8  C   UNL     1      36.671   9.903  22.988  1.00  0.00     0.053 C 
BRANCH   8   9
ATOM      9  C   UNL     1      38.136   9.912  22.695  1.00  0.00     0.041 C 
ATOM     10  O   UNL     1      38.709   8.864  22.294  1.00  0.00    -0.550 OA
ATOM     11  O   UNL     1      38.882  11.064  22.913  1.00  0.00    -0.550 OA
ENDBRANCH   8   9
ENDBRANCH   7   8
ENDBRANCH   6   7
ENDBRANCH   5   6
ENDBRANCH   4   5
ENDBRANCH   3   4
ENDBRANCH   2   3
ENDBRANCH   1   2
BRANCH   1  12
ATOM     12  C   UNL     1      30.906   6.770  20.311  1.00  0.00     0.000 C 
BRANCH  12  13
ATOM     13  C   UNL     1      31.560   5.381  20.196  1.00  0.00    -0.000 C 
BRANCH  13  14
ATOM     14  C   UNL     1      32.097   4.875  21.551  1.00  0.00    -0.000 C 
BRANCH  14  15
ATOM     15  C   UNL     1      33.560   4.403  21.493  1.00  0.00    -0.000 C 
BRANCH  15  16
ATOM     16  C   UNL     1      34.400   5.185  20.470  1.00  0.00    -0.000 C 
BRANCH  16  17
ATOM     17  C   UNL     1      35.313   6.230  21.131  1.00  0.00    -0.000 C 
BRANCH  17  18
ATOM     18  C   UNL     1      35.086   7.647  20.577  1.00  0.00    -0.000 C 
BRANCH  18  19
ATOM     19  C   UNL     1      34.401   7.639  19.202  1.00  0.00    -0.003 C 
ATOM     20  C   UNL     1      33.762   8.983  18.853  1.00  0.00     0.004 C 
ENDBRANCH  18  19
ENDBRANCH  17  18
ENDBRANCH  16  17
ENDBRANCH  15  16
ENDBRANCH  14  15
ENDBRANCH  13  14
ENDBRANCH  12  13
ENDBRANCH   1  12
TORSDOF 16
ENDMDL
MODEL 4
REMARK VINA RESULT:    -3.091      2.333      4.946
REMARK INTER + INTRA:          -8.451
REMARK INTER:                  -6.004
REMARK INTRA:                  -2.448
REMARK UNBOUND:                -2.470
REMARK SMILES CCCCCCCCCCCCCCCCCC(=O)[O-]
REMARK SMILES IDX 10 1 11 2 12 3 13 4 14 5 15 6 16 7 17 8 18 9 19 10 20 11
REMARK SMILES IDX 9 12 8 13 7 14 6 15 5 16 4 17 3 18 2 19 1 20
REMARK H PARENT
REMARK Flexibility Score: inf
ROOT
ATOM      1  C   UNL     1      34.474  11.312  23.474  1.00  0.00     0.000 C 
ENDROOT
BRANCH   1   2
ATOM      2  C   UNL     1      35.550  12.086  22.697  1.00  0.00     0.000 C 
BRANCH   2   3
ATOM      3  C   UNL     1      36.886  11.329  22.707  1.00  0.00     0.000 C 
BRANCH   3   4
ATOM      4  C   UNL     1      36.736   9.857  23.128  1.00  0.00     0.000 C 
BRANCH   4   5
ATOM      5  C   UNL     1      36.885   8.829  21.988  1.00  0.00     0.000 C 
BRANCH   5   6
ATOM      6  C   UNL     1      35.622   8.613  21.135  1.00  0.00     0.000 C 
BRANCH   6   7
ATOM      7  C   UNL     1      35.707   9.294  19.760  1.00  0.00     0.006 C 
BRANCH   7   8
ATOM      8  C   UNL     1      34.491  10.192  19.517  1.00  0.00     0.053 C 
BRANCH   8   9
ATOM      9  C   UNL     1      33.885   9.904  18.182  1.00  0.00     0.041 C 
ATOM     10  O   UNL     1      33.939   8.742  17.698  1.00  0.00    -0.550 OA
ATOM     11  O   UNL     1      33.301  10.929  17.447  1.00  0.00    -0.550 OA
ENDBRANCH   8   9
ENDBRANCH   7   8
ENDBRANCH   6   7
ENDBRANCH   5   6
ENDBRANCH   4   5
ENDBRANCH   3   4
ENDBRANCH   2   3
ENDBRANCH   1   2
BRANCH   1  12
ATOM     12  C   UNL     1      33.139  11.234  22.717  1.00  0.00     0.000 C 
BRANCH  12  13
ATOM     13  C   UNL     1      31.995  10.681  23.587  1.00  0.00    -0.000 C 
BRANCH  13  14
ATOM     14  C   UNL     1      31.282   9.485  22.921  1.00  0.00    -0.000 C 
BRANCH  14  15
ATOM     15  C   UNL     1      32.082   8.859  21.765  1.00  0.00    -0.000 C 
BRANCH  15  16
ATOM     16  C   UNL     1      31.601   7.445  21.402  1.00  0.00    -0.000 C 
BRANCH  16  17
ATOM     17  C   UNL     1      31.934   7.062  19.952  1.00  0.00    -0.000 C 
BRANCH  17  18
ATOM     18  C   UNL     1      32.864   5.840  19.863  1.00  0.00    -0.000 C 
BRANCH  18  19
ATOM     19  C   UNL     1      33.484   5.472  21.219  1.00  0.00    -0.003 C 
ATOM     20  C   UNL     1      33.035   4.100  21.722  1.00  0.00     0.004 C 
ENDBRANCH  18  19
ENDBRANCH  17  18
ENDBRANCH  16  17
ENDBRANCH  15  16
ENDBRANCH  14  15
ENDBRANCH  13  14
ENDBRANCH  12  13
ENDBRANCH   1  12
TORSDOF 16
ENDMDL
MODEL 5
REMARK VINA RESULT:    -3.083      2.596      5.338
REMARK INTER + INTRA:          -8.437
REMARK INTER:                  -6.319
REMARK INTRA:                  -2.118
REMARK UNBOUND:                -2.470
REMARK SMILES CCCCCCCCCCCCCCCCCC(=O)[O-]
REMARK SMILES IDX 10 1 11 2 12 3 13 4 14 5 15 6 16 7 17 8 18 9 19 10 20 11
REMARK SMILES IDX 9 12 8 13 7 14 6 15 5 16 4 17 3 18 2 19 1 20
REMARK H PARENT
REMARK Flexibility Score: inf
ROOT
ATOM      1  C   UNL     1      32.005   8.637  21.772  1.00  0.00     0.000 C 
ENDROOT
BRANCH   1   2
ATOM      2  C   UNL     1      31.207   9.361  22.866  1.00  0.00     0.000 C 
BRANCH   2   3
ATOM      3  C   UNL     1      32.034  10.496  23.488  1.00  0.00     0.000 C 
BRANCH   3   4
ATOM      4  C   UNL     1      32.395  11.597  22.476  1.00  0.00     0.000 C 
BRANCH   4   5
ATOM      5  C   UNL     1      33.860  12.076  22.523  1.00  0.00     0.000 C 
BRANCH   5   6
ATOM      6  C   UNL     1      34.792  11.242  23.421  1.00  0.00     0.000 C 
BRANCH   6   7
ATOM      7  C   UNL     1      36.128  10.904  22.743  1.00  0.00     0.006 C 
BRANCH   7   8
ATOM      8  C   UNL     1      36.114   9.479  22.182  1.00  0.00     0.053 C 
BRANCH   8   9
ATOM      9  C   UNL     1      37.359   8.750  22.574  1.00  0.00     0.041 C 
ATOM     10  O   UNL     1      37.299   7.547  22.944  1.00  0.00    -0.550 OA
ATOM     11  O   UNL     1      38.581   9.412  22.579  1.00  0.00    -0.550 OA
ENDBRANCH   8   9
ENDBRANCH   7   8
ENDBRANCH   6   7
ENDBRANCH   5   6
ENDBRANCH   4   5
ENDBRANCH   3   4
ENDBRANCH   2   3
ENDBRANCH   1   2
BRANCH   1  12
ATOM     12  C   UNL     1      31.202   7.511  21.101  1.00  0.00     0.000 C 
BRANCH  12  13
ATOM     13  C   UNL     1      31.914   6.929  19.867  1.00  0.00    -0.000 C 
BRANCH  13  14
ATOM     14  C   UNL     1      33.164   7.744  19.475  1.00  0.00    -0.000 C 
BRANCH  14  15
ATOM     15  C   UNL     1      34.296   6.885  18.885  1.00  0.00    -0.000 C 
BRANCH  15  16
ATOM     16  C   UNL     1      35.432   6.623  19.887  1.00  0.00    -0.000 C 
BRANCH  16  17
ATOM     17  C   UNL     1      35.027   5.638  20.995  1.00  0.00    -0.000 C 
BRANCH  17  18
ATOM     18  C   UNL     1      34.884   4.196  20.478  1.00  0.00    -0.000 C 
BRANCH  18  19
ATOM     19  C   UNL     1      33.577   3.532  20.937  1.00  0.00    -0.003 C 
ATOM     20  C   UNL     1      32.903   4.286  22.084  1.00  0.00     0.004 C 
ENDBRANCH  18  19
ENDBRANCH  17  18
ENDBRANCH  16  17
ENDBRANCH  15  16
ENDBRANCH  14  15
ENDBRANCH  13  14
ENDBRANCH  12  13
ENDBRANCH   1  12
TORSDOF 16
ENDMDL
MODEL 6
REMARK VINA RESULT:    -3.038      1.387      3.415
REMARK INTER + INTRA:          -8.350
REMARK INTER:                  -6.134
REMARK INTRA:                  -2.216
REMARK UNBOUND:                -2.470
REMARK SMILES CCCCCCCCCCCCCCCCCC(=O)[O-]
REMARK SMILES IDX 10 1 11 2 12 3 13 4 14 5 15 6 16 7 17 8 18 9 19 10 20 11
REMARK SMILES IDX 9 12 8 13 7 14 6 15 5 16 4 17 3 18 2 19 1 20
REMARK H PARENT
REMARK Flexibility Score: inf
ROOT
ATOM      1  C   UNL     1      34.432  11.380  23.578  1.00  0.00     0.000 C 
ENDROOT
BRANCH   1   2
ATOM      2  C   UNL     1      33.133  11.334  22.761  1.00  0.00     0.000 C 
BRANCH   2   3
ATOM      3  C   UNL     1      31.998  10.688  23.570  1.00  0.00     0.000 C 
BRANCH   3   4
ATOM      4  C   UNL     1      31.288   9.557  22.807  1.00  0.00     0.000 C 
BRANCH   4   5
ATOM      5  C   UNL     1      32.109   8.917  21.668  1.00  0.00     0.000 C 
BRANCH   5   6
ATOM      6  C   UNL     1      31.730   7.465  21.326  1.00  0.00     0.000 C 
BRANCH   6   7
ATOM      7  C   UNL     1      32.505   6.916  20.118  1.00  0.00     0.006 C 
BRANCH   7   8
ATOM      8  C   UNL     1      32.460   5.386  20.088  1.00  0.00     0.053 C 
BRANCH   8   9
ATOM      9  C   UNL     1      33.162   4.817  21.279  1.00  0.00     0.041 C 
ATOM     10  O   UNL     1      32.515   4.179  22.152  1.00  0.00    -0.550 OA
ATOM     11  O   UNL     1      34.523   5.034  21.453  1.00  0.00    -0.550 OA
ENDBRANCH   8   9
ENDBRANCH   7   8
ENDBRANCH   6   7
ENDBRANCH   5   6
ENDBRANCH   4   5
ENDBRANCH   3   4
ENDBRANCH   2   3
ENDBRANCH   1   2
BRANCH   1  12
ATOM     12  C   UNL     1      35.665  10.981  22.753  1.00  0.00     0.000 C 
BRANCH  12  13
ATOM     13  C   UNL     1      35.391  10.978  21.239  1.00  0.00    -0.000 C 
BRANCH  13  14
ATOM     14  C   UNL     1      35.692   9.608  20.594  1.00  0.00    -0.000 C 
BRANCH  14  15
ATOM     15  C   UNL     1      35.729   8.449  21.605  1.00  0.00    -0.000 C 
BRANCH  15  16
ATOM     16  C   UNL     1      36.914   7.496  21.377  1.00  0.00    -0.000 C 
BRANCH  16  17
ATOM     17  C   UNL     1      37.722   7.242  22.659  1.00  0.00    -0.000 C 
BRANCH  17  18
ATOM     18  C   UNL     1      38.208   8.544  23.319  1.00  0.00    -0.000 C 
BRANCH  18  19
ATOM     19  C   UNL     1      39.088   9.386  22.382  1.00  0.00    -0.003 C 
ATOM     20  C   UNL     1      39.927  10.421  23.132  1.00  0.00     0.004 C 
ENDBRANCH  18  19
ENDBRANCH  17  18
ENDBRANCH  16  17
ENDBRANCH  15  16
ENDBRANCH  14  15
ENDBRANCH  13  14
ENDBRANCH  12  13
ENDBRANCH   1  12
TORSDOF 16
ENDMDL
MODEL 7
REMARK VINA RESULT:    -3.036      3.339      5.445
REMARK INTER + INTRA:          -8.346
REMARK INTER:                  -6.042
REMARK INTRA:                  -2.304
REMARK UNBOUND:                -2.470
REMARK SMILES CCCCCCCCCCCCCCCCCC(=O)[O-]
REMARK SMILES IDX 10 1 11 2 12 3 13 4 14 5 15 6 16 7 17 8 18 9 19 10 20 11
REMARK SMILES IDX 9 12 8 13 7 14 6 15 5 16 4 17 3 18 2 19 1 20
REMARK H PARENT
REMARK Flexibility Score: inf
ROOT
ATOM      1  C   UNL     1      32.001   8.761  21.815  1.00  0.00     0.000 C 
ENDROOT
BRANCH   1   2
ATOM      2  C   UNL     1      31.224   9.572  22.862  1.00  0.00     0.000 C 
BRANCH   2   3
ATOM      3  C   UNL     1      32.116  10.649  23.496  1.00  0.00     0.000 C 
BRANCH   3   4
ATOM      4  C   UNL     1      32.552  11.731  22.493  1.00  0.00     0.000 C 
BRANCH   4   5
ATOM      5  C   UNL     1      34.042  12.123  22.556  1.00  0.00     0.000 C 
BRANCH   5   6
ATOM      6  C   UNL     1      34.934  11.168  23.369  1.00  0.00     0.000 C 
BRANCH   6   7
ATOM      7  C   UNL     1      35.855  10.314  22.483  1.00  0.00     0.006 C 
BRANCH   7   8
ATOM      8  C   UNL     1      37.113   9.892  23.246  1.00  0.00     0.053 C 
BRANCH   8   9
ATOM      9  C   UNL     1      38.281  10.728  22.834  1.00  0.00     0.041 C 
ATOM     10  O   UNL     1      39.456  10.328  23.051  1.00  0.00    -0.550 OA
ATOM     11  O   UNL     1      38.075  11.973  22.253  1.00  0.00    -0.550 OA
ENDBRANCH   8   9
ENDBRANCH   7   8
ENDBRANCH   6   7
ENDBRANCH   5   6
ENDBRANCH   4   5
ENDBRANCH   3   4
ENDBRANCH   2   3
ENDBRANCH   1   2
BRANCH   1  12
ATOM     12  C   UNL     1      31.287   7.457  21.426  1.00  0.00     0.000 C 
BRANCH  12  13
ATOM     13  C   UNL     1      31.911   6.784  20.191  1.00  0.00    -0.000 C 
BRANCH  13  14
ATOM     14  C   UNL     1      33.218   6.037  20.531  1.00  0.00    -0.000 C 
BRANCH  14  15
ATOM     15  C   UNL     1      34.415   6.470  19.666  1.00  0.00    -0.000 C 
BRANCH  15  16
ATOM     16  C   UNL     1      34.930   7.874  20.019  1.00  0.00    -0.000 C 
BRANCH  16  17
ATOM     17  C   UNL     1      34.877   8.841  18.826  1.00  0.00    -0.000 C 
BRANCH  17  18
ATOM     18  C   UNL     1      33.704   9.832  18.920  1.00  0.00    -0.000 C 
BRANCH  18  19
ATOM     19  C   UNL     1      34.169  11.295  18.935  1.00  0.00    -0.003 C 
ATOM     20  C   UNL     1      35.688  11.431  19.034  1.00  0.00     0.004 C 
ENDBRANCH  18  19
ENDBRANCH  17  18
ENDBRANCH  16  17
ENDBRANCH  15  16
ENDBRANCH  14  15
ENDBRANCH  13  14
ENDBRANCH  12  13
ENDBRANCH   1  12
TORSDOF 16
ENDMDL
MODEL 8
REMARK VINA RESULT:    -2.964      1.934      3.541
REMARK INTER + INTRA:          -8.207
REMARK INTER:                  -5.401
REMARK INTRA:                  -2.806
REMARK UNBOUND:                -2.470
REMARK SMILES CCCCCCCCCCCCCCCCCC(=O)[O-]
REMARK SMILES IDX 10 1 11 2 12 3 13 4 14 5 15 6 16 7 17 8 18 9 19 10 20 11
REMARK SMILES IDX 9 12 8 13 7 14 6 15 5 16 4 17 3 18 2 19 1 20
REMARK H PARENT
REMARK Flexibility Score: inf
ROOT
ATOM      1  C   UNL     1      37.002   9.827  23.217  1.00  0.00     0.000 C 
ENDROOT
BRANCH   1   2
ATOM      2  C   UNL     1      37.168  11.290  22.777  1.00  0.00     0.000 C 
BRANCH   2   3
ATOM      3  C   UNL     1      35.835  12.046  22.869  1.00  0.00     0.000 C 
BRANCH   3   4
ATOM      4  C   UNL     1      34.692  11.178  23.424  1.00  0.00     0.000 C 
BRANCH   4   5
ATOM      5  C   UNL     1      33.462  11.047  22.504  1.00  0.00     0.000 C 
BRANCH   5   6
ATOM      6  C   UNL     1      32.138  10.736  23.225  1.00  0.00     0.000 C 
BRANCH   6   7
ATOM      7  C   UNL     1      31.434   9.489  22.669  1.00  0.00     0.006 C 
BRANCH   7   8
ATOM      8  C   UNL     1      32.370   8.692  21.756  1.00  0.00     0.053 C 
BRANCH   8   9
ATOM      9  C   UNL     1      31.636   7.563  21.108  1.00  0.00     0.041 C 
ATOM     10  O   UNL     1      31.058   6.693  21.813  1.00  0.00    -0.550 OA
ATOM     11  O   UNL     1      31.629   7.441  19.724  1.00  0.00    -0.550 OA
ENDBRANCH   8   9
ENDBRANCH   7   8
ENDBRANCH   6   7
ENDBRANCH   5   6
ENDBRANCH   4   5
ENDBRANCH   3   4
ENDBRANCH   2   3
ENDBRANCH   1   2
BRANCH   1  12
ATOM     12  C   UNL     1      37.293   8.832  22.083  1.00  0.00     0.000 C 
BRANCH  12  13
ATOM     13  C   UNL     1      36.012   8.294  21.421  1.00  0.00    -0.000 C 
BRANCH  13  14
ATOM     14  C   UNL     1      35.983   8.565  19.902  1.00  0.00    -0.000 C 
BRANCH  14  15
ATOM     15  C   UNL     1      35.031   9.706  19.500  1.00  0.00    -0.000 C 
BRANCH  15  16
ATOM     16  C   UNL     1      35.665  10.688  18.503  1.00  0.00    -0.000 C 
BRANCH  16  17
ATOM     17  C   UNL     1      36.380  11.857  19.198  1.00  0.00    -0.000 C 
BRANCH  17  18
ATOM     18  C   UNL     1      37.841  12.011  18.742  1.00  0.00    -0.000 C 
BRANCH  18  19
ATOM     19  C   UNL     1      38.749  10.900  19.290  1.00  0.00    -0.003 C 
ATOM     20  C   UNL     1      39.846  11.434  20.211  1.00  0.00     0.004 C 
ENDBRANCH  18  19
ENDBRANCH  17  18
ENDBRANCH  16  17
ENDBRANCH  15  16
ENDBRANCH  14  15
ENDBRANCH  13  14
ENDBRANCH  12  13
ENDBRANCH   1  12
TORSDOF 16
ENDMDL
MODEL 9
REMARK VINA RESULT:    -2.928      2.549      5.520
REMARK INTER + INTRA:          -8.136
REMARK INTER:                  -6.184
REMARK INTRA:                  -1.952
REMARK UNBOUND:                -2.470
REMARK SMILES CCCCCCCCCCCCCCCCCC(=O)[O-]
REMARK SMILES IDX 10 1 11 2 12 3 13 4 14 5 15 6 16 7 17 8 18 9 19 10 20 11
REMARK SMILES IDX 9 12 8 13 7 14 6 15 5 16 4 17 3 18 2 19 1 20
REMARK H PARENT
REMARK Flexibility Score: inf
ROOT
ATOM      1  C   UNL     1      32.656   7.912  20.741  1.00  0.00     0.000 C 
ENDROOT
BRANCH   1   2
ATOM      2  C   UNL     1      31.568   7.063  21.415  1.00  0.00     0.000 C 
BRANCH   2   3
ATOM      3  C   UNL     1      31.617   5.612  20.916  1.00  0.00     0.000 C 
BRANCH   3   4
ATOM      4  C   UNL     1      32.340   4.667  21.891  1.00  0.00     0.000 C 
BRANCH   4   5
ATOM      5  C   UNL     1      33.693   4.120  21.392  1.00  0.00     0.000 C 
BRANCH   5   6
ATOM      6  C   UNL     1      34.076   4.533  19.960  1.00  0.00     0.000 C 
BRANCH   6   7
ATOM      7  C   UNL     1      35.240   5.535  19.920  1.00  0.00     0.006 C 
BRANCH   7   8
ATOM      8  C   UNL     1      35.769   5.818  21.328  1.00  0.00     0.053 C 
BRANCH   8   9
ATOM      9  C   UNL     1      37.253   6.000  21.304  1.00  0.00     0.041 C 
ATOM     10  O   UNL     1      37.865   6.075  20.206  1.00  0.00    -0.550 OA
ATOM     11  O   UNL     1      37.968   6.038  22.495  1.00  0.00    -0.550 OA
ENDBRANCH   8   9
ENDBRANCH   7   8
ENDBRANCH   6   7
ENDBRANCH   5   6
ENDBRANCH   4   5
ENDBRANCH   3   4
ENDBRANCH   2   3
ENDBRANCH   1   2
BRANCH   1  12
ATOM     12  C   UNL     1      32.747   9.330  21.326  1.00  0.00     0.000 C 
BRANCH  12  13
ATOM     13  C   UNL     1      31.768   9.556  22.492  1.00  0.00    -0.000 C 
BRANCH  13  14
ATOM     14  C   UNL     1      32.220  10.704  23.419  1.00  0.00    -0.000 C 
BRANCH  14  15
ATOM     15  C   UNL     1      33.331  11.580  22.815  1.00  0.00    -0.000 C 
BRANCH  15  16
ATOM     16  C   UNL     1      34.681  11.410  23.530  1.00  0.00    -0.000 C 
BRANCH  16  17
ATOM     17  C   UNL     1      35.844  11.184  22.551  1.00  0.00    -0.000 C 
BRANCH  17  18
ATOM     18  C   UNL     1      36.265   9.707  22.466  1.00  0.00    -0.000 C 
BRANCH  18  19
ATOM     19  C   UNL     1      37.568   9.421  23.228  1.00  0.00    -0.003 C 
ATOM     20  C   UNL     1      38.690  10.393  22.865  1.00  0.00     0.004 C 
ENDBRANCH  18  19
ENDBRANCH  17  18
ENDBRANCH  16  17
ENDBRANCH  15  16
ENDBRANCH  14  15
ENDBRANCH  13  14
ENDBRANCH  12  13
ENDBRANCH   1  12
TORSDOF 16
ENDMDL
