MODEL 1
REMARK VINA RESULT:    -7.588      0.000      0.000
REMARK INTER + INTRA:          -9.873
REMARK INTER:                  -9.362
REMARK INTRA:                  -0.510
REMARK UNBOUND:                -0.510
REMARK SMILES COc1ccc(-c2cc3cc(O)c(OC)cc3o2)c(O)c1
REMARK SMILES IDX 7 1 8 2 9 3 10 4 11 5 13 6 16 7 17 8 18 9 6 10 3 11 21 12
REMARK SMILES IDX 4 13 19 14 5 15 2 16 1 17 20 18 12 20 14 22 15 23
REMARK H PARENT 20 19 12 21
REMARK Flexibility Score: inf
ROOT
ATOM      1  C   UNL     1      -1.389   3.144 -11.316  1.00  0.00     0.139 A 
ATOM      2  C   UNL     1      -0.374   3.496 -12.209  1.00  0.00     0.060 A 
ATOM      3  C   UNL     1      -0.957   3.394 -13.450  1.00  0.00     0.025 A 
ATOM      4  C   UNL     1      -0.437   3.613 -14.721  1.00  0.00     0.062 A 
ATOM      5  C   UNL     1      -1.291   3.419 -15.827  1.00  0.00     0.158 A 
ATOM      6  C   UNL     1      -2.634   3.010 -15.635  1.00  0.00     0.164 A 
ATOM      7  C   UNL     1      -3.122   2.794 -14.320  1.00  0.00     0.098 A 
ATOM      8  C   UNL     1      -2.249   2.997 -13.256  1.00  0.00     0.138 A 
ATOM      9  O   UNL     1      -2.495   2.847 -11.980  1.00  0.00    -0.456 OA
ENDROOT
BRANCH   1  10
ATOM     10  C   UNL     1      -1.291   3.065  -9.839  1.00  0.00     0.059 A 
ATOM     11  C   UNL     1      -1.026   2.832  -7.037  1.00  0.00     0.122 A 
ATOM     12  C   UNL     1      -1.809   3.859  -7.593  1.00  0.00     0.093 A 
ATOM     13  C   UNL     1      -0.394   1.922  -7.886  1.00  0.00     0.047 A 
ATOM     14  C   UNL     1      -1.952   3.975  -8.985  1.00  0.00     0.130 A 
ATOM     15  C   UNL     1      -0.527   2.032  -9.272  1.00  0.00     0.020 A 
BRANCH  11  16
ATOM     16  O   UNL     1      -0.857   2.680  -5.653  1.00  0.00    -0.497 OA
ATOM     17  C   UNL     1      -1.840   3.018  -4.679  1.00  0.00     0.278 C 
ENDBRANCH  11  16
BRANCH  14  18
ATOM     18  O   UNL     1      -2.771   4.976  -9.506  1.00  0.00    -0.507 OA
ATOM     19  H   UNL     1      -2.768   5.208 -10.493  1.00  0.00     0.293 HD
ENDBRANCH  14  18
ENDBRANCH   1  10
BRANCH   5  20
ATOM     20  O   UNL     1      -0.816   3.627 -17.120  1.00  0.00    -0.504 OA
ATOM     21  H   UNL     1      -0.922   2.924 -17.843  1.00  0.00     0.293 HD
ENDBRANCH   5  20
BRANCH   6  22
ATOM     22  O   UNL     1      -3.444   2.828 -16.766  1.00  0.00    -0.493 OA
ATOM     23  C   UNL     1      -4.566   3.643 -17.090  1.00  0.00     0.278 C 
ENDBRANCH   6  22
TORSDOF 5
ENDMDL
MODEL 2
REMARK VINA RESULT:    -7.428      1.456      7.801
REMARK INTER + INTRA:          -9.676
REMARK INTER:                  -9.150
REMARK INTRA:                  -0.526
REMARK UNBOUND:                -0.510
REMARK SMILES COc1ccc(-c2cc3cc(O)c(OC)cc3o2)c(O)c1
REMARK SMILES IDX 7 1 8 2 9 3 10 4 11 5 13 6 16 7 17 8 18 9 6 10 3 11 21 12
REMARK SMILES IDX 4 13 19 14 5 15 2 16 1 17 20 18 12 20 14 22 15 23
REMARK H PARENT 20 19 12 21
REMARK Flexibility Score: inf
ROOT
ATOM      1  C   UNL     1      -1.572   2.638 -11.352  1.00  0.00     0.139 A 
ATOM      2  C   UNL     1      -1.619   3.636 -10.376  1.00  0.00     0.060 A 
ATOM      3  C   UNL     1      -1.182   3.017  -9.229  1.00  0.00     0.025 A 
ATOM      4  C   UNL     1      -1.022   3.503  -7.936  1.00  0.00     0.062 A 
ATOM      5  C   UNL     1      -0.552   2.611  -6.949  1.00  0.00     0.158 A 
ATOM      6  C   UNL     1      -0.259   1.264  -7.277  1.00  0.00     0.164 A 
ATOM      7  C   UNL     1      -0.440   0.810  -8.608  1.00  0.00     0.098 A 
ATOM      8  C   UNL     1      -0.904   1.719  -9.553  1.00  0.00     0.138 A 
ATOM      9  O   UNL     1      -1.145   1.503 -10.821  1.00  0.00    -0.456 OA
ENDROOT
BRANCH   1  10
ATOM     10  C   UNL     1      -1.963   2.764 -12.776  1.00  0.00     0.059 A 
ATOM     11  C   UNL     1      -2.613   3.064 -15.508  1.00  0.00     0.122 A 
ATOM     12  C   UNL     1      -3.396   2.243 -14.678  1.00  0.00     0.093 A 
ATOM     13  C   UNL     1      -1.520   3.739 -14.962  1.00  0.00     0.047 A 
ATOM     14  C   UNL     1      -3.085   2.097 -13.317  1.00  0.00     0.130 A 
ATOM     15  C   UNL     1      -1.199   3.596 -13.611  1.00  0.00     0.020 A 
BRANCH  11  16
ATOM     16  O   UNL     1      -2.890   3.238 -16.873  1.00  0.00    -0.497 OA
ATOM     17  C   UNL     1      -3.882   4.120 -17.387  1.00  0.00     0.278 C 
ENDBRANCH  11  16
BRANCH  14  18
ATOM     18  O   UNL     1      -3.906   1.312 -12.509  1.00  0.00    -0.507 OA
ATOM     19  H   UNL     1      -3.700   1.160 -11.528  1.00  0.00     0.293 HD
ENDBRANCH  14  18
ENDBRANCH   1  10
BRANCH   5  20
ATOM     20  O   UNL     1      -0.374   3.052  -5.638  1.00  0.00    -0.504 OA
ATOM     21  H   UNL     1      -0.996   2.760  -4.892  1.00  0.00     0.293 HD
ENDBRANCH   5  20
BRANCH   6  22
ATOM     22  O   UNL     1       0.205   0.416  -6.260  1.00  0.00    -0.493 OA
ATOM     23  C   UNL     1      -0.408  -0.819  -5.902  1.00  0.00     0.278 C 
ENDBRANCH   6  22
TORSDOF 5
ENDMDL
MODEL 3
REMARK VINA RESULT:    -7.196     13.735     14.316
REMARK INTER + INTRA:          -9.389
REMARK INTER:                  -9.002
REMARK INTRA:                  -0.387
REMARK UNBOUND:                -0.510
REMARK SMILES COc1ccc(-c2cc3cc(O)c(OC)cc3o2)c(O)c1
REMARK SMILES IDX 7 1 8 2 9 3 10 4 11 5 13 6 16 7 17 8 18 9 6 10 3 11 21 12
REMARK SMILES IDX 4 13 19 14 5 15 2 16 1 17 20 18 12 20 14 22 15 23
REMARK H PARENT 20 19 12 21
REMARK Flexibility Score: inf
ROOT
ATOM      1  C   UNL     1     -12.464  12.140  -9.209  1.00  0.00     0.139 A 
ATOM      2  C   UNL     1     -11.568  13.194  -9.401  1.00  0.00     0.060 A 
ATOM      3  C   UNL     1     -11.623  13.450 -10.751  1.00  0.00     0.025 A 
ATOM      4  C   UNL     1     -10.947  14.383 -11.529  1.00  0.00     0.062 A 
ATOM      5  C   UNL     1     -11.211  14.404 -12.914  1.00  0.00     0.158 A 
ATOM      6  C   UNL     1     -12.137  13.495 -13.484  1.00  0.00     0.164 A 
ATOM      7  C   UNL     1     -12.801  12.556 -12.653  1.00  0.00     0.098 A 
ATOM      8  C   UNL     1     -12.514  12.568 -11.292  1.00  0.00     0.138 A 
ATOM      9  O   UNL     1     -13.007  11.788 -10.363  1.00  0.00    -0.456 OA
ENDROOT
BRANCH   1  10
ATOM     10  C   UNL     1     -12.774  11.455  -7.931  1.00  0.00     0.059 A 
ATOM     11  C   UNL     1     -13.292  10.070  -5.525  1.00  0.00     0.122 A 
ATOM     12  C   UNL     1     -13.864  11.334  -5.754  1.00  0.00     0.093 A 
ATOM     13  C   UNL     1     -12.477   9.504  -6.507  1.00  0.00     0.047 A 
ATOM     14  C   UNL     1     -13.619  12.023  -6.952  1.00  0.00     0.130 A 
ATOM     15  C   UNL     1     -12.223  10.185  -7.700  1.00  0.00     0.020 A 
BRANCH  11  16
ATOM     16  O   UNL     1     -13.512   9.347  -4.343  1.00  0.00    -0.497 OA
ATOM     17  C   UNL     1     -12.601   8.396  -3.800  1.00  0.00     0.278 C 
ENDBRANCH  11  16
BRANCH  14  18
ATOM     18  O   UNL     1     -14.237  13.254  -7.170  1.00  0.00    -0.507 OA
ATOM     19  H   UNL     1     -13.708  14.118  -7.200  1.00  0.00     0.293 HD
ENDBRANCH  14  18
ENDBRANCH   1  10
BRANCH   5  20
ATOM     20  O   UNL     1     -10.559  15.323 -13.735  1.00  0.00    -0.504 OA
ATOM     21  H   UNL     1     -11.057  15.840 -14.451  1.00  0.00     0.293 HD
ENDBRANCH   5  20
BRANCH   6  22
ATOM     22  O   UNL     1     -12.365  13.554 -14.867  1.00  0.00    -0.493 OA
ATOM     23  C   UNL     1     -13.303  12.739 -15.562  1.00  0.00     0.278 C 
ENDBRANCH   6  22
TORSDOF 5
ENDMDL
MODEL 4
REMARK VINA RESULT:    -7.125      1.424      7.569
REMARK INTER + INTRA:          -9.301
REMARK INTER:                  -8.705
REMARK INTRA:                  -0.596
REMARK UNBOUND:                -0.510
REMARK SMILES COc1ccc(-c2cc3cc(O)c(OC)cc3o2)c(O)c1
REMARK SMILES IDX 7 1 8 2 9 3 10 4 11 5 13 6 16 7 17 8 18 9 6 10 3 11 21 12
REMARK SMILES IDX 4 13 19 14 5 15 2 16 1 17 20 18 12 20 14 22 15 23
REMARK H PARENT 20 19 12 21
REMARK Flexibility Score: inf
ROOT
ATOM      1  C   UNL     1      -1.527   3.064 -12.196  1.00  0.00     0.139 A 
ATOM      2  C   UNL     1      -0.215   2.624 -12.004  1.00  0.00     0.060 A 
ATOM      3  C   UNL     1      -0.007   2.744 -10.650  1.00  0.00     0.025 A 
ATOM      4  C   UNL     1       1.111   2.465  -9.874  1.00  0.00     0.062 A 
ATOM      5  C   UNL     1       1.027   2.699  -8.485  1.00  0.00     0.158 A 
ATOM      6  C   UNL     1      -0.167   3.207  -7.913  1.00  0.00     0.164 A 
ATOM      7  C   UNL     1      -1.283   3.482  -8.744  1.00  0.00     0.098 A 
ATOM      8  C   UNL     1      -1.160   3.236 -10.108  1.00  0.00     0.138 A 
ATOM      9  O   UNL     1      -2.059   3.428 -11.040  1.00  0.00    -0.456 OA
ENDROOT
BRANCH   1  10
ATOM     10  C   UNL     1      -2.256   3.163 -13.484  1.00  0.00     0.059 A 
ATOM     11  C   UNL     1      -3.550   3.394 -15.983  1.00  0.00     0.122 A 
ATOM     12  C   UNL     1      -4.197   2.769 -14.904  1.00  0.00     0.093 A 
ATOM     13  C   UNL     1      -2.266   3.911 -15.800  1.00  0.00     0.047 A 
ATOM     14  C   UNL     1      -3.564   2.659 -13.656  1.00  0.00     0.130 A 
ATOM     15  C   UNL     1      -1.626   3.802 -14.564  1.00  0.00     0.020 A 
BRANCH  11  16
ATOM     16  O   UNL     1      -4.146   3.525 -17.246  1.00  0.00    -0.497 OA
ATOM     17  C   UNL     1      -5.048   4.567 -17.607  1.00  0.00     0.278 C 
ENDBRANCH  11  16
BRANCH  14  18
ATOM     18  O   UNL     1      -4.249   2.075 -12.591  1.00  0.00    -0.507 OA
ATOM     19  H   UNL     1      -5.201   2.335 -12.362  1.00  0.00     0.293 HD
ENDBRANCH  14  18
ENDBRANCH   1  10
BRANCH   5  20
ATOM     20  O   UNL     1       2.121   2.433  -7.664  1.00  0.00    -0.504 OA
ATOM     21  H   UNL     1       2.169   2.786  -6.714  1.00  0.00     0.293 HD
ENDBRANCH   5  20
BRANCH   6  22
ATOM     22  O   UNL     1      -0.202   3.425  -6.527  1.00  0.00    -0.493 OA
ATOM     23  C   UNL     1      -1.292   3.065  -5.685  1.00  0.00     0.278 C 
ENDBRANCH   6  22
TORSDOF 5
ENDMDL
MODEL 5
REMARK VINA RESULT:    -6.979      2.201      2.844
REMARK INTER + INTRA:          -9.121
REMARK INTER:                  -8.908
REMARK INTRA:                  -0.212
REMARK UNBOUND:                -0.510
REMARK SMILES COc1ccc(-c2cc3cc(O)c(OC)cc3o2)c(O)c1
REMARK SMILES IDX 7 1 8 2 9 3 10 4 11 5 13 6 16 7 17 8 18 9 6 10 3 11 21 12
REMARK SMILES IDX 4 13 19 14 5 15 2 16 1 17 20 18 12 20 14 22 15 23
REMARK H PARENT 20 19 12 21
REMARK Flexibility Score: inf
ROOT
ATOM      1  C   UNL     1      -0.672   2.767 -12.085  1.00  0.00     0.139 A 
ATOM      2  C   UNL     1      -0.884   3.575 -13.205  1.00  0.00     0.060 A 
ATOM      3  C   UNL     1      -0.408   2.832 -14.260  1.00  0.00     0.025 A 
ATOM      4  C   UNL     1      -0.344   3.119 -15.619  1.00  0.00     0.062 A 
ATOM      5  C   UNL     1       0.214   2.145 -16.474  1.00  0.00     0.158 A 
ATOM      6  C   UNL     1       0.695   0.919 -15.950  1.00  0.00     0.164 A 
ATOM      7  C   UNL     1       0.614   0.670 -14.556  1.00  0.00     0.098 A 
ATOM      8  C   UNL     1       0.056   1.655 -13.747  1.00  0.00     0.138 A 
ATOM      9  O   UNL     1      -0.103   1.628 -12.448  1.00  0.00    -0.456 OA
ENDROOT
BRANCH   1  10
ATOM     10  C   UNL     1      -0.986   3.098 -10.675  1.00  0.00     0.059 A 
ATOM     11  C   UNL     1      -1.475   3.713  -7.962  1.00  0.00     0.122 A 
ATOM     12  C   UNL     1      -2.500   3.844  -8.916  1.00  0.00     0.093 A 
ATOM     13  C   UNL     1      -0.219   3.262  -8.371  1.00  0.00     0.047 A 
ATOM     14  C   UNL     1      -2.266   3.531 -10.264  1.00  0.00     0.130 A 
ATOM     15  C   UNL     1       0.024   2.953  -9.711  1.00  0.00     0.020 A 
BRANCH  11  16
ATOM     16  O   UNL     1      -1.666   4.014  -6.606  1.00  0.00    -0.497 OA
ATOM     17  C   UNL     1      -1.369   3.125  -5.534  1.00  0.00     0.278 C 
ENDBRANCH  11  16
BRANCH  14  18
ATOM     18  O   UNL     1      -3.314   3.627 -11.180  1.00  0.00    -0.507 OA
ATOM     19  H   UNL     1      -4.023   4.347 -11.105  1.00  0.00     0.293 HD
ENDBRANCH  14  18
ENDBRANCH   1  10
BRANCH   5  20
ATOM     20  O   UNL     1       0.298   2.384 -17.844  1.00  0.00    -0.504 OA
ATOM     21  H   UNL     1       0.231   1.631 -18.519  1.00  0.00     0.293 HD
ENDBRANCH   5  20
BRANCH   6  22
ATOM     22  O   UNL     1       1.242  -0.018 -16.840  1.00  0.00    -0.493 OA
ATOM     23  C   UNL     1       1.195  -1.428 -16.651  1.00  0.00     0.278 C 
ENDBRANCH   6  22
TORSDOF 5
ENDMDL
MODEL 6
REMARK VINA RESULT:    -6.963     13.596     14.143
REMARK INTER + INTRA:          -9.101
REMARK INTER:                  -8.502
REMARK INTRA:                  -0.599
REMARK UNBOUND:                -0.510
REMARK SMILES COc1ccc(-c2cc3cc(O)c(OC)cc3o2)c(O)c1
REMARK SMILES IDX 7 1 8 2 9 3 10 4 11 5 13 6 16 7 17 8 18 9 6 10 3 11 21 12
REMARK SMILES IDX 4 13 19 14 5 15 2 16 1 17 20 18 12 20 14 22 15 23
REMARK H PARENT 20 19 12 21
REMARK Flexibility Score: inf
ROOT
ATOM      1  C   UNL     1     -12.590  11.622  -9.907  1.00  0.00     0.139 A 
ATOM      2  C   UNL     1     -11.673  12.673  -9.813  1.00  0.00     0.060 A 
ATOM      3  C   UNL     1     -11.651  13.224 -11.073  1.00  0.00     0.025 A 
ATOM      4  C   UNL     1     -10.923  14.291 -11.586  1.00  0.00     0.062 A 
ATOM      5  C   UNL     1     -11.110  14.626 -12.944  1.00  0.00     0.158 A 
ATOM      6  C   UNL     1     -12.012  13.887 -13.749  1.00  0.00     0.164 A 
ATOM      7  C   UNL     1     -12.732  12.803 -13.185  1.00  0.00     0.098 A 
ATOM      8  C   UNL     1     -12.520  12.505 -11.842  1.00  0.00     0.138 A 
ATOM      9  O   UNL     1     -13.072  11.549 -11.138  1.00  0.00    -0.456 OA
ENDROOT
BRANCH   1  10
ATOM     10  C   UNL     1     -12.978  10.678  -8.833  1.00  0.00     0.059 A 
ATOM     11  C   UNL     1     -13.721   8.965  -6.714  1.00  0.00     0.122 A 
ATOM     12  C   UNL     1     -13.624   8.470  -8.026  1.00  0.00     0.093 A 
ATOM     13  C   UNL     1     -13.432  10.309  -6.471  1.00  0.00     0.047 A 
ATOM     14  C   UNL     1     -13.245   9.313  -9.083  1.00  0.00     0.130 A 
ATOM     15  C   UNL     1     -13.060  11.157  -7.516  1.00  0.00     0.020 A 
BRANCH  11  16
ATOM     16  O   UNL     1     -14.094   8.157  -5.630  1.00  0.00    -0.497 OA
ATOM     17  C   UNL     1     -13.744   6.783  -5.491  1.00  0.00     0.278 C 
ENDBRANCH  11  16
BRANCH  14  18
ATOM     18  O   UNL     1     -13.113   8.784 -10.366  1.00  0.00    -0.507 OA
ATOM     19  H   UNL     1     -12.602   7.926 -10.539  1.00  0.00     0.293 HD
ENDBRANCH  14  18
ENDBRANCH   1  10
BRANCH   5  20
ATOM     20  O   UNL     1     -10.404  15.689 -13.504  1.00  0.00    -0.504 OA
ATOM     21  H   UNL     1     -10.032  16.439 -12.932  1.00  0.00     0.293 HD
ENDBRANCH   5  20
BRANCH   6  22
ATOM     22  O   UNL     1     -12.163  14.258 -15.094  1.00  0.00    -0.493 OA
ATOM     23  C   UNL     1     -13.034  13.608 -16.013  1.00  0.00     0.278 C 
ENDBRANCH   6  22
TORSDOF 5
ENDMDL
MODEL 7
REMARK VINA RESULT:    -6.916      2.055      2.267
REMARK INTER + INTRA:          -9.044
REMARK INTER:                  -8.454
REMARK INTRA:                  -0.590
REMARK UNBOUND:                -0.510
REMARK SMILES COc1ccc(-c2cc3cc(O)c(OC)cc3o2)c(O)c1
REMARK SMILES IDX 7 1 8 2 9 3 10 4 11 5 13 6 16 7 17 8 18 9 6 10 3 11 21 12
REMARK SMILES IDX 4 13 19 14 5 15 2 16 1 17 20 18 12 20 14 22 15 23
REMARK H PARENT 20 19 12 21
REMARK Flexibility Score: inf
ROOT
ATOM      1  C   UNL     1      -0.432   1.658 -12.101  1.00  0.00     0.139 A 
ATOM      2  C   UNL     1       0.382   1.235 -13.155  1.00  0.00     0.060 A 
ATOM      3  C   UNL     1      -0.174   1.813 -14.272  1.00  0.00     0.025 A 
ATOM      4  C   UNL     1       0.195   1.746 -15.610  1.00  0.00     0.062 A 
ATOM      5  C   UNL     1      -0.587   2.453 -16.548  1.00  0.00     0.158 A 
ATOM      6  C   UNL     1      -1.715   3.200 -16.125  1.00  0.00     0.164 A 
ATOM      7  C   UNL     1      -2.058   3.237 -14.749  1.00  0.00     0.098 A 
ATOM      8  C   UNL     1      -1.261   2.528 -13.856  1.00  0.00     0.138 A 
ATOM      9  O   UNL     1      -1.408   2.426 -12.560  1.00  0.00    -0.456 OA
ENDROOT
BRANCH   1  10
ATOM     10  C   UNL     1      -0.292   1.304 -10.668  1.00  0.00     0.059 A 
ATOM     11  C   UNL     1       0.086   0.623  -7.953  1.00  0.00     0.122 A 
ATOM     12  C   UNL     1      -1.187   0.994  -8.421  1.00  0.00     0.093 A 
ATOM     13  C   UNL     1       1.155   0.582  -8.850  1.00  0.00     0.047 A 
ATOM     14  C   UNL     1      -1.384   1.324  -9.772  1.00  0.00     0.130 A 
ATOM     15  C   UNL     1       0.970   0.914 -10.193  1.00  0.00     0.020 A 
BRANCH  11  16
ATOM     16  O   UNL     1       0.326   0.284  -6.613  1.00  0.00    -0.497 OA
ATOM     17  C   UNL     1      -0.341  -0.763  -5.915  1.00  0.00     0.278 C 
ENDBRANCH  11  16
BRANCH  14  18
ATOM     18  O   UNL     1      -2.666   1.645 -10.217  1.00  0.00    -0.507 OA
ATOM     19  H   UNL     1      -3.032   1.287 -11.091  1.00  0.00     0.293 HD
ENDBRANCH  14  18
ENDBRANCH   1  10
BRANCH   5  20
ATOM     20  O   UNL     1      -0.256   2.418 -17.901  1.00  0.00    -0.504 OA
ATOM     21  H   UNL     1      -0.767   2.964 -18.586  1.00  0.00     0.293 HD
ENDBRANCH   5  20
BRANCH   6  22
ATOM     22  O   UNL     1      -2.462   3.885 -17.095  1.00  0.00    -0.493 OA
ATOM     23  C   UNL     1      -3.885   3.930 -17.129  1.00  0.00     0.278 C 
ENDBRANCH   6  22
TORSDOF 5
ENDMDL
MODEL 8
REMARK VINA RESULT:    -6.875      1.289      2.489
REMARK INTER + INTRA:          -8.993
REMARK INTER:                  -8.408
REMARK INTRA:                  -0.585
REMARK UNBOUND:                -0.510
REMARK SMILES COc1ccc(-c2cc3cc(O)c(OC)cc3o2)c(O)c1
REMARK SMILES IDX 7 1 8 2 9 3 10 4 11 5 13 6 16 7 17 8 18 9 6 10 3 11 21 12
REMARK SMILES IDX 4 13 19 14 5 15 2 16 1 17 20 18 12 20 14 22 15 23
REMARK H PARENT 20 19 12 21
REMARK Flexibility Score: inf
ROOT
ATOM      1  C   UNL     1      -1.829   2.647 -11.063  1.00  0.00     0.139 A 
ATOM      2  C   UNL     1      -3.081   2.544 -11.674  1.00  0.00     0.060 A 
ATOM      3  C   UNL     1      -2.806   2.525 -13.021  1.00  0.00     0.025 A 
ATOM      4  C   UNL     1      -3.652   2.444 -14.122  1.00  0.00     0.062 A 
ATOM      5  C   UNL     1      -3.068   2.454 -15.406  1.00  0.00     0.158 A 
ATOM      6  C   UNL     1      -1.662   2.547 -15.556  1.00  0.00     0.164 A 
ATOM      7  C   UNL     1      -0.837   2.631 -14.405  1.00  0.00     0.098 A 
ATOM      8  C   UNL     1      -1.450   2.618 -13.157  1.00  0.00     0.138 A 
ATOM      9  O   UNL     1      -0.878   2.694 -11.982  1.00  0.00    -0.456 OA
ENDROOT
BRANCH   1  10
ATOM     10  C   UNL     1      -1.549   2.729  -9.610  1.00  0.00     0.059 A 
ATOM     11  C   UNL     1      -1.098   2.962  -6.832  1.00  0.00     0.122 A 
ATOM     12  C   UNL     1      -0.417   1.988  -7.582  1.00  0.00     0.093 A 
ATOM     13  C   UNL     1      -1.989   3.820  -7.480  1.00  0.00     0.047 A 
ATOM     14  C   UNL     1      -0.628   1.873  -8.965  1.00  0.00     0.130 A 
ATOM     15  C   UNL     1      -2.210   3.710  -8.854  1.00  0.00     0.020 A 
BRANCH  11  16
ATOM     16  O   UNL     1      -0.915   3.112  -5.449  1.00  0.00    -0.497 OA
ATOM     17  C   UNL     1      -1.956   3.006  -4.483  1.00  0.00     0.278 C 
ENDBRANCH  11  16
BRANCH  14  18
ATOM     18  O   UNL     1       0.096   0.928  -9.691  1.00  0.00    -0.507 OA
ATOM     19  H   UNL     1       1.106   0.871  -9.634  1.00  0.00     0.293 HD
ENDBRANCH  14  18
ENDBRANCH   1  10
BRANCH   5  20
ATOM     20  O   UNL     1      -3.874   2.373 -16.540  1.00  0.00    -0.504 OA
ATOM     21  H   UNL     1      -3.529   1.982 -17.409  1.00  0.00     0.293 HD
ENDBRANCH   5  20
BRANCH   6  22
ATOM     22  O   UNL     1      -1.129   2.553 -16.854  1.00  0.00    -0.493 OA
ATOM     23  C   UNL     1       0.251   2.371 -17.156  1.00  0.00     0.278 C 
ENDBRANCH   6  22
TORSDOF 5
ENDMDL
MODEL 9
REMARK VINA RESULT:    -6.867     13.299     14.111
REMARK INTER + INTRA:          -8.983
REMARK INTER:                  -8.383
REMARK INTRA:                  -0.600
REMARK UNBOUND:                -0.510
REMARK SMILES COc1ccc(-c2cc3cc(O)c(OC)cc3o2)c(O)c1
REMARK SMILES IDX 7 1 8 2 9 3 10 4 11 5 13 6 16 7 17 8 18 9 6 10 3 11 21 12
REMARK SMILES IDX 4 13 19 14 5 15 2 16 1 17 20 18 12 20 14 22 15 23
REMARK H PARENT 20 19 12 21
REMARK Flexibility Score: inf
ROOT
ATOM      1  C   UNL     1     -13.196  10.584 -10.302  1.00  0.00     0.139 A 
ATOM      2  C   UNL     1     -14.009  10.604 -11.438  1.00  0.00     0.060 A 
ATOM      3  C   UNL     1     -13.507  11.631 -12.202  1.00  0.00     0.025 A 
ATOM      4  C   UNL     1     -13.910  12.128 -13.436  1.00  0.00     0.062 A 
ATOM      5  C   UNL     1     -13.191  13.215 -13.977  1.00  0.00     0.158 A 
ATOM      6  C   UNL     1     -12.096  13.775 -13.273  1.00  0.00     0.164 A 
ATOM      7  C   UNL     1     -11.721  13.238 -12.014  1.00  0.00     0.098 A 
ATOM      8  C   UNL     1     -12.455  12.166 -11.515  1.00  0.00     0.138 A 
ATOM      9  O   UNL     1     -12.281  11.536 -10.381  1.00  0.00    -0.456 OA
ENDROOT
BRANCH   1  10
ATOM     10  C   UNL     1     -13.315   9.676  -9.136  1.00  0.00     0.059 A 
ATOM     11  C   UNL     1     -13.554   7.861  -6.985  1.00  0.00     0.122 A 
ATOM     12  C   UNL     1     -13.229   9.208  -6.745  1.00  0.00     0.093 A 
ATOM     13  C   UNL     1     -13.771   7.437  -8.298  1.00  0.00     0.047 A 
ATOM     14  C   UNL     1     -13.118  10.117  -7.808  1.00  0.00     0.130 A 
ATOM     15  C   UNL     1     -13.657   8.334  -9.362  1.00  0.00     0.020 A 
BRANCH  11  16
ATOM     16  O   UNL     1     -13.676   6.920  -5.952  1.00  0.00    -0.497 OA
ATOM     17  C   UNL     1     -12.602   6.492  -5.121  1.00  0.00     0.278 C 
ENDBRANCH  11  16
BRANCH  14  18
ATOM     18  O   UNL     1     -12.839  11.456  -7.536  1.00  0.00    -0.507 OA
ATOM     19  H   UNL     1     -11.909  11.766  -7.279  1.00  0.00     0.293 HD
ENDBRANCH  14  18
ENDBRANCH   1  10
BRANCH   5  20
ATOM     20  O   UNL     1     -13.556  13.748 -15.212  1.00  0.00    -0.504 OA
ATOM     21  H   UNL     1     -13.856  14.712 -15.305  1.00  0.00     0.293 HD
ENDBRANCH   5  20
BRANCH   6  22
ATOM     22  O   UNL     1     -11.413  14.855 -13.852  1.00  0.00    -0.493 OA
ATOM     23  C   UNL     1     -10.680  15.830 -13.116  1.00  0.00     0.278 C 
ENDBRANCH   6  22
TORSDOF 5
ENDMDL
