MODEL 1
REMARK VINA RESULT:    -3.757      0.000      0.000
REMARK INTER + INTRA:          -5.431
REMARK INTER:                  -4.856
REMARK INTRA:                  -0.575
REMARK UNBOUND:                -0.575
REMARK SMILES CO[C@@]1(CO)O[C@H](CO)[C@@H](O)[C@@H]1O
REMARK SMILES IDX 3 1 12 2 10 3 7 4 6 5 2 6 1 7 4 8 5 9 13 11 11 13 8 15 9 16
REMARK H PARENT 5 10 13 12 11 14 9 17
REMARK Flexibility Score: inf
ROOT
ATOM      1  C   UNL     1       7.720  -4.237  -2.372  1.00  0.00     0.221 C 
ATOM      2  C   UNL     1       7.355  -4.055  -0.880  1.00  0.00     0.207 C 
ATOM      3  C   UNL     1       6.145  -3.162  -0.931  1.00  0.00     0.180 C 
ATOM      4  C   UNL     1       5.522  -3.555  -2.261  1.00  0.00     0.179 C 
ATOM      5  O   UNL     1       6.542  -4.006  -3.125  1.00  0.00    -0.337 OA
ENDROOT
BRANCH   1   6
ATOM      6  O   UNL     1       8.123  -5.579  -2.644  1.00  0.00    -0.349 OA
ATOM      7  C   UNL     1       7.550  -6.531  -1.769  1.00  0.00     0.198 C 
ENDBRANCH   1   6
BRANCH   1   8
ATOM      8  C   UNL     1       8.765  -3.196  -2.867  1.00  0.00     0.224 C 
BRANCH   8   9
ATOM      9  O   UNL     1      10.054  -3.547  -2.438  1.00  0.00    -0.391 OA
ATOM     10  H   UNL     1      10.569  -2.702  -2.356  1.00  0.00     0.210 HD
ENDBRANCH   8   9
ENDBRANCH   1   8
BRANCH   2  11
ATOM     11  O   UNL     1       8.388  -3.462  -0.134  1.00  0.00    -0.385 OA
ATOM     12  H   UNL     1       8.450  -2.518  -0.436  1.00  0.00     0.211 HD
ENDBRANCH   2  11
BRANCH   3  13
ATOM     13  O   UNL     1       5.266  -3.427   0.131  1.00  0.00    -0.387 OA
ATOM     14  H   UNL     1       4.617  -4.101  -0.202  1.00  0.00     0.211 HD
ENDBRANCH   3  13
BRANCH   4  15
ATOM     15  C   UNL     1       4.771  -2.391  -2.918  1.00  0.00     0.191 C 
BRANCH  15  16
ATOM     16  O   UNL     1       3.698  -1.971  -2.117  1.00  0.00    -0.394 OA
ATOM     17  H   UNL     1       4.095  -1.585  -1.293  1.00  0.00     0.210 HD
ENDBRANCH  15  16
ENDBRANCH   4  15
TORSDOF 7
ENDMDL
MODEL 2
REMARK VINA RESULT:    -3.601      1.558      4.212
REMARK INTER + INTRA:          -5.230
REMARK INTER:                  -4.829
REMARK INTRA:                  -0.401
REMARK UNBOUND:                -0.575
REMARK SMILES CO[C@@]1(CO)O[C@H](CO)[C@@H](O)[C@@H]1O
REMARK SMILES IDX 3 1 12 2 10 3 7 4 6 5 2 6 1 7 4 8 5 9 13 11 11 13 8 15 9 16
REMARK H PARENT 5 10 13 12 11 14 9 17
REMARK Flexibility Score: inf
ROOT
ATOM      1  C   UNL     1       7.048  -3.802  -1.499  1.00  0.00     0.221 C 
ATOM      2  C   UNL     1       8.564  -3.624  -1.244  1.00  0.00     0.207 C 
ATOM      3  C   UNL     1       9.093  -5.029  -1.333  1.00  0.00     0.180 C 
ATOM      4  C   UNL     1       8.127  -5.665  -2.320  1.00  0.00     0.179 C 
ATOM      5  O   UNL     1       6.883  -5.005  -2.228  1.00  0.00    -0.337 OA
ENDROOT
BRANCH   1   6
ATOM      6  O   UNL     1       6.538  -2.752  -2.320  1.00  0.00    -0.349 OA
ATOM      7  C   UNL     1       7.523  -2.131  -3.124  1.00  0.00     0.198 C 
ENDBRANCH   1   6
BRANCH   1   8
ATOM      8  C   UNL     1       6.232  -3.972  -0.185  1.00  0.00     0.224 C 
BRANCH   8   9
ATOM      9  O   UNL     1       5.100  -3.144  -0.195  1.00  0.00    -0.391 OA
ATOM     10  H   UNL     1       4.352  -3.676   0.182  1.00  0.00     0.210 HD
ENDBRANCH   8   9
ENDBRANCH   1   8
BRANCH   2  11
ATOM     11  O   UNL     1       8.842  -3.060   0.014  1.00  0.00    -0.385 OA
ATOM     12  H   UNL     1       8.454  -3.672   0.692  1.00  0.00     0.211 HD
ENDBRANCH   2  11
BRANCH   3  13
ATOM     13  O   UNL     1      10.405  -5.054  -1.830  1.00  0.00    -0.387 OA
ATOM     14  H   UNL     1      10.331  -5.154  -2.815  1.00  0.00     0.211 HD
ENDBRANCH   3  13
BRANCH   4  15
ATOM     15  C   UNL     1       7.933  -7.164  -2.062  1.00  0.00     0.191 C 
BRANCH  15  16
ATOM     16  O   UNL     1       8.828  -7.624  -1.085  1.00  0.00    -0.394 OA
ATOM     17  H   UNL     1       8.470  -8.489  -0.757  1.00  0.00     0.210 HD
ENDBRANCH  15  16
ENDBRANCH   4  15
TORSDOF 7
ENDMDL
MODEL 3
REMARK VINA RESULT:    -3.474      1.481      1.744
REMARK INTER + INTRA:          -5.065
REMARK INTER:                  -4.511
REMARK INTRA:                  -0.554
REMARK UNBOUND:                -0.575
REMARK SMILES CO[C@@]1(CO)O[C@H](CO)[C@@H](O)[C@@H]1O
REMARK SMILES IDX 3 1 12 2 10 3 7 4 6 5 2 6 1 7 4 8 5 9 13 11 11 13 8 15 9 16
REMARK H PARENT 5 10 13 12 11 14 9 17
REMARK Flexibility Score: inf
ROOT
ATOM      1  C   UNL     1       8.898  -4.789  -1.898  1.00  0.00     0.221 C 
ATOM      2  C   UNL     1       8.285  -3.894  -0.795  1.00  0.00     0.207 C 
ATOM      3  C   UNL     1       6.847  -3.767  -1.218  1.00  0.00     0.180 C 
ATOM      4  C   UNL     1       6.613  -5.087  -1.934  1.00  0.00     0.179 C 
ATOM      5  O   UNL     1       7.839  -5.538  -2.469  1.00  0.00    -0.337 OA
ENDROOT
BRANCH   1   6
ATOM      6  O   UNL     1       9.814  -5.732  -1.344  1.00  0.00    -0.349 OA
ATOM      7  C   UNL     1      10.117  -6.808  -2.213  1.00  0.00     0.198 C 
ENDBRANCH   1   6
BRANCH   1   8
ATOM      8  C   UNL     1       9.528  -3.968  -3.059  1.00  0.00     0.224 C 
BRANCH   8   9
ATOM      9  O   UNL     1      10.787  -3.470  -2.688  1.00  0.00    -0.391 OA
ATOM     10  H   UNL     1      11.132  -4.066  -1.973  1.00  0.00     0.210 HD
ENDBRANCH   8   9
ENDBRANCH   1   8
BRANCH   2  11
ATOM     11  O   UNL     1       8.899  -2.632  -0.713  1.00  0.00    -0.385 OA
ATOM     12  H   UNL     1       9.801  -2.780  -0.325  1.00  0.00     0.211 HD
ENDBRANCH   2  11
BRANCH   3  13
ATOM     13  O   UNL     1       5.994  -3.640  -0.110  1.00  0.00    -0.387 OA
ATOM     14  H   UNL     1       6.427  -4.132   0.635  1.00  0.00     0.211 HD
ENDBRANCH   3  13
BRANCH   4  15
ATOM     15  C   UNL     1       5.577  -4.966  -3.058  1.00  0.00     0.191 C 
BRANCH  15  16
ATOM     16  O   UNL     1       4.766  -3.837  -2.871  1.00  0.00    -0.394 OA
ATOM     17  H   UNL     1       4.093  -3.848  -3.600  1.00  0.00     0.210 HD
ENDBRANCH  15  16
ENDBRANCH   4  15
TORSDOF 7
ENDMDL
MODEL 4
REMARK VINA RESULT:    -3.324      1.529      4.009
REMARK INTER + INTRA:          -4.870
REMARK INTER:                  -4.541
REMARK INTRA:                  -0.329
REMARK UNBOUND:                -0.575
REMARK SMILES CO[C@@]1(CO)O[C@H](CO)[C@@H](O)[C@@H]1O
REMARK SMILES IDX 3 1 12 2 10 3 7 4 6 5 2 6 1 7 4 8 5 9 13 11 11 13 8 15 9 16
REMARK H PARENT 5 10 13 12 11 14 9 17
REMARK Flexibility Score: inf
ROOT
ATOM      1  C   UNL     1       6.872  -3.788  -2.343  1.00  0.00     0.221 C 
ATOM      2  C   UNL     1       7.014  -3.403  -0.852  1.00  0.00     0.207 C 
ATOM      3  C   UNL     1       8.262  -4.130  -0.428  1.00  0.00     0.180 C 
ATOM      4  C   UNL     1       9.060  -4.161  -1.721  1.00  0.00     0.179 C 
ATOM      5  O   UNL     1       8.162  -4.144  -2.810  1.00  0.00    -0.337 OA
ENDROOT
BRANCH   1   6
ATOM      6  O   UNL     1       6.447  -2.673  -3.124  1.00  0.00    -0.349 OA
ATOM      7  C   UNL     1       5.063  -2.397  -3.014  1.00  0.00     0.198 C 
ENDBRANCH   1   6
BRANCH   1   8
ATOM      8  C   UNL     1       5.970  -5.037  -2.560  1.00  0.00     0.224 C 
BRANCH   8   9
ATOM      9  O   UNL     1       6.714  -6.098  -3.099  1.00  0.00    -0.391 OA
ATOM     10  H   UNL     1       7.648  -5.983  -2.784  1.00  0.00     0.210 HD
ENDBRANCH   8   9
ENDBRANCH   1   8
BRANCH   2  11
ATOM     11  O   UNL     1       5.911  -3.804  -0.078  1.00  0.00    -0.385 OA
ATOM     12  H   UNL     1       6.062  -3.448   0.837  1.00  0.00     0.211 HD
ENDBRANCH   2  11
BRANCH   3  13
ATOM     13  O   UNL     1       8.953  -3.425   0.570  1.00  0.00    -0.387 OA
ATOM     14  H   UNL     1       9.842  -3.199   0.190  1.00  0.00     0.211 HD
ENDBRANCH   3  13
BRANCH   4  15
ATOM     15  C   UNL     1       9.962  -5.398  -1.820  1.00  0.00     0.191 C 
BRANCH  15  16
ATOM     16  O   UNL     1      10.523  -5.708  -0.573  1.00  0.00    -0.394 OA
ATOM     17  H   UNL     1      11.504  -5.770  -0.711  1.00  0.00     0.210 HD
ENDBRANCH  15  16
ENDBRANCH   4  15
TORSDOF 7
ENDMDL
MODEL 5
REMARK VINA RESULT:    -3.291      2.319      3.949
REMARK INTER + INTRA:          -4.829
REMARK INTER:                  -4.286
REMARK INTRA:                  -0.543
REMARK UNBOUND:                -0.575
REMARK SMILES CO[C@@]1(CO)O[C@H](CO)[C@@H](O)[C@@H]1O
REMARK SMILES IDX 3 1 12 2 10 3 7 4 6 5 2 6 1 7 4 8 5 9 13 11 11 13 8 15 9 16
REMARK H PARENT 5 10 13 12 11 14 9 17
REMARK Flexibility Score: inf
ROOT
ATOM      1  C   UNL     1       8.551  -4.117  -1.653  1.00  0.00     0.221 C 
ATOM      2  C   UNL     1       9.604  -5.250  -1.696  1.00  0.00     0.207 C 
ATOM      3  C   UNL     1       8.800  -6.447  -2.125  1.00  0.00     0.180 C 
ATOM      4  C   UNL     1       7.717  -5.808  -2.978  1.00  0.00     0.179 C 
ATOM      5  O   UNL     1       7.494  -4.492  -2.520  1.00  0.00    -0.337 OA
ENDROOT
BRANCH   1   6
ATOM      6  O   UNL     1       9.086  -2.897  -2.164  1.00  0.00    -0.349 OA
ATOM      7  C   UNL     1       8.098  -1.975  -2.582  1.00  0.00     0.198 C 
ENDBRANCH   1   6
BRANCH   1   8
ATOM      8  C   UNL     1       7.917  -3.938  -0.244  1.00  0.00     0.224 C 
BRANCH   8   9
ATOM      9  O   UNL     1       8.858  -3.421   0.660  1.00  0.00    -0.391 OA
ATOM     10  H   UNL     1       9.110  -2.520   0.329  1.00  0.00     0.210 HD
ENDBRANCH   8   9
ENDBRANCH   1   8
BRANCH   2  11
ATOM     11  O   UNL     1      10.215  -5.474  -0.450  1.00  0.00    -0.385 OA
ATOM     12  H   UNL     1       9.490  -5.466   0.227  1.00  0.00     0.211 HD
ENDBRANCH   2  11
BRANCH   3  13
ATOM     13  O   UNL     1       9.573  -7.340  -2.884  1.00  0.00    -0.387 OA
ATOM     14  H   UNL     1       8.945  -7.809  -3.492  1.00  0.00     0.211 HD
ENDBRANCH   3  13
BRANCH   4  15
ATOM     15  C   UNL     1       6.401  -6.595  -2.936  1.00  0.00     0.191 C 
BRANCH  15  16
ATOM     16  O   UNL     1       6.592  -7.858  -2.356  1.00  0.00    -0.394 OA
ATOM     17  H   UNL     1       5.712  -8.139  -1.994  1.00  0.00     0.210 HD
ENDBRANCH  15  16
ENDBRANCH   4  15
TORSDOF 7
ENDMDL
MODEL 6
REMARK VINA RESULT:    -3.224      1.675      4.436
REMARK INTER + INTRA:          -4.741
REMARK INTER:                  -4.429
REMARK INTRA:                  -0.312
REMARK UNBOUND:                -0.575
REMARK SMILES CO[C@@]1(CO)O[C@H](CO)[C@@H](O)[C@@H]1O
REMARK SMILES IDX 3 1 12 2 10 3 7 4 6 5 2 6 1 7 4 8 5 9 13 11 11 13 8 15 9 16
REMARK H PARENT 5 10 13 12 11 14 9 17
REMARK Flexibility Score: inf
ROOT
ATOM      1  C   UNL     1       7.680  -4.246  -1.900  1.00  0.00     0.221 C 
ATOM      2  C   UNL     1       8.799  -3.338  -2.463  1.00  0.00     0.207 C 
ATOM      3  C   UNL     1      10.053  -4.109  -2.154  1.00  0.00     0.180 C 
ATOM      4  C   UNL     1       9.558  -5.545  -2.208  1.00  0.00     0.179 C 
ATOM      5  O   UNL     1       8.189  -5.567  -1.865  1.00  0.00    -0.337 OA
ENDROOT
BRANCH   1   6
ATOM      6  O   UNL     1       6.548  -4.265  -2.768  1.00  0.00    -0.349 OA
ATOM      7  C   UNL     1       5.548  -3.327  -2.418  1.00  0.00     0.198 C 
ENDBRANCH   1   6
BRANCH   1   8
ATOM      8  C   UNL     1       7.294  -3.887  -0.436  1.00  0.00     0.224 C 
BRANCH   8   9
ATOM      9  O   UNL     1       8.443  -3.735   0.356  1.00  0.00    -0.391 OA
ATOM     10  H   UNL     1       9.125  -3.291  -0.212  1.00  0.00     0.210 HD
ENDBRANCH   8   9
ENDBRANCH   1   8
BRANCH   2  11
ATOM     11  O   UNL     1       8.828  -2.068  -1.858  1.00  0.00    -0.385 OA
ATOM     12  H   UNL     1       7.969  -1.968  -1.369  1.00  0.00     0.211 HD
ENDBRANCH   2  11
BRANCH   3  13
ATOM     13  O   UNL     1      11.046  -3.886  -3.122  1.00  0.00    -0.387 OA
ATOM     14  H   UNL     1      10.621  -4.051  -4.004  1.00  0.00     0.211 HD
ENDBRANCH   3  13
BRANCH   4  15
ATOM     15  C   UNL     1      10.339  -6.467  -1.263  1.00  0.00     0.191 C 
BRANCH  15  16
ATOM     16  O   UNL     1      10.757  -5.772  -0.119  1.00  0.00    -0.394 OA
ATOM     17  H   UNL     1      10.698  -4.805  -0.338  1.00  0.00     0.210 HD
ENDBRANCH  15  16
ENDBRANCH   4  15
TORSDOF 7
ENDMDL
MODEL 7
REMARK VINA RESULT:    -3.089      2.498      4.079
REMARK INTER + INTRA:          -4.567
REMARK INTER:                  -4.166
REMARK INTRA:                  -0.401
REMARK UNBOUND:                -0.575
REMARK SMILES CO[C@@]1(CO)O[C@H](CO)[C@@H](O)[C@@H]1O
REMARK SMILES IDX 3 1 12 2 10 3 7 4 6 5 2 6 1 7 4 8 5 9 13 11 11 13 8 15 9 16
REMARK H PARENT 5 10 13 12 11 14 9 17
REMARK Flexibility Score: inf
ROOT
ATOM      1  C   UNL     1      10.117  -6.001  -2.077  1.00  0.00     0.221 C 
ATOM      2  C   UNL     1       8.841  -6.707  -2.595  1.00  0.00     0.207 C 
ATOM      3  C   UNL     1       7.734  -5.975  -1.885  1.00  0.00     0.180 C 
ATOM      4  C   UNL     1       8.332  -4.588  -1.720  1.00  0.00     0.179 C 
ATOM      5  O   UNL     1       9.737  -4.703  -1.655  1.00  0.00    -0.337 OA
ENDROOT
BRANCH   1   6
ATOM      6  O   UNL     1      11.070  -5.829  -3.125  1.00  0.00    -0.349 OA
ATOM      7  C   UNL     1      12.149  -4.982  -2.777  1.00  0.00     0.198 C 
ENDBRANCH   1   6
BRANCH   1   8
ATOM      8  C   UNL     1      10.730  -6.703  -0.832  1.00  0.00     0.224 C 
BRANCH   8   9
ATOM      9  O   UNL     1      10.913  -5.785   0.214  1.00  0.00    -0.391 OA
ATOM     10  H   UNL     1      11.568  -5.112  -0.107  1.00  0.00     0.210 HD
ENDBRANCH   8   9
ENDBRANCH   1   8
BRANCH   2  11
ATOM     11  O   UNL     1       8.815  -8.079  -2.288  1.00  0.00    -0.385 OA
ATOM     12  H   UNL     1       8.377  -8.533  -3.056  1.00  0.00     0.211 HD
ENDBRANCH   2  11
BRANCH   3  13
ATOM     13  O   UNL     1       6.567  -5.928  -2.665  1.00  0.00    -0.387 OA
ATOM     14  H   UNL     1       5.965  -5.269  -2.231  1.00  0.00     0.211 HD
ENDBRANCH   3  13
BRANCH   4  15
ATOM     15  C   UNL     1       7.817  -3.877  -0.462  1.00  0.00     0.191 C 
BRANCH  15  16
ATOM     16  O   UNL     1       8.874  -3.570   0.406  1.00  0.00    -0.394 OA
ATOM     17  H   UNL     1       9.681  -3.453  -0.160  1.00  0.00     0.210 HD
ENDBRANCH  15  16
ENDBRANCH   4  15
TORSDOF 7
ENDMDL
MODEL 8
REMARK VINA RESULT:    -2.888     11.282     13.714
REMARK INTER + INTRA:          -4.307
REMARK INTER:                  -3.756
REMARK INTRA:                  -0.552
REMARK UNBOUND:                -0.575
REMARK SMILES CO[C@@]1(CO)O[C@H](CO)[C@@H](O)[C@@H]1O
REMARK SMILES IDX 3 1 12 2 10 3 7 4 6 5 2 6 1 7 4 8 5 9 13 11 11 13 8 15 9 16
REMARK H PARENT 5 10 13 12 11 14 9 17
REMARK Flexibility Score: inf
ROOT
ATOM      1  C   UNL     1      18.448  -7.703  -1.212  1.00  0.00     0.221 C 
ATOM      2  C   UNL     1      19.297  -6.502  -0.732  1.00  0.00     0.207 C 
ATOM      3  C   UNL     1      20.708  -7.002  -0.874  1.00  0.00     0.180 C 
ATOM      4  C   UNL     1      20.582  -7.968  -2.041  1.00  0.00     0.179 C 
ATOM      5  O   UNL     1      19.269  -8.483  -2.064  1.00  0.00    -0.337 OA
ENDROOT
BRANCH   1   6
ATOM      6  O   UNL     1      17.339  -7.268  -1.997  1.00  0.00    -0.349 OA
ATOM      7  C   UNL     1      16.768  -8.293  -2.788  1.00  0.00     0.198 C 
ENDBRANCH   1   6
BRANCH   1   8
ATOM      8  C   UNL     1      18.015  -8.638  -0.047  1.00  0.00     0.224 C 
BRANCH   8   9
ATOM      9  O   UNL     1      17.058  -8.009   0.764  1.00  0.00    -0.391 OA
ATOM     10  H   UNL     1      16.506  -8.728   1.167  1.00  0.00     0.210 HD
ENDBRANCH   8   9
ENDBRANCH   1   8
BRANCH   2  11
ATOM     11  O   UNL     1      19.023  -6.138   0.598  1.00  0.00    -0.385 OA
ATOM     12  H   UNL     1      18.041  -6.217   0.718  1.00  0.00     0.211 HD
ENDBRANCH   2  11
BRANCH   3  13
ATOM     13  O   UNL     1      21.595  -5.958  -1.183  1.00  0.00    -0.387 OA
ATOM     14  H   UNL     1      22.289  -5.959  -0.473  1.00  0.00     0.211 HD
ENDBRANCH   3  13
BRANCH   4  15
ATOM     15  C   UNL     1      21.585  -9.125  -1.951  1.00  0.00     0.191 C 
BRANCH  15  16
ATOM     16  O   UNL     1      22.668  -8.785  -1.127  1.00  0.00    -0.394 OA
ATOM     17  H   UNL     1      22.422  -7.937  -0.672  1.00  0.00     0.210 HD
ENDBRANCH  15  16
ENDBRANCH   4  15
TORSDOF 7
ENDMDL
