MODEL 1
REMARK VINA RESULT:    -1.933      0.000      0.000
REMARK INTER + INTRA:          -1.933
REMARK INTER:                  -1.933
REMARK INTRA:                   0.000
REMARK UNBOUND:                 0.000
REMARK SMILES CC(=O)[O-]
REMARK SMILES IDX 1 1 2 2 3 3 4 4
REMARK H PARENT
REMARK Flexibility Score: inf
ROOT
ATOM      1  C   UNL     1      55.380   6.036  14.983  1.00  0.00     0.063 C 
ATOM      2  C   UNL     1      54.947   5.910  13.562  1.00  0.00     0.038 C 
ATOM      3  O   UNL     1      53.722   5.882  13.274  1.00  0.00    -0.550 OA
ATOM      4  O   UNL     1      55.894   5.875  12.546  1.00  0.00    -0.550 OA
ENDROOT
TORSDOF 0
ENDMDL
MODEL 2
REMARK VINA RESULT:    -1.886      0.244      1.625
REMARK INTER + INTRA:          -1.886
REMARK INTER:                  -1.886
REMARK INTRA:                   0.000
REMARK UNBOUND:                 0.000
REMARK SMILES CC(=O)[O-]
REMARK SMILES IDX 1 1 2 2 3 3 4 4
REMARK H PARENT
REMARK Flexibility Score: inf
ROOT
ATOM      1  C   UNL     1      55.194   5.876  15.079  1.00  0.00     0.063 C 
ATOM      2  C   UNL     1      54.885   5.982  13.625  1.00  0.00     0.038 C 
ATOM      3  O   UNL     1      55.806   5.877  12.773  1.00  0.00    -0.550 OA
ATOM      4  O   UNL     1      53.572   6.144  13.201  1.00  0.00    -0.550 OA
ENDROOT
TORSDOF 0
ENDMDL
MODEL 3
REMARK VINA RESULT:    -1.861      1.391      2.078
REMARK INTER + INTRA:          -1.861
REMARK INTER:                  -1.861
REMARK INTRA:                   0.000
REMARK UNBOUND:                 0.000
REMARK SMILES CC(=O)[O-]
REMARK SMILES IDX 1 1 2 2 3 3 4 4
REMARK H PARENT
REMARK Flexibility Score: inf
ROOT
ATOM      1  C   UNL     1      53.605   6.217  13.221  1.00  0.00     0.063 C 
ATOM      2  C   UNL     1      55.041   6.046  13.580  1.00  0.00     0.038 C 
ATOM      3  O   UNL     1      55.903   5.882  12.677  1.00  0.00    -0.550 OA
ATOM      4  O   UNL     1      55.441   6.119  14.908  1.00  0.00    -0.550 OA
ENDROOT
TORSDOF 0
ENDMDL
MODEL 4
REMARK VINA RESULT:    -1.632     11.178     11.667
REMARK INTER + INTRA:          -1.632
REMARK INTER:                  -1.632
REMARK INTRA:                   0.000
REMARK UNBOUND:                 0.000
REMARK SMILES CC(=O)[O-]
REMARK SMILES IDX 1 1 2 2 3 3 4 4
REMARK H PARENT
REMARK Flexibility Score: inf
ROOT
ATOM      1  C   UNL     1      47.497  12.911   6.223  1.00  0.00     0.063 C 
ATOM      2  C   UNL     1      48.540  13.034   7.280  1.00  0.00     0.038 C 
ATOM      3  O   UNL     1      48.802  14.158   7.783  1.00  0.00    -0.550 OA
ATOM      4  O   UNL     1      49.190  11.901   7.752  1.00  0.00    -0.550 OA
ENDROOT
TORSDOF 0
ENDMDL
MODEL 5
REMARK VINA RESULT:    -1.623      1.451      1.796
REMARK INTER + INTRA:          -1.623
REMARK INTER:                  -1.623
REMARK INTRA:                   0.000
REMARK UNBOUND:                 0.000
REMARK SMILES CC(=O)[O-]
REMARK SMILES IDX 1 1 2 2 3 3 4 4
REMARK H PARENT
REMARK Flexibility Score: inf
ROOT
ATOM      1  C   UNL     1      53.200   6.447  13.252  1.00  0.00     0.063 C 
ATOM      2  C   UNL     1      54.496   6.101  13.900  1.00  0.00     0.038 C 
ATOM      3  O   UNL     1      54.562   5.964  15.149  1.00  0.00    -0.550 OA
ATOM      4  O   UNL     1      55.625   5.875  13.123  1.00  0.00    -0.550 OA
ENDROOT
TORSDOF 0
ENDMDL
MODEL 6
REMARK VINA RESULT:    -1.615     12.640     13.097
REMARK INTER + INTRA:          -1.615
REMARK INTER:                  -1.615
REMARK INTRA:                   0.000
REMARK UNBOUND:                 0.000
REMARK SMILES CC(=O)[O-]
REMARK SMILES IDX 1 1 2 2 3 3 4 4
REMARK H PARENT
REMARK Flexibility Score: inf
ROOT
ATOM      1  C   UNL     1      47.064  16.251   7.825  1.00  0.00     0.063 C 
ATOM      2  C   UNL     1      48.144  15.640   8.650  1.00  0.00     0.038 C 
ATOM      3  O   UNL     1      48.978  14.859   8.124  1.00  0.00    -0.550 OA
ATOM      4  O   UNL     1      48.266  15.973   9.994  1.00  0.00    -0.550 OA
ENDROOT
TORSDOF 0
ENDMDL
MODEL 7
REMARK VINA RESULT:    -1.602     12.604     13.004
REMARK INTER + INTRA:          -1.602
REMARK INTER:                  -1.602
REMARK INTRA:                   0.000
REMARK UNBOUND:                 0.000
REMARK SMILES CC(=O)[O-]
REMARK SMILES IDX 1 1 2 2 3 3 4 4
REMARK H PARENT
REMARK Flexibility Score: inf
ROOT
ATOM      1  C   UNL     1      46.933  16.074   7.880  1.00  0.00     0.063 C 
ATOM      2  C   UNL     1      48.119  15.615   8.658  1.00  0.00     0.038 C 
ATOM      3  O   UNL     1      48.280  15.991   9.848  1.00  0.00    -0.550 OA
ATOM      4  O   UNL     1      49.023  14.727   8.089  1.00  0.00    -0.550 OA
ENDROOT
TORSDOF 0
ENDMDL
MODEL 8
REMARK VINA RESULT:    -1.557      2.495      2.892
REMARK INTER + INTRA:          -1.557
REMARK INTER:                  -1.557
REMARK INTRA:                   0.000
REMARK UNBOUND:                 0.000
REMARK SMILES CC(=O)[O-]
REMARK SMILES IDX 1 1 2 2 3 3 4 4
REMARK H PARENT
REMARK Flexibility Score: inf
ROOT
ATOM      1  C   UNL     1      53.911   6.106  13.562  1.00  0.00     0.063 C 
ATOM      2  C   UNL     1      52.626   6.591  12.983  1.00  0.00     0.038 C 
ATOM      3  O   UNL     1      51.991   5.875  12.166  1.00  0.00    -0.550 OA
ATOM      4  O   UNL     1      52.098   7.812  13.384  1.00  0.00    -0.550 OA
ENDROOT
TORSDOF 0
ENDMDL
MODEL 9
REMARK VINA RESULT:    -1.535      2.669      2.876
REMARK INTER + INTRA:          -1.535
REMARK INTER:                  -1.535
REMARK INTRA:                   0.000
REMARK UNBOUND:                 0.000
REMARK SMILES CC(=O)[O-]
REMARK SMILES IDX 1 1 2 2 3 3 4 4
REMARK H PARENT
REMARK Flexibility Score: inf
ROOT
ATOM      1  C   UNL     1      55.277   5.881  14.441  1.00  0.00     0.063 C 
ATOM      2  C   UNL     1      55.147   6.327  15.858  1.00  0.00     0.038 C 
ATOM      3  O   UNL     1      54.012   6.391  16.399  1.00  0.00    -0.550 OA
ATOM      4  O   UNL     1      56.282   6.623  16.602  1.00  0.00    -0.550 OA
ENDROOT
TORSDOF 0
ENDMDL
