MODEL 1
REMARK VINA RESULT:    -4.114      0.000      0.000
REMARK INTER + INTRA:          -6.495
REMARK INTER:                  -6.279
REMARK INTRA:                  -0.216
REMARK UNBOUND:                -0.216
REMARK SMILES CC1=CCC[C@@H](C)C(=O)C[C@@H](C(C)C)C(=O)C1
REMARK SMILES IDX 8 1 9 2 6 3 7 4 5 5 4 6 3 7 2 8 1 9 10 11 11 12 15 13 16 14
REMARK SMILES IDX 17 15 12 17 13 18 14 19
REMARK H PARENT
REMARK Flexibility Score: 70.00
ROOT
ATOM      1  C   UNL     1     -12.950  13.915 -28.573  1.00  0.00     0.136 C 
ATOM      2  O   UNL     1     -12.205  14.883 -28.498  1.00  0.00    -0.299 OA
ENDROOT
BRANCH   1   3
ATOM      3  C   UNL     1     -13.074  12.973 -27.393  1.00  0.00     0.053 C 
ATOM      4  C   UNL     1     -11.716  12.314 -27.127  1.00  0.00     0.016 C 
BRANCH   3   5
ATOM      5  C   UNL     1     -14.156  11.888 -27.617  1.00  0.00     0.015 C 
BRANCH   5   6
ATOM      6  C   UNL     1     -15.539  12.251 -27.052  1.00  0.00     0.028 C 
BRANCH   6   7
ATOM      7  C   UNL     1     -16.651  11.752 -27.945  1.00  0.00    -0.028 C 
ATOM      8  C   UNL     1     -17.340  12.511 -28.829  1.00  0.00    -0.070 CG0
ATOM      9  C   UNL     1     -18.430  11.849 -29.631  1.00  0.00     0.039 C 
ATOM     10  G   UNL     1     -17.067  13.992 -29.036  1.00  0.00     0.000 G0
ENDBRANCH   6   7
ENDBRANCH   5   6
ENDBRANCH   3   5
ENDBRANCH   1   3
BRANCH   1  11
ATOM     11  C   UNL     1     -13.766  13.713 -29.831  1.00  0.00     0.087 C 
BRANCH  11  12
ATOM     12  C   UNL     1     -14.785  14.853 -30.084  1.00  0.00     0.066 C 
BRANCH  12  13
ATOM     13  C   UNL     1     -16.200  14.312 -30.240  1.00  0.00     0.140 C 
ATOM     14  O   UNL     1     -16.669  14.175 -31.362  1.00  0.00    -0.299 OA
BRANCH  13  15
ATOM     15  C   UNL     1     -17.086  14.001 -29.054  1.00  0.00     0.106 CG0
ATOM     16  G   UNL     1     -17.329  12.515 -28.842  1.00  0.00     0.000 G0
ENDBRANCH  13  15
ENDBRANCH  12  13
BRANCH  12  17
ATOM     17  C   UNL     1     -14.413  15.779 -31.284  1.00  0.00    -0.006 C 
ATOM     18  C   UNL     1     -14.049  17.198 -30.819  1.00  0.00     0.008 C 
ATOM     19  C   UNL     1     -13.301  15.222 -32.190  1.00  0.00     0.008 C 
ENDBRANCH  12  17
ENDBRANCH  11  12
ENDBRANCH   1  11
TORSDOF 1
ENDMDL
MODEL 2
REMARK VINA RESULT:    -3.950      2.287      4.614
REMARK INTER + INTRA:          -6.244
REMARK INTER:                  -6.211
REMARK INTRA:                  -0.033
REMARK UNBOUND:                -0.216
REMARK SMILES CC1=CCC[C@@H](C)C(=O)C[C@@H](C(C)C)C(=O)C1
REMARK SMILES IDX 8 1 9 2 6 3 7 4 5 5 4 6 3 7 2 8 1 9 10 11 11 12 15 13 16 14
REMARK SMILES IDX 17 15 12 17 13 18 14 19
REMARK H PARENT
REMARK Flexibility Score: 70.00
ROOT
ATOM      1  C   UNL     1     -15.471  12.002 -29.525  1.00  0.00     0.136 C 
ATOM      2  O   UNL     1     -15.999  10.956 -29.172  1.00  0.00    -0.299 OA
ENDROOT
BRANCH   1   3
ATOM      3  C   UNL     1     -16.214  13.311 -29.352  1.00  0.00     0.053 C 
ATOM      4  C   UNL     1     -16.935  13.309 -27.999  1.00  0.00     0.016 C 
BRANCH   3   5
ATOM      5  C   UNL     1     -17.229  13.567 -30.493  1.00  0.00     0.015 C 
BRANCH   5   6
ATOM      6  C   UNL     1     -16.626  14.249 -31.732  1.00  0.00     0.028 C 
BRANCH   6   7
ATOM      7  C   UNL     1     -15.828  15.476 -31.356  1.00  0.00    -0.028 C 
ATOM      8  C   UNL     1     -14.523  15.677 -31.652  1.00  0.00    -0.070 CG0
ATOM      9  C   UNL     1     -13.881  16.959 -31.186  1.00  0.00     0.039 C 
ATOM     10  G   UNL     1     -13.684  14.670 -32.420  1.00  0.00     0.000 G0
ENDBRANCH   6   7
ENDBRANCH   5   6
ENDBRANCH   3   5
ENDBRANCH   1   3
BRANCH   1  11
ATOM     11  C   UNL     1     -14.066  11.963 -30.084  1.00  0.00     0.087 C 
BRANCH  11  12
ATOM     12  C   UNL     1     -13.386  13.355 -30.118  1.00  0.00     0.066 C 
BRANCH  12  13
ATOM     13  C   UNL     1     -12.912  13.710 -31.521  1.00  0.00     0.140 C 
ATOM     14  O   UNL     1     -11.847  13.263 -31.925  1.00  0.00    -0.299 OA
BRANCH  13  15
ATOM     15  C   UNL     1     -13.673  14.659 -32.420  1.00  0.00     0.106 CG0
ATOM     16  G   UNL     1     -14.507  15.683 -31.668  1.00  0.00     0.000 G0
ENDBRANCH  13  15
ENDBRANCH  12  13
BRANCH  12  17
ATOM     17  C   UNL     1     -12.228  13.519 -29.087  1.00  0.00    -0.006 C 
ATOM     18  C   UNL     1     -11.738  14.974 -29.004  1.00  0.00     0.008 C 
ATOM     19  C   UNL     1     -12.559  12.996 -27.678  1.00  0.00     0.008 C 
ENDBRANCH  12  17
ENDBRANCH  11  12
ENDBRANCH   1  11
TORSDOF 1
ENDMDL
MODEL 3
REMARK VINA RESULT:    -3.813      2.301      4.829
REMARK INTER + INTRA:          -6.035
REMARK INTER:                  -6.464
REMARK INTRA:                   0.428
REMARK UNBOUND:                -0.216
REMARK SMILES CC1=CCC[C@@H](C)C(=O)C[C@@H](C(C)C)C(=O)C1
REMARK SMILES IDX 8 1 9 2 6 3 7 4 5 5 4 6 3 7 2 8 1 9 10 11 11 12 15 13 16 14
REMARK SMILES IDX 17 15 12 17 13 18 14 19
REMARK H PARENT
REMARK Flexibility Score: 70.00
ROOT
ATOM      1  C   UNL     1     -14.245  14.512 -31.986  1.00  0.00     0.136 C 
ATOM      2  O   UNL     1     -13.868  13.699 -32.819  1.00  0.00    -0.299 OA
ENDROOT
BRANCH   1   3
ATOM      3  C   UNL     1     -13.511  15.830 -31.841  1.00  0.00     0.053 C 
ATOM      4  C   UNL     1     -12.286  15.831 -32.762  1.00  0.00     0.016 C 
BRANCH   3   5
ATOM      5  C   UNL     1     -13.077  16.104 -30.380  1.00  0.00     0.015 C 
BRANCH   5   6
ATOM      6  C   UNL     1     -11.815  15.342 -29.943  1.00  0.00     0.028 C 
BRANCH   6   7
ATOM      7  C   UNL     1     -12.006  14.677 -28.601  1.00  0.00    -0.028 C 
ATOM      8  C   UNL     1     -12.408  13.398 -28.415  1.00  0.00    -0.070 CG0
ATOM      9  C   UNL     1     -12.558  12.901 -27.000  1.00  0.00     0.039 C 
ATOM     10  G   UNL     1     -12.720  12.454 -29.564  1.00  0.00     0.000 G0
ENDBRANCH   6   7
ENDBRANCH   5   6
ENDBRANCH   3   5
ENDBRANCH   1   3
BRANCH   1  11
ATOM     11  C   UNL     1     -15.467  14.195 -31.152  1.00  0.00     0.087 C 
BRANCH  11  12
ATOM     12  C   UNL     1     -15.120  13.560 -29.782  1.00  0.00     0.066 C 
BRANCH  12  13
ATOM     13  C   UNL     1     -14.175  12.377 -29.938  1.00  0.00     0.140 C 
ATOM     14  O   UNL     1     -14.617  11.304 -30.328  1.00  0.00    -0.299 OA
BRANCH  13  15
ATOM     15  C   UNL     1     -12.712  12.450 -29.562  1.00  0.00     0.106 CG0
ATOM     16  G   UNL     1     -12.422  13.389 -28.403  1.00  0.00     0.000 G0
ENDBRANCH  13  15
ENDBRANCH  12  13
BRANCH  12  17
ATOM     17  C   UNL     1     -16.368  13.161 -28.936  1.00  0.00    -0.006 C 
ATOM     18  C   UNL     1     -15.973  12.639 -27.545  1.00  0.00     0.008 C 
ATOM     19  C   UNL     1     -17.421  14.275 -28.799  1.00  0.00     0.008 C 
ENDBRANCH  12  17
ENDBRANCH  11  12
ENDBRANCH   1  11
TORSDOF 1
ENDMDL
MODEL 4
REMARK VINA RESULT:    -3.597      1.853      4.059
REMARK INTER + INTRA:          -5.705
REMARK INTER:                  -5.809
REMARK INTRA:                   0.104
REMARK UNBOUND:                -0.216
REMARK SMILES CC1=CCC[C@@H](C)C(=O)C[C@@H](C(C)C)C(=O)C1
REMARK SMILES IDX 8 1 9 2 6 3 7 4 5 5 4 6 3 7 2 8 1 9 10 11 11 12 15 13 16 14
REMARK SMILES IDX 17 15 12 17 13 18 14 19
REMARK H PARENT
REMARK Flexibility Score: 70.00
ROOT
ATOM      1  C   UNL     1     -15.718  14.880 -31.128  1.00  0.00     0.136 C 
ATOM      2  O   UNL     1     -16.157  15.223 -32.218  1.00  0.00    -0.299 OA
ENDROOT
BRANCH   1   3
ATOM      3  C   UNL     1     -16.337  13.697 -30.412  1.00  0.00     0.053 C 
ATOM      4  C   UNL     1     -17.747  13.453 -30.962  1.00  0.00     0.016 C 
BRANCH   3   5
ATOM      5  C   UNL     1     -16.393  13.902 -28.878  1.00  0.00     0.015 C 
BRANCH   5   6
ATOM      6  C   UNL     1     -15.863  12.711 -28.063  1.00  0.00     0.028 C 
BRANCH   6   7
ATOM      7  C   UNL     1     -14.798  11.952 -28.819  1.00  0.00    -0.028 C 
ATOM      8  C   UNL     1     -13.497  12.314 -28.908  1.00  0.00    -0.070 CG0
ATOM      9  C   UNL     1     -12.573  11.443 -29.718  1.00  0.00     0.039 C 
ATOM     10  G   UNL     1     -12.938  13.559 -28.238  1.00  0.00     0.000 G0
ENDBRANCH   6   7
ENDBRANCH   5   6
ENDBRANCH   3   5
ENDBRANCH   1   3
BRANCH   1  11
ATOM     11  C   UNL     1     -14.534  15.622 -30.547  1.00  0.00     0.087 C 
BRANCH  11  12
ATOM     12  C   UNL     1     -13.221  14.800 -30.593  1.00  0.00     0.066 C 
BRANCH  12  13
ATOM     13  C   UNL     1     -12.584  14.690 -29.214  1.00  0.00     0.140 C 
ATOM     14  O   UNL     1     -11.721  15.493 -28.887  1.00  0.00    -0.299 OA
BRANCH  13  15
ATOM     15  C   UNL     1     -12.925  13.576 -28.249  1.00  0.00     0.106 CG0
ATOM     16  G   UNL     1     -13.470  12.326 -28.920  1.00  0.00     0.000 G0
ENDBRANCH  13  15
ENDBRANCH  12  13
BRANCH  12  17
ATOM     17  C   UNL     1     -12.187  15.319 -31.638  1.00  0.00    -0.006 C 
ATOM     18  C   UNL     1     -11.600  14.174 -32.480  1.00  0.00     0.008 C 
ATOM     19  C   UNL     1     -12.724  16.426 -32.562  1.00  0.00     0.008 C 
ENDBRANCH  12  17
ENDBRANCH  11  12
ENDBRANCH   1  11
TORSDOF 1
ENDMDL
MODEL 5
REMARK VINA RESULT:    -3.524      1.891      2.852
REMARK INTER + INTRA:          -5.593
REMARK INTER:                  -5.612
REMARK INTRA:                   0.019
REMARK UNBOUND:                -0.216
REMARK SMILES CC1=CCC[C@@H](C)C(=O)C[C@@H](C(C)C)C(=O)C1
REMARK SMILES IDX 8 1 9 2 6 3 7 4 5 5 4 6 3 7 2 8 1 9 10 11 11 12 15 13 16 14
REMARK SMILES IDX 17 15 12 17 13 18 14 19
REMARK H PARENT
REMARK Flexibility Score: 70.00
ROOT
ATOM      1  C   UNL     1     -14.239  12.311 -28.744  1.00  0.00     0.136 C 
ATOM      2  O   UNL     1     -13.355  11.605 -28.278  1.00  0.00    -0.299 OA
ENDROOT
BRANCH   1   3
ATOM      3  C   UNL     1     -15.522  12.515 -27.964  1.00  0.00     0.053 C 
ATOM      4  C   UNL     1     -15.372  11.892 -26.572  1.00  0.00     0.016 C 
BRANCH   3   5
ATOM      5  C   UNL     1     -16.751  11.911 -28.687  1.00  0.00     0.015 C 
BRANCH   5   6
ATOM      6  C   UNL     1     -17.787  12.951 -29.146  1.00  0.00     0.028 C 
BRANCH   6   7
ATOM      7  C   UNL     1     -17.573  13.348 -30.588  1.00  0.00    -0.028 C 
ATOM      8  C   UNL     1     -16.800  14.376 -31.006  1.00  0.00    -0.070 CG0
ATOM      9  C   UNL     1     -16.711  14.638 -32.488  1.00  0.00     0.039 C 
ATOM     10  G   UNL     1     -16.033  15.277 -30.052  1.00  0.00     0.000 G0
ENDBRANCH   6   7
ENDBRANCH   5   6
ENDBRANCH   3   5
ENDBRANCH   1   3
BRANCH   1  11
ATOM     11  C   UNL     1     -14.005  13.002 -30.069  1.00  0.00     0.087 C 
BRANCH  11  12
ATOM     12  C   UNL     1     -13.506  14.461 -29.914  1.00  0.00     0.066 C 
BRANCH  12  13
ATOM     13  C   UNL     1     -14.556  15.462 -30.376  1.00  0.00     0.140 C 
ATOM     14  O   UNL     1     -14.202  16.471 -30.971  1.00  0.00    -0.299 OA
BRANCH  13  15
ATOM     15  C   UNL     1     -16.027  15.297 -30.065  1.00  0.00     0.106 CG0
ATOM     16  G   UNL     1     -16.760  14.382 -31.032  1.00  0.00     0.000 G0
ENDBRANCH  13  15
ENDBRANCH  12  13
BRANCH  12  17
ATOM     17  C   UNL     1     -12.137  14.738 -30.609  1.00  0.00    -0.006 C 
ATOM     18  C   UNL     1     -10.979  14.768 -29.598  1.00  0.00     0.008 C 
ATOM     19  C   UNL     1     -11.805  13.771 -31.758  1.00  0.00     0.008 C 
ENDBRANCH  12  17
ENDBRANCH  11  12
ENDBRANCH   1  11
TORSDOF 1
ENDMDL
MODEL 6
REMARK VINA RESULT:    -3.334      1.794      3.752
REMARK INTER + INTRA:          -5.304
REMARK INTER:                  -5.962
REMARK INTRA:                   0.658
REMARK UNBOUND:                -0.216
REMARK SMILES CC1=CCC[C@@H](C)C(=O)C[C@@H](C(C)C)C(=O)C1
REMARK SMILES IDX 8 1 9 2 6 3 7 4 5 5 4 6 3 7 2 8 1 9 10 11 11 12 15 13 16 14
REMARK SMILES IDX 17 15 12 17 13 18 14 19
REMARK H PARENT
REMARK Flexibility Score: 70.00
ROOT
ATOM      1  C   UNL     1     -15.183  13.968 -32.314  1.00  0.00     0.136 C 
ATOM      2  O   UNL     1     -14.843  14.250 -33.455  1.00  0.00    -0.299 OA
ENDROOT
BRANCH   1   3
ATOM      3  C   UNL     1     -16.281  14.767 -31.641  1.00  0.00     0.053 C 
ATOM      4  C   UNL     1     -15.651  15.849 -30.757  1.00  0.00     0.016 C 
BRANCH   3   5
ATOM      5  C   UNL     1     -17.225  13.875 -30.797  1.00  0.00     0.015 C 
BRANCH   5   6
ATOM      6  C   UNL     1     -17.114  14.098 -29.280  1.00  0.00     0.028 C 
BRANCH   6   7
ATOM      7  C   UNL     1     -16.676  12.841 -28.565  1.00  0.00    -0.028 C 
ATOM      8  C   UNL     1     -15.400  12.539 -28.233  1.00  0.00    -0.070 CG0
ATOM      9  C   UNL     1     -15.142  11.231 -27.531  1.00  0.00     0.039 C 
ATOM     10  G   UNL     1     -14.226  13.452 -28.544  1.00  0.00     0.000 G0
ENDBRANCH   6   7
ENDBRANCH   5   6
ENDBRANCH   3   5
ENDBRANCH   1   3
BRANCH   1  11
ATOM     11  C   UNL     1     -14.526  12.794 -31.621  1.00  0.00     0.087 C 
BRANCH  11  12
ATOM     12  C   UNL     1     -13.169  13.157 -30.966  1.00  0.00     0.066 C 
BRANCH  12  13
ATOM     13  C   UNL     1     -13.174  12.860 -29.472  1.00  0.00     0.140 C 
ATOM     14  O   UNL     1     -12.359  12.070 -29.016  1.00  0.00    -0.299 OA
BRANCH  13  15
ATOM     15  C   UNL     1     -14.198  13.451 -28.529  1.00  0.00     0.106 CG0
ATOM     16  G   UNL     1     -15.383  12.538 -28.258  1.00  0.00     0.000 G0
ENDBRANCH  13  15
ENDBRANCH  12  13
BRANCH  12  17
ATOM     17  C   UNL     1     -12.709  14.623 -31.234  1.00  0.00    -0.006 C 
ATOM     18  C   UNL     1     -12.026  15.243 -30.004  1.00  0.00     0.008 C 
ATOM     19  C   UNL     1     -11.809  14.785 -32.471  1.00  0.00     0.008 C 
ENDBRANCH  12  17
ENDBRANCH  11  12
ENDBRANCH   1  11
TORSDOF 1
ENDMDL
MODEL 7
REMARK VINA RESULT:    -3.308      1.896      3.767
REMARK INTER + INTRA:          -5.264
REMARK INTER:                  -5.921
REMARK INTRA:                   0.656
REMARK UNBOUND:                -0.216
REMARK SMILES CC1=CCC[C@@H](C)C(=O)C[C@@H](C(C)C)C(=O)C1
REMARK SMILES IDX 8 1 9 2 6 3 7 4 5 5 4 6 3 7 2 8 1 9 10 11 11 12 15 13 16 14
REMARK SMILES IDX 17 15 12 17 13 18 14 19
REMARK H PARENT
REMARK Flexibility Score: 70.00
ROOT
ATOM      1  C   UNL     1     -16.991  13.451 -29.173  1.00  0.00     0.136 C 
ATOM      2  O   UNL     1     -18.182  13.715 -29.083  1.00  0.00    -0.299 OA
ENDROOT
BRANCH   1   3
ATOM      3  C   UNL     1     -16.513  12.043 -28.880  1.00  0.00     0.053 C 
ATOM      4  C   UNL     1     -17.549  11.039 -29.398  1.00  0.00     0.016 C 
BRANCH   3   5
ATOM      5  C   UNL     1     -16.255  11.811 -27.371  1.00  0.00     0.015 C 
BRANCH   5   6
ATOM      6  C   UNL     1     -15.043  12.574 -26.814  1.00  0.00     0.028 C 
BRANCH   6   7
ATOM      7  C   UNL     1     -13.744  11.891 -27.173  1.00  0.00    -0.028 C 
ATOM      8  C   UNL     1     -12.909  12.278 -28.165  1.00  0.00    -0.070 CG0
ATOM      9  C   UNL     1     -11.658  11.469 -28.393  1.00  0.00     0.039 C 
ATOM     10  G   UNL     1     -13.182  13.478 -29.055  1.00  0.00     0.000 G0
ENDBRANCH   6   7
ENDBRANCH   5   6
ENDBRANCH   3   5
ENDBRANCH   1   3
BRANCH   1  11
ATOM     11  C   UNL     1     -16.031  14.531 -29.621  1.00  0.00     0.087 C 
BRANCH  11  12
ATOM     12  C   UNL     1     -15.113  14.083 -30.786  1.00  0.00     0.066 C 
BRANCH  12  13
ATOM     13  C   UNL     1     -14.000  13.166 -30.297  1.00  0.00     0.140 C 
ATOM     14  O   UNL     1     -13.801  12.105 -30.873  1.00  0.00    -0.299 OA
BRANCH  13  15
ATOM     15  C   UNL     1     -13.166  13.479 -29.075  1.00  0.00     0.106 CG0
ATOM     16  G   UNL     1     -12.915  12.278 -28.177  1.00  0.00     0.000 G0
ENDBRANCH  13  15
ENDBRANCH  12  13
BRANCH  12  17
ATOM     17  C   UNL     1     -14.527  15.264 -31.619  1.00  0.00    -0.006 C 
ATOM     18  C   UNL     1     -14.311  16.520 -30.759  1.00  0.00     0.008 C 
ATOM     19  C   UNL     1     -13.234  14.920 -32.379  1.00  0.00     0.008 C 
ENDBRANCH  12  17
ENDBRANCH  11  12
ENDBRANCH   1  11
TORSDOF 1
ENDMDL
MODEL 8
REMARK VINA RESULT:    -2.829      1.808      3.885
REMARK INTER + INTRA:          -4.534
REMARK INTER:                  -5.079
REMARK INTRA:                   0.545
REMARK UNBOUND:                -0.216
REMARK SMILES CC1=CCC[C@@H](C)C(=O)C[C@@H](C(C)C)C(=O)C1
REMARK SMILES IDX 8 1 9 2 6 3 7 4 5 5 4 6 3 7 2 8 1 9 10 11 11 12 15 13 16 14
REMARK SMILES IDX 17 15 12 17 13 18 14 19
REMARK H PARENT
REMARK Flexibility Score: 70.00
ROOT
ATOM      1  C   UNL     1     -14.109  15.133 -31.512  1.00  0.00     0.136 C 
ATOM      2  O   UNL     1     -13.702  16.158 -32.043  1.00  0.00    -0.299 OA
ENDROOT
BRANCH   1   3
ATOM      3  C   UNL     1     -14.782  14.070 -32.357  1.00  0.00     0.053 C 
ATOM      4  C   UNL     1     -14.353  14.239 -33.819  1.00  0.00     0.016 C 
BRANCH   3   5
ATOM      5  C   UNL     1     -16.326  14.122 -32.247  1.00  0.00     0.015 C 
BRANCH   5   6
ATOM      6  C   UNL     1     -16.845  14.611 -30.884  1.00  0.00     0.028 C 
BRANCH   6   7
ATOM      7  C   UNL     1     -17.676  13.554 -30.196  1.00  0.00    -0.028 C 
ATOM      8  C   UNL     1     -17.202  12.382 -29.716  1.00  0.00    -0.070 CG0
ATOM      9  C   UNL     1     -18.179  11.436 -29.067  1.00  0.00     0.039 C 
ATOM     10  G   UNL     1     -15.740  11.979 -29.811  1.00  0.00     0.000 G0
ENDBRANCH   6   7
ENDBRANCH   5   6
ENDBRANCH   3   5
ENDBRANCH   1   3
BRANCH   1  11
ATOM     11  C   UNL     1     -13.885  14.936 -30.029  1.00  0.00     0.087 C 
BRANCH  11  12
ATOM     12  C   UNL     1     -13.563  13.467 -29.654  1.00  0.00     0.066 C 
BRANCH  12  13
ATOM     13  C   UNL     1     -14.756  12.784 -29.000  1.00  0.00     0.140 C 
ATOM     14  O   UNL     1     -14.907  12.870 -27.789  1.00  0.00    -0.299 OA
BRANCH  13  15
ATOM     15  C   UNL     1     -15.735  11.935 -29.781  1.00  0.00     0.106 CG0
ATOM     16  G   UNL     1     -17.177  12.404 -29.673  1.00  0.00     0.000 G0
ENDBRANCH  13  15
ENDBRANCH  12  13
BRANCH  12  17
ATOM     17  C   UNL     1     -12.285  13.304 -28.775  1.00  0.00    -0.006 C 
ATOM     18  C   UNL     1     -11.410  12.133 -29.249  1.00  0.00     0.008 C 
ATOM     19  C   UNL     1     -11.434  14.580 -28.657  1.00  0.00     0.008 C 
ENDBRANCH  12  17
ENDBRANCH  11  12
ENDBRANCH   1  11
TORSDOF 1
ENDMDL
MODEL 9
REMARK VINA RESULT:    -2.593      1.754      3.854
REMARK INTER + INTRA:          -4.173
REMARK INTER:                  -4.760
REMARK INTRA:                   0.588
REMARK UNBOUND:                -0.216
REMARK SMILES CC1=CCC[C@@H](C)C(=O)C[C@@H](C(C)C)C(=O)C1
REMARK SMILES IDX 8 1 9 2 6 3 7 4 5 5 4 6 3 7 2 8 1 9 10 11 11 12 15 13 16 14
REMARK SMILES IDX 17 15 12 17 13 18 14 19
REMARK H PARENT
REMARK Flexibility Score: 70.00
ROOT
ATOM      1  C   UNL     1     -15.455  14.915 -30.435  1.00  0.00     0.136 C 
ATOM      2  O   UNL     1     -15.992  15.964 -30.762  1.00  0.00    -0.299 OA
ENDROOT
BRANCH   1   3
ATOM      3  C   UNL     1     -16.108  13.596 -30.798  1.00  0.00     0.053 C 
ATOM      4  C   UNL     1     -16.973  13.786 -32.049  1.00  0.00     0.016 C 
BRANCH   3   5
ATOM      5  C   UNL     1     -16.965  13.026 -29.641  1.00  0.00     0.015 C 
BRANCH   5   6
ATOM      6  C   UNL     1     -16.741  13.722 -28.288  1.00  0.00     0.028 C 
BRANCH   6   7
ATOM      7  C   UNL     1     -16.506  12.720 -27.182  1.00  0.00    -0.028 C 
ATOM      8  C   UNL     1     -15.497  11.820 -27.147  1.00  0.00    -0.070 CG0
ATOM      9  C   UNL     1     -15.422  10.885 -25.967  1.00  0.00     0.039 C 
ATOM     10  G   UNL     1     -14.450  11.708 -28.243  1.00  0.00     0.000 G0
ENDBRANCH   6   7
ENDBRANCH   5   6
ENDBRANCH   3   5
ENDBRANCH   1   3
BRANCH   1  11
ATOM     11  C   UNL     1     -14.125  14.964 -29.716  1.00  0.00     0.087 C 
BRANCH  11  12
ATOM     12  C   UNL     1     -13.383  13.603 -29.719  1.00  0.00     0.066 C 
BRANCH  12  13
ATOM     13  C   UNL     1     -13.532  12.884 -28.385  1.00  0.00     0.140 C 
ATOM     14  O   UNL     1     -12.876  13.260 -27.424  1.00  0.00    -0.299 OA
BRANCH  13  15
ATOM     15  C   UNL     1     -14.413  11.666 -28.213  1.00  0.00     0.106 CG0
ATOM     16  G   UNL     1     -15.481  11.826 -27.143  1.00  0.00     0.000 G0
ENDBRANCH  13  15
ENDBRANCH  12  13
BRANCH  12  17
ATOM     17  C   UNL     1     -11.880  13.703 -30.125  1.00  0.00    -0.006 C 
ATOM     18  C   UNL     1     -11.596  12.972 -31.448  1.00  0.00     0.008 C 
ATOM     19  C   UNL     1     -11.340  15.142 -30.195  1.00  0.00     0.008 C 
ENDBRANCH  12  17
ENDBRANCH  11  12
ENDBRANCH   1  11
TORSDOF 1
ENDMDL
