MODEL 1
REMARK VINA RESULT:    -0.122      0.000      0.000
REMARK INTER + INTRA:          -0.420
REMARK INTER:                  -0.144
REMARK INTRA:                  -0.277
REMARK UNBOUND:                -0.277
REMARK SMILES O=c1c(O)c(-c2ccc(O)c(O)c2)oc2cc(O)ccc12
REMARK SMILES IDX 5 1 3 2 2 3 1 4 21 5 15 6 14 7 16 8 17 9 19 10 20 11 6 12
REMARK SMILES IDX 7 13 8 14 9 15 13 16 11 17 10 18 12 20 4 22 18 24
REMARK H PARENT 10 19 12 21 4 23 18 25
REMARK Flexibility Score: inf
ROOT
ATOM      1  C   UNL     1      13.060  -9.993 -28.083  1.00  0.00     0.180 A 
ATOM      2  C   UNL     1      13.693 -10.725 -27.057  1.00  0.00     0.208 A 
ATOM      3  C   UNL     1      13.267 -12.037 -26.799  1.00  0.00     0.235 A 
ATOM      4  O   UNL     1      13.825 -12.715 -25.893  1.00  0.00    -0.285 OA
ATOM      5  C   UNL     1      12.213 -12.580 -27.550  1.00  0.00     0.069 A 
ATOM      6  C   UNL     1      11.615 -11.775 -28.544  1.00  0.00     0.142 A 
ATOM      7  O   UNL     1      12.054 -10.542 -28.762  1.00  0.00    -0.452 OA
ATOM      8  C   UNL     1      10.555 -12.277 -29.306  1.00  0.00     0.094 A 
ATOM      9  C   UNL     1      10.084 -13.580 -29.090  1.00  0.00     0.119 A 
ATOM     10  C   UNL     1      10.676 -14.380 -28.107  1.00  0.00     0.047 A 
ATOM     11  C   UNL     1      11.735 -13.886 -27.338  1.00  0.00     0.020 A 
ENDROOT
BRANCH   1  12
ATOM     12  C   UNL     1      13.464  -8.611 -28.429  1.00  0.00     0.025 A 
ATOM     13  C   UNL     1      12.744  -7.500 -27.957  1.00  0.00     0.016 A 
ATOM     14  C   UNL     1      13.157  -6.203 -28.276  1.00  0.00     0.051 A 
ATOM     15  C   UNL     1      14.299  -5.996 -29.057  1.00  0.00     0.157 A 
ATOM     16  C   UNL     1      14.622  -8.400 -29.194  1.00  0.00     0.062 A 
ATOM     17  C   UNL     1      15.038  -7.100 -29.515  1.00  0.00     0.158 A 
BRANCH  15  18
ATOM     18  O   UNL     1      14.685  -4.692 -29.360  1.00  0.00    -0.504 OA
ATOM     19  H   UNL     1      14.350  -4.210 -30.185  1.00  0.00     0.293 HD
ENDBRANCH  15  18
BRANCH  17  20
ATOM     20  O   UNL     1      16.181  -6.901 -30.288  1.00  0.00    -0.504 OA
ATOM     21  H   UNL     1      17.095  -7.204 -29.972  1.00  0.00     0.293 HD
ENDBRANCH  17  20
ENDBRANCH   1  12
BRANCH   2  22
ATOM     22  O   UNL     1      14.707 -10.141 -26.294  1.00  0.00    -0.502 OA
ATOM     23  H   UNL     1      15.303  -9.406 -26.655  1.00  0.00     0.293 HD
ENDBRANCH   2  22
BRANCH   9  24
ATOM     24  O   UNL     1       9.029 -14.087 -29.845  1.00  0.00    -0.508 OA
ATOM     25  H   UNL     1       8.908 -13.838 -30.820  1.00  0.00     0.293 HD
ENDBRANCH   9  24
TORSDOF 5
ENDMDL
MODEL 2
REMARK VINA RESULT:     0.767      0.694      1.510
REMARK INTER + INTRA:           0.625
REMARK INTER:                   0.913
REMARK INTRA:                  -0.288
REMARK UNBOUND:                -0.277
REMARK SMILES O=c1c(O)c(-c2ccc(O)c(O)c2)oc2cc(O)ccc12
REMARK SMILES IDX 5 1 3 2 2 3 1 4 21 5 15 6 14 7 16 8 17 9 19 10 20 11 6 12
REMARK SMILES IDX 7 13 8 14 9 15 13 16 11 17 10 18 12 20 4 22 18 24
REMARK H PARENT 10 19 12 21 4 23 18 25
REMARK Flexibility Score: inf
ROOT
ATOM      1  C   UNL     1      13.155  -9.727 -28.175  1.00  0.00     0.180 A 
ATOM      2  C   UNL     1      13.709 -10.455 -27.102  1.00  0.00     0.208 A 
ATOM      3  C   UNL     1      13.218 -11.743 -26.832  1.00  0.00     0.235 A 
ATOM      4  O   UNL     1      13.706 -12.418 -25.885  1.00  0.00    -0.285 OA
ATOM      5  C   UNL     1      12.180 -12.264 -27.620  1.00  0.00     0.069 A 
ATOM      6  C   UNL     1      11.662 -11.462 -28.661  1.00  0.00     0.142 A 
ATOM      7  O   UNL     1      12.161 -10.253 -28.888  1.00  0.00    -0.452 OA
ATOM      8  C   UNL     1      10.619 -11.942 -29.460  1.00  0.00     0.094 A 
ATOM      9  C   UNL     1      10.086 -13.219 -29.235  1.00  0.00     0.119 A 
ATOM     10  C   UNL     1      10.599 -14.015 -28.205  1.00  0.00     0.047 A 
ATOM     11  C   UNL     1      11.640 -13.544 -27.399  1.00  0.00     0.020 A 
ENDROOT
BRANCH   1  12
ATOM     12  C   UNL     1      13.630  -8.371 -28.534  1.00  0.00     0.025 A 
ATOM     13  C   UNL     1      14.821  -8.182 -29.257  1.00  0.00     0.016 A 
ATOM     14  C   UNL     1      15.237  -6.894 -29.606  1.00  0.00     0.051 A 
ATOM     15  C   UNL     1      14.468  -5.781 -29.252  1.00  0.00     0.157 A 
ATOM     16  C   UNL     1      12.850  -7.254 -28.199  1.00  0.00     0.062 A 
ATOM     17  C   UNL     1      13.266  -5.961 -28.547  1.00  0.00     0.158 A 
BRANCH  15  18
ATOM     18  O   UNL     1      14.911  -4.509 -29.612  1.00  0.00    -0.504 OA
ATOM     19  H   UNL     1      15.622  -4.367 -30.320  1.00  0.00     0.293 HD
ENDBRANCH  15  18
BRANCH  17  20
ATOM     20  O   UNL     1      12.491  -4.856 -28.197  1.00  0.00    -0.504 OA
ATOM     21  H   UNL     1      12.894  -3.930 -28.113  1.00  0.00     0.293 HD
ENDBRANCH  17  20
ENDBRANCH   1  12
BRANCH   2  22
ATOM     22  O   UNL     1      14.709  -9.892 -26.305  1.00  0.00    -0.502 OA
ATOM     23  H   UNL     1      14.866 -10.181 -25.348  1.00  0.00     0.293 HD
ENDBRANCH   2  22
BRANCH   9  24
ATOM     24  O   UNL     1       9.049 -13.704 -30.027  1.00  0.00    -0.508 OA
ATOM     25  H   UNL     1       8.714 -14.656 -29.938  1.00  0.00     0.293 HD
ENDBRANCH   9  24
TORSDOF 5
ENDMDL
MODEL 3
REMARK VINA RESULT:     1.528      2.021      2.919
REMARK INTER + INTRA:           1.519
REMARK INTER:                   1.195
REMARK INTRA:                   0.323
REMARK UNBOUND:                -0.277
REMARK SMILES O=c1c(O)c(-c2ccc(O)c(O)c2)oc2cc(O)ccc12
REMARK SMILES IDX 5 1 3 2 2 3 1 4 21 5 15 6 14 7 16 8 17 9 19 10 20 11 6 12
REMARK SMILES IDX 7 13 8 14 9 15 13 16 11 17 10 18 12 20 4 22 18 24
REMARK H PARENT 10 19 12 21 4 23 18 25
REMARK Flexibility Score: inf
ROOT
ATOM      1  C   UNL     1      13.264  -9.786 -27.555  1.00  0.00     0.180 A 
ATOM      2  C   UNL     1      11.999 -10.061 -26.995  1.00  0.00     0.208 A 
ATOM      3  C   UNL     1      11.766 -11.328 -26.439  1.00  0.00     0.235 A 
ATOM      4  O   UNL     1      10.647 -11.594 -25.922  1.00  0.00    -0.285 OA
ATOM      5  C   UNL     1      12.785 -12.294 -26.471  1.00  0.00     0.069 A 
ATOM      6  C   UNL     1      14.015 -11.948 -27.072  1.00  0.00     0.142 A 
ATOM      7  O   UNL     1      14.198 -10.735 -27.578  1.00  0.00    -0.452 OA
ATOM      8  C   UNL     1      15.051 -12.887 -27.134  1.00  0.00     0.094 A 
ATOM      9  C   UNL     1      14.874 -14.171 -26.598  1.00  0.00     0.119 A 
ATOM     10  C   UNL     1      13.656 -14.514 -26.001  1.00  0.00     0.047 A 
ATOM     11  C   UNL     1      12.614 -13.583 -25.936  1.00  0.00     0.020 A 
ENDROOT
BRANCH   1  12
ATOM     12  C   UNL     1      13.594  -8.468 -28.145  1.00  0.00     0.025 A 
ATOM     13  C   UNL     1      12.905  -7.303 -27.763  1.00  0.00     0.016 A 
ATOM     14  C   UNL     1      13.250  -6.067 -28.316  1.00  0.00     0.051 A 
ATOM     15  C   UNL     1      14.292  -5.971 -29.244  1.00  0.00     0.157 A 
ATOM     16  C   UNL     1      14.653  -8.366 -29.060  1.00  0.00     0.062 A 
ATOM     17  C   UNL     1      15.000  -7.126 -29.616  1.00  0.00     0.158 A 
BRANCH  15  18
ATOM     18  O   UNL     1      14.611  -4.724 -29.778  1.00  0.00    -0.504 OA
ATOM     19  H   UNL     1      14.253  -3.862 -29.384  1.00  0.00     0.293 HD
ENDBRANCH  15  18
BRANCH  17  20
ATOM     20  O   UNL     1      16.045  -7.037 -30.535  1.00  0.00    -0.504 OA
ATOM     21  H   UNL     1      16.589  -7.850 -30.800  1.00  0.00     0.293 HD
ENDBRANCH  17  20
ENDBRANCH   1  12
BRANCH   2  22
ATOM     22  O   UNL     1      10.989  -9.096 -27.020  1.00  0.00    -0.502 OA
ATOM     23  H   UNL     1      10.656  -8.682 -27.882  1.00  0.00     0.293 HD
ENDBRANCH   2  22
BRANCH   9  24
ATOM     24  O   UNL     1      15.901 -15.110 -26.654  1.00  0.00    -0.508 OA
ATOM     25  H   UNL     1      15.925 -15.826 -27.370  1.00  0.00     0.293 HD
ENDBRANCH   9  24
TORSDOF 5
ENDMDL
MODEL 4
REMARK VINA RESULT:     1.655      2.357      3.484
REMARK INTER + INTRA:           1.669
REMARK INTER:                   1.971
REMARK INTRA:                  -0.302
REMARK UNBOUND:                -0.277
REMARK SMILES O=c1c(O)c(-c2ccc(O)c(O)c2)oc2cc(O)ccc12
REMARK SMILES IDX 5 1 3 2 2 3 1 4 21 5 15 6 14 7 16 8 17 9 19 10 20 11 6 12
REMARK SMILES IDX 7 13 8 14 9 15 13 16 11 17 10 18 12 20 4 22 18 24
REMARK H PARENT 10 19 12 21 4 23 18 25
REMARK Flexibility Score: inf
ROOT
ATOM      1  C   UNL     1      12.001  -9.775 -27.695  1.00  0.00     0.180 A 
ATOM      2  C   UNL     1      12.014 -10.926 -28.509  1.00  0.00     0.208 A 
ATOM      3  C   UNL     1      11.705 -12.168 -27.930  1.00  0.00     0.235 A 
ATOM      4  O   UNL     1      11.700 -13.210 -28.640  1.00  0.00    -0.285 OA
ATOM      5  C   UNL     1      11.411 -12.236 -26.559  1.00  0.00     0.069 A 
ATOM      6  C   UNL     1      11.442 -11.041 -25.808  1.00  0.00     0.142 A 
ATOM      7  O   UNL     1      11.731  -9.886 -26.396  1.00  0.00    -0.452 OA
ATOM      8  C   UNL     1      11.165 -11.069 -24.437  1.00  0.00     0.094 A 
ATOM      9  C   UNL     1      10.854 -12.281 -23.804  1.00  0.00     0.119 A 
ATOM     10  C   UNL     1      10.821 -13.465 -24.547  1.00  0.00     0.047 A 
ATOM     11  C   UNL     1      11.098 -13.448 -25.918  1.00  0.00     0.020 A 
ENDROOT
BRANCH   1  12
ATOM     12  C   UNL     1      12.298  -8.427 -28.234  1.00  0.00     0.025 A 
ATOM     13  C   UNL     1      13.590  -7.878 -28.156  1.00  0.00     0.016 A 
ATOM     14  C   UNL     1      13.852  -6.614 -28.692  1.00  0.00     0.051 A 
ATOM     15  C   UNL     1      12.838  -5.888 -29.324  1.00  0.00     0.157 A 
ATOM     16  C   UNL     1      11.287  -7.706 -28.887  1.00  0.00     0.062 A 
ATOM     17  C   UNL     1      11.549  -6.438 -29.425  1.00  0.00     0.158 A 
BRANCH  15  18
ATOM     18  O   UNL     1      13.130  -4.630 -29.847  1.00  0.00    -0.504 OA
ATOM     19  H   UNL     1      12.807  -3.776 -29.408  1.00  0.00     0.293 HD
ENDBRANCH  15  18
BRANCH  17  20
ATOM     20  O   UNL     1      10.534  -5.722 -30.060  1.00  0.00    -0.504 OA
ATOM     21  H   UNL     1      10.739  -4.946 -30.679  1.00  0.00     0.293 HD
ENDBRANCH  17  20
ENDBRANCH   1  12
BRANCH   2  22
ATOM     22  O   UNL     1      12.358 -10.835 -29.860  1.00  0.00    -0.502 OA
ATOM     23  H   UNL     1      11.662 -10.770 -30.593  1.00  0.00     0.293 HD
ENDBRANCH   2  22
BRANCH   9  24
ATOM     24  O   UNL     1      10.576 -12.317 -22.440  1.00  0.00    -0.508 OA
ATOM     25  H   UNL     1      10.163 -11.525 -21.962  1.00  0.00     0.293 HD
ENDBRANCH   9  24
TORSDOF 5
ENDMDL
MODEL 5
REMARK VINA RESULT:     1.769      1.885      2.992
REMARK INTER + INTRA:           1.803
REMARK INTER:                   1.954
REMARK INTRA:                  -0.151
REMARK UNBOUND:                -0.277
REMARK SMILES O=c1c(O)c(-c2ccc(O)c(O)c2)oc2cc(O)ccc12
REMARK SMILES IDX 5 1 3 2 2 3 1 4 21 5 15 6 14 7 16 8 17 9 19 10 20 11 6 12
REMARK SMILES IDX 7 13 8 14 9 15 13 16 11 17 10 18 12 20 4 22 18 24
REMARK H PARENT 10 19 12 21 4 23 18 25
REMARK Flexibility Score: inf
ROOT
ATOM      1  C   UNL     1      12.364  -9.828 -27.885  1.00  0.00     0.180 A 
ATOM      2  C   UNL     1      12.020 -10.875 -28.765  1.00  0.00     0.208 A 
ATOM      3  C   UNL     1      11.451 -12.044 -28.236  1.00  0.00     0.235 A 
ATOM      4  O   UNL     1      11.125 -12.990 -29.004  1.00  0.00    -0.285 OA
ATOM      5  C   UNL     1      11.258 -12.152 -26.849  1.00  0.00     0.069 A 
ATOM      6  C   UNL     1      11.650 -11.068 -26.034  1.00  0.00     0.142 A 
ATOM      7  O   UNL     1      12.177  -9.976 -26.575  1.00  0.00    -0.452 OA
ATOM      8  C   UNL     1      11.484 -11.141 -24.646  1.00  0.00     0.094 A 
ATOM      9  C   UNL     1      10.925 -12.286 -24.061  1.00  0.00     0.119 A 
ATOM     10  C   UNL     1      10.533 -13.360 -24.868  1.00  0.00     0.047 A 
ATOM     11  C   UNL     1      10.698 -13.297 -26.256  1.00  0.00     0.020 A 
ENDROOT
BRANCH   1  12
ATOM     12  C   UNL     1      12.951  -8.556 -28.367  1.00  0.00     0.025 A 
ATOM     13  C   UNL     1      12.279  -7.333 -28.203  1.00  0.00     0.016 A 
ATOM     14  C   UNL     1      12.863  -6.142 -28.644  1.00  0.00     0.051 A 
ATOM     15  C   UNL     1      14.128  -6.153 -29.240  1.00  0.00     0.157 A 
ATOM     16  C   UNL     1      14.230  -8.561 -28.946  1.00  0.00     0.062 A 
ATOM     17  C   UNL     1      14.817  -7.368 -29.389  1.00  0.00     0.158 A 
BRANCH  15  18
ATOM     18  O   UNL     1      14.684  -4.950 -29.671  1.00  0.00    -0.504 OA
ATOM     19  H   UNL     1      14.812  -4.737 -30.654  1.00  0.00     0.293 HD
ENDBRANCH  15  18
BRANCH  17  20
ATOM     20  O   UNL     1      16.082  -7.385 -29.977  1.00  0.00    -0.504 OA
ATOM     21  H   UNL     1      16.472  -6.562 -30.420  1.00  0.00     0.293 HD
ENDBRANCH  17  20
ENDBRANCH   1  12
BRANCH   2  22
ATOM     22  O   UNL     1      12.269 -10.759 -30.134  1.00  0.00    -0.502 OA
ATOM     23  H   UNL     1      12.623  -9.907 -30.551  1.00  0.00     0.293 HD
ENDBRANCH   2  22
BRANCH   9  24
ATOM     24  O   UNL     1      10.754 -12.366 -22.681  1.00  0.00    -0.508 OA
ATOM     25  H   UNL     1      11.399 -11.917 -22.041  1.00  0.00     0.293 HD
ENDBRANCH   9  24
TORSDOF 5
ENDMDL
MODEL 6
REMARK VINA RESULT:     2.446      0.988      1.147
REMARK INTER + INTRA:           2.599
REMARK INTER:                   2.276
REMARK INTRA:                   0.322
REMARK UNBOUND:                -0.277
REMARK SMILES O=c1c(O)c(-c2ccc(O)c(O)c2)oc2cc(O)ccc12
REMARK SMILES IDX 5 1 3 2 2 3 1 4 21 5 15 6 14 7 16 8 17 9 19 10 20 11 6 12
REMARK SMILES IDX 7 13 8 14 9 15 13 16 11 17 10 18 12 20 4 22 18 24
REMARK H PARENT 10 19 12 21 4 23 18 25
REMARK Flexibility Score: inf
ROOT
ATOM      1  C   UNL     1      12.673  -9.607 -28.241  1.00  0.00     0.180 A 
ATOM      2  C   UNL     1      13.620 -10.156 -27.351  1.00  0.00     0.208 A 
ATOM      3  C   UNL     1      13.546 -11.524 -27.044  1.00  0.00     0.235 A 
ATOM      4  O   UNL     1      14.389 -12.040 -26.259  1.00  0.00    -0.285 OA
ATOM      5  C   UNL     1      12.526 -12.304 -27.610  1.00  0.00     0.069 A 
ATOM      6  C   UNL     1      11.603 -11.675 -28.473  1.00  0.00     0.142 A 
ATOM      7  O   UNL     1      11.713 -10.380 -28.744  1.00  0.00    -0.452 OA
ATOM      8  C   UNL     1      10.565 -12.416 -29.048  1.00  0.00     0.094 A 
ATOM      9  C   UNL     1      10.440 -13.786 -28.774  1.00  0.00     0.119 A 
ATOM     10  C   UNL     1      11.355 -14.412 -27.921  1.00  0.00     0.047 A 
ATOM     11  C   UNL     1      12.394 -13.678 -27.339  1.00  0.00     0.020 A 
ENDROOT
BRANCH   1  12
ATOM     12  C   UNL     1      12.694  -8.178 -28.629  1.00  0.00     0.025 A 
ATOM     13  C   UNL     1      11.509  -7.485 -28.929  1.00  0.00     0.016 A 
ATOM     14  C   UNL     1      11.551  -6.130 -29.270  1.00  0.00     0.051 A 
ATOM     15  C   UNL     1      12.770  -5.445 -29.303  1.00  0.00     0.157 A 
ATOM     16  C   UNL     1      13.914  -7.483 -28.643  1.00  0.00     0.062 A 
ATOM     17  C   UNL     1      13.958  -6.124 -28.985  1.00  0.00     0.158 A 
BRANCH  15  18
ATOM     18  O   UNL     1      12.780  -4.095 -29.648  1.00  0.00    -0.504 OA
ATOM     19  H   UNL     1      12.420  -3.379 -29.029  1.00  0.00     0.293 HD
ENDBRANCH  15  18
BRANCH  17  20
ATOM     20  O   UNL     1      15.176  -5.446 -29.009  1.00  0.00    -0.504 OA
ATOM     21  H   UNL     1      15.317  -4.588 -28.490  1.00  0.00     0.293 HD
ENDBRANCH  17  20
ENDBRANCH   1  12
BRANCH   2  22
ATOM     22  O   UNL     1      14.594  -9.344 -26.766  1.00  0.00    -0.502 OA
ATOM     23  H   UNL     1      15.444  -9.721 -26.363  1.00  0.00     0.293 HD
ENDBRANCH   2  22
BRANCH   9  24
ATOM     24  O   UNL     1       9.411 -14.532 -29.343  1.00  0.00    -0.508 OA
ATOM     25  H   UNL     1       9.564 -15.473 -29.684  1.00  0.00     0.293 HD
ENDBRANCH   9  24
TORSDOF 5
ENDMDL
