MODEL 1
REMARK VINA RESULT:    -2.854      0.000      0.000
REMARK INTER + INTRA:          -0.778
REMARK INTER:                  -4.356
REMARK INTRA:                   3.578
REMARK UNBOUND:                 3.578
REMARK SMILES CC1=CCC[C@@H](C)C(=O)C[C@H](C(C)C)C(=O)C1
REMARK SMILES IDX 8 1 9 2 6 3 7 4 5 5 4 6 3 7 2 8 1 9 10 11 11 12 15 13 16 14
REMARK SMILES IDX 17 15 12 17 13 18 14 19
REMARK H PARENT
REMARK Flexibility Score: 70.00
ROOT
ATOM      1  C   UNL     1     -29.884 -14.869  23.358  1.00  0.00     0.136 C 
ATOM      2  O   UNL     1     -29.893 -15.930  23.965  1.00  0.00    -0.299 OA
ENDROOT
BRANCH   1   3
ATOM      3  C   UNL     1     -29.902 -14.922  21.834  1.00  0.00     0.053 C 
ATOM      4  C   UNL     1     -29.700 -16.319  21.220  1.00  0.00     0.016 C 
BRANCH   3   5
ATOM      5  C   UNL     1     -28.970 -13.860  21.185  1.00  0.00     0.015 C 
BRANCH   5   6
ATOM      6  C   UNL     1     -29.608 -12.492  20.876  1.00  0.00     0.028 C 
BRANCH   6   7
ATOM      7  C   UNL     1     -29.087 -11.400  21.776  1.00  0.00    -0.028 C 
ATOM      8  C   UNL     1     -28.055 -11.533  22.641  1.00  0.00    -0.070 CG0
ATOM      9  C   UNL     1     -27.680 -10.344  23.486  1.00  0.00     0.039 C 
ATOM     10  G   UNL     1     -27.260 -12.820  22.785  1.00  0.00     0.000 G0
ENDBRANCH   6   7
ENDBRANCH   5   6
ENDBRANCH   3   5
ENDBRANCH   1   3
BRANCH   1  11
ATOM     11  C   UNL     1     -29.806 -13.591  24.174  1.00  0.00     0.087 C 
BRANCH  11  12
ATOM     12  C   UNL     1     -28.537 -13.479  25.057  1.00  0.00     0.066 C 
BRANCH  12  13
ATOM     13  C   UNL     1     -27.266 -13.357  24.223  1.00  0.00     0.140 C 
ATOM     14  O   UNL     1     -26.205 -13.741  24.695  1.00  0.00    -0.299 OA
BRANCH  13  15
ATOM     15  C   UNL     1     -27.263 -12.816  22.808  1.00  0.00     0.106 CG0
ATOM     16  G   UNL     1     -28.043 -11.523  22.638  1.00  0.00     0.000 G0
ENDBRANCH  13  15
ENDBRANCH  12  13
BRANCH  12  17
ATOM     17  C   UNL     1     -28.670 -12.344  26.120  1.00  0.00    -0.006 C 
ATOM     18  C   UNL     1     -27.500 -11.352  26.027  1.00  0.00     0.008 C 
ATOM     19  C   UNL     1     -30.005 -11.578  26.066  1.00  0.00     0.008 C 
ENDBRANCH  12  17
ENDBRANCH  11  12
ENDBRANCH   1  11
TORSDOF 1
ENDMDL
MODEL 2
REMARK VINA RESULT:    -2.580      2.024      3.468
REMARK INTER + INTRA:          -0.360
REMARK INTER:                  -5.427
REMARK INTRA:                   5.067
REMARK UNBOUND:                 3.578
REMARK SMILES CC1=CCC[C@@H](C)C(=O)C[C@H](C(C)C)C(=O)C1
REMARK SMILES IDX 8 1 9 2 6 3 7 4 5 5 4 6 3 7 2 8 1 9 10 11 11 12 15 13 16 14
REMARK SMILES IDX 17 15 12 17 13 18 14 19
REMARK H PARENT
REMARK Flexibility Score: 70.00
ROOT
ATOM      1  C   UNL     1     -28.644 -11.195  23.074  1.00  0.00     0.136 C 
ATOM      2  O   UNL     1     -27.721 -10.497  23.468  1.00  0.00    -0.299 OA
ENDROOT
BRANCH   1   3
ATOM      3  C   UNL     1     -28.420 -12.025  21.815  1.00  0.00     0.053 C 
ATOM      4  C   UNL     1     -29.603 -12.069  20.832  1.00  0.00     0.016 C 
BRANCH   3   5
ATOM      5  C   UNL     1     -27.866 -13.445  22.123  1.00  0.00     0.015 C 
BRANCH   5   6
ATOM      6  C   UNL     1     -28.054 -13.952  23.566  1.00  0.00     0.028 C 
BRANCH   6   7
ATOM      7  C   UNL     1     -26.752 -14.027  24.322  1.00  0.00    -0.028 C 
ATOM      8  C   UNL     1     -26.438 -13.277  25.403  1.00  0.00    -0.070 CG0
ATOM      9  C   UNL     1     -25.078 -13.462  26.025  1.00  0.00     0.039 C 
ATOM     10  G   UNL     1     -27.397 -12.270  26.015  1.00  0.00     0.000 G0
ENDBRANCH   6   7
ENDBRANCH   5   6
ENDBRANCH   3   5
ENDBRANCH   1   3
BRANCH   1  11
ATOM     11  C   UNL     1     -29.950 -11.136  23.846  1.00  0.00     0.087 C 
BRANCH  11  12
ATOM     12  C   UNL     1     -29.789 -11.307  25.378  1.00  0.00     0.066 C 
BRANCH  12  13
ATOM     13  C   UNL     1     -28.853 -12.457  25.733  1.00  0.00     0.140 C 
ATOM     14  O   UNL     1     -29.291 -13.599  25.743  1.00  0.00    -0.299 OA
BRANCH  13  15
ATOM     15  C   UNL     1     -27.383 -12.254  26.035  1.00  0.00     0.106 CG0
ATOM     16  G   UNL     1     -26.473 -13.302  25.418  1.00  0.00     0.000 G0
ENDBRANCH  13  15
ENDBRANCH  12  13
BRANCH  12  17
ATOM     17  C   UNL     1     -29.387  -9.967  26.070  1.00  0.00    -0.006 C 
ATOM     18  C   UNL     1     -27.863  -9.769  26.057  1.00  0.00     0.008 C 
ATOM     19  C   UNL     1     -30.077  -8.720  25.486  1.00  0.00     0.008 C 
ENDBRANCH  12  17
ENDBRANCH  11  12
ENDBRANCH   1  11
TORSDOF 1
ENDMDL
MODEL 3
REMARK VINA RESULT:    -0.820      1.645      2.704
REMARK INTER + INTRA:           2.326
REMARK INTER:                  -1.614
REMARK INTRA:                   3.940
REMARK UNBOUND:                 3.578
REMARK SMILES CC1=CCC[C@@H](C)C(=O)C[C@H](C(C)C)C(=O)C1
REMARK SMILES IDX 8 1 9 2 6 3 7 4 5 5 4 6 3 7 2 8 1 9 10 11 11 12 15 13 16 14
REMARK SMILES IDX 17 15 12 17 13 18 14 19
REMARK H PARENT
REMARK Flexibility Score: 70.00
ROOT
ATOM      1  C   UNL     1     -28.773 -13.825  22.189  1.00  0.00     0.136 C 
ATOM      2  O   UNL     1     -29.201 -14.968  22.108  1.00  0.00    -0.299 OA
ENDROOT
BRANCH   1   3
ATOM      3  C   UNL     1     -29.367 -12.777  21.254  1.00  0.00     0.053 C 
ATOM      4  C   UNL     1     -28.794 -12.765  19.826  1.00  0.00     0.016 C 
BRANCH   3   5
ATOM      5  C   UNL     1     -29.389 -11.355  21.884  1.00  0.00     0.015 C 
BRANCH   5   6
ATOM      6  C   UNL     1     -29.446 -11.291  23.423  1.00  0.00     0.028 C 
BRANCH   6   7
ATOM      7  C   UNL     1     -28.514 -10.251  23.989  1.00  0.00    -0.028 C 
ATOM      8  C   UNL     1     -27.884 -10.341  25.184  1.00  0.00    -0.070 CG0
ATOM      9  C   UNL     1     -27.003  -9.196  25.610  1.00  0.00     0.039 C 
ATOM     10  G   UNL     1     -28.021 -11.546  26.100  1.00  0.00     0.000 G0
ENDBRANCH   6   7
ENDBRANCH   5   6
ENDBRANCH   3   5
ENDBRANCH   1   3
BRANCH   1  11
ATOM     11  C   UNL     1     -27.655 -13.562  23.181  1.00  0.00     0.087 C 
BRANCH  11  12
ATOM     12  C   UNL     1     -28.051 -13.798  24.661  1.00  0.00     0.066 C 
BRANCH  12  13
ATOM     13  C   UNL     1     -27.355 -12.823  25.604  1.00  0.00     0.140 C 
ATOM     14  O   UNL     1     -26.200 -13.044  25.942  1.00  0.00    -0.299 OA
BRANCH  13  15
ATOM     15  C   UNL     1     -28.019 -11.560  26.115  1.00  0.00     0.106 CG0
ATOM     16  G   UNL     1     -27.874 -10.366  25.187  1.00  0.00     0.000 G0
ENDBRANCH  13  15
ENDBRANCH  12  13
BRANCH  12  17
ATOM     17  C   UNL     1     -29.600 -13.816  24.849  1.00  0.00    -0.006 C 
ATOM     18  C   UNL     1     -30.124 -15.250  25.022  1.00  0.00     0.008 C 
ATOM     19  C   UNL     1     -30.109 -12.936  26.006  1.00  0.00     0.008 C 
ENDBRANCH  12  17
ENDBRANCH  11  12
ENDBRANCH   1  11
TORSDOF 1
ENDMDL
