MODEL 1
REMARK VINA RESULT:    -2.464      0.000      0.000
REMARK INTER + INTRA:          -2.464
REMARK INTER:                  -2.464
REMARK INTRA:                   0.000
REMARK UNBOUND:                 0.000
REMARK SMILES CC(=O)[O-]
REMARK SMILES IDX 1 1 2 2 3 3 4 4
REMARK H PARENT
REMARK Flexibility Score: inf
ROOT
ATOM      1  C   UNL     1     -23.670 -15.765  10.436  1.00  0.00     0.063 C 
ATOM      2  C   UNL     1     -23.558 -17.128  11.030  1.00  0.00     0.038 C 
ATOM      3  O   UNL     1     -24.124 -17.389  12.124  1.00  0.00    -0.550 OA
ATOM      4  O   UNL     1     -22.875 -18.129  10.353  1.00  0.00    -0.550 OA
ENDROOT
TORSDOF 0
ENDMDL
MODEL 2
REMARK VINA RESULT:    -2.019      7.361      7.693
REMARK INTER + INTRA:          -2.019
REMARK INTER:                  -2.019
REMARK INTRA:                   0.000
REMARK UNBOUND:                 0.000
REMARK SMILES CC(=O)[O-]
REMARK SMILES IDX 1 1 2 2 3 3 4 4
REMARK H PARENT
REMARK Flexibility Score: inf
ROOT
ATOM      1  C   UNL     1     -17.317 -19.057  12.470  1.00  0.00     0.063 C 
ATOM      2  C   UNL     1     -17.088 -19.976  13.622  1.00  0.00     0.038 C 
ATOM      3  O   UNL     1     -17.170 -21.222  13.463  1.00  0.00    -0.550 OA
ATOM      4  O   UNL     1     -16.731 -19.463  14.863  1.00  0.00    -0.550 OA
ENDROOT
TORSDOF 0
ENDMDL
MODEL 3
REMARK VINA RESULT:    -1.987      9.513      9.911
REMARK INTER + INTRA:          -1.987
REMARK INTER:                  -1.987
REMARK INTRA:                   0.000
REMARK UNBOUND:                 0.000
REMARK SMILES CC(=O)[O-]
REMARK SMILES IDX 1 1 2 2 3 3 4 4
REMARK H PARENT
REMARK Flexibility Score: inf
ROOT
ATOM      1  C   UNL     1     -19.685  -8.111   5.850  1.00  0.00     0.063 C 
ATOM      2  C   UNL     1     -20.487  -8.729   6.945  1.00  0.00     0.038 C 
ATOM      3  O   UNL     1     -20.081  -8.671   8.136  1.00  0.00    -0.550 OA
ATOM      4  O   UNL     1     -21.709  -9.324   6.662  1.00  0.00    -0.550 OA
ENDROOT
TORSDOF 0
ENDMDL
MODEL 4
REMARK VINA RESULT:    -1.960      7.312      7.742
REMARK INTER + INTRA:          -1.960
REMARK INTER:                  -1.960
REMARK INTRA:                   0.000
REMARK UNBOUND:                 0.000
REMARK SMILES CC(=O)[O-]
REMARK SMILES IDX 1 1 2 2 3 3 4 4
REMARK H PARENT
REMARK Flexibility Score: inf
ROOT
ATOM      1  C   UNL     1     -16.240 -19.147  14.637  1.00  0.00     0.063 C 
ATOM      2  C   UNL     1     -17.005 -19.788  13.529  1.00  0.00     0.038 C 
ATOM      3  O   UNL     1     -17.458 -19.088  12.586  1.00  0.00    -0.550 OA
ATOM      4  O   UNL     1     -17.174 -21.166  13.506  1.00  0.00    -0.550 OA
ENDROOT
TORSDOF 0
ENDMDL
MODEL 5
REMARK VINA RESULT:    -1.957      9.585      9.984
REMARK INTER + INTRA:          -1.957
REMARK INTER:                  -1.957
REMARK INTRA:                   0.000
REMARK UNBOUND:                 0.000
REMARK SMILES CC(=O)[O-]
REMARK SMILES IDX 1 1 2 2 3 3 4 4
REMARK H PARENT
REMARK Flexibility Score: inf
ROOT
ATOM      1  C   UNL     1     -21.621  -9.352   6.619  1.00  0.00     0.063 C 
ATOM      2  C   UNL     1     -20.372  -8.642   7.019  1.00  0.00     0.038 C 
ATOM      3  O   UNL     1     -19.952  -8.722   8.203  1.00  0.00    -0.550 OA
ATOM      4  O   UNL     1     -19.640  -7.934   6.075  1.00  0.00    -0.550 OA
ENDROOT
TORSDOF 0
ENDMDL
MODEL 6
REMARK VINA RESULT:    -1.952      8.417      8.715
REMARK INTER + INTRA:          -1.952
REMARK INTER:                  -1.952
REMARK INTRA:                   0.000
REMARK UNBOUND:                 0.000
REMARK SMILES CC(=O)[O-]
REMARK SMILES IDX 1 1 2 2 3 3 4 4
REMARK H PARENT
REMARK Flexibility Score: inf
ROOT
ATOM      1  C   UNL     1     -17.034 -19.855  14.172  1.00  0.00     0.063 C 
ATOM      2  C   UNL     1     -15.950 -18.900  14.541  1.00  0.00     0.038 C 
ATOM      3  O   UNL     1     -15.538 -18.841  15.729  1.00  0.00    -0.550 OA
ATOM      4  O   UNL     1     -15.355 -18.111  13.566  1.00  0.00    -0.550 OA
ENDROOT
TORSDOF 0
ENDMDL
MODEL 7
REMARK VINA RESULT:    -1.949      4.479      4.712
REMARK INTER + INTRA:          -1.949
REMARK INTER:                  -1.949
REMARK INTRA:                   0.000
REMARK UNBOUND:                 0.000
REMARK SMILES CC(=O)[O-]
REMARK SMILES IDX 1 1 2 2 3 3 4 4
REMARK H PARENT
REMARK Flexibility Score: inf
ROOT
ATOM      1  C   UNL     1     -22.560 -12.445  13.023  1.00  0.00     0.063 C 
ATOM      2  C   UNL     1     -21.922 -13.105  11.848  1.00  0.00     0.038 C 
ATOM      3  O   UNL     1     -22.628 -13.730  11.014  1.00  0.00    -0.550 OA
ATOM      4  O   UNL     1     -20.553 -12.989  11.641  1.00  0.00    -0.550 OA
ENDROOT
TORSDOF 0
ENDMDL
MODEL 8
REMARK VINA RESULT:    -1.934      7.727      7.878
REMARK INTER + INTRA:          -1.934
REMARK INTER:                  -1.934
REMARK INTRA:                   0.000
REMARK UNBOUND:                 0.000
REMARK SMILES CC(=O)[O-]
REMARK SMILES IDX 1 1 2 2 3 3 4 4
REMARK H PARENT
REMARK Flexibility Score: inf
ROOT
ATOM      1  C   UNL     1     -16.997 -21.339  13.021  1.00  0.00     0.063 C 
ATOM      2  C   UNL     1     -16.971 -19.988  13.652  1.00  0.00     0.038 C 
ATOM      3  O   UNL     1     -17.282 -19.851  14.864  1.00  0.00    -0.550 OA
ATOM      4  O   UNL     1     -16.553 -18.885  12.919  1.00  0.00    -0.550 OA
ENDROOT
TORSDOF 0
ENDMDL
MODEL 9
REMARK VINA RESULT:    -1.907      7.232      7.658
REMARK INTER + INTRA:          -1.907
REMARK INTER:                  -1.907
REMARK INTRA:                   0.000
REMARK UNBOUND:                 0.000
REMARK SMILES CC(=O)[O-]
REMARK SMILES IDX 1 1 2 2 3 3 4 4
REMARK H PARENT
REMARK Flexibility Score: inf
ROOT
ATOM      1  C   UNL     1     -16.647 -19.505  14.493  1.00  0.00     0.063 C 
ATOM      2  C   UNL     1     -17.098 -20.151  13.228  1.00  0.00     0.038 C 
ATOM      3  O   UNL     1     -17.232 -21.402  13.170  1.00  0.00    -0.550 OA
ATOM      4  O   UNL     1     -17.423 -19.372  12.125  1.00  0.00    -0.550 OA
ENDROOT
TORSDOF 0
ENDMDL
