MODEL 1
REMARK VINA RESULT:    -3.257      0.000      0.000
REMARK INTER + INTRA:          -7.880
REMARK INTER:                  -5.922
REMARK INTRA:                  -1.958
REMARK UNBOUND:                -1.958
REMARK SMILES CCCCCCCCCCCCCCCC(=O)[O-]
REMARK SMILES IDX 9 1 10 2 11 3 12 4 13 5 14 6 15 7 16 8 17 9 18 10 8 11 7 12
REMARK SMILES IDX 6 13 5 14 4 15 3 16 2 17 1 18
REMARK H PARENT
REMARK Flexibility Score: inf
ROOT
ATOM      1  C   UNL     1      50.235  34.907  86.320  1.00  0.00     0.000 C 
ENDROOT
BRANCH   1   2
ATOM      2  C   UNL     1      48.704  34.747  86.309  1.00  0.00     0.000 C 
BRANCH   2   3
ATOM      3  C   UNL     1      48.191  33.825  87.428  1.00  0.00     0.000 C 
BRANCH   3   4
ATOM      4  C   UNL     1      48.084  32.354  86.987  1.00  0.00     0.000 C 
BRANCH   4   5
ATOM      5  C   UNL     1      47.105  31.489  87.807  1.00  0.00     0.000 C 
BRANCH   5   6
ATOM      6  C   UNL     1      47.029  31.831  89.306  1.00  0.00     0.006 C 
BRANCH   6   7
ATOM      7  C   UNL     1      45.614  31.687  89.878  1.00  0.00     0.053 C 
BRANCH   7   8
ATOM      8  C   UNL     1      45.582  30.622  90.928  1.00  0.00     0.041 C 
ATOM      9  O   UNL     1      46.535  29.807  91.034  1.00  0.00    -0.550 OA
ATOM     10  O   UNL     1      44.521  30.561  91.824  1.00  0.00    -0.550 OA
ENDBRANCH   7   8
ENDBRANCH   6   7
ENDBRANCH   5   6
ENDBRANCH   4   5
ENDBRANCH   3   4
ENDBRANCH   2   3
ENDBRANCH   1   2
BRANCH   1  11
ATOM     11  C   UNL     1      50.810  35.679  87.526  1.00  0.00     0.000 C 
BRANCH  11  12
ATOM     12  C   UNL     1      52.346  35.682  87.639  1.00  0.00    -0.000 C 
BRANCH  12  13
ATOM     13  C   UNL     1      53.025  34.830  86.554  1.00  0.00    -0.000 C 
BRANCH  13  14
ATOM     14  C   UNL     1      54.085  33.867  87.122  1.00  0.00    -0.000 C 
BRANCH  14  15
ATOM     15  C   UNL     1      53.533  32.695  87.955  1.00  0.00    -0.000 C 
BRANCH  15  16
ATOM     16  C   UNL     1      52.398  31.937  87.246  1.00  0.00    -0.000 C 
BRANCH  16  17
ATOM     17  C   UNL     1      51.287  31.501  88.213  1.00  0.00    -0.003 C 
ATOM     18  C   UNL     1      51.133  32.447  89.404  1.00  0.00     0.004 C 
ENDBRANCH  16  17
ENDBRANCH  15  16
ENDBRANCH  14  15
ENDBRANCH  13  14
ENDBRANCH  12  13
ENDBRANCH  11  12
ENDBRANCH   1  11
TORSDOF 14
ENDMDL
MODEL 2
REMARK VINA RESULT:    -3.227      1.214      3.498
REMARK INTER + INTRA:          -7.827
REMARK INTER:                  -5.820
REMARK INTRA:                  -2.008
REMARK UNBOUND:                -1.958
REMARK SMILES CCCCCCCCCCCCCCCC(=O)[O-]
REMARK SMILES IDX 9 1 10 2 11 3 12 4 13 5 14 6 15 7 16 8 17 9 18 10 8 11 7 12
REMARK SMILES IDX 6 13 5 14 4 15 3 16 2 17 1 18
REMARK H PARENT
REMARK Flexibility Score: inf
ROOT
ATOM      1  C   UNL     1      51.937  31.857  88.171  1.00  0.00     0.000 C 
ENDROOT
BRANCH   1   2
ATOM      2  C   UNL     1      51.350  32.302  89.523  1.00  0.00     0.000 C 
BRANCH   2   3
ATOM      3  C   UNL     1      50.857  31.121  90.378  1.00  0.00     0.000 C 
BRANCH   3   4
ATOM      4  C   UNL     1      49.491  30.581  89.917  1.00  0.00     0.000 C 
BRANCH   4   5
ATOM      5  C   UNL     1      48.265  31.226  90.593  1.00  0.00     0.000 C 
BRANCH   5   6
ATOM      6  C   UNL     1      46.907  30.617  90.200  1.00  0.00     0.006 C 
BRANCH   6   7
ATOM      7  C   UNL     1      45.738  31.590  90.401  1.00  0.00     0.053 C 
BRANCH   7   8
ATOM      8  C   UNL     1      44.787  31.059  91.426  1.00  0.00     0.041 C 
ATOM      9  O   UNL     1      44.082  31.849  92.107  1.00  0.00    -0.550 OA
ATOM     10  O   UNL     1      44.641  29.688  91.594  1.00  0.00    -0.550 OA
ENDBRANCH   7   8
ENDBRANCH   6   7
ENDBRANCH   5   6
ENDBRANCH   4   5
ENDBRANCH   3   4
ENDBRANCH   2   3
ENDBRANCH   1   2
BRANCH   1  11
ATOM     11  C   UNL     1      52.438  32.997  87.261  1.00  0.00     0.000 C 
BRANCH  11  12
ATOM     12  C   UNL     1      52.113  34.422  87.747  1.00  0.00    -0.000 C 
BRANCH  12  13
ATOM     13  C   UNL     1      51.186  35.184  86.786  1.00  0.00    -0.000 C 
BRANCH  13  14
ATOM     14  C   UNL     1      49.866  35.623  87.447  1.00  0.00    -0.000 C 
BRANCH  14  15
ATOM     15  C   UNL     1      48.592  34.981  86.864  1.00  0.00    -0.000 C 
BRANCH  15  16
ATOM     16  C   UNL     1      48.191  33.683  87.584  1.00  0.00    -0.000 C 
BRANCH  16  17
ATOM     17  C   UNL     1      48.615  32.425  86.810  1.00  0.00    -0.003 C 
ATOM     18  C   UNL     1      47.491  31.397  86.689  1.00  0.00     0.004 C 
ENDBRANCH  16  17
ENDBRANCH  15  16
ENDBRANCH  14  15
ENDBRANCH  13  14
ENDBRANCH  12  13
ENDBRANCH  11  12
ENDBRANCH   1  11
TORSDOF 14
ENDMDL
MODEL 3
REMARK VINA RESULT:    -3.196      2.466      4.738
REMARK INTER + INTRA:          -7.770
REMARK INTER:                  -5.241
REMARK INTRA:                  -2.529
REMARK UNBOUND:                -1.958
REMARK SMILES CCCCCCCCCCCCCCCC(=O)[O-]
REMARK SMILES IDX 9 1 10 2 11 3 12 4 13 5 14 6 15 7 16 8 17 9 18 10 8 11 7 12
REMARK SMILES IDX 6 13 5 14 4 15 3 16 2 17 1 18
REMARK H PARENT
REMARK Flexibility Score: inf
ROOT
ATOM      1  C   UNL     1      51.027  35.402  87.620  1.00  0.00     0.000 C 
ENDROOT
BRANCH   1   2
ATOM      2  C   UNL     1      51.762  35.046  86.315  1.00  0.00     0.000 C 
BRANCH   2   3
ATOM      3  C   UNL     1      52.539  33.722  86.409  1.00  0.00     0.000 C 
BRANCH   3   4
ATOM      4  C   UNL     1      52.505  33.109  87.821  1.00  0.00     0.000 C 
BRANCH   4   5
ATOM      5  C   UNL     1      51.787  31.748  87.932  1.00  0.00     0.000 C 
BRANCH   5   6
ATOM      6  C   UNL     1      50.876  31.589  89.162  1.00  0.00     0.006 C 
BRANCH   6   7
ATOM      7  C   UNL     1      51.601  31.880  90.481  1.00  0.00     0.053 C 
BRANCH   7   8
ATOM      8  C   UNL     1      50.652  31.770  91.634  1.00  0.00     0.041 C 
ATOM      9  O   UNL     1      50.874  32.401  92.699  1.00  0.00    -0.550 OA
ATOM     10  O   UNL     1      49.497  31.008  91.511  1.00  0.00    -0.550 OA
ENDBRANCH   7   8
ENDBRANCH   6   7
ENDBRANCH   5   6
ENDBRANCH   4   5
ENDBRANCH   3   4
ENDBRANCH   2   3
ENDBRANCH   1   2
BRANCH   1  11
ATOM     11  C   UNL     1      49.660  36.094  87.441  1.00  0.00     0.000 C 
BRANCH  11  12
ATOM     12  C   UNL     1      48.583  35.256  86.728  1.00  0.00    -0.000 C 
BRANCH  12  13
ATOM     13  C   UNL     1      48.328  33.904  87.414  1.00  0.00    -0.000 C 
BRANCH  13  14
ATOM     14  C   UNL     1      48.543  32.703  86.472  1.00  0.00    -0.000 C 
BRANCH  14  15
ATOM     15  C   UNL     1      48.606  33.045  84.972  1.00  0.00    -0.000 C 
BRANCH  15  16
ATOM     16  C   UNL     1      49.847  32.463  84.275  1.00  0.00    -0.000 C 
BRANCH  16  17
ATOM     17  C   UNL     1      50.430  33.416  83.220  1.00  0.00    -0.003 C 
ATOM     18  C   UNL     1      49.711  34.764  83.176  1.00  0.00     0.004 C 
ENDBRANCH  16  17
ENDBRANCH  15  16
ENDBRANCH  14  15
ENDBRANCH  13  14
ENDBRANCH  12  13
ENDBRANCH  11  12
ENDBRANCH   1  11
TORSDOF 14
ENDMDL
MODEL 4
REMARK VINA RESULT:    -3.152      1.436      3.068
REMARK INTER + INTRA:          -7.690
REMARK INTER:                  -6.093
REMARK INTRA:                  -1.598
REMARK UNBOUND:                -1.958
REMARK SMILES CCCCCCCCCCCCCCCC(=O)[O-]
REMARK SMILES IDX 9 1 10 2 11 3 12 4 13 5 14 6 15 7 16 8 17 9 18 10 8 11 7 12
REMARK SMILES IDX 6 13 5 14 4 15 3 16 2 17 1 18
REMARK H PARENT
REMARK Flexibility Score: inf
ROOT
ATOM      1  C   UNL     1      48.219  32.227  87.043  1.00  0.00     0.000 C 
ENDROOT
BRANCH   1   2
ATOM      2  C   UNL     1      47.581  32.375  88.436  1.00  0.00     0.000 C 
BRANCH   2   3
ATOM      3  C   UNL     1      47.988  31.249  89.402  1.00  0.00     0.000 C 
BRANCH   3   4
ATOM      4  C   UNL     1      46.944  31.002  90.506  1.00  0.00     0.000 C 
BRANCH   4   5
ATOM      5  C   UNL     1      45.546  31.595  90.235  1.00  0.00     0.000 C 
BRANCH   5   6
ATOM      6  C   UNL     1      44.578  31.556  91.431  1.00  0.00     0.006 C 
BRANCH   6   7
ATOM      7  C   UNL     1      44.630  30.229  92.197  1.00  0.00     0.053 C 
BRANCH   7   8
ATOM      8  C   UNL     1      43.503  29.339  91.776  1.00  0.00     0.041 C 
ATOM      9  O   UNL     1      42.315  29.649  92.048  1.00  0.00    -0.550 OA
ATOM     10  O   UNL     1      43.764  28.191  91.038  1.00  0.00    -0.550 OA
ENDBRANCH   7   8
ENDBRANCH   6   7
ENDBRANCH   5   6
ENDBRANCH   4   5
ENDBRANCH   3   4
ENDBRANCH   2   3
ENDBRANCH   1   2
BRANCH   1  11
ATOM     11  C   UNL     1      48.545  33.551  86.321  1.00  0.00     0.000 C 
BRANCH  11  12
ATOM     12  C   UNL     1      48.313  34.829  87.148  1.00  0.00    -0.000 C 
BRANCH  12  13
ATOM     13  C   UNL     1      49.598  35.646  87.360  1.00  0.00    -0.000 C 
BRANCH  13  14
ATOM     14  C   UNL     1      50.848  34.960  86.776  1.00  0.00    -0.000 C 
BRANCH  14  15
ATOM     15  C   UNL     1      51.806  34.344  87.812  1.00  0.00    -0.000 C 
BRANCH  15  16
ATOM     16  C   UNL     1      52.268  32.926  87.435  1.00  0.00    -0.000 C 
BRANCH  16  17
ATOM     17  C   UNL     1      51.691  31.851  88.368  1.00  0.00    -0.003 C 
ATOM     18  C   UNL     1      51.370  32.387  89.764  1.00  0.00     0.004 C 
ENDBRANCH  16  17
ENDBRANCH  15  16
ENDBRANCH  14  15
ENDBRANCH  13  14
ENDBRANCH  12  13
ENDBRANCH  11  12
ENDBRANCH   1  11
TORSDOF 14
ENDMDL
MODEL 5
REMARK VINA RESULT:    -3.120     16.228     18.338
REMARK INTER + INTRA:          -7.632
REMARK INTER:                  -5.526
REMARK INTRA:                  -2.105
REMARK UNBOUND:                -1.958
REMARK SMILES CCCCCCCCCCCCCCCC(=O)[O-]
REMARK SMILES IDX 9 1 10 2 11 3 12 4 13 5 14 6 15 7 16 8 17 9 18 10 8 11 7 12
REMARK SMILES IDX 6 13 5 14 4 15 3 16 2 17 1 18
REMARK H PARENT
REMARK Flexibility Score: inf
ROOT
ATOM      1  C   UNL     1      48.287  20.334  78.132  1.00  0.00     0.000 C 
ENDROOT
BRANCH   1   2
ATOM      2  C   UNL     1      48.961  21.710  78.284  1.00  0.00     0.000 C 
BRANCH   2   3
ATOM      3  C   UNL     1      50.268  21.826  77.481  1.00  0.00     0.000 C 
BRANCH   3   4
ATOM      4  C   UNL     1      50.456  23.214  76.841  1.00  0.00     0.000 C 
BRANCH   4   5
ATOM      5  C   UNL     1      50.920  23.205  75.371  1.00  0.00     0.000 C 
BRANCH   5   6
ATOM      6  C   UNL     1      51.339  21.827  74.827  1.00  0.00     0.006 C 
BRANCH   6   7
ATOM      7  C   UNL     1      52.798  21.792  74.356  1.00  0.00     0.053 C 
BRANCH   7   8
ATOM      8  C   UNL     1      53.632  20.983  75.300  1.00  0.00     0.041 C 
ATOM      9  O   UNL     1      53.664  21.272  76.524  1.00  0.00    -0.550 OA
ATOM     10  O   UNL     1      54.333  19.878  74.834  1.00  0.00    -0.550 OA
ENDBRANCH   7   8
ENDBRANCH   6   7
ENDBRANCH   5   6
ENDBRANCH   4   5
ENDBRANCH   3   4
ENDBRANCH   2   3
ENDBRANCH   1   2
BRANCH   1  11
ATOM     11  C   UNL     1      46.751  20.364  77.985  1.00  0.00     0.000 C 
BRANCH  11  12
ATOM     12  C   UNL     1      46.063  18.987  77.954  1.00  0.00    -0.000 C 
BRANCH  12  13
ATOM     13  C   UNL     1      45.737  18.514  76.528  1.00  0.00    -0.000 C 
BRANCH  13  14
ATOM     14  C   UNL     1      45.581  19.677  75.531  1.00  0.00    -0.000 C 
BRANCH  14  15
ATOM     15  C   UNL     1      46.554  19.658  74.338  1.00  0.00    -0.000 C 
BRANCH  15  16
ATOM     16  C   UNL     1      47.686  20.691  74.469  1.00  0.00    -0.000 C 
BRANCH  16  17
ATOM     17  C   UNL     1      47.230  22.113  74.106  1.00  0.00    -0.003 C 
ATOM     18  C   UNL     1      47.162  23.042  75.318  1.00  0.00     0.004 C 
ENDBRANCH  16  17
ENDBRANCH  15  16
ENDBRANCH  14  15
ENDBRANCH  13  14
ENDBRANCH  12  13
ENDBRANCH  11  12
ENDBRANCH   1  11
TORSDOF 14
ENDMDL
MODEL 6
REMARK VINA RESULT:    -3.106      1.307      3.892
REMARK INTER + INTRA:          -7.606
REMARK INTER:                  -5.665
REMARK INTRA:                  -1.942
REMARK UNBOUND:                -1.958
REMARK SMILES CCCCCCCCCCCCCCCC(=O)[O-]
REMARK SMILES IDX 9 1 10 2 11 3 12 4 13 5 14 6 15 7 16 8 17 9 18 10 8 11 7 12
REMARK SMILES IDX 6 13 5 14 4 15 3 16 2 17 1 18
REMARK H PARENT
REMARK Flexibility Score: inf
ROOT
ATOM      1  C   UNL     1      50.332  31.755  88.017  1.00  0.00     0.000 C 
ENDROOT
BRANCH   1   2
ATOM      2  C   UNL     1      50.151  31.344  89.490  1.00  0.00     0.000 C 
BRANCH   2   3
ATOM      3  C   UNL     1      49.586  29.921  89.647  1.00  0.00     0.000 C 
BRANCH   3   4
ATOM      4  C   UNL     1      48.292  29.881  90.479  1.00  0.00     0.000 C 
BRANCH   4   5
ATOM      5  C   UNL     1      47.554  31.228  90.616  1.00  0.00     0.000 C 
BRANCH   5   6
ATOM      6  C   UNL     1      46.140  31.263  90.008  1.00  0.00     0.006 C 
BRANCH   6   7
ATOM      7  C   UNL     1      45.047  31.502  91.057  1.00  0.00     0.053 C 
BRANCH   7   8
ATOM      8  C   UNL     1      44.563  30.200  91.614  1.00  0.00     0.041 C 
ATOM      9  O   UNL     1      44.543  29.171  90.891  1.00  0.00    -0.550 OA
ATOM     10  O   UNL     1      44.182  30.114  92.947  1.00  0.00    -0.550 OA
ENDBRANCH   7   8
ENDBRANCH   6   7
ENDBRANCH   5   6
ENDBRANCH   4   5
ENDBRANCH   3   4
ENDBRANCH   2   3
ENDBRANCH   1   2
BRANCH   1  11
ATOM     11  C   UNL     1      49.229  31.270  87.055  1.00  0.00     0.000 C 
BRANCH  11  12
ATOM     12  C   UNL     1      47.988  32.177  86.960  1.00  0.00    -0.000 C 
BRANCH  12  13
ATOM     13  C   UNL     1      48.279  33.630  87.370  1.00  0.00    -0.000 C 
BRANCH  13  14
ATOM     14  C   UNL     1      48.617  34.537  86.171  1.00  0.00    -0.000 C 
BRANCH  14  15
ATOM     15  C   UNL     1      50.068  35.051  86.122  1.00  0.00    -0.000 C 
BRANCH  15  16
ATOM     16  C   UNL     1      50.602  35.475  87.500  1.00  0.00    -0.000 C 
BRANCH  16  17
ATOM     17  C   UNL     1      52.106  35.201  87.659  1.00  0.00    -0.003 C 
ATOM     18  C   UNL     1      52.706  34.475  86.455  1.00  0.00     0.004 C 
ENDBRANCH  16  17
ENDBRANCH  15  16
ENDBRANCH  14  15
ENDBRANCH  13  14
ENDBRANCH  12  13
ENDBRANCH  11  12
ENDBRANCH   1  11
TORSDOF 14
ENDMDL
MODEL 7
REMARK VINA RESULT:    -3.092     15.479     17.761
REMARK INTER + INTRA:          -7.580
REMARK INTER:                  -5.230
REMARK INTRA:                  -2.351
REMARK UNBOUND:                -1.958
REMARK SMILES CCCCCCCCCCCCCCCC(=O)[O-]
REMARK SMILES IDX 9 1 10 2 11 3 12 4 13 5 14 6 15 7 16 8 17 9 18 10 8 11 7 12
REMARK SMILES IDX 6 13 5 14 4 15 3 16 2 17 1 18
REMARK H PARENT
REMARK Flexibility Score: inf
ROOT
ATOM      1  C   UNL     1      45.333  20.412  74.556  1.00  0.00     0.000 C 
ENDROOT
BRANCH   1   2
ATOM      2  C   UNL     1      46.315  19.590  75.411  1.00  0.00     0.000 C 
BRANCH   2   3
ATOM      3  C   UNL     1      45.618  18.488  76.227  1.00  0.00     0.000 C 
BRANCH   3   4
ATOM      4  C   UNL     1      45.513  18.830  77.724  1.00  0.00     0.000 C 
BRANCH   4   5
ATOM      5  C   UNL     1      44.255  19.623  78.132  1.00  0.00     0.000 C 
BRANCH   5   6
ATOM      6  C   UNL     1      44.525  20.903  78.944  1.00  0.00     0.006 C 
BRANCH   6   7
ATOM      7  C   UNL     1      45.919  21.487  78.688  1.00  0.00     0.053 C 
BRANCH   7   8
ATOM      8  C   UNL     1      46.731  21.473  79.945  1.00  0.00     0.041 C 
ATOM      9  O   UNL     1      46.273  21.983  81.001  1.00  0.00    -0.550 OA
ATOM     10  O   UNL     1      47.972  20.849  79.963  1.00  0.00    -0.550 OA
ENDBRANCH   7   8
ENDBRANCH   6   7
ENDBRANCH   5   6
ENDBRANCH   4   5
ENDBRANCH   3   4
ENDBRANCH   2   3
ENDBRANCH   1   2
BRANCH   1  11
ATOM     11  C   UNL     1      45.255  21.914  74.901  1.00  0.00     0.000 C 
BRANCH  11  12
ATOM     12  C   UNL     1      43.949  22.370  75.578  1.00  0.00    -0.000 C 
BRANCH  12  13
ATOM     13  C   UNL     1      42.697  21.753  74.934  1.00  0.00    -0.000 C 
BRANCH  13  14
ATOM     14  C   UNL     1      41.559  21.513  75.945  1.00  0.00    -0.000 C 
BRANCH  14  15
ATOM     15  C   UNL     1      41.619  22.372  77.221  1.00  0.00    -0.000 C 
BRANCH  15  16
ATOM     16  C   UNL     1      40.565  21.969  78.266  1.00  0.00    -0.000 C 
BRANCH  16  17
ATOM     17  C   UNL     1      40.475  20.447  78.455  1.00  0.00    -0.003 C 
ATOM     18  C   UNL     1      40.872  19.999  79.862  1.00  0.00     0.004 C 
ENDBRANCH  16  17
ENDBRANCH  15  16
ENDBRANCH  14  15
ENDBRANCH  13  14
ENDBRANCH  12  13
ENDBRANCH  11  12
ENDBRANCH   1  11
TORSDOF 14
ENDMDL
MODEL 8
REMARK VINA RESULT:    -3.083      1.190      3.461
REMARK INTER + INTRA:          -7.565
REMARK INTER:                  -5.590
REMARK INTRA:                  -1.975
REMARK UNBOUND:                -1.958
REMARK SMILES CCCCCCCCCCCCCCCC(=O)[O-]
REMARK SMILES IDX 9 1 10 2 11 3 12 4 13 5 14 6 15 7 16 8 17 9 18 10 8 11 7 12
REMARK SMILES IDX 6 13 5 14 4 15 3 16 2 17 1 18
REMARK H PARENT
REMARK Flexibility Score: inf
ROOT
ATOM      1  C   UNL     1      53.132  31.869  87.780  1.00  0.00     0.000 C 
ENDROOT
BRANCH   1   2
ATOM      2  C   UNL     1      51.646  31.614  88.094  1.00  0.00     0.000 C 
BRANCH   2   3
ATOM      3  C   UNL     1      51.147  32.416  89.308  1.00  0.00     0.000 C 
BRANCH   3   4
ATOM      4  C   UNL     1      51.240  31.626  90.626  1.00  0.00     0.000 C 
BRANCH   4   5
ATOM      5  C   UNL     1      49.890  31.213  91.244  1.00  0.00     0.000 C 
BRANCH   5   6
ATOM      6  C   UNL     1      48.864  30.638  90.250  1.00  0.00     0.006 C 
BRANCH   6   7
ATOM      7  C   UNL     1      47.472  31.261  90.405  1.00  0.00     0.053 C 
BRANCH   7   8
ATOM      8  C   UNL     1      46.458  30.204  90.711  1.00  0.00     0.041 C 
ATOM      9  O   UNL     1      45.241  30.400  90.455  1.00  0.00    -0.550 OA
ATOM     10  O   UNL     1      46.864  28.982  91.232  1.00  0.00    -0.550 OA
ENDBRANCH   7   8
ENDBRANCH   6   7
ENDBRANCH   5   6
ENDBRANCH   4   5
ENDBRANCH   3   4
ENDBRANCH   2   3
ENDBRANCH   1   2
BRANCH   1  11
ATOM     11  C   UNL     1      53.510  33.343  87.523  1.00  0.00     0.000 C 
BRANCH  11  12
ATOM     12  C   UNL     1      53.300  33.837  86.080  1.00  0.00    -0.000 C 
BRANCH  12  13
ATOM     13  C   UNL     1      52.300  35.001  85.987  1.00  0.00    -0.000 C 
BRANCH  13  14
ATOM     14  C   UNL     1      51.818  35.490  87.365  1.00  0.00    -0.000 C 
BRANCH  14  15
ATOM     15  C   UNL     1      50.296  35.687  87.499  1.00  0.00    -0.000 C 
BRANCH  15  16
ATOM     16  C   UNL     1      49.486  34.744  86.595  1.00  0.00    -0.000 C 
BRANCH  16  17
ATOM     17  C   UNL     1      48.433  33.941  87.374  1.00  0.00    -0.003 C 
ATOM     18  C   UNL     1      48.161  32.567  86.761  1.00  0.00     0.004 C 
ENDBRANCH  16  17
ENDBRANCH  15  16
ENDBRANCH  14  15
ENDBRANCH  13  14
ENDBRANCH  12  13
ENDBRANCH  11  12
ENDBRANCH   1  11
TORSDOF 14
ENDMDL
MODEL 9
REMARK VINA RESULT:    -3.074      1.297      3.669
REMARK INTER + INTRA:          -7.547
REMARK INTER:                  -5.341
REMARK INTRA:                  -2.207
REMARK UNBOUND:                -1.958
REMARK SMILES CCCCCCCCCCCCCCCC(=O)[O-]
REMARK SMILES IDX 9 1 10 2 11 3 12 4 13 5 14 6 15 7 16 8 17 9 18 10 8 11 7 12
REMARK SMILES IDX 6 13 5 14 4 15 3 16 2 17 1 18
REMARK H PARENT
REMARK Flexibility Score: inf
ROOT
ATOM      1  C   UNL     1      50.515  31.060  87.304  1.00  0.00     0.000 C 
ENDROOT
BRANCH   1   2
ATOM      2  C   UNL     1      51.655  31.614  88.180  1.00  0.00     0.000 C 
BRANCH   2   3
ATOM      3  C   UNL     1      51.145  32.313  89.451  1.00  0.00     0.000 C 
BRANCH   3   4
ATOM      4  C   UNL     1      51.017  31.355  90.649  1.00  0.00     0.000 C 
BRANCH   4   5
ATOM      5  C   UNL     1      49.589  31.179  91.204  1.00  0.00     0.000 C 
BRANCH   5   6
ATOM      6  C   UNL     1      48.610  30.448  90.268  1.00  0.00     0.006 C 
BRANCH   6   7
ATOM      7  C   UNL     1      47.378  31.292  89.918  1.00  0.00     0.053 C 
BRANCH   7   8
ATOM      8  C   UNL     1      46.190  30.829  90.701  1.00  0.00     0.041 C 
ATOM      9  O   UNL     1      46.162  29.668  91.184  1.00  0.00    -0.550 OA
ATOM     10  O   UNL     1      45.134  31.700  90.939  1.00  0.00    -0.550 OA
ENDBRANCH   7   8
ENDBRANCH   6   7
ENDBRANCH   5   6
ENDBRANCH   4   5
ENDBRANCH   3   4
ENDBRANCH   2   3
ENDBRANCH   1   2
BRANCH   1  11
ATOM     11  C   UNL     1      49.965  32.035  86.242  1.00  0.00     0.000 C 
BRANCH  11  12
ATOM     12  C   UNL     1      48.596  32.662  86.567  1.00  0.00    -0.000 C 
BRANCH  12  13
ATOM     13  C   UNL     1      48.712  33.953  87.394  1.00  0.00    -0.000 C 
BRANCH  13  14
ATOM     14  C   UNL     1      49.483  35.068  86.663  1.00  0.00    -0.000 C 
BRANCH  14  15
ATOM     15  C   UNL     1      50.876  35.391  87.235  1.00  0.00    -0.000 C 
BRANCH  15  16
ATOM     16  C   UNL     1      52.020  35.007  86.282  1.00  0.00    -0.000 C 
BRANCH  16  17
ATOM     17  C   UNL     1      53.305  34.619  87.031  1.00  0.00    -0.003 C 
ATOM     18  C   UNL     1      53.360  35.190  88.448  1.00  0.00     0.004 C 
ENDBRANCH  16  17
ENDBRANCH  15  16
ENDBRANCH  14  15
ENDBRANCH  13  14
ENDBRANCH  12  13
ENDBRANCH  11  12
ENDBRANCH   1  11
TORSDOF 14
ENDMDL
