MODEL 1
REMARK VINA RESULT:    -2.958      0.000      0.000
REMARK INTER + INTRA:          -3.785
REMARK INTER:                  -3.563
REMARK INTRA:                  -0.222
REMARK UNBOUND:                -0.222
REMARK SMILES OCC(O)CO
REMARK SMILES IDX 3 1 5 2 6 3 2 5 1 6 4 8
REMARK H PARENT 6 4 1 7 4 9
REMARK Flexibility Score: inf
ROOT
ATOM      1  C   UNL     1      41.221   1.833  38.299  1.00  0.00     0.165 C 
ENDROOT
BRANCH   1   2
ATOM      2  C   UNL     1      42.372   0.973  37.752  1.00  0.00     0.190 C 
BRANCH   2   3
ATOM      3  O   UNL     1      43.222   0.556  38.787  1.00  0.00    -0.394 OA
ATOM      4  H   UNL     1      43.099  -0.425  38.879  1.00  0.00     0.210 HD
ENDBRANCH   2   3
ENDBRANCH   1   2
BRANCH   1   5
ATOM      5  C   UNL     1      39.987   0.977  38.601  1.00  0.00     0.190 C 
BRANCH   5   6
ATOM      6  O   UNL     1      40.370  -0.167  39.316  1.00  0.00    -0.394 OA
ATOM      7  H   UNL     1      40.103  -0.005  40.258  1.00  0.00     0.210 HD
ENDBRANCH   5   6
ENDBRANCH   1   5
BRANCH   1   8
ATOM      8  O   UNL     1      41.633   2.475  39.478  1.00  0.00    -0.388 OA
ATOM      9  H   UNL     1      41.628   3.450  39.290  1.00  0.00     0.211 HD
ENDBRANCH   1   8
TORSDOF 5
ENDMDL
MODEL 2
REMARK VINA RESULT:    -2.913     16.200     16.336
REMARK INTER + INTRA:          -3.730
REMARK INTER:                  -3.507
REMARK INTRA:                  -0.223
REMARK UNBOUND:                -0.222
REMARK SMILES OCC(O)CO
REMARK SMILES IDX 3 1 5 2 6 3 2 5 1 6 4 8
REMARK H PARENT 6 4 1 7 4 9
REMARK Flexibility Score: inf
ROOT
ATOM      1  C   UNL     1      35.878   4.364  24.424  1.00  0.00     0.165 C 
ENDROOT
BRANCH   1   2
ATOM      2  C   UNL     1      36.926   3.306  24.041  1.00  0.00     0.190 C 
BRANCH   2   3
ATOM      3  O   UNL     1      36.969   3.122  22.651  1.00  0.00    -0.394 OA
ATOM      4  H   UNL     1      36.031   3.156  22.330  1.00  0.00     0.210 HD
ENDBRANCH   2   3
ENDBRANCH   1   2
BRANCH   1   5
ATOM      5  C   UNL     1      36.490   5.769  24.436  1.00  0.00     0.190 C 
BRANCH   5   6
ATOM      6  O   UNL     1      37.286   5.946  23.296  1.00  0.00    -0.394 OA
ATOM      7  H   UNL     1      36.670   6.232  22.572  1.00  0.00     0.210 HD
ENDBRANCH   5   6
ENDBRANCH   1   5
BRANCH   1   8
ATOM      8  O   UNL     1      34.821   4.334  23.501  1.00  0.00    -0.388 OA
ATOM      9  H   UNL     1      34.730   5.254  23.138  1.00  0.00     0.211 HD
ENDBRANCH   1   8
TORSDOF 5
ENDMDL
MODEL 3
REMARK VINA RESULT:    -2.857      1.171      2.534
REMARK INTER + INTRA:          -3.663
REMARK INTER:                  -3.443
REMARK INTRA:                  -0.219
REMARK UNBOUND:                -0.222
REMARK SMILES OCC(O)CO
REMARK SMILES IDX 3 1 5 2 6 3 2 5 1 6 4 8
REMARK H PARENT 6 4 1 7 4 9
REMARK Flexibility Score: inf
ROOT
ATOM      1  C   UNL     1      41.385   1.655  38.115  1.00  0.00     0.165 C 
ENDROOT
BRANCH   1   2
ATOM      2  C   UNL     1      40.341   1.111  39.104  1.00  0.00     0.190 C 
BRANCH   2   3
ATOM      3  O   UNL     1      40.508  -0.268  39.302  1.00  0.00    -0.394 OA
ATOM      4  H   UNL     1      40.838  -0.384  40.231  1.00  0.00     0.210 HD
ENDBRANCH   2   3
ENDBRANCH   1   2
BRANCH   1   5
ATOM      5  C   UNL     1      42.458   0.605  37.810  1.00  0.00     0.190 C 
BRANCH   5   6
ATOM      6  O   UNL     1      43.374   0.547  38.870  1.00  0.00    -0.394 OA
ATOM      7  H   UNL     1      43.891  -0.291  38.741  1.00  0.00     0.210 HD
ENDBRANCH   5   6
ENDBRANCH   1   5
BRANCH   1   8
ATOM      8  O   UNL     1      40.751   2.023  36.917  1.00  0.00    -0.388 OA
ATOM      9  H   UNL     1      39.919   2.503  37.169  1.00  0.00     0.211 HD
ENDBRANCH   1   8
TORSDOF 5
ENDMDL
MODEL 4
REMARK VINA RESULT:    -2.822     16.406     16.558
REMARK INTER + INTRA:          -3.621
REMARK INTER:                  -3.407
REMARK INTRA:                  -0.214
REMARK UNBOUND:                -0.222
REMARK SMILES OCC(O)CO
REMARK SMILES IDX 3 1 5 2 6 3 2 5 1 6 4 8
REMARK H PARENT 6 4 1 7 4 9
REMARK Flexibility Score: inf
ROOT
ATOM      1  C   UNL     1      36.583   5.096  24.151  1.00  0.00     0.165 C 
ENDROOT
BRANCH   1   2
ATOM      2  C   UNL     1      35.103   5.477  23.984  1.00  0.00     0.190 C 
BRANCH   2   3
ATOM      3  O   UNL     1      34.347   4.378  23.551  1.00  0.00    -0.394 OA
ATOM      4  H   UNL     1      34.371   3.709  24.284  1.00  0.00     0.210 HD
ENDBRANCH   2   3
ENDBRANCH   1   2
BRANCH   1   5
ATOM      5  C   UNL     1      36.783   3.583  24.015  1.00  0.00     0.190 C 
BRANCH   5   6
ATOM      6  O   UNL     1      37.039   3.260  22.675  1.00  0.00    -0.394 OA
ATOM      7  H   UNL     1      37.672   2.495  22.692  1.00  0.00     0.210 HD
ENDBRANCH   5   6
ENDBRANCH   1   5
BRANCH   1   8
ATOM      8  O   UNL     1      37.350   5.749  23.173  1.00  0.00    -0.388 OA
ATOM      9  H   UNL     1      37.523   5.085  22.454  1.00  0.00     0.211 HD
ENDBRANCH   1   8
TORSDOF 5
ENDMDL
MODEL 5
REMARK VINA RESULT:    -2.804      0.704      2.569
REMARK INTER + INTRA:          -3.599
REMARK INTER:                  -3.379
REMARK INTRA:                  -0.221
REMARK UNBOUND:                -0.222
REMARK SMILES OCC(O)CO
REMARK SMILES IDX 3 1 5 2 6 3 2 5 1 6 4 8
REMARK H PARENT 6 4 1 7 4 9
REMARK Flexibility Score: inf
ROOT
ATOM      1  C   UNL     1      40.758   0.961  38.493  1.00  0.00     0.165 C 
ENDROOT
BRANCH   1   2
ATOM      2  C   UNL     1      40.390   2.184  39.350  1.00  0.00     0.190 C 
BRANCH   2   3
ATOM      3  O   UNL     1      41.540   2.886  39.741  1.00  0.00    -0.394 OA
ATOM      4  H   UNL     1      41.912   3.302  38.921  1.00  0.00     0.210 HD
ENDBRANCH   2   3
ENDBRANCH   1   2
BRANCH   1   5
ATOM      5  C   UNL     1      42.171   1.094  37.917  1.00  0.00     0.190 C 
BRANCH   5   6
ATOM      6  O   UNL     1      43.094   0.506  38.793  1.00  0.00    -0.394 OA
ATOM      7  H   UNL     1      43.479  -0.269  38.306  1.00  0.00     0.210 HD
ENDBRANCH   5   6
ENDBRANCH   1   5
BRANCH   1   8
ATOM      8  O   UNL     1      40.691  -0.200  39.279  1.00  0.00    -0.388 OA
ATOM      9  H   UNL     1      41.490  -0.193  39.870  1.00  0.00     0.211 HD
ENDBRANCH   1   8
TORSDOF 5
ENDMDL
MODEL 6
REMARK VINA RESULT:    -2.768     16.223     16.337
REMARK INTER + INTRA:          -3.556
REMARK INTER:                  -3.337
REMARK INTRA:                  -0.218
REMARK UNBOUND:                -0.222
REMARK SMILES OCC(O)CO
REMARK SMILES IDX 3 1 5 2 6 3 2 5 1 6 4 8
REMARK H PARENT 6 4 1 7 4 9
REMARK Flexibility Score: inf
ROOT
ATOM      1  C   UNL     1      35.734   4.871  23.813  1.00  0.00     0.165 C 
ENDROOT
BRANCH   1   2
ATOM      2  C   UNL     1      36.536   6.104  24.262  1.00  0.00     0.190 C 
BRANCH   2   3
ATOM      3  O   UNL     1      37.550   6.406  23.342  1.00  0.00    -0.394 OA
ATOM      4  H   UNL     1      37.530   7.390  23.209  1.00  0.00     0.210 HD
ENDBRANCH   2   3
ENDBRANCH   1   2
BRANCH   1   5
ATOM      5  C   UNL     1      36.572   3.594  23.930  1.00  0.00     0.190 C 
BRANCH   5   6
ATOM      6  O   UNL     1      37.368   3.447  22.786  1.00  0.00    -0.394 OA
ATOM      7  H   UNL     1      36.809   3.744  22.021  1.00  0.00     0.210 HD
ENDBRANCH   5   6
ENDBRANCH   1   5
BRANCH   1   8
ATOM      8  O   UNL     1      34.587   4.740  24.612  1.00  0.00    -0.388 OA
ATOM      9  H   UNL     1      33.888   5.320  24.208  1.00  0.00     0.211 HD
ENDBRANCH   1   8
TORSDOF 5
ENDMDL
MODEL 7
REMARK VINA RESULT:    -2.750     16.304     16.450
REMARK INTER + INTRA:          -3.534
REMARK INTER:                  -3.321
REMARK INTRA:                  -0.213
REMARK UNBOUND:                -0.222
REMARK SMILES OCC(O)CO
REMARK SMILES IDX 3 1 5 2 6 3 2 5 1 6 4 8
REMARK H PARENT 6 4 1 7 4 9
REMARK Flexibility Score: inf
ROOT
ATOM      1  C   UNL     1      35.833   4.405  24.152  1.00  0.00     0.165 C 
ENDROOT
BRANCH   1   2
ATOM      2  C   UNL     1      36.759   5.615  23.948  1.00  0.00     0.190 C 
BRANCH   2   3
ATOM      3  O   UNL     1      36.021   6.805  23.873  1.00  0.00    -0.394 OA
ATOM      4  H   UNL     1      35.335   6.760  24.588  1.00  0.00     0.210 HD
ENDBRANCH   2   3
ENDBRANCH   1   2
BRANCH   1   5
ATOM      5  C   UNL     1      34.374   4.770  23.864  1.00  0.00     0.190 C 
BRANCH   5   6
ATOM      6  O   UNL     1      33.742   5.161  25.053  1.00  0.00    -0.394 OA
ATOM      7  H   UNL     1      32.832   4.766  25.023  1.00  0.00     0.210 HD
ENDBRANCH   5   6
ENDBRANCH   1   5
BRANCH   1   8
ATOM      8  O   UNL     1      36.223   3.365  23.294  1.00  0.00    -0.388 OA
ATOM      9  H   UNL     1      35.568   2.628  23.420  1.00  0.00     0.211 HD
ENDBRANCH   1   8
TORSDOF 5
ENDMDL
MODEL 8
REMARK VINA RESULT:    -2.738     15.732     15.912
REMARK INTER + INTRA:          -3.520
REMARK INTER:                  -3.320
REMARK INTRA:                  -0.200
REMARK UNBOUND:                -0.222
REMARK SMILES OCC(O)CO
REMARK SMILES IDX 3 1 5 2 6 3 2 5 1 6 4 8
REMARK H PARENT 6 4 1 7 4 9
REMARK Flexibility Score: inf
ROOT
ATOM      1  C   UNL     1      36.512   4.024  23.713  1.00  0.00     0.165 C 
ENDROOT
BRANCH   1   2
ATOM      2  C   UNL     1      36.886   3.499  25.109  1.00  0.00     0.190 C 
BRANCH   2   3
ATOM      3  O   UNL     1      36.387   4.342  26.113  1.00  0.00    -0.394 OA
ATOM      4  H   UNL     1      35.411   4.429  25.953  1.00  0.00     0.210 HD
ENDBRANCH   2   3
ENDBRANCH   1   2
BRANCH   1   5
ATOM      5  C   UNL     1      37.001   5.463  23.514  1.00  0.00     0.190 C 
BRANCH   5   6
ATOM      6  O   UNL     1      35.958   6.357  23.790  1.00  0.00    -0.394 OA
ATOM      7  H   UNL     1      35.739   6.236  24.751  1.00  0.00     0.210 HD
ENDBRANCH   5   6
ENDBRANCH   1   5
BRANCH   1   8
ATOM      8  O   UNL     1      37.092   3.204  22.732  1.00  0.00    -0.388 OA
ATOM      9  H   UNL     1      36.685   2.303  22.835  1.00  0.00     0.211 HD
ENDBRANCH   1   8
TORSDOF 5
ENDMDL
MODEL 9
REMARK VINA RESULT:    -2.683     10.456     11.108
REMARK INTER + INTRA:          -3.453
REMARK INTER:                  -3.451
REMARK INTRA:                  -0.003
REMARK UNBOUND:                -0.222
REMARK SMILES OCC(O)CO
REMARK SMILES IDX 3 1 5 2 6 3 2 5 1 6 4 8
REMARK H PARENT 6 4 1 7 4 9
REMARK Flexibility Score: inf
ROOT
ATOM      1  C   UNL     1      32.216  -3.582  36.051  1.00  0.00     0.165 C 
ENDROOT
BRANCH   1   2
ATOM      2  C   UNL     1      32.415  -2.629  34.862  1.00  0.00     0.190 C 
BRANCH   2   3
ATOM      3  O   UNL     1      31.239  -2.514  34.107  1.00  0.00    -0.394 OA
ATOM      4  H   UNL     1      31.515  -2.292  33.180  1.00  0.00     0.210 HD
ENDBRANCH   2   3
ENDBRANCH   1   2
BRANCH   1   5
ATOM      5  C   UNL     1      32.488  -2.872  37.381  1.00  0.00     0.190 C 
BRANCH   5   6
ATOM      6  O   UNL     1      31.670  -3.415  38.381  1.00  0.00    -0.394 OA
ATOM      7  H   UNL     1      30.773  -3.528  37.971  1.00  0.00     0.210 HD
ENDBRANCH   5   6
ENDBRANCH   1   5
BRANCH   1   8
ATOM      8  O   UNL     1      30.897  -4.063  36.051  1.00  0.00    -0.388 OA
ATOM      9  H   UNL     1      30.917  -4.955  36.489  1.00  0.00     0.211 HD
ENDBRANCH   1   8
TORSDOF 5
ENDMDL
