MODEL 1
REMARK VINA RESULT:    -2.171      0.000      0.000
REMARK INTER + INTRA:          -2.171
REMARK INTER:                  -2.171
REMARK INTRA:                   0.000
REMARK UNBOUND:                 0.000
REMARK SMILES CC(=O)[O-]
REMARK SMILES IDX 1 1 2 2 3 3 4 4
REMARK H PARENT
REMARK Flexibility Score: inf
ROOT
ATOM      1  C   UNL     1     -11.538  -4.951 -16.101  1.00  0.00     0.063 C 
ATOM      2  C   UNL     1     -12.573  -4.336 -15.221  1.00  0.00     0.038 C 
ATOM      3  O   UNL     1     -13.468  -3.603 -15.716  1.00  0.00    -0.550 OA
ATOM      4  O   UNL     1     -12.585  -4.616 -13.860  1.00  0.00    -0.550 OA
ENDROOT
TORSDOF 0
ENDMDL
MODEL 2
REMARK VINA RESULT:    -2.153      1.356      2.288
REMARK INTER + INTRA:          -2.153
REMARK INTER:                  -2.153
REMARK INTRA:                   0.000
REMARK UNBOUND:                 0.000
REMARK SMILES CC(=O)[O-]
REMARK SMILES IDX 1 1 2 2 3 3 4 4
REMARK H PARENT
REMARK Flexibility Score: inf
ROOT
ATOM      1  C   UNL     1     -13.790  -3.875 -15.028  1.00  0.00     0.063 C 
ATOM      2  C   UNL     1     -12.484  -4.594 -14.998  1.00  0.00     0.038 C 
ATOM      3  O   UNL     1     -12.053  -5.075 -13.918  1.00  0.00    -0.550 OA
ATOM      4  O   UNL     1     -11.766  -4.783 -16.172  1.00  0.00    -0.550 OA
ENDROOT
TORSDOF 0
ENDMDL
MODEL 3
REMARK VINA RESULT:    -2.103      1.562      1.562
REMARK INTER + INTRA:          -2.103
REMARK INTER:                  -2.103
REMARK INTRA:                   0.000
REMARK UNBOUND:                 0.000
REMARK SMILES CC(=O)[O-]
REMARK SMILES IDX 1 1 2 2 3 3 4 4
REMARK H PARENT
REMARK Flexibility Score: inf
ROOT
ATOM      1  C   UNL     1     -11.483  -5.757 -14.265  1.00  0.00     0.063 C 
ATOM      2  C   UNL     1     -12.151  -4.609 -14.944  1.00  0.00     0.038 C 
ATOM      3  O   UNL     1     -11.530  -3.941 -15.811  1.00  0.00    -0.550 OA
ATOM      4  O   UNL     1     -13.477  -4.310 -14.662  1.00  0.00    -0.550 OA
ENDROOT
TORSDOF 0
ENDMDL
MODEL 4
REMARK VINA RESULT:    -2.069     10.512     10.671
REMARK INTER + INTRA:          -2.069
REMARK INTER:                  -2.069
REMARK INTRA:                   0.000
REMARK UNBOUND:                 0.000
REMARK SMILES CC(=O)[O-]
REMARK SMILES IDX 1 1 2 2 3 3 4 4
REMARK H PARENT
REMARK Flexibility Score: inf
ROOT
ATOM      1  C   UNL     1      -5.634   2.101 -10.895  1.00  0.00     0.063 C 
ATOM      2  C   UNL     1      -6.719   2.801 -10.148  1.00  0.00     0.038 C 
ATOM      3  O   UNL     1      -6.933   2.524  -8.940  1.00  0.00    -0.550 OA
ATOM      4  O   UNL     1      -7.459   3.800 -10.769  1.00  0.00    -0.550 OA
ENDROOT
TORSDOF 0
ENDMDL
MODEL 5
REMARK VINA RESULT:    -2.062     10.671     10.912
REMARK INTER + INTRA:          -2.062
REMARK INTER:                  -2.062
REMARK INTRA:                   0.000
REMARK UNBOUND:                 0.000
REMARK SMILES CC(=O)[O-]
REMARK SMILES IDX 1 1 2 2 3 3 4 4
REMARK H PARENT
REMARK Flexibility Score: inf
ROOT
ATOM      1  C   UNL     1      -3.553  -1.566 -17.349  1.00  0.00     0.063 C 
ATOM      2  C   UNL     1      -2.679  -1.647 -18.554  1.00  0.00     0.038 C 
ATOM      3  O   UNL     1      -3.153  -2.033 -19.654  1.00  0.00    -0.550 OA
ATOM      4  O   UNL     1      -1.351  -1.243 -18.480  1.00  0.00    -0.550 OA
ENDROOT
TORSDOF 0
ENDMDL
MODEL 6
REMARK VINA RESULT:    -2.022      1.501      2.055
REMARK INTER + INTRA:          -2.022
REMARK INTER:                  -2.022
REMARK INTRA:                   0.000
REMARK UNBOUND:                 0.000
REMARK SMILES CC(=O)[O-]
REMARK SMILES IDX 1 1 2 2 3 3 4 4
REMARK H PARENT
REMARK Flexibility Score: inf
ROOT
ATOM      1  C   UNL     1     -10.398  -3.766 -16.173  1.00  0.00     0.063 C 
ATOM      2  C   UNL     1     -11.569  -4.598 -15.773  1.00  0.00     0.038 C 
ATOM      3  O   UNL     1     -11.413  -5.815 -15.493  1.00  0.00    -0.550 OA
ATOM      4  O   UNL     1     -12.826  -4.019 -15.653  1.00  0.00    -0.550 OA
ENDROOT
TORSDOF 0
ENDMDL
MODEL 7
REMARK VINA RESULT:    -2.015     10.472     10.480
REMARK INTER + INTRA:          -2.015
REMARK INTER:                  -2.015
REMARK INTRA:                   0.000
REMARK UNBOUND:                 0.000
REMARK SMILES CC(=O)[O-]
REMARK SMILES IDX 1 1 2 2 3 3 4 4
REMARK H PARENT
REMARK Flexibility Score: inf
ROOT
ATOM      1  C   UNL     1      -5.539   2.114 -10.956  1.00  0.00     0.063 C 
ATOM      2  C   UNL     1      -6.688   2.802 -10.299  1.00  0.00     0.038 C 
ATOM      3  O   UNL     1      -7.362   3.653 -10.935  1.00  0.00    -0.550 OA
ATOM      4  O   UNL     1      -7.051   2.465  -9.001  1.00  0.00    -0.550 OA
ENDROOT
TORSDOF 0
ENDMDL
MODEL 8
REMARK VINA RESULT:    -1.991     10.629     11.029
REMARK INTER + INTRA:          -1.991
REMARK INTER:                  -1.991
REMARK INTRA:                   0.000
REMARK UNBOUND:                 0.000
REMARK SMILES CC(=O)[O-]
REMARK SMILES IDX 1 1 2 2 3 3 4 4
REMARK H PARENT
REMARK Flexibility Score: inf
ROOT
ATOM      1  C   UNL     1      -7.211   0.637  -8.785  1.00  0.00     0.063 C 
ATOM      2  C   UNL     1      -6.508   1.952  -8.728  1.00  0.00     0.038 C 
ATOM      3  O   UNL     1      -5.625   2.158  -7.856  1.00  0.00    -0.550 OA
ATOM      4  O   UNL     1      -6.787   2.931  -9.672  1.00  0.00    -0.550 OA
ENDROOT
TORSDOF 0
ENDMDL
MODEL 9
REMARK VINA RESULT:    -1.947      2.449      2.910
REMARK INTER + INTRA:          -1.947
REMARK INTER:                  -1.947
REMARK INTRA:                   0.000
REMARK UNBOUND:                 0.000
REMARK SMILES CC(=O)[O-]
REMARK SMILES IDX 1 1 2 2 3 3 4 4
REMARK H PARENT
REMARK Flexibility Score: inf
ROOT
ATOM      1  C   UNL     1     -10.017  -3.544 -16.454  1.00  0.00     0.063 C 
ATOM      2  C   UNL     1     -10.082  -3.951 -15.021  1.00  0.00     0.038 C 
ATOM      3  O   UNL     1      -9.199  -3.561 -14.214  1.00  0.00    -0.550 OA
ATOM      4  O   UNL     1     -11.147  -4.715 -14.562  1.00  0.00    -0.550 OA
ENDROOT
TORSDOF 0
ENDMDL
