MODEL 1
REMARK VINA RESULT:    -4.393      0.000      0.000
REMARK INTER + INTRA:         -10.417
REMARK INTER:                  -8.246
REMARK INTRA:                  -2.171
REMARK UNBOUND:                -2.171
REMARK SMILES O=C([O-])CCCCCCCCCCCCCCC(=O)[O-]
REMARK SMILES IDX 10 1 9 2 8 3 7 4 6 5 5 6 4 7 2 8 1 9 3 10 11 11 12 12 13 13
REMARK SMILES IDX 14 14 15 15 16 16 17 17 18 18 19 19 20 20
REMARK H PARENT
REMARK Flexibility Score: inf
ROOT
ATOM      1  C   UNL     1     -35.767  22.367 -28.166  1.00  0.00     0.000 C 
ENDROOT
BRANCH   1   2
ATOM      2  C   UNL     1     -35.723  22.824 -29.629  1.00  0.00     0.000 C 
BRANCH   2   3
ATOM      3  C   UNL     1     -35.245  21.688 -30.546  1.00  0.00     0.000 C 
BRANCH   3   4
ATOM      4  C   UNL     1     -36.203  21.422 -31.720  1.00  0.00     0.000 C 
BRANCH   4   5
ATOM      5  C   UNL     1     -37.249  20.316 -31.477  1.00  0.00     0.000 C 
BRANCH   5   6
ATOM      6  C   UNL     1     -38.665  20.813 -31.126  1.00  0.00     0.006 C 
BRANCH   6   7
ATOM      7  C   UNL     1     -38.955  20.858 -29.614  1.00  0.00     0.053 C 
BRANCH   7   8
ATOM      8  C   UNL     1     -39.721  22.082 -29.210  1.00  0.00     0.041 C 
ATOM      9  O   UNL     1     -39.234  22.887 -28.373  1.00  0.00    -0.550 OA
ATOM     10  O   UNL     1     -40.956  22.351 -29.784  1.00  0.00    -0.550 OA
ENDBRANCH   7   8
ENDBRANCH   6   7
ENDBRANCH   5   6
ENDBRANCH   4   5
ENDBRANCH   3   4
ENDBRANCH   2   3
ENDBRANCH   1   2
BRANCH   1  11
ATOM     11  C   UNL     1     -34.357  22.291 -27.569  1.00  0.00     0.000 C 
BRANCH  11  12
ATOM     12  C   UNL     1     -34.255  21.162 -26.537  1.00  0.00     0.000 C 
BRANCH  12  13
ATOM     13  C   UNL     1     -34.479  19.792 -27.198  1.00  0.00     0.000 C 
BRANCH  13  14
ATOM     14  C   UNL     1     -35.704  19.055 -26.634  1.00  0.00     0.000 C 
BRANCH  14  15
ATOM     15  C   UNL     1     -36.481  18.287 -27.719  1.00  0.00     0.000 C 
BRANCH  15  16
ATOM     16  C   UNL     1     -35.822  18.388 -29.107  1.00  0.00     0.006 C 
BRANCH  16  17
ATOM     17  C   UNL     1     -35.844  17.082 -29.918  1.00  0.00     0.053 C 
BRANCH  17  18
ATOM     18  C   UNL     1     -37.184  16.413 -29.870  1.00  0.00     0.041 C 
ATOM     19  O   UNL     1     -37.307  15.278 -29.338  1.00  0.00    -0.550 OA
ATOM     20  O   UNL     1     -38.290  17.030 -30.441  1.00  0.00    -0.550 OA
ENDBRANCH  17  18
ENDBRANCH  16  17
ENDBRANCH  15  16
ENDBRANCH  14  15
ENDBRANCH  13  14
ENDBRANCH  12  13
ENDBRANCH  11  12
ENDBRANCH   1  11
TORSDOF 15
ENDMDL
MODEL 2
REMARK VINA RESULT:    -4.383      2.068      5.794
REMARK INTER + INTRA:         -10.397
REMARK INTER:                  -7.791
REMARK INTRA:                  -2.606
REMARK UNBOUND:                -2.171
REMARK SMILES O=C([O-])CCCCCCCCCCCCCCC(=O)[O-]
REMARK SMILES IDX 10 1 9 2 8 3 7 4 6 5 5 6 4 7 2 8 1 9 3 10 11 11 12 12 13 13
REMARK SMILES IDX 14 14 15 15 16 16 17 17 18 18 19 19 20 20
REMARK H PARENT
REMARK Flexibility Score: inf
ROOT
ATOM      1  C   UNL     1     -39.213  19.776 -28.908  1.00  0.00     0.000 C 
ENDROOT
BRANCH   1   2
ATOM      2  C   UNL     1     -38.300  19.128 -27.861  1.00  0.00     0.000 C 
BRANCH   2   3
ATOM      3  C   UNL     1     -36.875  19.696 -27.945  1.00  0.00     0.000 C 
BRANCH   3   4
ATOM      4  C   UNL     1     -35.797  18.672 -27.549  1.00  0.00     0.000 C 
BRANCH   4   5
ATOM      5  C   UNL     1     -34.689  18.447 -28.596  1.00  0.00     0.000 C 
BRANCH   5   6
ATOM      6  C   UNL     1     -35.182  18.127 -30.021  1.00  0.00     0.006 C 
BRANCH   6   7
ATOM      7  C   UNL     1     -35.539  16.645 -30.240  1.00  0.00     0.053 C 
BRANCH   7   8
ATOM      8  C   UNL     1     -36.979  16.348 -29.943  1.00  0.00     0.041 C 
ATOM      9  O   UNL     1     -37.284  15.474 -29.089  1.00  0.00    -0.550 OA
ATOM     10  O   UNL     1     -37.983  17.063 -30.583  1.00  0.00    -0.550 OA
ENDBRANCH   7   8
ENDBRANCH   6   7
ENDBRANCH   5   6
ENDBRANCH   4   5
ENDBRANCH   3   4
ENDBRANCH   2   3
ENDBRANCH   1   2
BRANCH   1  11
ATOM     11  C   UNL     1     -38.502  20.935 -29.617  1.00  0.00     0.000 C 
BRANCH  11  12
ATOM     12  C   UNL     1     -38.420  20.689 -31.129  1.00  0.00     0.000 C 
BRANCH  12  13
ATOM     13  C   UNL     1     -36.989  20.912 -31.644  1.00  0.00     0.000 C 
BRANCH  13  14
ATOM     14  C   UNL     1     -36.205  21.927 -30.796  1.00  0.00     0.000 C 
BRANCH  14  15
ATOM     15  C   UNL     1     -34.692  21.644 -30.788  1.00  0.00     0.000 C 
BRANCH  15  16
ATOM     16  C   UNL     1     -34.028  21.998 -29.444  1.00  0.00     0.006 C 
BRANCH  16  17
ATOM     17  C   UNL     1     -34.936  22.766 -28.469  1.00  0.00     0.053 C 
BRANCH  17  18
ATOM     18  C   UNL     1     -34.420  22.716 -27.063  1.00  0.00     0.041 C 
ATOM     19  O   UNL     1     -34.210  21.607 -26.505  1.00  0.00    -0.550 OA
ATOM     20  O   UNL     1     -34.203  23.893 -26.359  1.00  0.00    -0.550 OA
ENDBRANCH  17  18
ENDBRANCH  16  17
ENDBRANCH  15  16
ENDBRANCH  14  15
ENDBRANCH  13  14
ENDBRANCH  12  13
ENDBRANCH  11  12
ENDBRANCH   1  11
TORSDOF 15
ENDMDL
MODEL 3
REMARK VINA RESULT:    -4.376      1.691      5.667
REMARK INTER + INTRA:         -10.385
REMARK INTER:                  -8.272
REMARK INTRA:                  -2.113
REMARK UNBOUND:                -2.171
REMARK SMILES O=C([O-])CCCCCCCCCCCCCCC(=O)[O-]
REMARK SMILES IDX 10 1 9 2 8 3 7 4 6 5 5 6 4 7 2 8 1 9 3 10 11 11 12 12 13 13
REMARK SMILES IDX 14 14 15 15 16 16 17 17 18 18 19 19 20 20
REMARK H PARENT
REMARK Flexibility Score: inf
ROOT
ATOM      1  C   UNL     1     -34.559  20.310 -30.265  1.00  0.00     0.000 C 
ENDROOT
BRANCH   1   2
ATOM      2  C   UNL     1     -34.099  18.847 -30.250  1.00  0.00     0.000 C 
BRANCH   2   3
ATOM      3  C   UNL     1     -34.314  18.216 -28.866  1.00  0.00     0.000 C 
BRANCH   3   4
ATOM      4  C   UNL     1     -34.755  19.238 -27.804  1.00  0.00     0.000 C 
BRANCH   4   5
ATOM      5  C   UNL     1     -36.102  18.934 -27.119  1.00  0.00     0.000 C 
BRANCH   5   6
ATOM      6  C   UNL     1     -36.963  17.856 -27.805  1.00  0.00     0.006 C 
BRANCH   6   7
ATOM      7  C   UNL     1     -37.817  18.386 -28.972  1.00  0.00     0.053 C 
BRANCH   7   8
ATOM      8  C   UNL     1     -37.884  17.425 -30.121  1.00  0.00     0.041 C 
ATOM      9  O   UNL     1     -37.050  16.486 -30.211  1.00  0.00    -0.550 OA
ATOM     10  O   UNL     1     -38.889  17.545 -31.071  1.00  0.00    -0.550 OA
ENDBRANCH   7   8
ENDBRANCH   6   7
ENDBRANCH   5   6
ENDBRANCH   4   5
ENDBRANCH   3   4
ENDBRANCH   2   3
ENDBRANCH   1   2
BRANCH   1  11
ATOM     11  C   UNL     1     -35.829  20.480 -31.106  1.00  0.00     0.000 C 
BRANCH  11  12
ATOM     12  C   UNL     1     -36.552  21.786 -30.755  1.00  0.00     0.000 C 
BRANCH  12  13
ATOM     13  C   UNL     1     -36.099  22.313 -29.384  1.00  0.00     0.000 C 
BRANCH  13  14
ATOM     14  C   UNL     1     -37.274  22.551 -28.422  1.00  0.00     0.000 C 
BRANCH  14  15
ATOM     15  C   UNL     1     -38.577  21.893 -28.909  1.00  0.00     0.000 C 
BRANCH  15  16
ATOM     16  C   UNL     1     -39.796  22.827 -28.791  1.00  0.00     0.006 C 
BRANCH  16  17
ATOM     17  C   UNL     1     -40.892  22.579 -29.840  1.00  0.00     0.053 C 
BRANCH  17  18
ATOM     18  C   UNL     1     -42.187  23.233 -29.466  1.00  0.00     0.041 C 
ATOM     19  O   UNL     1     -43.281  22.676 -29.745  1.00  0.00    -0.550 OA
ATOM     20  O   UNL     1     -42.185  24.472 -28.838  1.00  0.00    -0.550 OA
ENDBRANCH  17  18
ENDBRANCH  16  17
ENDBRANCH  15  16
ENDBRANCH  14  15
ENDBRANCH  13  14
ENDBRANCH  12  13
ENDBRANCH  11  12
ENDBRANCH   1  11
TORSDOF 15
ENDMDL
MODEL 4
REMARK VINA RESULT:    -4.339      1.136      5.387
REMARK INTER + INTRA:         -10.314
REMARK INTER:                  -7.970
REMARK INTRA:                  -2.344
REMARK UNBOUND:                -2.171
REMARK SMILES O=C([O-])CCCCCCCCCCCCCCC(=O)[O-]
REMARK SMILES IDX 10 1 9 2 8 3 7 4 6 5 5 6 4 7 2 8 1 9 3 10 11 11 12 12 13 13
REMARK SMILES IDX 14 14 15 15 16 16 17 17 18 18 19 19 20 20
REMARK H PARENT
REMARK Flexibility Score: inf
ROOT
ATOM      1  C   UNL     1     -36.280  22.396 -29.217  1.00  0.00     0.000 C 
ENDROOT
BRANCH   1   2
ATOM      2  C   UNL     1     -35.407  22.955 -28.088  1.00  0.00     0.000 C 
BRANCH   2   3
ATOM      3  C   UNL     1     -34.384  21.910 -27.615  1.00  0.00     0.000 C 
BRANCH   3   4
ATOM      4  C   UNL     1     -35.008  20.524 -27.378  1.00  0.00     0.000 C 
BRANCH   4   5
ATOM      5  C   UNL     1     -34.375  19.372 -28.182  1.00  0.00     0.000 C 
BRANCH   5   6
ATOM      6  C   UNL     1     -35.361  18.305 -28.696  1.00  0.00     0.006 C 
BRANCH   6   7
ATOM      7  C   UNL     1     -34.947  17.663 -30.033  1.00  0.00     0.053 C 
BRANCH   7   8
ATOM      8  C   UNL     1     -35.655  16.368 -30.295  1.00  0.00     0.041 C 
ATOM      9  O   UNL     1     -36.757  16.124 -29.738  1.00  0.00    -0.550 OA
ATOM     10  O   UNL     1     -35.115  15.446 -31.183  1.00  0.00    -0.550 OA
ENDBRANCH   7   8
ENDBRANCH   6   7
ENDBRANCH   5   6
ENDBRANCH   4   5
ENDBRANCH   3   4
ENDBRANCH   2   3
ENDBRANCH   1   2
BRANCH   1  11
ATOM     11  C   UNL     1     -35.472  22.232 -30.509  1.00  0.00     0.000 C 
BRANCH  11  12
ATOM     12  C   UNL     1     -36.007  21.067 -31.350  1.00  0.00     0.000 C 
BRANCH  12  13
ATOM     13  C   UNL     1     -37.513  20.866 -31.115  1.00  0.00     0.000 C 
BRANCH  13  14
ATOM     14  C   UNL     1     -37.942  19.396 -31.241  1.00  0.00     0.000 C 
BRANCH  14  15
ATOM     15  C   UNL     1     -38.762  18.914 -30.031  1.00  0.00     0.000 C 
BRANCH  15  16
ATOM     16  C   UNL     1     -38.804  19.949 -28.891  1.00  0.00     0.006 C 
BRANCH  16  17
ATOM     17  C   UNL     1     -40.183  20.590 -28.664  1.00  0.00     0.053 C 
BRANCH  17  18
ATOM     18  C   UNL     1     -40.223  22.016 -29.122  1.00  0.00     0.041 C 
ATOM     19  O   UNL     1     -40.902  22.338 -30.133  1.00  0.00    -0.550 OA
ATOM     20  O   UNL     1     -39.484  22.982 -28.452  1.00  0.00    -0.550 OA
ENDBRANCH  17  18
ENDBRANCH  16  17
ENDBRANCH  15  16
ENDBRANCH  14  15
ENDBRANCH  13  14
ENDBRANCH  12  13
ENDBRANCH  11  12
ENDBRANCH   1  11
TORSDOF 15
ENDMDL
MODEL 5
REMARK VINA RESULT:    -4.333      0.659      5.135
REMARK INTER + INTRA:         -10.303
REMARK INTER:                  -8.354
REMARK INTRA:                  -1.949
REMARK UNBOUND:                -2.171
REMARK SMILES O=C([O-])CCCCCCCCCCCCCCC(=O)[O-]
REMARK SMILES IDX 10 1 9 2 8 3 7 4 6 5 5 6 4 7 2 8 1 9 3 10 11 11 12 12 13 13
REMARK SMILES IDX 14 14 15 15 16 16 17 17 18 18 19 19 20 20
REMARK H PARENT
REMARK Flexibility Score: inf
ROOT
ATOM      1  C   UNL     1     -35.556  22.401 -28.630  1.00  0.00     0.000 C 
ENDROOT
BRANCH   1   2
ATOM      2  C   UNL     1     -34.689  22.416 -27.365  1.00  0.00     0.000 C 
BRANCH   2   3
ATOM      3  C   UNL     1     -34.304  20.989 -26.945  1.00  0.00     0.000 C 
BRANCH   3   4
ATOM      4  C   UNL     1     -35.099  19.908 -27.697  1.00  0.00     0.000 C 
BRANCH   4   5
ATOM      5  C   UNL     1     -35.937  18.970 -26.806  1.00  0.00     0.000 C 
BRANCH   5   6
ATOM      6  C   UNL     1     -36.882  18.013 -27.558  1.00  0.00     0.006 C 
BRANCH   6   7
ATOM      7  C   UNL     1     -36.424  17.680 -28.991  1.00  0.00     0.053 C 
BRANCH   7   8
ATOM      8  C   UNL     1     -37.292  16.651 -29.650  1.00  0.00     0.041 C 
ATOM      9  O   UNL     1     -37.222  15.444 -29.300  1.00  0.00    -0.550 OA
ATOM     10  O   UNL     1     -38.206  17.032 -30.624  1.00  0.00    -0.550 OA
ENDBRANCH   7   8
ENDBRANCH   6   7
ENDBRANCH   5   6
ENDBRANCH   4   5
ENDBRANCH   3   4
ENDBRANCH   2   3
ENDBRANCH   1   2
BRANCH   1  11
ATOM     11  C   UNL     1     -34.835  23.080 -29.801  1.00  0.00     0.000 C 
BRANCH  11  12
ATOM     12  C   UNL     1     -34.878  22.202 -31.058  1.00  0.00     0.000 C 
BRANCH  12  13
ATOM     13  C   UNL     1     -35.864  21.037 -30.880  1.00  0.00     0.000 C 
BRANCH  13  14
ATOM     14  C   UNL     1     -37.037  21.096 -31.872  1.00  0.00     0.000 C 
BRANCH  14  15
ATOM     15  C   UNL     1     -38.331  20.498 -31.293  1.00  0.00     0.000 C 
BRANCH  15  16
ATOM     16  C   UNL     1     -38.351  20.504 -29.753  1.00  0.00     0.006 C 
BRANCH  16  17
ATOM     17  C   UNL     1     -39.736  20.762 -29.136  1.00  0.00     0.053 C 
BRANCH  17  18
ATOM     18  C   UNL     1     -40.132  22.204 -29.227  1.00  0.00     0.041 C 
ATOM     19  O   UNL     1     -39.530  23.071 -28.541  1.00  0.00    -0.550 OA
ATOM     20  O   UNL     1     -41.188  22.586 -30.045  1.00  0.00    -0.550 OA
ENDBRANCH  17  18
ENDBRANCH  16  17
ENDBRANCH  15  16
ENDBRANCH  14  15
ENDBRANCH  13  14
ENDBRANCH  12  13
ENDBRANCH  11  12
ENDBRANCH   1  11
TORSDOF 15
ENDMDL
MODEL 6
REMARK VINA RESULT:    -4.319      1.432      4.509
REMARK INTER + INTRA:         -10.277
REMARK INTER:                  -8.059
REMARK INTRA:                  -2.218
REMARK UNBOUND:                -2.171
REMARK SMILES O=C([O-])CCCCCCCCCCCCCCC(=O)[O-]
REMARK SMILES IDX 10 1 9 2 8 3 7 4 6 5 5 6 4 7 2 8 1 9 3 10 11 11 12 12 13 13
REMARK SMILES IDX 14 14 15 15 16 16 17 17 18 18 19 19 20 20
REMARK H PARENT
REMARK Flexibility Score: inf
ROOT
ATOM      1  C   UNL     1     -34.952  20.243 -26.598  1.00  0.00     0.000 C 
ENDROOT
BRANCH   1   2
ATOM      2  C   UNL     1     -35.422  18.988 -27.343  1.00  0.00     0.000 C 
BRANCH   2   3
ATOM      3  C   UNL     1     -34.415  18.583 -28.430  1.00  0.00     0.000 C 
BRANCH   3   4
ATOM      4  C   UNL     1     -35.068  18.392 -29.810  1.00  0.00     0.000 C 
BRANCH   4   5
ATOM      5  C   UNL     1     -35.488  16.947 -30.144  1.00  0.00     0.000 C 
BRANCH   5   6
ATOM      6  C   UNL     1     -36.844  16.503 -29.563  1.00  0.00     0.006 C 
BRANCH   6   7
ATOM      7  C   UNL     1     -37.894  17.627 -29.496  1.00  0.00     0.053 C 
BRANCH   7   8
ATOM      8  C   UNL     1     -38.590  17.846 -30.805  1.00  0.00     0.041 C 
ATOM      9  O   UNL     1     -38.461  18.938 -31.418  1.00  0.00    -0.550 OA
ATOM     10  O   UNL     1     -39.352  16.829 -31.367  1.00  0.00    -0.550 OA
ENDBRANCH   7   8
ENDBRANCH   6   7
ENDBRANCH   5   6
ENDBRANCH   4   5
ENDBRANCH   3   4
ENDBRANCH   2   3
ENDBRANCH   1   2
BRANCH   1  11
ATOM     11  C   UNL     1     -33.875  20.987 -27.397  1.00  0.00     0.000 C 
BRANCH  11  12
ATOM     12  C   UNL     1     -34.293  22.438 -27.667  1.00  0.00     0.000 C 
BRANCH  12  13
ATOM     13  C   UNL     1     -34.047  22.815 -29.137  1.00  0.00     0.000 C 
BRANCH  13  14
ATOM     14  C   UNL     1     -34.797  21.899 -30.117  1.00  0.00     0.000 C 
BRANCH  14  15
ATOM     15  C   UNL     1     -36.274  22.299 -30.286  1.00  0.00     0.000 C 
BRANCH  15  16
ATOM     16  C   UNL     1     -37.231  21.390 -29.493  1.00  0.00     0.006 C 
BRANCH  16  17
ATOM     17  C   UNL     1     -38.366  22.137 -28.773  1.00  0.00     0.053 C 
BRANCH  17  18
ATOM     18  C   UNL     1     -39.709  21.545 -29.077  1.00  0.00     0.041 C 
ATOM     19  O   UNL     1     -40.561  22.208 -29.726  1.00  0.00    -0.550 OA
ATOM     20  O   UNL     1     -40.030  20.276 -28.615  1.00  0.00    -0.550 OA
ENDBRANCH  17  18
ENDBRANCH  16  17
ENDBRANCH  15  16
ENDBRANCH  14  15
ENDBRANCH  13  14
ENDBRANCH  12  13
ENDBRANCH  11  12
ENDBRANCH   1  11
TORSDOF 15
ENDMDL
MODEL 7
REMARK VINA RESULT:    -4.263     15.771     18.991
REMARK INTER + INTRA:         -10.173
REMARK INTER:                  -7.725
REMARK INTRA:                  -2.447
REMARK UNBOUND:                -2.171
REMARK SMILES O=C([O-])CCCCCCCCCCCCCCC(=O)[O-]
REMARK SMILES IDX 10 1 9 2 8 3 7 4 6 5 5 6 4 7 2 8 1 9 3 10 11 11 12 12 13 13
REMARK SMILES IDX 14 14 15 15 16 16 17 17 18 18 19 19 20 20
REMARK H PARENT
REMARK Flexibility Score: inf
ROOT
ATOM      1  C   UNL     1     -52.497   6.306 -33.439  1.00  0.00     0.000 C 
ENDROOT
BRANCH   1   2
ATOM      2  C   UNL     1     -51.000   6.180 -33.745  1.00  0.00     0.000 C 
BRANCH   2   3
ATOM      3  C   UNL     1     -50.153   6.640 -32.548  1.00  0.00     0.000 C 
BRANCH   3   4
ATOM      4  C   UNL     1     -50.736   6.196 -31.195  1.00  0.00     0.000 C 
BRANCH   4   5
ATOM      5  C   UNL     1     -50.102   6.861 -29.957  1.00  0.00     0.000 C 
BRANCH   5   6
ATOM      6  C   UNL     1     -48.860   6.148 -29.388  1.00  0.00     0.006 C 
BRANCH   6   7
ATOM      7  C   UNL     1     -47.538   6.565 -30.059  1.00  0.00     0.053 C 
BRANCH   7   8
ATOM      8  C   UNL     1     -47.411   8.051 -30.210  1.00  0.00     0.041 C 
ATOM      9  O   UNL     1     -47.374   8.791 -29.191  1.00  0.00    -0.550 OA
ATOM     10  O   UNL     1     -47.297   8.616 -31.473  1.00  0.00    -0.550 OA
ENDBRANCH   7   8
ENDBRANCH   6   7
ENDBRANCH   5   6
ENDBRANCH   4   5
ENDBRANCH   3   4
ENDBRANCH   2   3
ENDBRANCH   1   2
BRANCH   1  11
ATOM     11  C   UNL     1     -53.199   7.191 -34.475  1.00  0.00     0.000 C 
BRANCH  11  12
ATOM     12  C   UNL     1     -53.695   8.496 -33.840  1.00  0.00     0.000 C 
BRANCH  12  13
ATOM     13  C   UNL     1     -53.513   8.468 -32.314  1.00  0.00     0.000 C 
BRANCH  13  14
ATOM     14  C   UNL     1     -52.748   9.692 -31.786  1.00  0.00     0.000 C 
BRANCH  14  15
ATOM     15  C   UNL     1     -51.555  10.073 -32.680  1.00  0.00     0.000 C 
BRANCH  15  16
ATOM     16  C   UNL     1     -50.275  10.361 -31.874  1.00  0.00     0.006 C 
BRANCH  16  17
ATOM     17  C   UNL     1     -50.474  10.379 -30.349  1.00  0.00     0.053 C 
BRANCH  17  18
ATOM     18  C   UNL     1     -50.069  11.690 -29.746  1.00  0.00     0.041 C 
ATOM     19  O   UNL     1     -50.845  12.679 -29.802  1.00  0.00    -0.550 OA
ATOM     20  O   UNL     1     -48.821  11.825 -29.150  1.00  0.00    -0.550 OA
ENDBRANCH  17  18
ENDBRANCH  16  17
ENDBRANCH  15  16
ENDBRANCH  14  15
ENDBRANCH  13  14
ENDBRANCH  12  13
ENDBRANCH  11  12
ENDBRANCH   1  11
TORSDOF 15
ENDMDL
MODEL 8
REMARK VINA RESULT:    -4.147     15.161     16.829
REMARK INTER + INTRA:          -9.954
REMARK INTER:                  -8.009
REMARK INTRA:                  -1.945
REMARK UNBOUND:                -2.171
REMARK SMILES O=C([O-])CCCCCCCCCCCCCCC(=O)[O-]
REMARK SMILES IDX 10 1 9 2 8 3 7 4 6 5 5 6 4 7 2 8 1 9 3 10 11 11 12 12 13 13
REMARK SMILES IDX 14 14 15 15 16 16 17 17 18 18 19 19 20 20
REMARK H PARENT
REMARK Flexibility Score: inf
ROOT
ATOM      1  C   UNL     1     -47.539   9.761 -29.684  1.00  0.00     0.000 C 
ENDROOT
BRANCH   1   2
ATOM      2  C   UNL     1     -48.912  10.212 -29.170  1.00  0.00     0.000 C 
BRANCH   2   3
ATOM      3  C   UNL     1     -48.849  11.644 -28.618  1.00  0.00     0.000 C 
BRANCH   3   4
ATOM      4  C   UNL     1     -49.567  12.665 -29.518  1.00  0.00     0.000 C 
BRANCH   4   5
ATOM      5  C   UNL     1     -50.609  12.070 -30.486  1.00  0.00     0.000 C 
BRANCH   5   6
ATOM      6  C   UNL     1     -51.804  12.985 -30.813  1.00  0.00     0.006 C 
BRANCH   6   7
ATOM      7  C   UNL     1     -51.404  14.416 -31.218  1.00  0.00     0.053 C 
BRANCH   7   8
ATOM      8  C   UNL     1     -52.041  15.461 -30.351  1.00  0.00     0.041 C 
ATOM      9  O   UNL     1     -52.454  16.538 -30.855  1.00  0.00    -0.550 OA
ATOM     10  O   UNL     1     -52.211  15.229 -28.992  1.00  0.00    -0.550 OA
ENDBRANCH   7   8
ENDBRANCH   6   7
ENDBRANCH   5   6
ENDBRANCH   4   5
ENDBRANCH   3   4
ENDBRANCH   2   3
ENDBRANCH   1   2
BRANCH   1  11
ATOM     11  C   UNL     1     -47.405   8.235 -29.633  1.00  0.00     0.000 C 
BRANCH  11  12
ATOM     12  C   UNL     1     -47.787   7.602 -30.976  1.00  0.00     0.000 C 
BRANCH  12  13
ATOM     13  C   UNL     1     -47.445   8.542 -32.143  1.00  0.00     0.000 C 
BRANCH  13  14
ATOM     14  C   UNL     1     -48.550   8.590 -33.210  1.00  0.00     0.000 C 
BRANCH  14  15
ATOM     15  C   UNL     1     -49.649   9.613 -32.876  1.00  0.00     0.000 C 
BRANCH  15  16
ATOM     16  C   UNL     1     -51.039   8.967 -32.725  1.00  0.00     0.006 C 
BRANCH  16  17
ATOM     17  C   UNL     1     -51.392   8.546 -31.289  1.00  0.00     0.053 C 
BRANCH  17  18
ATOM     18  C   UNL     1     -52.753   9.024 -30.882  1.00  0.00     0.041 C 
ATOM     19  O   UNL     1     -52.973   9.370 -29.691  1.00  0.00    -0.550 OA
ATOM     20  O   UNL     1     -53.785   9.057 -31.811  1.00  0.00    -0.550 OA
ENDBRANCH  17  18
ENDBRANCH  16  17
ENDBRANCH  15  16
ENDBRANCH  14  15
ENDBRANCH  13  14
ENDBRANCH  12  13
ENDBRANCH  11  12
ENDBRANCH   1  11
TORSDOF 15
ENDMDL
MODEL 9
REMARK VINA RESULT:    -4.084     15.681     18.516
REMARK INTER + INTRA:          -9.837
REMARK INTER:                  -7.862
REMARK INTRA:                  -1.975
REMARK UNBOUND:                -2.171
REMARK SMILES O=C([O-])CCCCCCCCCCCCCCC(=O)[O-]
REMARK SMILES IDX 10 1 9 2 8 3 7 4 6 5 5 6 4 7 2 8 1 9 3 10 11 11 12 12 13 13
REMARK SMILES IDX 14 14 15 15 16 16 17 17 18 18 19 19 20 20
REMARK H PARENT
REMARK Flexibility Score: inf
ROOT
ATOM      1  C   UNL     1     -52.046   9.279 -31.363  1.00  0.00     0.000 C 
ENDROOT
BRANCH   1   2
ATOM      2  C   UNL     1     -51.414  10.486 -32.067  1.00  0.00     0.000 C 
BRANCH   2   3
ATOM      3  C   UNL     1     -52.258  11.751 -31.854  1.00  0.00     0.000 C 
BRANCH   3   4
ATOM      4  C   UNL     1     -51.608  12.749 -30.880  1.00  0.00     0.000 C 
BRANCH   4   5
ATOM      5  C   UNL     1     -51.026  12.129 -29.596  1.00  0.00     0.000 C 
BRANCH   5   6
ATOM      6  C   UNL     1     -49.497  12.243 -29.442  1.00  0.00     0.006 C 
BRANCH   6   7
ATOM      7  C   UNL     1     -48.883  11.191 -28.500  1.00  0.00     0.053 C 
BRANCH   7   8
ATOM      8  C   UNL     1     -48.452   9.950 -29.223  1.00  0.00     0.041 C 
ATOM      9  O   UNL     1     -49.244   8.977 -29.339  1.00  0.00    -0.550 OA
ATOM     10  O   UNL     1     -47.190   9.882 -29.799  1.00  0.00    -0.550 OA
ENDBRANCH   7   8
ENDBRANCH   6   7
ENDBRANCH   5   6
ENDBRANCH   4   5
ENDBRANCH   3   4
ENDBRANCH   2   3
ENDBRANCH   1   2
BRANCH   1  11
ATOM     11  C   UNL     1     -53.562   9.242 -31.588  1.00  0.00     0.000 C 
BRANCH  11  12
ATOM     12  C   UNL     1     -53.985   7.943 -32.285  1.00  0.00     0.000 C 
BRANCH  12  13
ATOM     13  C   UNL     1     -54.003   8.120 -33.812  1.00  0.00     0.000 C 
BRANCH  13  14
ATOM     14  C   UNL     1     -52.931   7.277 -34.520  1.00  0.00     0.000 C 
BRANCH  14  15
ATOM     15  C   UNL     1     -52.227   6.296 -33.566  1.00  0.00     0.000 C 
BRANCH  15  16
ATOM     16  C   UNL     1     -50.692   6.357 -33.675  1.00  0.00     0.006 C 
BRANCH  16  17
ATOM     17  C   UNL     1     -49.965   6.522 -32.330  1.00  0.00     0.053 C 
BRANCH  17  18
ATOM     18  C   UNL     1     -48.773   7.423 -32.443  1.00  0.00     0.041 C 
ATOM     19  O   UNL     1     -48.797   8.412 -33.222  1.00  0.00    -0.550 OA
ATOM     20  O   UNL     1     -47.624   7.151 -31.711  1.00  0.00    -0.550 OA
ENDBRANCH  17  18
ENDBRANCH  16  17
ENDBRANCH  15  16
ENDBRANCH  14  15
ENDBRANCH  13  14
ENDBRANCH  12  13
ENDBRANCH  11  12
ENDBRANCH   1  11
TORSDOF 15
ENDMDL
