MODEL 1
REMARK VINA RESULT:    -3.730      0.000      0.000
REMARK INTER + INTRA:          -4.807
REMARK INTER:                  -4.602
REMARK INTRA:                  -0.205
REMARK UNBOUND:                -0.205
REMARK SMILES CCCCCC(=O)[O-]
REMARK SMILES IDX 4 1 5 2 6 3 7 4 8 5 3 6 2 7 1 8
REMARK H PARENT
REMARK Flexibility Score: inf
ROOT
ATOM      1  C   UNL     1      50.255  57.894  92.955  1.00  0.00     0.006 C 
ENDROOT
BRANCH   1   2
ATOM      2  C   UNL     1      51.531  57.155  92.531  1.00  0.00     0.053 C 
BRANCH   2   3
ATOM      3  C   UNL     1      52.738  58.038  92.619  1.00  0.00     0.041 C 
ATOM      4  O   UNL     1      53.067  58.763  91.644  1.00  0.00    -0.550 OA
ATOM      5  O   UNL     1      53.519  58.035  93.769  1.00  0.00    -0.550 OA
ENDBRANCH   2   3
ENDBRANCH   1   2
BRANCH   1   6
ATOM      6  C   UNL     1      50.143  58.032  94.480  1.00  0.00     0.000 C 
BRANCH   6   7
ATOM      7  C   UNL     1      49.759  59.463  94.875  1.00  0.00    -0.003 C 
ATOM      8  C   UNL     1      50.192  60.465  93.808  1.00  0.00     0.004 C 
ENDBRANCH   6   7
ENDBRANCH   1   6
TORSDOF 4
ENDMDL
MODEL 2
REMARK VINA RESULT:    -3.657      2.188      3.657
REMARK INTER + INTRA:          -4.718
REMARK INTER:                  -4.472
REMARK INTRA:                  -0.246
REMARK UNBOUND:                -0.205
REMARK SMILES CCCCCC(=O)[O-]
REMARK SMILES IDX 4 1 5 2 6 3 7 4 8 5 3 6 2 7 1 8
REMARK H PARENT
REMARK Flexibility Score: inf
ROOT
ATOM      1  C   UNL     1      50.530  58.347  94.365  1.00  0.00     0.006 C 
ENDROOT
BRANCH   1   2
ATOM      2  C   UNL     1      49.752  59.627  94.693  1.00  0.00     0.053 C 
BRANCH   2   3
ATOM      3  C   UNL     1      50.012  60.707  93.688  1.00  0.00     0.041 C 
ATOM      4  O   UNL     1      51.181  61.140  93.510  1.00  0.00    -0.550 OA
ATOM      5  O   UNL     1      48.958  61.259  92.971  1.00  0.00    -0.550 OA
ENDBRANCH   2   3
ENDBRANCH   1   2
BRANCH   1   6
ATOM      6  C   UNL     1      50.152  57.771  92.993  1.00  0.00     0.000 C 
BRANCH   6   7
ATOM      7  C   UNL     1      51.364  57.117  92.320  1.00  0.00    -0.003 C 
ATOM      8  C   UNL     1      52.530  58.094  92.211  1.00  0.00     0.004 C 
ENDBRANCH   6   7
ENDBRANCH   1   6
TORSDOF 4
ENDMDL
MODEL 3
REMARK VINA RESULT:    -3.656      1.576      2.104
REMARK INTER + INTRA:          -4.716
REMARK INTER:                  -4.615
REMARK INTRA:                  -0.101
REMARK UNBOUND:                -0.205
REMARK SMILES CCCCCC(=O)[O-]
REMARK SMILES IDX 4 1 5 2 6 3 7 4 8 5 3 6 2 7 1 8
REMARK H PARENT
REMARK Flexibility Score: inf
ROOT
ATOM      1  C   UNL     1      50.687  58.771  93.749  1.00  0.00     0.006 C 
ENDROOT
BRANCH   1   2
ATOM      2  C   UNL     1      50.160  57.546  92.990  1.00  0.00     0.053 C 
BRANCH   2   3
ATOM      3  C   UNL     1      51.274  56.737  92.402  1.00  0.00     0.041 C 
ATOM      4  O   UNL     1      51.949  55.962  93.130  1.00  0.00    -0.550 OA
ATOM      5  O   UNL     1      51.588  56.862  91.054  1.00  0.00    -0.550 OA
ENDBRANCH   2   3
ENDBRANCH   1   2
BRANCH   1   6
ATOM      6  C   UNL     1      49.784  59.158  94.929  1.00  0.00     0.000 C 
BRANCH   6   7
ATOM      7  C   UNL     1      49.419  60.645  94.876  1.00  0.00    -0.003 C 
ATOM      8  C   UNL     1      50.161  61.356  93.748  1.00  0.00     0.004 C 
ENDBRANCH   6   7
ENDBRANCH   1   6
TORSDOF 4
ENDMDL
MODEL 4
REMARK VINA RESULT:    -3.646      2.107      2.524
REMARK INTER + INTRA:          -4.704
REMARK INTER:                  -4.483
REMARK INTRA:                  -0.221
REMARK UNBOUND:                -0.205
REMARK SMILES CCCCCC(=O)[O-]
REMARK SMILES IDX 4 1 5 2 6 3 7 4 8 5 3 6 2 7 1 8
REMARK H PARENT
REMARK Flexibility Score: inf
ROOT
ATOM      1  C   UNL     1      51.491  56.978  92.486  1.00  0.00     0.006 C 
ENDROOT
BRANCH   1   2
ATOM      2  C   UNL     1      52.616  57.215  93.502  1.00  0.00     0.053 C 
BRANCH   2   3
ATOM      3  C   UNL     1      52.654  56.143  94.547  1.00  0.00     0.041 C 
ATOM      4  O   UNL     1      52.993  54.969  94.241  1.00  0.00    -0.550 OA
ATOM      5  O   UNL     1      52.283  56.432  95.855  1.00  0.00    -0.550 OA
ENDBRANCH   2   3
ENDBRANCH   1   2
BRANCH   1   6
ATOM      6  C   UNL     1      50.155  57.578  92.945  1.00  0.00     0.000 C 
BRANCH   6   7
ATOM      7  C   UNL     1      50.380  58.862  93.753  1.00  0.00    -0.003 C 
ATOM      8  C   UNL     1      49.691  58.786  95.113  1.00  0.00     0.004 C 
ENDBRANCH   6   7
ENDBRANCH   1   6
TORSDOF 4
ENDMDL
MODEL 5
REMARK VINA RESULT:    -3.581      2.392      3.580
REMARK INTER + INTRA:          -4.624
REMARK INTER:                  -4.358
REMARK INTRA:                  -0.266
REMARK UNBOUND:                -0.205
REMARK SMILES CCCCCC(=O)[O-]
REMARK SMILES IDX 4 1 5 2 6 3 7 4 8 5 3 6 2 7 1 8
REMARK H PARENT
REMARK Flexibility Score: inf
ROOT
ATOM      1  C   UNL     1      51.760  57.789  92.453  1.00  0.00     0.006 C 
ENDROOT
BRANCH   1   2
ATOM      2  C   UNL     1      50.329  57.952  92.982  1.00  0.00     0.053 C 
BRANCH   2   3
ATOM      3  C   UNL     1      50.221  59.094  93.945  1.00  0.00     0.041 C 
ATOM      4  O   UNL     1      49.809  58.898  95.119  1.00  0.00    -0.550 OA
ATOM      5  O   UNL     1      50.543  60.382  93.536  1.00  0.00    -0.550 OA
ENDBRANCH   2   3
ENDBRANCH   1   2
BRANCH   1   6
ATOM      6  C   UNL     1      52.788  57.662  93.586  1.00  0.00     0.000 C 
BRANCH   6   7
ATOM      7  C   UNL     1      52.679  56.297  94.275  1.00  0.00    -0.003 C 
ATOM      8  C   UNL     1      52.351  56.452  95.758  1.00  0.00     0.004 C 
ENDBRANCH   6   7
ENDBRANCH   1   6
TORSDOF 4
ENDMDL
MODEL 6
REMARK VINA RESULT:    -3.563      2.083      2.522
REMARK INTER + INTRA:          -4.601
REMARK INTER:                  -4.464
REMARK INTRA:                  -0.137
REMARK UNBOUND:                -0.205
REMARK SMILES CCCCCC(=O)[O-]
REMARK SMILES IDX 4 1 5 2 6 3 7 4 8 5 3 6 2 7 1 8
REMARK H PARENT
REMARK Flexibility Score: inf
ROOT
ATOM      1  C   UNL     1      52.467  58.790  92.803  1.00  0.00     0.006 C 
ENDROOT
BRANCH   1   2
ATOM      2  C   UNL     1      53.312  58.014  93.821  1.00  0.00     0.053 C 
BRANCH   2   3
ATOM      3  C   UNL     1      52.598  56.796  94.322  1.00  0.00     0.041 C 
ATOM      4  O   UNL     1      52.291  55.869  93.527  1.00  0.00    -0.550 OA
ATOM      5  O   UNL     1      52.243  56.700  95.662  1.00  0.00    -0.550 OA
ENDBRANCH   2   3
ENDBRANCH   1   2
BRANCH   1   6
ATOM      6  C   UNL     1      51.132  59.264  93.395  1.00  0.00     0.000 C 
BRANCH   6   7
ATOM      7  C   UNL     1      51.028  60.792  93.360  1.00  0.00    -0.003 C 
ATOM      8  C   UNL     1      52.383  61.432  93.071  1.00  0.00     0.004 C 
ENDBRANCH   6   7
ENDBRANCH   1   6
TORSDOF 4
ENDMDL
MODEL 7
REMARK VINA RESULT:    -3.554      2.358      4.200
REMARK INTER + INTRA:          -4.590
REMARK INTER:                  -4.449
REMARK INTRA:                  -0.141
REMARK UNBOUND:                -0.205
REMARK SMILES CCCCCC(=O)[O-]
REMARK SMILES IDX 4 1 5 2 6 3 7 4 8 5 3 6 2 7 1 8
REMARK H PARENT
REMARK Flexibility Score: inf
ROOT
ATOM      1  C   UNL     1      50.614  57.184  92.277  1.00  0.00     0.006 C 
ENDROOT
BRANCH   1   2
ATOM      2  C   UNL     1      50.982  58.365  93.185  1.00  0.00     0.053 C 
BRANCH   2   3
ATOM      3  C   UNL     1      50.709  58.063  94.626  1.00  0.00     0.041 C 
ATOM      4  O   UNL     1      51.514  57.359  95.291  1.00  0.00    -0.550 OA
ATOM      5  O   UNL     1      49.547  58.532  95.227  1.00  0.00    -0.550 OA
ENDBRANCH   2   3
ENDBRANCH   1   2
BRANCH   1   6
ATOM      6  C   UNL     1      51.850  56.402  91.810  1.00  0.00     0.000 C 
BRANCH   6   7
ATOM      7  C   UNL     1      51.986  55.082  92.576  1.00  0.00    -0.003 C 
ATOM      8  C   UNL     1      52.154  53.904  91.620  1.00  0.00     0.004 C 
ENDBRANCH   6   7
ENDBRANCH   1   6
TORSDOF 4
ENDMDL
MODEL 8
REMARK VINA RESULT:    -3.543      8.748      9.728
REMARK INTER + INTRA:          -4.576
REMARK INTER:                  -4.476
REMARK INTRA:                  -0.101
REMARK UNBOUND:                -0.205
REMARK SMILES CCCCCC(=O)[O-]
REMARK SMILES IDX 4 1 5 2 6 3 7 4 8 5 3 6 2 7 1 8
REMARK H PARENT
REMARK Flexibility Score: inf
ROOT
ATOM      1  C   UNL     1      47.703  65.765  92.217  1.00  0.00     0.006 C 
ENDROOT
BRANCH   1   2
ATOM      2  C   UNL     1      46.548  66.451  91.477  1.00  0.00     0.053 C 
BRANCH   2   3
ATOM      3  C   UNL     1      45.249  65.736  91.692  1.00  0.00     0.041 C 
ATOM      4  O   UNL     1      45.229  64.616  92.269  1.00  0.00    -0.550 OA
ATOM      5  O   UNL     1      44.064  66.291  91.226  1.00  0.00    -0.550 OA
ENDBRANCH   2   3
ENDBRANCH   1   2
BRANCH   1   6
ATOM      6  C   UNL     1      48.602  66.770  92.951  1.00  0.00     0.000 C 
BRANCH   6   7
ATOM      7  C   UNL     1      47.895  67.336  94.188  1.00  0.00    -0.003 C 
ATOM      8  C   UNL     1      48.838  67.392  95.386  1.00  0.00     0.004 C 
ENDBRANCH   6   7
ENDBRANCH   1   6
TORSDOF 4
ENDMDL
MODEL 9
REMARK VINA RESULT:    -3.462      2.739      3.659
REMARK INTER + INTRA:          -4.477
REMARK INTER:                  -4.269
REMARK INTRA:                  -0.208
REMARK UNBOUND:                -0.205
REMARK SMILES CCCCCC(=O)[O-]
REMARK SMILES IDX 4 1 5 2 6 3 7 4 8 5 3 6 2 7 1 8
REMARK H PARENT
REMARK Flexibility Score: inf
ROOT
ATOM      1  C   UNL     1      52.547  57.066  93.991  1.00  0.00     0.006 C 
ENDROOT
BRANCH   1   2
ATOM      2  C   UNL     1      52.673  55.817  94.873  1.00  0.00     0.053 C 
BRANCH   2   3
ATOM      3  C   UNL     1      53.143  54.630  94.090  1.00  0.00     0.041 C 
ATOM      4  O   UNL     1      54.185  54.013  94.436  1.00  0.00    -0.550 OA
ATOM      5  O   UNL     1      52.448  54.225  92.957  1.00  0.00    -0.550 OA
ENDBRANCH   2   3
ENDBRANCH   1   2
BRANCH   1   6
ATOM      6  C   UNL     1      51.112  57.610  93.955  1.00  0.00     0.000 C 
BRANCH   6   7
ATOM      7  C   UNL     1      50.432  57.278  92.623  1.00  0.00    -0.003 C 
ATOM      8  C   UNL     1      51.454  57.143  91.499  1.00  0.00     0.004 C 
ENDBRANCH   6   7
ENDBRANCH   1   6
TORSDOF 4
ENDMDL
