MODEL 1
REMARK VINA RESULT:    -2.833      0.000      0.000
REMARK INTER + INTRA:          -4.181
REMARK INTER:                  -3.661
REMARK INTRA:                  -0.520
REMARK UNBOUND:                -0.520
REMARK SMILES C=CC(=O)CCCCC
REMARK SMILES IDX 6 1 7 2 8 3 9 4 5 5 3 6 4 7 2 8 1 9
REMARK H PARENT
REMARK Flexibility Score: inf
ROOT
ATOM      1  C   UNL     1      96.093   6.345  68.888  1.00  0.00     0.008 C 
ENDROOT
BRANCH   1   2
ATOM      2  C   UNL     1      96.474   4.918  69.307  1.00  0.00     0.000 C 
BRANCH   2   3
ATOM      3  C   UNL     1      97.701   4.427  68.533  1.00  0.00    -0.003 C 
ATOM      4  C   UNL     1      98.109   5.426  67.454  1.00  0.00     0.004 C 
ENDBRANCH   2   3
ENDBRANCH   1   2
BRANCH   1   5
ATOM      5  C   UNL     1      96.066   7.315  70.078  1.00  0.00     0.080 C 
BRANCH   5   6
ATOM      6  C   UNL     1      97.444   7.572  70.620  1.00  0.00     0.155 C 
ATOM      7  O   UNL     1      97.741   7.148  71.771  1.00  0.00    -0.295 OA
BRANCH   6   8
ATOM      8  C   UNL     1      98.445   8.284  69.802  1.00  0.00     0.039 C 
ATOM      9  C   UNL     1      98.159   9.400  69.134  1.00  0.00     0.012 C 
ENDBRANCH   6   8
ENDBRANCH   5   6
ENDBRANCH   1   5
TORSDOF 5
ENDMDL
MODEL 2
REMARK VINA RESULT:    -2.708      8.888     10.074
REMARK INTER + INTRA:          -4.020
REMARK INTER:                  -3.452
REMARK INTRA:                  -0.568
REMARK UNBOUND:                -0.520
REMARK SMILES C=CC(=O)CCCCC
REMARK SMILES IDX 6 1 7 2 8 3 9 4 5 5 3 6 4 7 2 8 1 9
REMARK H PARENT
REMARK Flexibility Score: inf
ROOT
ATOM      1  C   UNL     1     102.273   7.316  78.279  1.00  0.00     0.008 C 
ENDROOT
BRANCH   1   2
ATOM      2  C   UNL     1     101.643   6.289  77.327  1.00  0.00     0.000 C 
BRANCH   2   3
ATOM      3  C   UNL     1     100.499   5.535  78.013  1.00  0.00    -0.003 C 
ATOM      4  C   UNL     1      99.240   5.539  77.150  1.00  0.00     0.004 C 
ENDBRANCH   2   3
ENDBRANCH   1   2
BRANCH   1   5
ATOM      5  C   UNL     1     101.565   7.361  79.640  1.00  0.00     0.080 C 
BRANCH   5   6
ATOM      6  C   UNL     1     100.975   8.714  79.920  1.00  0.00     0.155 C 
ATOM      7  O   UNL     1     101.146   9.238  81.055  1.00  0.00    -0.295 OA
BRANCH   6   8
ATOM      8  C   UNL     1     100.232   9.434  78.867  1.00  0.00     0.039 C 
ATOM      9  C   UNL     1      99.009   9.074  78.482  1.00  0.00     0.012 C 
ENDBRANCH   6   8
ENDBRANCH   5   6
ENDBRANCH   1   5
TORSDOF 5
ENDMDL
MODEL 3
REMARK VINA RESULT:    -2.696      1.306      3.417
REMARK INTER + INTRA:          -4.005
REMARK INTER:                  -3.481
REMARK INTRA:                  -0.524
REMARK UNBOUND:                -0.520
REMARK SMILES C=CC(=O)CCCCC
REMARK SMILES IDX 6 1 7 2 8 3 9 4 5 5 3 6 4 7 2 8 1 9
REMARK H PARENT
REMARK Flexibility Score: inf
ROOT
ATOM      1  C   UNL     1      96.342   7.255  69.936  1.00  0.00     0.008 C 
ENDROOT
BRANCH   1   2
ATOM      2  C   UNL     1      97.666   7.431  70.694  1.00  0.00     0.000 C 
BRANCH   2   3
ATOM      3  C   UNL     1      98.721   8.102  69.808  1.00  0.00    -0.003 C 
ATOM      4  C   UNL     1      98.116   9.250  69.005  1.00  0.00     0.004 C 
ENDBRANCH   2   3
ENDBRANCH   1   2
BRANCH   1   5
ATOM      5  C   UNL     1      95.875   5.793  69.909  1.00  0.00     0.080 C 
BRANCH   5   6
ATOM      6  C   UNL     1      96.917   4.885  69.320  1.00  0.00     0.155 C 
ATOM      7  O   UNL     1      97.519   4.069  70.072  1.00  0.00    -0.295 OA
BRANCH   6   8
ATOM      8  C   UNL     1      97.208   4.926  67.874  1.00  0.00     0.039 C 
ATOM      9  C   UNL     1      98.386   5.322  67.393  1.00  0.00     0.012 C 
ENDBRANCH   6   8
ENDBRANCH   5   6
ENDBRANCH   1   5
TORSDOF 5
ENDMDL
MODEL 4
REMARK VINA RESULT:    -2.695      8.493     10.189
REMARK INTER + INTRA:          -4.003
REMARK INTER:                  -3.400
REMARK INTRA:                  -0.604
REMARK UNBOUND:                -0.520
REMARK SMILES C=CC(=O)CCCCC
REMARK SMILES IDX 6 1 7 2 8 3 9 4 5 5 3 6 4 7 2 8 1 9
REMARK H PARENT
REMARK Flexibility Score: inf
ROOT
ATOM      1  C   UNL     1     101.571   7.768  79.247  1.00  0.00     0.008 C 
ENDROOT
BRANCH   1   2
ATOM      2  C   UNL     1     101.042   8.799  80.256  1.00  0.00     0.000 C 
BRANCH   2   3
ATOM      3  C   UNL     1     101.125  10.218  79.685  1.00  0.00    -0.003 C 
ATOM      4  C   UNL     1     101.900  10.239  78.371  1.00  0.00     0.004 C 
ENDBRANCH   2   3
ENDBRANCH   1   2
BRANCH   1   5
ATOM      5  C   UNL     1     100.473   6.815  78.757  1.00  0.00     0.080 C 
BRANCH   5   6
ATOM      6  C   UNL     1      99.886   7.265  77.448  1.00  0.00     0.155 C 
ATOM      7  O   UNL     1     100.598   7.224  76.407  1.00  0.00    -0.295 OA
BRANCH   6   8
ATOM      8  C   UNL     1      98.484   7.719  77.379  1.00  0.00     0.039 C 
ATOM      9  C   UNL     1      98.072   8.856  77.939  1.00  0.00     0.012 C 
ENDBRANCH   6   8
ENDBRANCH   5   6
ENDBRANCH   1   5
TORSDOF 5
ENDMDL
MODEL 5
REMARK VINA RESULT:    -2.648      7.551      8.648
REMARK INTER + INTRA:          -3.943
REMARK INTER:                  -3.741
REMARK INTRA:                  -0.201
REMARK UNBOUND:                -0.520
REMARK SMILES C=CC(=O)CCCCC
REMARK SMILES IDX 6 1 7 2 8 3 9 4 5 5 3 6 4 7 2 8 1 9
REMARK H PARENT
REMARK Flexibility Score: inf
ROOT
ATOM      1  C   UNL     1      98.526   6.990  76.991  1.00  0.00     0.008 C 
ENDROOT
BRANCH   1   2
ATOM      2  C   UNL     1      97.328   6.720  76.068  1.00  0.00     0.000 C 
BRANCH   2   3
ATOM      3  C   UNL     1      97.280   5.247  75.649  1.00  0.00    -0.003 C 
ATOM      4  C   UNL     1      96.737   4.371  76.775  1.00  0.00     0.004 C 
ENDBRANCH   2   3
ENDBRANCH   1   2
BRANCH   1   5
ATOM      5  C   UNL     1      98.340   8.262  77.830  1.00  0.00     0.080 C 
BRANCH   5   6
ATOM      6  C   UNL     1      99.558   8.569  78.656  1.00  0.00     0.155 C 
ATOM      7  O   UNL     1      99.511   9.511  79.494  1.00  0.00    -0.295 OA
BRANCH   6   8
ATOM      8  C   UNL     1     100.781   7.756  78.509  1.00  0.00     0.039 C 
ATOM      9  C   UNL     1     101.490   7.336  79.555  1.00  0.00     0.012 C 
ENDBRANCH   6   8
ENDBRANCH   5   6
ENDBRANCH   1   5
TORSDOF 5
ENDMDL
MODEL 6
REMARK VINA RESULT:    -2.625      6.847      8.280
REMARK INTER + INTRA:          -3.912
REMARK INTER:                  -3.343
REMARK INTRA:                  -0.569
REMARK UNBOUND:                -0.520
REMARK SMILES C=CC(=O)CCCCC
REMARK SMILES IDX 6 1 7 2 8 3 9 4 5 5 3 6 4 7 2 8 1 9
REMARK H PARENT
REMARK Flexibility Score: inf
ROOT
ATOM      1  C   UNL     1      99.962   6.733  76.194  1.00  0.00     0.008 C 
ENDROOT
BRANCH   1   2
ATOM      2  C   UNL     1     100.759   5.603  76.863  1.00  0.00     0.000 C 
BRANCH   2   3
ATOM      3  C   UNL     1     100.344   5.431  78.328  1.00  0.00    -0.003 C 
ATOM      4  C   UNL     1     100.043   3.970  78.648  1.00  0.00     0.004 C 
ENDBRANCH   2   3
ENDBRANCH   1   2
BRANCH   1   5
ATOM      5  C   UNL     1      98.670   7.063  76.953  1.00  0.00     0.080 C 
BRANCH   5   6
ATOM      6  C   UNL     1      97.447   6.661  76.178  1.00  0.00     0.155 C 
ATOM      7  O   UNL     1      96.673   7.557  75.741  1.00  0.00    -0.295 OA
BRANCH   6   8
ATOM      8  C   UNL     1      97.175   5.237  75.905  1.00  0.00     0.039 C 
ATOM      9  C   UNL     1      96.762   4.394  76.851  1.00  0.00     0.012 C 
ENDBRANCH   6   8
ENDBRANCH   5   6
ENDBRANCH   1   5
TORSDOF 5
ENDMDL
MODEL 7
REMARK VINA RESULT:    -2.577      7.428      9.001
REMARK INTER + INTRA:          -3.851
REMARK INTER:                  -3.308
REMARK INTRA:                  -0.543
REMARK UNBOUND:                -0.520
REMARK SMILES C=CC(=O)CCCCC
REMARK SMILES IDX 6 1 7 2 8 3 9 4 5 5 3 6 4 7 2 8 1 9
REMARK H PARENT
REMARK Flexibility Score: inf
ROOT
ATOM      1  C   UNL     1     100.659   5.254  77.624  1.00  0.00     0.008 C 
ENDROOT
BRANCH   1   2
ATOM      2  C   UNL     1     100.354   6.542  78.403  1.00  0.00     0.000 C 
BRANCH   2   3
ATOM      3  C   UNL     1      99.775   7.618  77.478  1.00  0.00    -0.003 C 
ATOM      4  C   UNL     1      98.439   8.137  78.003  1.00  0.00     0.004 C 
ENDBRANCH   2   3
ENDBRANCH   1   2
BRANCH   1   5
ATOM      5  C   UNL     1      99.745   4.092  78.039  1.00  0.00     0.080 C 
BRANCH   5   6
ATOM      6  C   UNL     1      98.765   3.738  76.956  1.00  0.00     0.155 C 
ATOM      7  O   UNL     1      99.110   2.925  76.055  1.00  0.00    -0.295 OA
BRANCH   6   8
ATOM      8  C   UNL     1      97.406   4.313  76.966  1.00  0.00     0.039 C 
ATOM      9  C   UNL     1      97.009   5.226  76.082  1.00  0.00     0.012 C 
ENDBRANCH   6   8
ENDBRANCH   5   6
ENDBRANCH   1   5
TORSDOF 5
ENDMDL
MODEL 8
REMARK VINA RESULT:    -2.567      7.697      8.700
REMARK INTER + INTRA:          -3.838
REMARK INTER:                  -3.333
REMARK INTRA:                  -0.506
REMARK UNBOUND:                -0.520
REMARK SMILES C=CC(=O)CCCCC
REMARK SMILES IDX 6 1 7 2 8 3 9 4 5 5 3 6 4 7 2 8 1 9
REMARK H PARENT
REMARK Flexibility Score: inf
ROOT
ATOM      1  C   UNL     1     100.090   4.848  77.138  1.00  0.00     0.008 C 
ENDROOT
BRANCH   1   2
ATOM      2  C   UNL     1      98.891   3.895  77.026  1.00  0.00     0.000 C 
BRANCH   2   3
ATOM      3  C   UNL     1      97.582   4.676  76.866  1.00  0.00    -0.003 C 
ATOM      4  C   UNL     1      97.391   5.143  75.425  1.00  0.00     0.004 C 
ENDBRANCH   2   3
ENDBRANCH   1   2
BRANCH   1   5
ATOM      5  C   UNL     1     100.361   5.274  78.588  1.00  0.00     0.080 C 
BRANCH   5   6
ATOM      6  C   UNL     1     100.590   6.756  78.701  1.00  0.00     0.155 C 
ATOM      7  O   UNL     1     101.453   7.185  79.516  1.00  0.00    -0.295 OA
BRANCH   6   8
ATOM      8  C   UNL     1      99.834   7.692  77.847  1.00  0.00     0.039 C 
ATOM      9  C   UNL     1      98.608   8.110  78.155  1.00  0.00     0.012 C 
ENDBRANCH   6   8
ENDBRANCH   5   6
ENDBRANCH   1   5
TORSDOF 5
ENDMDL
