MODEL 1
REMARK VINA RESULT:    -4.554      0.000      0.000
REMARK INTER + INTRA:          -5.017
REMARK INTER:                  -4.954
REMARK INTRA:                  -0.064
REMARK UNBOUND:                -0.064
REMARK SMILES COc1cc2ccc(=O)oc2cc1O
REMARK SMILES IDX 3 1 13 2 12 3 11 4 5 5 4 6 6 7 7 8 8 9 9 10 10 11 2 12 1 13
REMARK SMILES IDX 14 14
REMARK H PARENT 14 15
REMARK Flexibility Score: inf
ROOT
ATOM      1  C   UNL     1      31.262  32.192  24.704  1.00  0.00     0.161 A 
ATOM      2  C   UNL     1      29.893  31.904  24.875  1.00  0.00     0.161 A 
ATOM      3  C   UNL     1      29.481  30.980  25.842  1.00  0.00     0.098 A 
ATOM      4  C   UNL     1      30.421  30.333  26.646  1.00  0.00     0.142 A 
ATOM      5  C   UNL     1      31.794  30.612  26.482  1.00  0.00     0.022 A 
ATOM      6  C   UNL     1      32.210  31.537  25.516  1.00  0.00     0.062 A 
ATOM      7  C   UNL     1      32.711  29.947  27.303  1.00  0.00     0.019 A 
ATOM      8  C   UNL     1      32.247  29.036  28.251  1.00  0.00     0.094 A 
ATOM      9  C   UNL     1      30.871  28.808  28.356  1.00  0.00     0.336 A 
ATOM     10  O   UNL     1      30.432  27.989  29.205  1.00  0.00    -0.246 OA
ATOM     11  O   UNL     1      30.020  29.455  27.562  1.00  0.00    -0.423 OA
ENDROOT
BRANCH   1  12
ATOM     12  O   UNL     1      31.640  33.125  23.725  1.00  0.00    -0.493 OA
ATOM     13  C   UNL     1      32.265  32.792  22.491  1.00  0.00     0.278 C 
ENDBRANCH   1  12
BRANCH   2  14
ATOM     14  O   UNL     1      28.924  32.531  24.091  1.00  0.00    -0.504 OA
ATOM     15  H   UNL     1      28.126  33.005  24.496  1.00  0.00     0.293 HD
ENDBRANCH   2  14
TORSDOF 2
ENDMDL
MODEL 2
REMARK VINA RESULT:    -4.394     13.806     15.794
REMARK INTER + INTRA:          -4.843
REMARK INTER:                  -4.799
REMARK INTRA:                  -0.044
REMARK UNBOUND:                -0.064
REMARK SMILES COc1cc2ccc(=O)oc2cc1O
REMARK SMILES IDX 3 1 13 2 12 3 11 4 5 5 4 6 6 7 7 8 8 9 9 10 10 11 2 12 1 13
REMARK SMILES IDX 14 14
REMARK H PARENT 14 15
REMARK Flexibility Score: inf
ROOT
ATOM      1  C   UNL     1      45.323  27.666  29.162  1.00  0.00     0.161 A 
ATOM      2  C   UNL     1      46.714  27.818  28.995  1.00  0.00     0.161 A 
ATOM      3  C   UNL     1      47.217  28.714  28.044  1.00  0.00     0.098 A 
ATOM      4  C   UNL     1      46.347  29.465  27.251  1.00  0.00     0.142 A 
ATOM      5  C   UNL     1      44.953  29.320  27.410  1.00  0.00     0.022 A 
ATOM      6  C   UNL     1      44.446  28.425  28.361  1.00  0.00     0.062 A 
ATOM      7  C   UNL     1      44.108  30.086  26.601  1.00  0.00     0.019 A 
ATOM      8  C   UNL     1      44.662  30.964  25.669  1.00  0.00     0.094 A 
ATOM      9  C   UNL     1      46.053  31.055  25.567  1.00  0.00     0.336 A 
ATOM     10  O   UNL     1      46.573  31.841  24.732  1.00  0.00    -0.246 OA
ATOM     11  O   UNL     1      46.835  30.314  26.350  1.00  0.00    -0.423 OA
ENDROOT
BRANCH   1  12
ATOM     12  O   UNL     1      44.852  26.759  30.125  1.00  0.00    -0.493 OA
ATOM     13  C   UNL     1      43.559  26.166  30.111  1.00  0.00     0.278 C 
ENDBRANCH   1  12
BRANCH   2  14
ATOM     14  O   UNL     1      47.615  27.085  29.768  1.00  0.00    -0.504 OA
ATOM     15  H   UNL     1      47.310  26.407  30.456  1.00  0.00     0.293 HD
ENDBRANCH   2  14
TORSDOF 2
ENDMDL
MODEL 3
REMARK VINA RESULT:    -4.314     13.307     14.494
REMARK INTER + INTRA:          -4.755
REMARK INTER:                  -4.701
REMARK INTRA:                  -0.054
REMARK UNBOUND:                -0.064
REMARK SMILES COc1cc2ccc(=O)oc2cc1O
REMARK SMILES IDX 3 1 13 2 12 3 11 4 5 5 4 6 6 7 7 8 8 9 9 10 10 11 2 12 1 13
REMARK SMILES IDX 14 14
REMARK H PARENT 14 15
REMARK Flexibility Score: inf
ROOT
ATOM      1  C   UNL     1      45.222  31.208  25.354  1.00  0.00     0.161 A 
ATOM      2  C   UNL     1      46.506  30.634  25.441  1.00  0.00     0.161 A 
ATOM      3  C   UNL     1      46.798  29.707  26.449  1.00  0.00     0.098 A 
ATOM      4  C   UNL     1      45.821  29.344  27.378  1.00  0.00     0.142 A 
ATOM      5  C   UNL     1      44.533  29.913  27.300  1.00  0.00     0.022 A 
ATOM      6  C   UNL     1      44.237  30.840  26.293  1.00  0.00     0.062 A 
ATOM      7  C   UNL     1      43.577  29.528  28.246  1.00  0.00     0.019 A 
ATOM      8  C   UNL     1      43.920  28.600  29.229  1.00  0.00     0.094 A 
ATOM      9  C   UNL     1      45.217  28.079  29.246  1.00  0.00     0.336 A 
ATOM     10  O   UNL     1      45.547  27.241  30.125  1.00  0.00    -0.246 OA
ATOM     11  O   UNL     1      46.108  28.462  28.334  1.00  0.00    -0.423 OA
ENDROOT
BRANCH   1  12
ATOM     12  O   UNL     1      44.963  32.134  24.330  1.00  0.00    -0.493 OA
ATOM     13  C   UNL     1      43.888  32.032  23.402  1.00  0.00     0.278 C 
ENDBRANCH   1  12
BRANCH   2  14
ATOM     14  O   UNL     1      47.508  30.972  24.532  1.00  0.00    -0.504 OA
ATOM     15  H   UNL     1      48.064  30.272  24.056  1.00  0.00     0.293 HD
ENDBRANCH   2  14
TORSDOF 2
ENDMDL
MODEL 4
REMARK VINA RESULT:    -4.064     15.063     16.524
REMARK INTER + INTRA:          -4.484
REMARK INTER:                  -4.419
REMARK INTRA:                  -0.064
REMARK UNBOUND:                -0.064
REMARK SMILES COc1cc2ccc(=O)oc2cc1O
REMARK SMILES IDX 3 1 13 2 12 3 11 4 5 5 4 6 6 7 7 8 8 9 9 10 10 11 2 12 1 13
REMARK SMILES IDX 14 14
REMARK H PARENT 14 15
REMARK Flexibility Score: inf
ROOT
ATOM      1  C   UNL     1      45.995  28.998  29.078  1.00  0.00     0.161 A 
ATOM      2  C   UNL     1      46.796  29.207  27.938  1.00  0.00     0.161 A 
ATOM      3  C   UNL     1      47.410  28.124  27.298  1.00  0.00     0.098 A 
ATOM      4  C   UNL     1      47.236  26.827  27.783  1.00  0.00     0.142 A 
ATOM      5  C   UNL     1      46.437  26.606  28.924  1.00  0.00     0.022 A 
ATOM      6  C   UNL     1      45.820  27.687  29.566  1.00  0.00     0.062 A 
ATOM      7  C   UNL     1      46.282  25.294  29.384  1.00  0.00     0.019 A 
ATOM      8  C   UNL     1      46.916  24.251  28.709  1.00  0.00     0.094 A 
ATOM      9  C   UNL     1      47.695  24.546  27.585  1.00  0.00     0.336 A 
ATOM     10  O   UNL     1      48.275  23.619  26.962  1.00  0.00    -0.246 OA
ATOM     11  O   UNL     1      47.825  25.803  27.168  1.00  0.00    -0.423 OA
ENDROOT
BRANCH   1  12
ATOM     12  O   UNL     1      45.393  30.106  29.695  1.00  0.00    -0.493 OA
ATOM     13  C   UNL     1      44.014  30.441  29.587  1.00  0.00     0.278 C 
ENDBRANCH   1  12
BRANCH   2  14
ATOM     14  O   UNL     1      46.994  30.489  27.424  1.00  0.00    -0.504 OA
ATOM     15  H   UNL     1      47.491  30.652  26.557  1.00  0.00     0.293 HD
ENDBRANCH   2  14
TORSDOF 2
ENDMDL
MODEL 5
REMARK VINA RESULT:    -3.993      1.548      5.175
REMARK INTER + INTRA:          -4.407
REMARK INTER:                  -4.360
REMARK INTRA:                  -0.046
REMARK UNBOUND:                -0.064
REMARK SMILES COc1cc2ccc(=O)oc2cc1O
REMARK SMILES IDX 3 1 13 2 12 3 11 4 5 5 4 6 6 7 7 8 8 9 9 10 10 11 2 12 1 13
REMARK SMILES IDX 14 14
REMARK H PARENT 14 15
REMARK Flexibility Score: inf
ROOT
ATOM      1  C   UNL     1      31.666  28.190  28.712  1.00  0.00     0.161 A 
ATOM      2  C   UNL     1      30.353  28.279  28.210  1.00  0.00     0.161 A 
ATOM      3  C   UNL     1      30.034  29.225  27.228  1.00  0.00     0.098 A 
ATOM      4  C   UNL     1      31.014  30.090  26.738  1.00  0.00     0.142 A 
ATOM      5  C   UNL     1      32.332  30.011  27.233  1.00  0.00     0.022 A 
ATOM      6  C   UNL     1      32.654  29.065  28.215  1.00  0.00     0.062 A 
ATOM      7  C   UNL     1      33.290  30.891  26.721  1.00  0.00     0.019 A 
ATOM      8  C   UNL     1      32.919  31.815  25.744  1.00  0.00     0.094 A 
ATOM      9  C   UNL     1      31.593  31.837  25.300  1.00  0.00     0.336 A 
ATOM     10  O   UNL     1      31.239  32.662  24.419  1.00  0.00    -0.246 OA
ATOM     11  O   UNL     1      30.701  30.987  25.804  1.00  0.00    -0.423 OA
ENDROOT
BRANCH   1  12
ATOM     12  O   UNL     1      31.952  27.230  29.695  1.00  0.00    -0.493 OA
ATOM     13  C   UNL     1      33.196  26.551  29.825  1.00  0.00     0.278 C 
ENDBRANCH   1  12
BRANCH   2  14
ATOM     14  O   UNL     1      29.347  27.432  28.676  1.00  0.00    -0.504 OA
ATOM     15  H   UNL     1      28.647  27.035  28.060  1.00  0.00     0.293 HD
ENDBRANCH   2  14
TORSDOF 2
ENDMDL
MODEL 6
REMARK VINA RESULT:    -3.935      2.776      4.526
REMARK INTER + INTRA:          -4.343
REMARK INTER:                  -4.298
REMARK INTRA:                  -0.046
REMARK UNBOUND:                -0.064
REMARK SMILES COc1cc2ccc(=O)oc2cc1O
REMARK SMILES IDX 3 1 13 2 12 3 11 4 5 5 4 6 6 7 7 8 8 9 9 10 10 11 2 12 1 13
REMARK SMILES IDX 14 14
REMARK H PARENT 14 15
REMARK Flexibility Score: inf
ROOT
ATOM      1  C   UNL     1      35.072  32.749  25.385  1.00  0.00     0.161 A 
ATOM      2  C   UNL     1      34.618  32.690  24.053  1.00  0.00     0.161 A 
ATOM      3  C   UNL     1      33.258  32.508  23.778  1.00  0.00     0.098 A 
ATOM      4  C   UNL     1      32.337  32.384  24.820  1.00  0.00     0.142 A 
ATOM      5  C   UNL     1      32.781  32.441  26.158  1.00  0.00     0.022 A 
ATOM      6  C   UNL     1      34.142  32.624  26.437  1.00  0.00     0.062 A 
ATOM      7  C   UNL     1      31.834  32.314  27.179  1.00  0.00     0.019 A 
ATOM      8  C   UNL     1      30.491  32.135  26.851  1.00  0.00     0.094 A 
ATOM      9  C   UNL     1      30.124  32.087  25.502  1.00  0.00     0.336 A 
ATOM     10  O   UNL     1      28.917  31.926  25.184  1.00  0.00    -0.246 OA
ATOM     11  O   UNL     1      31.045  32.211  24.549  1.00  0.00    -0.423 OA
ENDROOT
BRANCH   1  12
ATOM     12  O   UNL     1      36.444  32.933  25.626  1.00  0.00    -0.493 OA
ATOM     13  C   UNL     1      37.138  32.435  26.764  1.00  0.00     0.278 C 
ENDBRANCH   1  12
BRANCH   2  14
ATOM     14  O   UNL     1      35.507  32.810  22.985  1.00  0.00    -0.504 OA
ATOM     15  H   UNL     1      35.194  32.998  22.040  1.00  0.00     0.293 HD
ENDBRANCH   2  14
TORSDOF 2
ENDMDL
MODEL 7
REMARK VINA RESULT:    -3.928      3.032      4.681
REMARK INTER + INTRA:          -4.336
REMARK INTER:                  -4.272
REMARK INTRA:                  -0.064
REMARK UNBOUND:                -0.064
REMARK SMILES COc1cc2ccc(=O)oc2cc1O
REMARK SMILES IDX 3 1 13 2 12 3 11 4 5 5 4 6 6 7 7 8 8 9 9 10 10 11 2 12 1 13
REMARK SMILES IDX 14 14
REMARK H PARENT 14 15
REMARK Flexibility Score: inf
ROOT
ATOM      1  C   UNL     1      31.331  31.111  26.645  1.00  0.00     0.161 A 
ATOM      2  C   UNL     1      31.861  29.835  26.368  1.00  0.00     0.161 A 
ATOM      3  C   UNL     1      33.237  29.669  26.174  1.00  0.00     0.098 A 
ATOM      4  C   UNL     1      34.098  30.766  26.250  1.00  0.00     0.142 A 
ATOM      5  C   UNL     1      33.578  32.048  26.526  1.00  0.00     0.022 A 
ATOM      6  C   UNL     1      32.202  32.217  26.722  1.00  0.00     0.062 A 
ATOM      7  C   UNL     1      34.467  33.125  26.596  1.00  0.00     0.019 A 
ATOM      8  C   UNL     1      35.829  32.905  26.394  1.00  0.00     0.094 A 
ATOM      9  C   UNL     1      36.273  31.606  26.124  1.00  0.00     0.336 A 
ATOM     10  O   UNL     1      37.498  31.386  25.939  1.00  0.00    -0.246 OA
ATOM     11  O   UNL     1      35.406  30.598  26.063  1.00  0.00    -0.423 OA
ENDROOT
BRANCH   1  12
ATOM     12  O   UNL     1      29.946  31.242  26.835  1.00  0.00    -0.493 OA
ATOM     13  C   UNL     1      29.025  31.633  25.824  1.00  0.00     0.278 C 
ENDBRANCH   1  12
BRANCH   2  14
ATOM     14  O   UNL     1      31.032  28.716  26.284  1.00  0.00    -0.504 OA
ATOM     15  H   UNL     1      30.644  28.397  25.404  1.00  0.00     0.293 HD
ENDBRANCH   2  14
TORSDOF 2
ENDMDL
MODEL 8
REMARK VINA RESULT:    -3.888     13.184     14.280
REMARK INTER + INTRA:          -4.293
REMARK INTER:                  -4.245
REMARK INTRA:                  -0.048
REMARK UNBOUND:                -0.064
REMARK SMILES COc1cc2ccc(=O)oc2cc1O
REMARK SMILES IDX 3 1 13 2 12 3 11 4 5 5 4 6 6 7 7 8 8 9 9 10 10 11 2 12 1 13
REMARK SMILES IDX 14 14
REMARK H PARENT 14 15
REMARK Flexibility Score: inf
ROOT
ATOM      1  C   UNL     1      44.931  30.896  25.283  1.00  0.00     0.161 A 
ATOM      2  C   UNL     1      43.713  30.279  25.630  1.00  0.00     0.161 A 
ATOM      3  C   UNL     1      43.658  29.377  26.699  1.00  0.00     0.098 A 
ATOM      4  C   UNL     1      44.809  29.078  27.431  1.00  0.00     0.142 A 
ATOM      5  C   UNL     1      46.034  29.690  27.091  1.00  0.00     0.022 A 
ATOM      6  C   UNL     1      46.092  30.594  26.023  1.00  0.00     0.062 A 
ATOM      7  C   UNL     1      47.169  29.370  27.843  1.00  0.00     0.019 A 
ATOM      8  C   UNL     1      47.059  28.465  28.898  1.00  0.00     0.094 A 
ATOM      9  C   UNL     1      45.812  27.897  29.177  1.00  0.00     0.336 A 
ATOM     10  O   UNL     1      45.692  27.077  30.125  1.00  0.00    -0.246 OA
ATOM     11  O   UNL     1      44.748  28.219  28.446  1.00  0.00    -0.423 OA
ENDROOT
BRANCH   1  12
ATOM     12  O   UNL     1      44.950  31.797  24.206  1.00  0.00    -0.493 OA
ATOM     13  C   UNL     1      45.681  33.018  24.187  1.00  0.00     0.278 C 
ENDBRANCH   1  12
BRANCH   2  14
ATOM     14  O   UNL     1      42.541  30.551  24.923  1.00  0.00    -0.504 OA
ATOM     15  H   UNL     1      42.313  31.482  24.594  1.00  0.00     0.293 HD
ENDBRANCH   2  14
TORSDOF 2
ENDMDL
MODEL 9
REMARK VINA RESULT:    -3.875     12.229     13.693
REMARK INTER + INTRA:          -4.278
REMARK INTER:                  -4.230
REMARK INTRA:                  -0.048
REMARK UNBOUND:                -0.064
REMARK SMILES COc1cc2ccc(=O)oc2cc1O
REMARK SMILES IDX 3 1 13 2 12 3 11 4 5 5 4 6 6 7 7 8 8 9 9 10 10 11 2 12 1 13
REMARK SMILES IDX 14 14
REMARK H PARENT 14 15
REMARK Flexibility Score: inf
ROOT
ATOM      1  C   UNL     1      45.495  29.046  28.726  1.00  0.00     0.161 A 
ATOM      2  C   UNL     1      44.460  29.677  28.008  1.00  0.00     0.161 A 
ATOM      3  C   UNL     1      43.171  29.132  28.003  1.00  0.00     0.098 A 
ATOM      4  C   UNL     1      42.898  27.958  28.708  1.00  0.00     0.142 A 
ATOM      5  C   UNL     1      43.927  27.318  29.429  1.00  0.00     0.022 A 
ATOM      6  C   UNL     1      45.218  27.861  29.437  1.00  0.00     0.062 A 
ATOM      7  C   UNL     1      43.622  26.144  30.125  1.00  0.00     0.019 A 
ATOM      8  C   UNL     1      42.320  25.643  30.087  1.00  0.00     0.094 A 
ATOM      9  C   UNL     1      41.351  26.331  29.350  1.00  0.00     0.336 A 
ATOM     10  O   UNL     1      40.171  25.895  29.303  1.00  0.00    -0.246 OA
ATOM     11  O   UNL     1      41.668  27.446  28.697  1.00  0.00    -0.423 OA
ENDROOT
BRANCH   1  12
ATOM     12  O   UNL     1      46.777  29.620  28.710  1.00  0.00    -0.493 OA
ATOM     13  C   UNL     1      47.992  28.882  28.641  1.00  0.00     0.278 C 
ENDBRANCH   1  12
BRANCH   2  14
ATOM     14  O   UNL     1      44.694  30.851  27.292  1.00  0.00    -0.504 OA
ATOM     15  H   UNL     1      45.563  31.019  26.799  1.00  0.00     0.293 HD
ENDBRANCH   2  14
TORSDOF 2
ENDMDL
