MODEL 1
REMARK VINA RESULT:    -3.178      0.000      0.000
REMARK INTER + INTRA:          -4.276
REMARK INTER:                  -4.107
REMARK INTRA:                  -0.169
REMARK UNBOUND:                -0.169
REMARK SMILES CCCCCCC(=O)[O-]
REMARK SMILES IDX 5 1 6 2 7 3 8 4 9 5 4 6 3 7 2 8 1 9
REMARK H PARENT
REMARK Flexibility Score: inf
ROOT
ATOM      1  C   UNL     1     -96.638 150.328 239.117  1.00  0.00     0.006 C 
ENDROOT
BRANCH   1   2
ATOM      2  C   UNL     1     -98.119 150.345 239.536  1.00  0.00     0.053 C 
BRANCH   2   3
ATOM      3  C   UNL     1     -98.319 149.917 240.957  1.00  0.00     0.041 C 
ATOM      4  O   UNL     1     -98.058 148.735 241.306  1.00  0.00    -0.550 OA
ATOM      5  O   UNL     1     -98.827 150.811 241.892  1.00  0.00    -0.550 OA
ENDBRANCH   2   3
ENDBRANCH   1   2
BRANCH   1   6
ATOM      6  C   UNL     1     -96.238 149.100 238.278  1.00  0.00     0.000 C 
BRANCH   6   7
ATOM      7  C   UNL     1     -94.716 148.895 238.200  1.00  0.00    -0.000 C 
BRANCH   7   8
ATOM      8  C   UNL     1     -94.232 148.625 236.766  1.00  0.00    -0.003 C 
ATOM      9  C   UNL     1     -95.108 149.296 235.707  1.00  0.00     0.004 C 
ENDBRANCH   7   8
ENDBRANCH   6   7
ENDBRANCH   1   6
TORSDOF 5
ENDMDL
MODEL 2
REMARK VINA RESULT:    -3.098      1.390      1.776
REMARK INTER + INTRA:          -4.173
REMARK INTER:                  -3.915
REMARK INTRA:                  -0.258
REMARK UNBOUND:                -0.169
REMARK SMILES CCCCCCC(=O)[O-]
REMARK SMILES IDX 5 1 6 2 7 3 8 4 9 5 4 6 3 7 2 8 1 9
REMARK H PARENT
REMARK Flexibility Score: inf
ROOT
ATOM      1  C   UNL     1     -96.565 148.488 239.092  1.00  0.00     0.006 C 
ENDROOT
BRANCH   1   2
ATOM      2  C   UNL     1     -96.631 150.025 239.067  1.00  0.00     0.053 C 
BRANCH   2   3
ATOM      3  C   UNL     1     -98.011 150.547 239.326  1.00  0.00     0.041 C 
ATOM      4  O   UNL     1     -98.674 151.075 238.395  1.00  0.00    -0.550 OA
ATOM      5  O   UNL     1     -98.556 150.481 240.603  1.00  0.00    -0.550 OA
ENDBRANCH   2   3
ENDBRANCH   1   2
BRANCH   1   6
ATOM      6  C   UNL     1     -95.187 147.914 238.712  1.00  0.00     0.000 C 
BRANCH   6   7
ATOM      7  C   UNL     1     -94.333 148.895 237.892  1.00  0.00    -0.000 C 
BRANCH   7   8
ATOM      8  C   UNL     1     -94.225 148.488 236.414  1.00  0.00    -0.003 C 
ATOM      9  C   UNL     1     -95.233 149.215 235.523  1.00  0.00     0.004 C 
ENDBRANCH   7   8
ENDBRANCH   6   7
ENDBRANCH   1   6
TORSDOF 5
ENDMDL
MODEL 3
REMARK VINA RESULT:    -3.078      1.459      2.030
REMARK INTER + INTRA:          -4.147
REMARK INTER:                  -4.021
REMARK INTRA:                  -0.126
REMARK UNBOUND:                -0.169
REMARK SMILES CCCCCCC(=O)[O-]
REMARK SMILES IDX 5 1 6 2 7 3 8 4 9 5 4 6 3 7 2 8 1 9
REMARK H PARENT
REMARK Flexibility Score: inf
ROOT
ATOM      1  C   UNL     1     -95.692 149.744 238.622  1.00  0.00     0.006 C 
ENDROOT
BRANCH   1   2
ATOM      2  C   UNL     1     -96.931 149.084 239.253  1.00  0.00     0.053 C 
BRANCH   2   3
ATOM      3  C   UNL     1     -97.908 150.086 239.787  1.00  0.00     0.041 C 
ATOM      4  O   UNL     1     -98.317 151.024 239.055  1.00  0.00    -0.550 OA
ATOM      5  O   UNL     1     -98.343 150.005 241.105  1.00  0.00    -0.550 OA
ENDBRANCH   2   3
ENDBRANCH   1   2
BRANCH   1   6
ATOM      6  C   UNL     1     -94.697 148.744 238.004  1.00  0.00     0.000 C 
BRANCH   6   7
ATOM      7  C   UNL     1     -94.671 148.793 236.467  1.00  0.00    -0.000 C 
BRANCH   7   8
ATOM      8  C   UNL     1     -93.920 147.601 235.854  1.00  0.00    -0.003 C 
ATOM      9  C   UNL     1     -93.030 146.876 236.864  1.00  0.00     0.004 C 
ENDBRANCH   7   8
ENDBRANCH   6   7
ENDBRANCH   1   6
TORSDOF 5
ENDMDL
MODEL 4
REMARK VINA RESULT:    -3.055      3.725      5.661
REMARK INTER + INTRA:          -4.117
REMARK INTER:                  -4.014
REMARK INTRA:                  -0.103
REMARK UNBOUND:                -0.169
REMARK SMILES CCCCCCC(=O)[O-]
REMARK SMILES IDX 5 1 6 2 7 3 8 4 9 5 4 6 3 7 2 8 1 9
REMARK H PARENT
REMARK Flexibility Score: inf
ROOT
ATOM      1  C   UNL     1     -94.624 148.731 238.163  1.00  0.00     0.006 C 
ENDROOT
BRANCH   1   2
ATOM      2  C   UNL     1     -94.335 148.752 236.652  1.00  0.00     0.053 C 
BRANCH   2   3
ATOM      3  C   UNL     1     -93.562 147.552 236.197  1.00  0.00     0.041 C 
ATOM      4  O   UNL     1     -92.897 146.875 237.025  1.00  0.00    -0.550 OA
ATOM      5  O   UNL     1     -93.546 147.197 234.853  1.00  0.00    -0.550 OA
ENDBRANCH   2   3
ENDBRANCH   1   2
BRANCH   1   6
ATOM      6  C   UNL     1     -96.119 148.846 238.516  1.00  0.00     0.000 C 
BRANCH   6   7
ATOM      7  C   UNL     1     -96.515 150.250 239.003  1.00  0.00    -0.000 C 
BRANCH   7   8
ATOM      8  C   UNL     1     -98.008 150.350 239.355  1.00  0.00    -0.003 C 
ATOM      9  C   UNL     1     -98.324 149.831 240.758  1.00  0.00     0.004 C 
ENDBRANCH   7   8
ENDBRANCH   6   7
ENDBRANCH   1   6
TORSDOF 5
ENDMDL
MODEL 5
REMARK VINA RESULT:    -3.046      3.326      5.387
REMARK INTER + INTRA:          -4.106
REMARK INTER:                  -3.982
REMARK INTRA:                  -0.124
REMARK UNBOUND:                -0.169
REMARK SMILES CCCCCCC(=O)[O-]
REMARK SMILES IDX 5 1 6 2 7 3 8 4 9 5 4 6 3 7 2 8 1 9
REMARK H PARENT
REMARK Flexibility Score: inf
ROOT
ATOM      1  C   UNL     1     -96.188 149.006 238.379  1.00  0.00     0.006 C 
ENDROOT
BRANCH   1   2
ATOM      2  C   UNL     1     -94.667 148.827 238.224  1.00  0.00     0.053 C 
BRANCH   2   3
ATOM      3  C   UNL     1     -94.257 148.596 236.802  1.00  0.00     0.041 C 
ATOM      4  O   UNL     1     -93.370 147.746 236.529  1.00  0.00    -0.550 OA
ATOM      5  O   UNL     1     -94.828 149.343 235.779  1.00  0.00    -0.550 OA
ENDBRANCH   2   3
ENDBRANCH   1   2
BRANCH   1   6
ATOM      6  C   UNL     1     -96.594 150.291 239.124  1.00  0.00     0.000 C 
BRANCH   6   7
ATOM      7  C   UNL     1     -98.057 150.275 239.596  1.00  0.00    -0.000 C 
BRANCH   7   8
ATOM      8  C   UNL     1     -98.250 149.459 240.884  1.00  0.00    -0.003 C 
ATOM      9  C   UNL     1     -98.835 150.286 242.030  1.00  0.00     0.004 C 
ENDBRANCH   7   8
ENDBRANCH   6   7
ENDBRANCH   1   6
TORSDOF 5
ENDMDL
MODEL 6
REMARK VINA RESULT:    -3.026      3.396      5.195
REMARK INTER + INTRA:          -4.079
REMARK INTER:                  -3.857
REMARK INTRA:                  -0.222
REMARK UNBOUND:                -0.169
REMARK SMILES CCCCCCC(=O)[O-]
REMARK SMILES IDX 5 1 6 2 7 3 8 4 9 5 4 6 3 7 2 8 1 9
REMARK H PARENT
REMARK Flexibility Score: inf
ROOT
ATOM      1  C   UNL     1     -94.849 149.064 238.287  1.00  0.00     0.006 C 
ENDROOT
BRANCH   1   2
ATOM      2  C   UNL     1     -93.961 148.487 237.170  1.00  0.00     0.053 C 
BRANCH   2   3
ATOM      3  C   UNL     1     -94.604 148.576 235.820  1.00  0.00     0.041 C 
ATOM      4  O   UNL     1     -95.559 149.373 235.624  1.00  0.00    -0.550 OA
ATOM      5  O   UNL     1     -94.173 147.755 234.784  1.00  0.00    -0.550 OA
ENDBRANCH   2   3
ENDBRANCH   1   2
BRANCH   1   6
ATOM      6  C   UNL     1     -95.809 148.038 238.917  1.00  0.00     0.000 C 
BRANCH   6   7
ATOM      7  C   UNL     1     -97.081 148.681 239.496  1.00  0.00    -0.000 C 
BRANCH   7   8
ATOM      8  C   UNL     1     -97.084 150.211 239.351  1.00  0.00    -0.003 C 
ATOM      9  C   UNL     1     -98.392 150.750 238.771  1.00  0.00     0.004 C 
ENDBRANCH   7   8
ENDBRANCH   6   7
ENDBRANCH   1   6
TORSDOF 5
ENDMDL
MODEL 7
REMARK VINA RESULT:    -2.931      3.429      5.029
REMARK INTER + INTRA:          -3.957
REMARK INTER:                  -3.792
REMARK INTRA:                  -0.165
REMARK UNBOUND:                -0.169
REMARK SMILES CCCCCCC(=O)[O-]
REMARK SMILES IDX 5 1 6 2 7 3 8 4 9 5 4 6 3 7 2 8 1 9
REMARK H PARENT
REMARK Flexibility Score: inf
ROOT
ATOM      1  C   UNL     1     -96.365 149.352 238.171  1.00  0.00     0.006 C 
ENDROOT
BRANCH   1   2
ATOM      2  C   UNL     1     -94.851 149.084 238.250  1.00  0.00     0.053 C 
BRANCH   2   3
ATOM      3  C   UNL     1     -94.282 148.608 236.949  1.00  0.00     0.041 C 
ATOM      4  O   UNL     1     -94.658 149.128 235.865  1.00  0.00    -0.550 OA
ATOM      5  O   UNL     1     -93.361 147.568 236.926  1.00  0.00    -0.550 OA
ENDBRANCH   2   3
ENDBRANCH   1   2
BRANCH   1   6
ATOM      6  C   UNL     1     -96.895 150.281 239.279  1.00  0.00     0.000 C 
BRANCH   6   7
ATOM      7  C   UNL     1     -98.330 150.768 239.019  1.00  0.00    -0.000 C 
BRANCH   7   8
ATOM      8  C   UNL     1     -98.915 150.205 237.714  1.00  0.00    -0.003 C 
ATOM      9  C   UNL     1     -99.656 151.260 236.891  1.00  0.00     0.004 C 
ENDBRANCH   7   8
ENDBRANCH   6   7
ENDBRANCH   1   6
TORSDOF 5
ENDMDL
MODEL 8
REMARK VINA RESULT:    -2.866      2.228      2.387
REMARK INTER + INTRA:          -3.873
REMARK INTER:                  -3.656
REMARK INTRA:                  -0.217
REMARK UNBOUND:                -0.169
REMARK SMILES CCCCCCC(=O)[O-]
REMARK SMILES IDX 5 1 6 2 7 3 8 4 9 5 4 6 3 7 2 8 1 9
REMARK H PARENT
REMARK Flexibility Score: inf
ROOT
ATOM      1  C   UNL     1     -97.011 149.422 239.151  1.00  0.00     0.006 C 
ENDROOT
BRANCH   1   2
ATOM      2  C   UNL     1     -97.915 150.664 239.054  1.00  0.00     0.053 C 
BRANCH   2   3
ATOM      3  C   UNL     1     -98.920 150.559 237.947  1.00  0.00     0.041 C 
ATOM      4  O   UNL     1     -98.564 150.171 236.804  1.00  0.00    -0.550 OA
ATOM      5  O   UNL     1    -100.243 150.922 238.167  1.00  0.00    -0.550 OA
ENDBRANCH   2   3
ENDBRANCH   1   2
BRANCH   1   6
ATOM      6  C   UNL     1     -95.564 149.663 238.684  1.00  0.00     0.000 C 
BRANCH   6   7
ATOM      7  C   UNL     1     -94.789 148.359 238.431  1.00  0.00    -0.000 C 
BRANCH   7   8
ATOM      8  C   UNL     1     -94.184 148.298 237.020  1.00  0.00    -0.003 C 
ATOM      9  C   UNL     1     -94.872 149.247 236.037  1.00  0.00     0.004 C 
ENDBRANCH   7   8
ENDBRANCH   6   7
ENDBRANCH   1   6
TORSDOF 5
ENDMDL
MODEL 9
REMARK VINA RESULT:    -2.837      3.326      4.905
REMARK INTER + INTRA:          -3.836
REMARK INTER:                  -3.474
REMARK INTRA:                  -0.362
REMARK UNBOUND:                -0.169
REMARK SMILES CCCCCCC(=O)[O-]
REMARK SMILES IDX 5 1 6 2 7 3 8 4 9 5 4 6 3 7 2 8 1 9
REMARK H PARENT
REMARK Flexibility Score: inf
ROOT
ATOM      1  C   UNL     1     -94.621 149.082 236.339  1.00  0.00     0.006 C 
ENDROOT
BRANCH   1   2
ATOM      2  C   UNL     1     -95.335 148.719 235.024  1.00  0.00     0.053 C 
BRANCH   2   3
ATOM      3  C   UNL     1     -96.656 149.410 234.876  1.00  0.00     0.041 C 
ATOM      4  O   UNL     1     -97.561 149.236 235.734  1.00  0.00    -0.550 OA
ATOM      5  O   UNL     1     -96.903 150.220 233.774  1.00  0.00    -0.550 OA
ENDBRANCH   2   3
ENDBRANCH   1   2
BRANCH   1   6
ATOM      6  C   UNL     1     -94.630 147.955 237.388  1.00  0.00     0.000 C 
BRANCH   6   7
ATOM      7  C   UNL     1     -95.349 148.350 238.688  1.00  0.00    -0.000 C 
BRANCH   7   8
ATOM      8  C   UNL     1     -95.737 149.837 238.717  1.00  0.00    -0.003 C 
ATOM      9  C   UNL     1     -97.120 150.079 239.323  1.00  0.00     0.004 C 
ENDBRANCH   7   8
ENDBRANCH   6   7
ENDBRANCH   1   6
TORSDOF 5
ENDMDL
