MODEL 1
REMARK VINA RESULT:    -5.488      0.000      0.000
REMARK INTER + INTRA:          -8.524
REMARK INTER:                  -8.055
REMARK INTRA:                  -0.469
REMARK UNBOUND:                -0.469
REMARK SMILES O=C([O-])CCCCCCCC(=O)[O-]
REMARK SMILES IDX 7 1 6 2 5 3 4 4 2 5 1 6 3 7 8 8 9 9 10 10 11 11 12 12 13 13
REMARK H PARENT
REMARK Flexibility Score: inf
ROOT
ATOM      1  C   UNL     1      53.682  49.784   4.312  1.00  0.00     0.000 C 
ENDROOT
BRANCH   1   2
ATOM      2  C   UNL     1      54.502  51.077   4.401  1.00  0.00     0.000 C 
BRANCH   2   3
ATOM      3  C   UNL     1      53.729  52.169   5.149  1.00  0.00     0.006 C 
BRANCH   3   4
ATOM      4  C   UNL     1      54.595  52.806   6.239  1.00  0.00     0.053 C 
BRANCH   4   5
ATOM      5  C   UNL     1      54.179  52.319   7.591  1.00  0.00     0.041 C 
ATOM      6  O   UNL     1      53.468  53.044   8.335  1.00  0.00    -0.550 OA
ATOM      7  O   UNL     1      54.620  51.084   8.051  1.00  0.00    -0.550 OA
ENDBRANCH   4   5
ENDBRANCH   3   4
ENDBRANCH   2   3
ENDBRANCH   1   2
BRANCH   1   8
ATOM      8  C   UNL     1      52.198  50.055   4.584  1.00  0.00     0.000 C 
BRANCH   8   9
ATOM      9  C   UNL     1      51.309  49.064   3.822  1.00  0.00     0.006 C 
BRANCH   9  10
ATOM     10  C   UNL     1      50.008  49.733   3.365  1.00  0.00     0.053 C 
BRANCH  10  11
ATOM     11  C   UNL     1      49.156  50.082   4.545  1.00  0.00     0.041 C 
ATOM     12  O   UNL     1      48.775  51.268   4.723  1.00  0.00    -0.550 OA
ATOM     13  O   UNL     1      48.824  49.104   5.474  1.00  0.00    -0.550 OA
ENDBRANCH  10  11
ENDBRANCH   9  10
ENDBRANCH   8   9
ENDBRANCH   1   8
TORSDOF 8
ENDMDL
MODEL 2
REMARK VINA RESULT:    -5.473      1.356      5.808
REMARK INTER + INTRA:          -8.503
REMARK INTER:                  -8.018
REMARK INTRA:                  -0.485
REMARK UNBOUND:                -0.469
REMARK SMILES O=C([O-])CCCCCCCC(=O)[O-]
REMARK SMILES IDX 7 1 6 2 5 3 4 4 2 5 1 6 3 7 8 8 9 9 10 10 11 11 12 12 13 13
REMARK H PARENT
REMARK Flexibility Score: inf
ROOT
ATOM      1  C   UNL     1      53.258  49.744   4.280  1.00  0.00     0.000 C 
ENDROOT
BRANCH   1   2
ATOM      2  C   UNL     1      52.058  50.590   4.723  1.00  0.00     0.000 C 
BRANCH   2   3
ATOM      3  C   UNL     1      50.770  49.758   4.727  1.00  0.00     0.006 C 
BRANCH   3   4
ATOM      4  C   UNL     1      50.727  48.805   3.529  1.00  0.00     0.053 C 
BRANCH   4   5
ATOM      5  C   UNL     1      49.440  48.960   2.782  1.00  0.00     0.041 C 
ATOM      6  O   UNL     1      48.994  50.107   2.518  1.00  0.00    -0.550 OA
ATOM      7  O   UNL     1      48.707  47.837   2.421  1.00  0.00    -0.550 OA
ENDBRANCH   4   5
ENDBRANCH   3   4
ENDBRANCH   2   3
ENDBRANCH   1   2
BRANCH   1   8
ATOM      8  C   UNL     1      54.535  50.590   4.218  1.00  0.00     0.000 C 
BRANCH   8   9
ATOM      9  C   UNL     1      54.331  51.945   4.906  1.00  0.00     0.006 C 
BRANCH   9  10
ATOM     10  C   UNL     1      55.151  52.035   6.197  1.00  0.00     0.053 C 
BRANCH  10  11
ATOM     11  C   UNL     1      54.275  51.815   7.390  1.00  0.00     0.041 C 
ATOM     12  O   UNL     1      54.522  50.879   8.194  1.00  0.00    -0.550 OA
ATOM     13  O   UNL     1      53.156  52.616   7.587  1.00  0.00    -0.550 OA
ENDBRANCH  10  11
ENDBRANCH   9  10
ENDBRANCH   8   9
ENDBRANCH   1   8
TORSDOF 8
ENDMDL
MODEL 3
REMARK VINA RESULT:    -5.390      0.530      5.308
REMARK INTER + INTRA:          -8.381
REMARK INTER:                  -7.863
REMARK INTRA:                  -0.518
REMARK UNBOUND:                -0.469
REMARK SMILES O=C([O-])CCCCCCCC(=O)[O-]
REMARK SMILES IDX 7 1 6 2 5 3 4 4 2 5 1 6 3 7 8 8 9 9 10 10 11 11 12 12 13 13
REMARK H PARENT
REMARK Flexibility Score: inf
ROOT
ATOM      1  C   UNL     1      53.523  49.729   4.282  1.00  0.00     0.000 C 
ENDROOT
BRANCH   1   2
ATOM      2  C   UNL     1      52.131  50.216   4.702  1.00  0.00     0.000 C 
BRANCH   2   3
ATOM      3  C   UNL     1      51.032  49.342   4.086  1.00  0.00     0.006 C 
BRANCH   3   4
ATOM      4  C   UNL     1      49.853  50.194   3.612  1.00  0.00     0.053 C 
BRANCH   4   5
ATOM      5  C   UNL     1      48.800  50.270   4.672  1.00  0.00     0.041 C 
ATOM      6  O   UNL     1      47.997  51.239   4.702  1.00  0.00    -0.550 OA
ATOM      7  O   UNL     1      48.737  49.294   5.660  1.00  0.00    -0.550 OA
ENDBRANCH   4   5
ENDBRANCH   3   4
ENDBRANCH   2   3
ENDBRANCH   1   2
BRANCH   1   8
ATOM      8  C   UNL     1      54.531  50.883   4.274  1.00  0.00     0.000 C 
BRANCH   8   9
ATOM      9  C   UNL     1      54.052  52.039   5.162  1.00  0.00     0.006 C 
BRANCH   9  10
ATOM     10  C   UNL     1      54.928  52.171   6.412  1.00  0.00     0.053 C 
BRANCH  10  11
ATOM     11  C   UNL     1      54.165  51.764   7.632  1.00  0.00     0.041 C 
ATOM     12  O   UNL     1      53.746  52.635   8.438  1.00  0.00    -0.550 OA
ATOM     13  O   UNL     1      53.957  50.417   7.904  1.00  0.00    -0.550 OA
ENDBRANCH  10  11
ENDBRANCH   9  10
ENDBRANCH   8   9
ENDBRANCH   1   8
TORSDOF 8
ENDMDL
MODEL 4
REMARK VINA RESULT:    -5.378      2.075      2.874
REMARK INTER + INTRA:          -8.363
REMARK INTER:                  -7.872
REMARK INTRA:                  -0.491
REMARK UNBOUND:                -0.469
REMARK SMILES O=C([O-])CCCCCCCC(=O)[O-]
REMARK SMILES IDX 7 1 6 2 5 3 4 4 2 5 1 6 3 7 8 8 9 9 10 10 11 11 12 12 13 13
REMARK H PARENT
REMARK Flexibility Score: inf
ROOT
ATOM      1  C   UNL     1      51.647  49.224   3.845  1.00  0.00     0.000 C 
ENDROOT
BRANCH   1   2
ATOM      2  C   UNL     1      51.381  50.428   4.757  1.00  0.00     0.000 C 
BRANCH   2   3
ATOM      3  C   UNL     1      52.675  51.200   5.039  1.00  0.00     0.006 C 
BRANCH   3   4
ATOM      4  C   UNL     1      53.890  50.466   4.465  1.00  0.00     0.053 C 
BRANCH   4   5
ATOM      5  C   UNL     1      55.052  51.399   4.332  1.00  0.00     0.041 C 
ATOM      6  O   UNL     1      54.949  52.597   4.704  1.00  0.00    -0.550 OA
ATOM      7  O   UNL     1      56.234  50.958   3.749  1.00  0.00    -0.550 OA
ENDBRANCH   4   5
ENDBRANCH   3   4
ENDBRANCH   2   3
ENDBRANCH   1   2
BRANCH   1   8
ATOM      8  C   UNL     1      50.334  48.569   3.402  1.00  0.00     0.000 C 
BRANCH   8   9
ATOM      9  C   UNL     1      49.549  49.490   2.460  1.00  0.00     0.006 C 
BRANCH   9  10
ATOM     10  C   UNL     1      48.046  49.419   2.748  1.00  0.00     0.053 C 
BRANCH  10  11
ATOM     11  C   UNL     1      47.739  50.024   4.081  1.00  0.00     0.041 C 
ATOM     12  O   UNL     1      47.256  49.316   5.003  1.00  0.00    -0.550 OA
ATOM     13  O   UNL     1      47.940  51.383   4.290  1.00  0.00    -0.550 OA
ENDBRANCH  10  11
ENDBRANCH   9  10
ENDBRANCH   8   9
ENDBRANCH   1   8
TORSDOF 8
ENDMDL
MODEL 5
REMARK VINA RESULT:    -5.363      2.354      5.942
REMARK INTER + INTRA:          -8.340
REMARK INTER:                  -7.879
REMARK INTRA:                  -0.461
REMARK UNBOUND:                -0.469
REMARK SMILES O=C([O-])CCCCCCCC(=O)[O-]
REMARK SMILES IDX 7 1 6 2 5 3 4 4 2 5 1 6 3 7 8 8 9 9 10 10 11 11 12 12 13 13
REMARK H PARENT
REMARK Flexibility Score: inf
ROOT
ATOM      1  C   UNL     1      51.374  48.994   3.866  1.00  0.00     0.000 C 
ENDROOT
BRANCH   1   2
ATOM      2  C   UNL     1      50.000  48.624   3.296  1.00  0.00     0.000 C 
BRANCH   2   3
ATOM      3  C   UNL     1      49.471  49.730   2.375  1.00  0.00     0.006 C 
BRANCH   3   4
ATOM      4  C   UNL     1      48.025  50.092   2.726  1.00  0.00     0.053 C 
BRANCH   4   5
ATOM      5  C   UNL     1      47.974  51.391   3.467  1.00  0.00     0.041 C 
ATOM      6  O   UNL     1      47.176  51.541   4.429  1.00  0.00    -0.550 OA
ATOM      7  O   UNL     1      48.773  52.454   3.062  1.00  0.00    -0.550 OA
ENDBRANCH   4   5
ENDBRANCH   3   4
ENDBRANCH   2   3
ENDBRANCH   1   2
BRANCH   1   8
ATOM      8  C   UNL     1      51.317  50.328   4.619  1.00  0.00     0.000 C 
BRANCH   8   9
ATOM      9  C   UNL     1      52.712  50.752   5.095  1.00  0.00     0.006 C 
BRANCH   9  10
ATOM     10  C   UNL     1      53.806  50.004   4.326  1.00  0.00     0.053 C 
BRANCH  10  11
ATOM     11  C   UNL     1      55.016  50.868   4.163  1.00  0.00     0.041 C 
ATOM     12  O   UNL     1      55.007  52.057   4.578  1.00  0.00    -0.550 OA
ATOM     13  O   UNL     1      56.138  50.376   3.509  1.00  0.00    -0.550 OA
ENDBRANCH  10  11
ENDBRANCH   9  10
ENDBRANCH   8   9
ENDBRANCH   1   8
TORSDOF 8
ENDMDL
MODEL 6
REMARK VINA RESULT:    -5.315      1.352      1.905
REMARK INTER + INTRA:          -8.270
REMARK INTER:                  -7.793
REMARK INTRA:                  -0.477
REMARK UNBOUND:                -0.469
REMARK SMILES O=C([O-])CCCCCCCC(=O)[O-]
REMARK SMILES IDX 7 1 6 2 5 3 4 4 2 5 1 6 3 7 8 8 9 9 10 10 11 11 12 12 13 13
REMARK H PARENT
REMARK Flexibility Score: inf
ROOT
ATOM      1  C   UNL     1      53.120  49.747   4.238  1.00  0.00     0.000 C 
ENDROOT
BRANCH   1   2
ATOM      2  C   UNL     1      54.441  50.514   4.369  1.00  0.00     0.000 C 
BRANCH   2   3
ATOM      3  C   UNL     1      54.201  51.942   4.873  1.00  0.00     0.006 C 
BRANCH   3   4
ATOM      4  C   UNL     1      55.087  52.254   6.081  1.00  0.00     0.053 C 
BRANCH   4   5
ATOM      5  C   UNL     1      54.369  51.935   7.355  1.00  0.00     0.041 C 
ATOM      6  O   UNL     1      54.691  50.920   8.026  1.00  0.00    -0.550 OA
ATOM      7  O   UNL     1      53.310  52.730   7.774  1.00  0.00    -0.550 OA
ENDBRANCH   4   5
ENDBRANCH   3   4
ENDBRANCH   2   3
ENDBRANCH   1   2
BRANCH   1   8
ATOM      8  C   UNL     1      51.992  50.461   4.992  1.00  0.00     0.000 C 
BRANCH   8   9
ATOM      9  C   UNL     1      50.640  50.232   4.306  1.00  0.00     0.006 C 
BRANCH   9  10
ATOM     10  C   UNL     1      50.654  48.942   3.480  1.00  0.00     0.053 C 
BRANCH  10  11
ATOM     11  C   UNL     1      49.282  48.631   2.971  1.00  0.00     0.041 C 
ATOM     12  O   UNL     1      48.959  47.445   2.702  1.00  0.00    -0.550 OA
ATOM     13  O   UNL     1      48.375  49.660   2.747  1.00  0.00    -0.550 OA
ENDBRANCH  10  11
ENDBRANCH   9  10
ENDBRANCH   8   9
ENDBRANCH   1   8
TORSDOF 8
ENDMDL
MODEL 7
REMARK VINA RESULT:    -5.266      1.383      5.679
REMARK INTER + INTRA:          -8.198
REMARK INTER:                  -7.806
REMARK INTRA:                  -0.392
REMARK UNBOUND:                -0.469
REMARK SMILES O=C([O-])CCCCCCCC(=O)[O-]
REMARK SMILES IDX 7 1 6 2 5 3 4 4 2 5 1 6 3 7 8 8 9 9 10 10 11 11 12 12 13 13
REMARK H PARENT
REMARK Flexibility Score: inf
ROOT
ATOM      1  C   UNL     1      52.137  49.978   4.283  1.00  0.00     0.000 C 
ENDROOT
BRANCH   1   2
ATOM      2  C   UNL     1      51.444  48.729   3.725  1.00  0.00     0.000 C 
BRANCH   2   3
ATOM      3  C   UNL     1      49.920  48.896   3.728  1.00  0.00     0.006 C 
BRANCH   3   4
ATOM      4  C   UNL     1      49.457  49.734   2.533  1.00  0.00     0.053 C 
BRANCH   4   5
ATOM      5  C   UNL     1      48.635  50.895   2.994  1.00  0.00     0.041 C 
ATOM      6  O   UNL     1      47.388  50.899   2.819  1.00  0.00    -0.550 OA
ATOM      7  O   UNL     1      49.252  51.998   3.571  1.00  0.00    -0.550 OA
ENDBRANCH   4   5
ENDBRANCH   3   4
ENDBRANCH   2   3
ENDBRANCH   1   2
BRANCH   1   8
ATOM      8  C   UNL     1      53.619  49.706   4.565  1.00  0.00     0.000 C 
BRANCH   8   9
ATOM      9  C   UNL     1      54.475  50.936   4.242  1.00  0.00     0.006 C 
BRANCH   9  10
ATOM     10  C   UNL     1      53.960  52.174   4.984  1.00  0.00     0.053 C 
BRANCH  10  11
ATOM     11  C   UNL     1      54.127  52.007   6.461  1.00  0.00     0.041 C 
ATOM     12  O   UNL     1      55.265  51.779   6.949  1.00  0.00    -0.550 OA
ATOM     13  O   UNL     1      53.017  52.052   7.295  1.00  0.00    -0.550 OA
ENDBRANCH  10  11
ENDBRANCH   9  10
ENDBRANCH   8   9
ENDBRANCH   1   8
TORSDOF 8
ENDMDL
MODEL 8
REMARK VINA RESULT:    -5.062      1.925      6.344
REMARK INTER + INTRA:          -7.898
REMARK INTER:                  -7.538
REMARK INTRA:                  -0.360
REMARK UNBOUND:                -0.469
REMARK SMILES O=C([O-])CCCCCCCC(=O)[O-]
REMARK SMILES IDX 7 1 6 2 5 3 4 4 2 5 1 6 3 7 8 8 9 9 10 10 11 11 12 12 13 13
REMARK H PARENT
REMARK Flexibility Score: inf
ROOT
ATOM      1  C   UNL     1      51.635  49.332   3.874  1.00  0.00     0.000 C 
ENDROOT
BRANCH   1   2
ATOM      2  C   UNL     1      50.635  50.390   4.356  1.00  0.00     0.000 C 
BRANCH   2   3
ATOM      3  C   UNL     1      49.475  50.542   3.365  1.00  0.00     0.006 C 
BRANCH   3   4
ATOM      4  C   UNL     1      49.461  49.391   2.355  1.00  0.00     0.053 C 
BRANCH   4   5
ATOM      5  C   UNL     1      48.130  48.707   2.357  1.00  0.00     0.041 C 
ATOM      6  O   UNL     1      47.646  48.260   1.285  1.00  0.00    -0.550 OA
ATOM      7  O   UNL     1      47.402  48.609   3.536  1.00  0.00    -0.550 OA
ENDBRANCH   4   5
ENDBRANCH   3   4
ENDBRANCH   2   3
ENDBRANCH   1   2
BRANCH   1   8
ATOM      8  C   UNL     1      53.068  49.707   4.271  1.00  0.00     0.000 C 
BRANCH   8   9
ATOM      9  C   UNL     1      53.079  50.915   5.215  1.00  0.00     0.006 C 
BRANCH   9  10
ATOM     10  C   UNL     1      53.364  50.482   6.657  1.00  0.00     0.053 C 
BRANCH  10  11
ATOM     11  C   UNL     1      54.321  51.430   7.309  1.00  0.00     0.041 C 
ATOM     12  O   UNL     1      54.133  51.805   8.496  1.00  0.00    -0.550 OA
ATOM     13  O   UNL     1      55.394  51.938   6.587  1.00  0.00    -0.550 OA
ENDBRANCH  10  11
ENDBRANCH   9  10
ENDBRANCH   8   9
ENDBRANCH   1   8
TORSDOF 8
ENDMDL
MODEL 9
REMARK VINA RESULT:    -5.008      1.582      2.249
REMARK INTER + INTRA:          -7.820
REMARK INTER:                  -7.381
REMARK INTRA:                  -0.439
REMARK UNBOUND:                -0.469
REMARK SMILES O=C([O-])CCCCCCCC(=O)[O-]
REMARK SMILES IDX 7 1 6 2 5 3 4 4 2 5 1 6 3 7 8 8 9 9 10 10 11 11 12 12 13 13
REMARK H PARENT
REMARK Flexibility Score: inf
ROOT
ATOM      1  C   UNL     1      51.302  49.806   4.286  1.00  0.00     0.000 C 
ENDROOT
BRANCH   1   2
ATOM      2  C   UNL     1      52.835  49.766   4.284  1.00  0.00     0.000 C 
BRANCH   2   3
ATOM      3  C   UNL     1      53.410  50.677   5.375  1.00  0.00     0.006 C 
BRANCH   3   4
ATOM      4  C   UNL     1      52.632  51.993   5.458  1.00  0.00     0.053 C 
BRANCH   4   5
ATOM      5  C   UNL     1      52.395  52.374   6.886  1.00  0.00     0.041 C 
ATOM      6  O   UNL     1      51.238  52.676   7.278  1.00  0.00    -0.550 OA
ATOM      7  O   UNL     1      53.463  52.444   7.772  1.00  0.00    -0.550 OA
ENDBRANCH   4   5
ENDBRANCH   3   4
ENDBRANCH   2   3
ENDBRANCH   1   2
BRANCH   1   8
ATOM      8  C   UNL     1      50.719  48.600   3.540  1.00  0.00     0.000 C 
BRANCH   8   9
ATOM      9  C   UNL     1      49.441  48.984   2.785  1.00  0.00     0.006 C 
BRANCH   9  10
ATOM     10  C   UNL     1      49.219  50.500   2.816  1.00  0.00     0.053 C 
BRANCH  10  11
ATOM     11  C   UNL     1      47.864  50.820   3.364  1.00  0.00     0.041 C 
ATOM     12  O   UNL     1      47.554  50.470   4.532  1.00  0.00    -0.550 OA
ATOM     13  O   UNL     1      46.926  51.462   2.564  1.00  0.00    -0.550 OA
ENDBRANCH  10  11
ENDBRANCH   9  10
ENDBRANCH   8   9
ENDBRANCH   1   8
TORSDOF 8
ENDMDL
