MODEL 1
REMARK VINA RESULT:    -2.764      0.000      0.000
REMARK INTER + INTRA:          -4.228
REMARK INTER:                  -4.057
REMARK INTRA:                  -0.171
REMARK UNBOUND:                -0.171
REMARK SMILES O=C([O-])CCCCCCCC(=O)[O-]
REMARK SMILES IDX 7 1 6 2 5 3 4 4 2 5 1 6 3 7 8 8 9 9 10 10 11 11 12 12 13 13
REMARK H PARENT
REMARK Flexibility Score: inf
ROOT
ATOM      1  C   UNL     1      12.653   9.794  14.834  1.00  0.00     0.000 C 
ENDROOT
BRANCH   1   2
ATOM      2  C   UNL     1      13.777   8.900  15.385  1.00  0.00     0.000 C 
BRANCH   2   3
ATOM      3  C   UNL     1      13.391   7.407  15.391  1.00  0.00     0.006 C 
BRANCH   3   4
ATOM      4  C   UNL     1      12.410   7.030  16.513  1.00  0.00     0.053 C 
BRANCH   4   5
ATOM      5  C   UNL     1      12.889   5.862  17.316  1.00  0.00     0.041 C 
ATOM      6  O   UNL     1      13.266   4.808  16.740  1.00  0.00    -0.550 OA
ATOM      7  O   UNL     1      12.895   5.928  18.704  1.00  0.00    -0.550 OA
ENDBRANCH   4   5
ENDBRANCH   3   4
ENDBRANCH   2   3
ENDBRANCH   1   2
BRANCH   1   8
ATOM      8  C   UNL     1      12.733  11.244  15.348  1.00  0.00     0.000 C 
BRANCH   8   9
ATOM      9  C   UNL     1      12.506  12.330  14.276  1.00  0.00     0.006 C 
BRANCH   9  10
ATOM     10  C   UNL     1      13.130  13.695  14.610  1.00  0.00     0.053 C 
BRANCH  10  11
ATOM     11  C   UNL     1      13.181  14.596  13.415  1.00  0.00     0.041 C 
ATOM     12  O   UNL     1      12.885  14.153  12.274  1.00  0.00    -0.550 OA
ATOM     13  O   UNL     1      13.521  15.935  13.567  1.00  0.00    -0.550 OA
ENDBRANCH  10  11
ENDBRANCH   9  10
ENDBRANCH   8   9
ENDBRANCH   1   8
TORSDOF 8
ENDMDL
MODEL 2
REMARK VINA RESULT:    -2.758      0.111      8.009
REMARK INTER + INTRA:          -4.220
REMARK INTER:                  -4.061
REMARK INTRA:                  -0.159
REMARK UNBOUND:                -0.171
REMARK SMILES O=C([O-])CCCCCCCC(=O)[O-]
REMARK SMILES IDX 7 1 6 2 5 3 4 4 2 5 1 6 3 7 8 8 9 9 10 10 11 11 12 12 13 13
REMARK H PARENT
REMARK Flexibility Score: inf
ROOT
ATOM      1  C   UNL     1      12.595   9.895  14.931  1.00  0.00     0.000 C 
ENDROOT
BRANCH   1   2
ATOM      2  C   UNL     1      12.824  11.336  15.417  1.00  0.00     0.000 C 
BRANCH   2   3
ATOM      3  C   UNL     1      12.563  12.379  14.310  1.00  0.00     0.006 C 
BRANCH   3   4
ATOM      4  C   UNL     1      13.153  13.764  14.620  1.00  0.00     0.053 C 
BRANCH   4   5
ATOM      5  C   UNL     1      13.169  14.655  13.417  1.00  0.00     0.041 C 
ATOM      6  O   UNL     1      13.428  15.881  13.539  1.00  0.00    -0.550 OA
ATOM      7  O   UNL     1      12.873  14.136  12.163  1.00  0.00    -0.550 OA
ENDBRANCH   4   5
ENDBRANCH   3   4
ENDBRANCH   2   3
ENDBRANCH   1   2
BRANCH   1   8
ATOM      8  C   UNL     1      13.702   8.926  15.386  1.00  0.00     0.000 C 
BRANCH   8   9
ATOM      9  C   UNL     1      13.303   7.435  15.393  1.00  0.00     0.006 C 
BRANCH   9  10
ATOM     10  C   UNL     1      12.369   7.031  16.545  1.00  0.00     0.053 C 
BRANCH  10  11
ATOM     11  C   UNL     1      12.901   5.861  17.314  1.00  0.00     0.041 C 
ATOM     12  O   UNL     1      12.864   5.861  18.572  1.00  0.00    -0.550 OA
ATOM     13  O   UNL     1      13.408   4.756  16.640  1.00  0.00    -0.550 OA
ENDBRANCH  10  11
ENDBRANCH   9  10
ENDBRANCH   8   9
ENDBRANCH   1   8
TORSDOF 8
ENDMDL
MODEL 3
REMARK VINA RESULT:    -2.747      0.079      7.917
REMARK INTER + INTRA:          -4.204
REMARK INTER:                  -4.038
REMARK INTRA:                  -0.165
REMARK UNBOUND:                -0.171
REMARK SMILES O=C([O-])CCCCCCCC(=O)[O-]
REMARK SMILES IDX 7 1 6 2 5 3 4 4 2 5 1 6 3 7 8 8 9 9 10 10 11 11 12 12 13 13
REMARK H PARENT
REMARK Flexibility Score: inf
ROOT
ATOM      1  C   UNL     1      12.660   9.863  14.874  1.00  0.00     0.000 C 
ENDROOT
BRANCH   1   2
ATOM      2  C   UNL     1      12.871  11.295  15.393  1.00  0.00     0.000 C 
BRANCH   2   3
ATOM      3  C   UNL     1      12.552  12.361  14.324  1.00  0.00     0.006 C 
BRANCH   3   4
ATOM      4  C   UNL     1      13.150  13.742  14.637  1.00  0.00     0.053 C 
BRANCH   4   5
ATOM      5  C   UNL     1      13.184  14.631  13.433  1.00  0.00     0.041 C 
ATOM      6  O   UNL     1      12.949  14.159  12.289  1.00  0.00    -0.550 OA
ATOM      7  O   UNL     1      13.500  15.977  13.571  1.00  0.00    -0.550 OA
ENDBRANCH   4   5
ENDBRANCH   3   4
ENDBRANCH   2   3
ENDBRANCH   1   2
BRANCH   1   8
ATOM      8  C   UNL     1      13.749   8.885  15.352  1.00  0.00     0.000 C 
BRANCH   8   9
ATOM      9  C   UNL     1      13.331   7.400  15.373  1.00  0.00     0.006 C 
BRANCH   9  10
ATOM     10  C   UNL     1      12.379   7.021  16.518  1.00  0.00     0.053 C 
BRANCH  10  11
ATOM     11  C   UNL     1      12.907   5.880  17.332  1.00  0.00     0.041 C 
ATOM     12  O   UNL     1      13.263   4.812  16.769  1.00  0.00    -0.550 OA
ATOM     13  O   UNL     1      13.036   6.008  18.710  1.00  0.00    -0.550 OA
ENDBRANCH  10  11
ENDBRANCH   9  10
ENDBRANCH   8   9
ENDBRANCH   1   8
TORSDOF 8
ENDMDL
MODEL 4
REMARK VINA RESULT:    -2.666      0.540      7.878
REMARK INTER + INTRA:          -4.085
REMARK INTER:                  -3.901
REMARK INTRA:                  -0.183
REMARK UNBOUND:                -0.171
REMARK SMILES O=C([O-])CCCCCCCC(=O)[O-]
REMARK SMILES IDX 7 1 6 2 5 3 4 4 2 5 1 6 3 7 8 8 9 9 10 10 11 11 12 12 13 13
REMARK H PARENT
REMARK Flexibility Score: inf
ROOT
ATOM      1  C   UNL     1      12.704   9.796  14.901  1.00  0.00     0.000 C 
ENDROOT
BRANCH   1   2
ATOM      2  C   UNL     1      12.981  11.240  15.354  1.00  0.00     0.000 C 
BRANCH   2   3
ATOM      3  C   UNL     1      12.192  12.277  14.528  1.00  0.00     0.006 C 
BRANCH   3   4
ATOM      4  C   UNL     1      12.961  13.587  14.292  1.00  0.00     0.053 C 
BRANCH   4   5
ATOM      5  C   UNL     1      12.920  14.018  12.859  1.00  0.00     0.041 C 
ATOM      6  O   UNL     1      12.579  13.204  11.961  1.00  0.00    -0.550 OA
ATOM      7  O   UNL     1      13.282  15.313  12.511  1.00  0.00    -0.550 OA
ENDBRANCH   4   5
ENDBRANCH   3   4
ENDBRANCH   2   3
ENDBRANCH   1   2
BRANCH   1   8
ATOM      8  C   UNL     1      13.808   8.812  15.329  1.00  0.00     0.000 C 
BRANCH   8   9
ATOM      9  C   UNL     1      13.381   7.330  15.372  1.00  0.00     0.006 C 
BRANCH   9  10
ATOM     10  C   UNL     1      12.383   6.986  16.490  1.00  0.00     0.053 C 
BRANCH  10  11
ATOM     11  C   UNL     1      12.861   5.846  17.337  1.00  0.00     0.041 C 
ATOM     12  O   UNL     1      12.873   5.952  18.591  1.00  0.00    -0.550 OA
ATOM     13  O   UNL     1      13.259   4.656  16.741  1.00  0.00    -0.550 OA
ENDBRANCH  10  11
ENDBRANCH   9  10
ENDBRANCH   8   9
ENDBRANCH   1   8
TORSDOF 8
ENDMDL
MODEL 5
REMARK VINA RESULT:    -2.256      1.029      1.704
REMARK INTER + INTRA:          -3.482
REMARK INTER:                  -3.312
REMARK INTRA:                  -0.169
REMARK UNBOUND:                -0.171
REMARK SMILES O=C([O-])CCCCCCCC(=O)[O-]
REMARK SMILES IDX 7 1 6 2 5 3 4 4 2 5 1 6 3 7 8 8 9 9 10 10 11 11 12 12 13 13
REMARK H PARENT
REMARK Flexibility Score: inf
ROOT
ATOM      1  C   UNL     1      13.570   9.220  15.501  1.00  0.00     0.000 C 
ENDROOT
BRANCH   1   2
ATOM      2  C   UNL     1      13.245   7.727  15.322  1.00  0.00     0.000 C 
BRANCH   2   3
ATOM      3  C   UNL     1      12.397   7.167  16.482  1.00  0.00     0.006 C 
BRANCH   3   4
ATOM      4  C   UNL     1      12.876   5.796  16.986  1.00  0.00     0.053 C 
BRANCH   4   5
ATOM      5  C   UNL     1      12.934   5.730  18.481  1.00  0.00     0.041 C 
ATOM      6  O   UNL     1      13.686   6.510  19.121  1.00  0.00    -0.550 OA
ATOM      7  O   UNL     1      12.175   4.789  19.166  1.00  0.00    -0.550 OA
ENDBRANCH   4   5
ENDBRANCH   3   4
ENDBRANCH   2   3
ENDBRANCH   1   2
BRANCH   1   8
ATOM      8  C   UNL     1      12.581  10.142  14.764  1.00  0.00     0.000 C 
BRANCH   8   9
ATOM      9  C   UNL     1      12.658  11.631  15.160  1.00  0.00     0.006 C 
BRANCH   9  10
ATOM     10  C   UNL     1      12.599  12.609  13.976  1.00  0.00     0.053 C 
BRANCH  10  11
ATOM     11  C   UNL     1      13.072  13.979  14.355  1.00  0.00     0.041 C 
ATOM     12  O   UNL     1      13.161  14.305  15.568  1.00  0.00    -0.550 OA
ATOM     13  O   UNL     1      13.448  14.883  13.370  1.00  0.00    -0.550 OA
ENDBRANCH  10  11
ENDBRANCH   9  10
ENDBRANCH   8   9
ENDBRANCH   1   8
TORSDOF 8
ENDMDL
MODEL 6
REMARK VINA RESULT:    -1.995      1.245      2.194
REMARK INTER + INTRA:          -3.100
REMARK INTER:                  -2.875
REMARK INTRA:                  -0.225
REMARK UNBOUND:                -0.171
REMARK SMILES O=C([O-])CCCCCCCC(=O)[O-]
REMARK SMILES IDX 7 1 6 2 5 3 4 4 2 5 1 6 3 7 8 8 9 9 10 10 11 11 12 12 13 13
REMARK H PARENT
REMARK Flexibility Score: inf
ROOT
ATOM      1  C   UNL     1      12.204  11.909  15.099  1.00  0.00     0.000 C 
ENDROOT
BRANCH   1   2
ATOM      2  C   UNL     1      12.919  10.645  14.594  1.00  0.00     0.000 C 
BRANCH   2   3
ATOM      3  C   UNL     1      12.718   9.439  15.535  1.00  0.00     0.006 C 
BRANCH   3   4
ATOM      4  C   UNL     1      13.657   8.261  15.233  1.00  0.00     0.053 C 
BRANCH   4   5
ATOM      5  C   UNL     1      13.197   6.990  15.875  1.00  0.00     0.041 C 
ATOM      6  O   UNL     1      12.327   7.017  16.785  1.00  0.00    -0.550 OA
ATOM      7  O   UNL     1      13.747   5.775  15.487  1.00  0.00    -0.550 OA
ENDBRANCH   4   5
ENDBRANCH   3   4
ENDBRANCH   2   3
ENDBRANCH   1   2
BRANCH   1   8
ATOM      8  C   UNL     1      13.170  12.934  15.723  1.00  0.00     0.000 C 
BRANCH   8   9
ATOM      9  C   UNL     1      13.190  14.315  15.036  1.00  0.00     0.006 C 
BRANCH   9  10
ATOM     10  C   UNL     1      13.182  14.262  13.499  1.00  0.00     0.053 C 
BRANCH  10  11
ATOM     11  C   UNL     1      13.325  15.623  12.890  1.00  0.00     0.041 C 
ATOM     12  O   UNL     1      13.748  16.585  13.583  1.00  0.00    -0.550 OA
ATOM     13  O   UNL     1      13.023  15.820  11.548  1.00  0.00    -0.550 OA
ENDBRANCH  10  11
ENDBRANCH   9  10
ENDBRANCH   8   9
ENDBRANCH   1   8
TORSDOF 8
ENDMDL
MODEL 7
REMARK VINA RESULT:    -1.795      1.794      2.920
REMARK INTER + INTRA:          -2.806
REMARK INTER:                  -2.637
REMARK INTRA:                  -0.169
REMARK UNBOUND:                -0.171
REMARK SMILES O=C([O-])CCCCCCCC(=O)[O-]
REMARK SMILES IDX 7 1 6 2 5 3 4 4 2 5 1 6 3 7 8 8 9 9 10 10 11 11 12 12 13 13
REMARK H PARENT
REMARK Flexibility Score: inf
ROOT
ATOM      1  C   UNL     1      13.261   7.242  15.524  1.00  0.00     0.000 C 
ENDROOT
BRANCH   1   2
ATOM      2  C   UNL     1      12.523   7.008  16.853  1.00  0.00     0.000 C 
BRANCH   2   3
ATOM      3  C   UNL     1      12.663   5.556  17.355  1.00  0.00     0.006 C 
BRANCH   3   4
ATOM      4  C   UNL     1      12.476   5.410  18.874  1.00  0.00     0.053 C 
BRANCH   4   5
ATOM      5  C   UNL     1      12.165   4.001  19.274  1.00  0.00     0.041 C 
ATOM      6  O   UNL     1      11.573   3.767  20.360  1.00  0.00    -0.550 OA
ATOM      7  O   UNL     1      12.551   2.945  18.459  1.00  0.00    -0.550 OA
ENDBRANCH   4   5
ENDBRANCH   3   4
ENDBRANCH   2   3
ENDBRANCH   1   2
BRANCH   1   8
ATOM      8  C   UNL     1      13.783   8.684  15.375  1.00  0.00     0.000 C 
BRANCH   8   9
ATOM      9  C   UNL     1      12.716   9.726  14.981  1.00  0.00     0.006 C 
BRANCH   9  10
ATOM     10  C   UNL     1      13.079  11.176  15.339  1.00  0.00     0.053 C 
BRANCH  10  11
ATOM     11  C   UNL     1      12.420  12.163  14.424  1.00  0.00     0.041 C 
ATOM     12  O   UNL     1      11.412  11.825  13.750  1.00  0.00    -0.550 OA
ATOM     13  O   UNL     1      12.899  13.464  14.343  1.00  0.00    -0.550 OA
ENDBRANCH  10  11
ENDBRANCH   9  10
ENDBRANCH   8   9
ENDBRANCH   1   8
TORSDOF 8
ENDMDL
MODEL 8
REMARK VINA RESULT:    -1.752      1.620      8.230
REMARK INTER + INTRA:          -2.743
REMARK INTER:                  -2.562
REMARK INTRA:                  -0.181
REMARK UNBOUND:                -0.171
REMARK SMILES O=C([O-])CCCCCCCC(=O)[O-]
REMARK SMILES IDX 7 1 6 2 5 3 4 4 2 5 1 6 3 7 8 8 9 9 10 10 11 11 12 12 13 13
REMARK H PARENT
REMARK Flexibility Score: inf
ROOT
ATOM      1  C   UNL     1      13.380   7.455  15.315  1.00  0.00     0.000 C 
ENDROOT
BRANCH   1   2
ATOM      2  C   UNL     1      13.759   8.946  15.314  1.00  0.00     0.000 C 
BRANCH   2   3
ATOM      3  C   UNL     1      12.595   9.849  14.855  1.00  0.00     0.006 C 
BRANCH   3   4
ATOM      4  C   UNL     1      12.701  11.294  15.367  1.00  0.00     0.053 C 
BRANCH   4   5
ATOM      5  C   UNL     1      12.468  12.298  14.281  1.00  0.00     0.041 C 
ATOM      6  O   UNL     1      13.082  13.397  14.292  1.00  0.00    -0.550 OA
ATOM      7  O   UNL     1      11.555  12.030  13.270  1.00  0.00    -0.550 OA
ENDBRANCH   4   5
ENDBRANCH   3   4
ENDBRANCH   2   3
ENDBRANCH   1   2
BRANCH   1   8
ATOM      8  C   UNL     1      12.523   7.056  16.530  1.00  0.00     0.000 C 
BRANCH   8   9
ATOM      9  C   UNL     1      12.872   5.689  17.154  1.00  0.00     0.006 C 
BRANCH   9  10
ATOM     10  C   UNL     1      12.619   5.596  18.668  1.00  0.00     0.053 C 
BRANCH  10  11
ATOM     11  C   UNL     1      12.253   4.207  19.092  1.00  0.00     0.041 C 
ATOM     12  O   UNL     1      11.570   4.022  20.133  1.00  0.00    -0.550 OA
ATOM     13  O   UNL     1      12.639   3.119  18.319  1.00  0.00    -0.550 OA
ENDBRANCH  10  11
ENDBRANCH   9  10
ENDBRANCH   8   9
ENDBRANCH   1   8
TORSDOF 8
ENDMDL
MODEL 9
REMARK VINA RESULT:    -1.714      6.143      8.452
REMARK INTER + INTRA:          -2.687
REMARK INTER:                  -2.286
REMARK INTRA:                  -0.402
REMARK UNBOUND:                -0.171
REMARK SMILES O=C([O-])CCCCCCCC(=O)[O-]
REMARK SMILES IDX 7 1 6 2 5 3 4 4 2 5 1 6 3 7 8 8 9 9 10 10 11 11 12 12 13 13
REMARK H PARENT
REMARK Flexibility Score: inf
ROOT
ATOM      1  C   UNL     1      12.882   5.967  16.335  1.00  0.00     0.000 C 
ENDROOT
BRANCH   1   2
ATOM      2  C   UNL     1      13.501   4.558  16.345  1.00  0.00     0.000 C 
BRANCH   2   3
ATOM      3  C   UNL     1      14.727   4.449  15.415  1.00  0.00     0.006 C 
BRANCH   3   4
ATOM      4  C   UNL     1      14.724   5.474  14.270  1.00  0.00     0.053 C 
BRANCH   4   5
ATOM      5  C   UNL     1      15.469   4.984  13.068  1.00  0.00     0.041 C 
ATOM      6  O   UNL     1      14.869   4.820  11.973  1.00  0.00    -0.550 OA
ATOM      7  O   UNL     1      16.823   4.687  13.162  1.00  0.00    -0.550 OA
ENDBRANCH   4   5
ENDBRANCH   3   4
ENDBRANCH   2   3
ENDBRANCH   1   2
BRANCH   1   8
ATOM      8  C   UNL     1      12.739   6.567  17.746  1.00  0.00     0.000 C 
BRANCH   8   9
ATOM      9  C   UNL     1      12.996   5.582  18.905  1.00  0.00     0.006 C 
BRANCH   9  10
ATOM     10  C   UNL     1      11.724   5.063  19.595  1.00  0.00     0.053 C 
BRANCH  10  11
ATOM     11  C   UNL     1      11.880   3.653  20.074  1.00  0.00     0.041 C 
ATOM     12  O   UNL     1      11.552   3.343  21.249  1.00  0.00    -0.550 OA
ATOM     13  O   UNL     1      12.357   2.674  19.211  1.00  0.00    -0.550 OA
ENDBRANCH  10  11
ENDBRANCH   9  10
ENDBRANCH   8   9
ENDBRANCH   1   8
TORSDOF 8
ENDMDL
