MODEL 1
REMARK VINA RESULT:    -3.653      0.000      0.000
REMARK INTER + INTRA:          -4.856
REMARK INTER:                  -4.721
REMARK INTRA:                  -0.135
REMARK UNBOUND:                -0.135
REMARK SMILES CCCCCCC(=O)[O-]
REMARK SMILES IDX 5 1 6 2 7 3 8 4 9 5 4 6 3 7 2 8 1 9
REMARK H PARENT
REMARK Flexibility Score: inf
ROOT
ATOM      1  C   UNL     1       5.646  44.640  12.477  1.00  0.00     0.006 C 
ENDROOT
BRANCH   1   2
ATOM      2  C   UNL     1       6.820  44.164  11.612  1.00  0.00     0.053 C 
BRANCH   2   3
ATOM      3  C   UNL     1       7.223  42.776  11.997  1.00  0.00     0.041 C 
ATOM      4  O   UNL     1       7.198  42.421  13.205  1.00  0.00    -0.550 OA
ATOM      5  O   UNL     1       7.579  41.858  11.017  1.00  0.00    -0.550 OA
ENDBRANCH   2   3
ENDBRANCH   1   2
BRANCH   1   6
ATOM      6  C   UNL     1       4.447  45.125  11.644  1.00  0.00     0.000 C 
BRANCH   6   7
ATOM      7  C   UNL     1       3.705  43.990  10.907  1.00  0.00    -0.000 C 
BRANCH   7   8
ATOM      8  C   UNL     1       2.350  43.666  11.554  1.00  0.00    -0.003 C 
ATOM      9  C   UNL     1       1.435  42.934  10.579  1.00  0.00     0.004 C 
ENDBRANCH   7   8
ENDBRANCH   6   7
ENDBRANCH   1   6
TORSDOF 5
ENDMDL
MODEL 2
REMARK VINA RESULT:    -3.427      2.632      4.436
REMARK INTER + INTRA:          -4.563
REMARK INTER:                  -4.338
REMARK INTRA:                  -0.225
REMARK UNBOUND:                -0.135
REMARK SMILES CCCCCCC(=O)[O-]
REMARK SMILES IDX 5 1 6 2 7 3 8 4 9 5 4 6 3 7 2 8 1 9
REMARK H PARENT
REMARK Flexibility Score: inf
ROOT
ATOM      1  C   UNL     1       5.206  44.451  10.700  1.00  0.00     0.006 C 
ENDROOT
BRANCH   1   2
ATOM      2  C   UNL     1       4.043  44.478  11.700  1.00  0.00     0.053 C 
BRANCH   2   3
ATOM      3  C   UNL     1       2.894  43.669  11.186  1.00  0.00     0.041 C 
ATOM      4  O   UNL     1       1.802  43.652  11.812  1.00  0.00    -0.550 OA
ATOM      5  O   UNL     1       3.014  42.973   9.990  1.00  0.00    -0.550 OA
ENDBRANCH   2   3
ENDBRANCH   1   2
BRANCH   1   6
ATOM      6  C   UNL     1       6.509  45.023  11.284  1.00  0.00     0.000 C 
BRANCH   6   7
ATOM      7  C   UNL     1       7.756  44.171  10.966  1.00  0.00    -0.000 C 
BRANCH   7   8
ATOM      8  C   UNL     1       7.505  42.671  11.182  1.00  0.00    -0.003 C 
ATOM      9  C   UNL     1       7.493  42.322  12.666  1.00  0.00     0.004 C 
ENDBRANCH   7   8
ENDBRANCH   6   7
ENDBRANCH   1   6
TORSDOF 5
ENDMDL
MODEL 3
REMARK VINA RESULT:    -3.369      2.528      4.467
REMARK INTER + INTRA:          -4.488
REMARK INTER:                  -4.227
REMARK INTRA:                  -0.260
REMARK UNBOUND:                -0.135
REMARK SMILES CCCCCCC(=O)[O-]
REMARK SMILES IDX 5 1 6 2 7 3 8 4 9 5 4 6 3 7 2 8 1 9
REMARK H PARENT
REMARK Flexibility Score: inf
ROOT
ATOM      1  C   UNL     1       5.362  45.026  10.806  1.00  0.00     0.006 C 
ENDROOT
BRANCH   1   2
ATOM      2  C   UNL     1       4.211  44.742  11.779  1.00  0.00     0.053 C 
BRANCH   2   3
ATOM      3  C   UNL     1       3.177  43.879  11.128  1.00  0.00     0.041 C 
ATOM      4  O   UNL     1       3.443  43.270  10.059  1.00  0.00    -0.550 OA
ATOM      5  O   UNL     1       1.936  43.709  11.728  1.00  0.00    -0.550 OA
ENDBRANCH   2   3
ENDBRANCH   1   2
BRANCH   1   6
ATOM      6  C   UNL     1       6.746  44.765  11.423  1.00  0.00     0.000 C 
BRANCH   6   7
ATOM      7  C   UNL     1       7.623  43.804  10.595  1.00  0.00    -0.000 C 
BRANCH   7   8
ATOM      8  C   UNL     1       7.614  42.376  11.161  1.00  0.00    -0.003 C 
ATOM      9  C   UNL     1       7.385  42.382  12.669  1.00  0.00     0.004 C 
ENDBRANCH   7   8
ENDBRANCH   6   7
ENDBRANCH   1   6
TORSDOF 5
ENDMDL
MODEL 4
REMARK VINA RESULT:    -3.299      3.119      4.786
REMARK INTER + INTRA:          -4.398
REMARK INTER:                  -4.218
REMARK INTRA:                  -0.180
REMARK UNBOUND:                -0.135
REMARK SMILES CCCCCCC(=O)[O-]
REMARK SMILES IDX 5 1 6 2 7 3 8 4 9 5 4 6 3 7 2 8 1 9
REMARK H PARENT
REMARK Flexibility Score: inf
ROOT
ATOM      1  C   UNL     1       3.907  44.513  10.670  1.00  0.00     0.006 C 
ENDROOT
BRANCH   1   2
ATOM      2  C   UNL     1       2.959  43.491  10.030  1.00  0.00     0.053 C 
BRANCH   2   3
ATOM      3  C   UNL     1       1.775  43.254  10.913  1.00  0.00     0.041 C 
ATOM      4  O   UNL     1       1.730  43.764  12.063  1.00  0.00    -0.550 OA
ATOM      5  O   UNL     1       0.698  42.510  10.447  1.00  0.00    -0.550 OA
ENDBRANCH   2   3
ENDBRANCH   1   2
BRANCH   1   6
ATOM      6  C   UNL     1       5.321  43.953  10.903  1.00  0.00     0.000 C 
BRANCH   6   7
ATOM      7  C   UNL     1       5.790  44.048  12.370  1.00  0.00    -0.000 C 
BRANCH   7   8
ATOM      8  C   UNL     1       6.824  42.967  12.720  1.00  0.00    -0.003 C 
ATOM      9  C   UNL     1       7.579  42.503  11.479  1.00  0.00     0.004 C 
ENDBRANCH   7   8
ENDBRANCH   6   7
ENDBRANCH   1   6
TORSDOF 5
ENDMDL
MODEL 5
REMARK VINA RESULT:    -2.747      1.877      2.506
REMARK INTER + INTRA:          -3.684
REMARK INTER:                  -3.379
REMARK INTRA:                  -0.305
REMARK UNBOUND:                -0.135
REMARK SMILES CCCCCCC(=O)[O-]
REMARK SMILES IDX 5 1 6 2 7 3 8 4 9 5 4 6 3 7 2 8 1 9
REMARK H PARENT
REMARK Flexibility Score: inf
ROOT
ATOM      1  C   UNL     1       7.299  42.587  10.864  1.00  0.00     0.006 C 
ENDROOT
BRANCH   1   2
ATOM      2  C   UNL     1       7.760  43.178  12.203  1.00  0.00     0.053 C 
BRANCH   2   3
ATOM      3  C   UNL     1       6.890  42.688  13.317  1.00  0.00     0.041 C 
ATOM      4  O   UNL     1       7.256  41.712  14.023  1.00  0.00    -0.550 OA
ATOM      5  O   UNL     1       5.699  43.340  13.606  1.00  0.00    -0.550 OA
ENDBRANCH   2   3
ENDBRANCH   1   2
BRANCH   1   6
ATOM      6  C   UNL     1       6.359  43.526  10.089  1.00  0.00     0.000 C 
BRANCH   6   7
ATOM      7  C   UNL     1       4.911  43.004   9.985  1.00  0.00    -0.000 C 
BRANCH   7   8
ATOM      8  C   UNL     1       3.882  44.145   9.966  1.00  0.00    -0.003 C 
ATOM      9  C   UNL     1       4.123  45.124  11.109  1.00  0.00     0.004 C 
ENDBRANCH   7   8
ENDBRANCH   6   7
ENDBRANCH   1   6
TORSDOF 5
ENDMDL
MODEL 6
REMARK VINA RESULT:    -1.770     23.049     24.013
REMARK INTER + INTRA:          -2.421
REMARK INTER:                  -2.333
REMARK INTRA:                  -0.089
REMARK UNBOUND:                -0.135
REMARK SMILES CCCCCCC(=O)[O-]
REMARK SMILES IDX 5 1 6 2 7 3 8 4 9 5 4 6 3 7 2 8 1 9
REMARK H PARENT
REMARK Flexibility Score: inf
ROOT
ATOM      1  C   UNL     1       6.888  28.266  30.125  1.00  0.00     0.006 C 
ENDROOT
BRANCH   1   2
ATOM      2  C   UNL     1       8.190  27.457  30.064  1.00  0.00     0.053 C 
BRANCH   2   3
ATOM      3  C   UNL     1       7.892  25.992  30.010  1.00  0.00     0.041 C 
ATOM      4  O   UNL     1       6.704  25.591  29.896  1.00  0.00    -0.550 OA
ATOM      5  O   UNL     1       8.930  25.070  30.038  1.00  0.00    -0.550 OA
ENDBRANCH   2   3
ENDBRANCH   1   2
BRANCH   1   6
ATOM      6  C   UNL     1       7.082  29.740  29.730  1.00  0.00     0.000 C 
BRANCH   6   7
ATOM      7  C   UNL     1       5.898  30.647  30.124  1.00  0.00    -0.000 C 
BRANCH   7   8
ATOM      8  C   UNL     1       4.561  29.890  30.125  1.00  0.00    -0.003 C 
ATOM      9  C   UNL     1       4.031  29.704  28.707  1.00  0.00     0.004 C 
ENDBRANCH   7   8
ENDBRANCH   6   7
ENDBRANCH   1   6
TORSDOF 5
ENDMDL
