MODEL 1
REMARK VINA RESULT:    -5.641      0.000      0.000
REMARK INTER + INTRA:          -6.288
REMARK INTER:                  -6.136
REMARK INTRA:                  -0.152
REMARK UNBOUND:                -0.152
REMARK SMILES CC(=O)[C@@H]1CC[C@H]2[C@H]3CC=C4C[C@H](O)CC[C@@]4(C)[C@H]3CC[C@@]12C
REMARK SMILES IDX 4 1 5 2 6 3 7 4 22 5 21 6 20 7 19 8 8 9 9 10 10 11 11 12
REMARK SMILES IDX 17 13 16 14 15 15 13 16 12 17 18 18 23 19 2 20 1 21 3 22
REMARK SMILES IDX 14 23
REMARK H PARENT 14 24
REMARK Flexibility Score: inf
ROOT
ATOM      1  C   UNL     1     138.322 132.000 139.023  1.00  0.00     0.062 C 
ATOM      2  C   UNL     1     137.402 131.455 140.112  1.00  0.00     0.012 C 
ATOM      3  C   UNL     1     137.051 132.671 140.942  1.00  0.00     0.005 C 
ATOM      4  C   UNL     1     136.859 133.794 139.918  1.00  0.00    -0.001 C 
ATOM      5  C   UNL     1     137.814 133.454 138.723  1.00  0.00    -0.020 C 
ATOM      6  C   UNL     1     139.024 134.426 138.633  1.00  0.00     0.008 C 
ATOM      7  C   UNL     1     139.497 134.886 140.016  1.00  0.00     0.005 C 
ATOM      8  C   UNL     1     138.435 135.809 140.658  1.00  0.00     0.003 C 
ATOM      9  C   UNL     1     136.977 135.252 140.479  1.00  0.00     0.000 C 
ATOM     10  C   UNL     1     136.072 135.464 141.702  1.00  0.00     0.031 C 
ATOM     11  C   UNL     1     136.362 136.742 142.421  1.00  0.00    -0.027 C 
ATOM     12  C   UNL     1     137.627 137.087 142.729  1.00  0.00    -0.065 C 
ATOM     13  C   UNL     1     138.817 136.365 142.094  1.00  0.00    -0.008 C 
ATOM     14  C   UNL     1     139.245 135.256 143.099  1.00  0.00     0.014 C 
ATOM     15  C   UNL     1     139.467 135.794 144.536  1.00  0.00     0.033 C 
ATOM     16  C   UNL     1     138.273 136.624 145.067  1.00  0.00     0.118 C 
ATOM     17  C   UNL     1     137.855 137.728 144.081  1.00  0.00     0.063 C 
ATOM     18  C   UNL     1     139.993 137.373 141.909  1.00  0.00     0.016 C 
ATOM     19  C   UNL     1     137.013 133.535 137.398  1.00  0.00     0.012 C 
ENDROOT
BRANCH   1  20
ATOM     20  C   UNL     1     138.493 131.097 137.810  1.00  0.00     0.133 C 
ATOM     21  C   UNL     1     139.737 131.092 136.966  1.00  0.00     0.088 C 
ATOM     22  O   UNL     1     137.571 130.357 137.497  1.00  0.00    -0.300 OA
ENDBRANCH   1  20
BRANCH  16  23
ATOM     23  O   UNL     1     138.608 137.212 146.296  1.00  0.00    -0.393 OA
ATOM     24  H   UNL     1     138.435 138.185 146.205  1.00  0.00     0.210 HD
ENDBRANCH  16  23
TORSDOF 2
ENDMDL
MODEL 2
REMARK VINA RESULT:    -5.354      2.448      7.027
REMARK INTER + INTRA:          -5.975
REMARK INTER:                  -5.800
REMARK INTRA:                  -0.175
REMARK UNBOUND:                -0.152
REMARK SMILES CC(=O)[C@@H]1CC[C@H]2[C@H]3CC=C4C[C@H](O)CC[C@@]4(C)[C@H]3CC[C@@]12C
REMARK SMILES IDX 4 1 5 2 6 3 7 4 22 5 21 6 20 7 19 8 8 9 9 10 10 11 11 12
REMARK SMILES IDX 17 13 16 14 15 15 13 16 12 17 18 18 23 19 2 20 1 21 3 22
REMARK SMILES IDX 14 23
REMARK H PARENT 14 24
REMARK Flexibility Score: inf
ROOT
ATOM      1  C   UNL     1     137.009 136.104 142.231  1.00  0.00     0.062 C 
ATOM      2  C   UNL     1     135.553 136.249 141.798  1.00  0.00     0.012 C 
ATOM      3  C   UNL     1     135.033 134.828 141.767  1.00  0.00     0.005 C 
ATOM      4  C   UNL     1     135.667 134.159 142.991  1.00  0.00    -0.001 C 
ATOM      5  C   UNL     1     137.043 134.876 143.208  1.00  0.00    -0.020 C 
ATOM      6  C   UNL     1     138.252 133.962 142.860  1.00  0.00     0.008 C 
ATOM      7  C   UNL     1     137.940 133.015 141.696  1.00  0.00     0.005 C 
ATOM      8  C   UNL     1     136.900 131.960 142.135  1.00  0.00     0.003 C 
ATOM      9  C   UNL     1     135.721 132.595 142.958  1.00  0.00     0.000 C 
ATOM     10  C   UNL     1     134.344 131.985 142.651  1.00  0.00     0.031 C 
ATOM     11  C   UNL     1     134.415 130.524 142.342  1.00  0.00    -0.027 C 
ATOM     12  C   UNL     1     135.325 130.048 141.471  1.00  0.00    -0.065 C 
ATOM     13  C   UNL     1     136.504 130.909 141.014  1.00  0.00    -0.008 C 
ATOM     14  C   UNL     1     136.073 131.563 139.668  1.00  0.00     0.014 C 
ATOM     15  C   UNL     1     135.546 130.533 138.636  1.00  0.00     0.033 C 
ATOM     16  C   UNL     1     134.442 129.610 139.207  1.00  0.00     0.118 C 
ATOM     17  C   UNL     1     134.869 128.953 140.532  1.00  0.00     0.063 C 
ATOM     18  C   UNL     1     137.745 129.996 140.769  1.00  0.00     0.016 C 
ATOM     19  C   UNL     1     137.159 135.308 144.693  1.00  0.00     0.012 C 
ENDROOT
BRANCH   1  20
ATOM     20  C   UNL     1     137.658 137.379 142.751  1.00  0.00     0.133 C 
ATOM     21  C   UNL     1     139.146 137.599 142.740  1.00  0.00     0.088 C 
ATOM     22  O   UNL     1     136.941 138.254 143.214  1.00  0.00    -0.300 OA
ENDBRANCH   1  20
BRANCH  16  23
ATOM     23  O   UNL     1     134.132 128.605 138.278  1.00  0.00    -0.393 OA
ATOM     24  H   UNL     1     133.457 128.987 137.658  1.00  0.00     0.210 HD
ENDBRANCH  16  23
TORSDOF 2
ENDMDL
MODEL 3
REMARK VINA RESULT:    -5.251      4.343      7.365
REMARK INTER + INTRA:          -5.864
REMARK INTER:                  -5.691
REMARK INTRA:                  -0.173
REMARK UNBOUND:                -0.152
REMARK SMILES CC(=O)[C@@H]1CC[C@H]2[C@H]3CC=C4C[C@H](O)CC[C@@]4(C)[C@H]3CC[C@@]12C
REMARK SMILES IDX 4 1 5 2 6 3 7 4 22 5 21 6 20 7 19 8 8 9 9 10 10 11 11 12
REMARK SMILES IDX 17 13 16 14 15 15 13 16 12 17 18 18 23 19 2 20 1 21 3 22
REMARK SMILES IDX 14 23
REMARK H PARENT 14 24
REMARK Flexibility Score: inf
ROOT
ATOM      1  C   UNL     1     136.352 129.634 132.225  1.00  0.00     0.062 C 
ATOM      2  C   UNL     1     135.089 130.166 132.896  1.00  0.00     0.012 C 
ATOM      3  C   UNL     1     135.605 131.121 133.950  1.00  0.00     0.005 C 
ATOM      4  C   UNL     1     136.778 131.841 133.277  1.00  0.00    -0.001 C 
ATOM      5  C   UNL     1     137.383 130.816 132.258  1.00  0.00    -0.020 C 
ATOM      6  C   UNL     1     138.775 130.287 132.703  1.00  0.00     0.008 C 
ATOM      7  C   UNL     1     138.883 130.161 134.227  1.00  0.00     0.005 C 
ATOM      8  C   UNL     1     138.890 131.565 134.874  1.00  0.00     0.003 C 
ATOM      9  C   UNL     1     137.807 132.514 134.246  1.00  0.00     0.000 C 
ATOM     10  C   UNL     1     137.112 133.431 135.265  1.00  0.00     0.031 C 
ATOM     11  C   UNL     1     138.024 133.869 136.366  1.00  0.00    -0.027 C 
ATOM     12  C   UNL     1     138.798 132.977 137.013  1.00  0.00    -0.065 C 
ATOM     13  C   UNL     1     139.012 131.568 136.456  1.00  0.00    -0.008 C 
ATOM     14  C   UNL     1     137.970 130.653 137.165  1.00  0.00     0.014 C 
ATOM     15  C   UNL     1     138.002 130.783 138.709  1.00  0.00     0.033 C 
ATOM     16  C   UNL     1     137.909 132.249 139.199  1.00  0.00     0.118 C 
ATOM     17  C   UNL     1     138.945 133.153 138.509  1.00  0.00     0.063 C 
ATOM     18  C   UNL     1     140.451 131.084 136.816  1.00  0.00     0.016 C 
ATOM     19  C   UNL     1     137.533 131.506 130.877  1.00  0.00     0.012 C 
ENDROOT
BRANCH   1  20
ATOM     20  C   UNL     1     136.136 128.985 130.864  1.00  0.00     0.133 C 
ATOM     21  C   UNL     1     137.105 128.003 130.267  1.00  0.00     0.088 C 
ATOM     22  O   UNL     1     135.142 129.289 130.222  1.00  0.00    -0.300 OA
ENDBRANCH   1  20
BRANCH  16  23
ATOM     23  O   UNL     1     138.108 132.302 140.587  1.00  0.00    -0.393 OA
ATOM     24  H   UNL     1     137.727 133.165 140.898  1.00  0.00     0.210 HD
ENDBRANCH  16  23
TORSDOF 2
ENDMDL
MODEL 4
REMARK VINA RESULT:    -5.189      4.523      8.320
REMARK INTER + INTRA:          -5.796
REMARK INTER:                  -5.631
REMARK INTRA:                  -0.165
REMARK UNBOUND:                -0.152
REMARK SMILES CC(=O)[C@@H]1CC[C@H]2[C@H]3CC=C4C[C@H](O)CC[C@@]4(C)[C@H]3CC[C@@]12C
REMARK SMILES IDX 4 1 5 2 6 3 7 4 22 5 21 6 20 7 19 8 8 9 9 10 10 11 11 12
REMARK SMILES IDX 17 13 16 14 15 15 13 16 12 17 18 18 23 19 2 20 1 21 3 22
REMARK SMILES IDX 14 23
REMARK H PARENT 14 24
REMARK Flexibility Score: inf
ROOT
ATOM      1  C   UNL     1     137.675 130.360 139.493  1.00  0.00     0.062 C 
ATOM      2  C   UNL     1     139.091 130.893 139.294  1.00  0.00     0.012 C 
ATOM      3  C   UNL     1     139.028 131.624 137.971  1.00  0.00     0.005 C 
ATOM      4  C   UNL     1     137.669 132.332 137.987  1.00  0.00    -0.001 C 
ATOM      5  C   UNL     1     136.723 131.426 138.847  1.00  0.00    -0.020 C 
ATOM      6  C   UNL     1     135.641 130.712 137.988  1.00  0.00     0.008 C 
ATOM      7  C   UNL     1     136.162 130.345 136.594  1.00  0.00     0.005 C 
ATOM      8  C   UNL     1     136.390 131.626 135.760  1.00  0.00     0.003 C 
ATOM      9  C   UNL     1     137.107 132.754 136.587  1.00  0.00     0.000 C 
ATOM     10  C   UNL     1     138.137 133.562 135.782  1.00  0.00     0.031 C 
ATOM     11  C   UNL     1     137.740 133.742 134.352  1.00  0.00    -0.027 C 
ATOM     12  C   UNL     1     137.312 132.695 133.619  1.00  0.00    -0.065 C 
ATOM     13  C   UNL     1     136.919 131.375 134.286  1.00  0.00    -0.008 C 
ATOM     14  C   UNL     1     138.177 130.460 134.220  1.00  0.00     0.014 C 
ATOM     15  C   UNL     1     138.770 130.348 132.793  1.00  0.00     0.033 C 
ATOM     16  C   UNL     1     139.025 131.723 132.129  1.00  0.00     0.118 C 
ATOM     17  C   UNL     1     137.780 132.627 132.182  1.00  0.00     0.063 C 
ATOM     18  C   UNL     1     135.759 130.716 133.478  1.00  0.00     0.016 C 
ATOM     19  C   UNL     1     136.013 132.303 139.910  1.00  0.00     0.012 C 
ENDROOT
BRANCH   1  20
ATOM     20  C   UNL     1     137.335 129.949 140.919  1.00  0.00     0.133 C 
ATOM     21  C   UNL     1     136.294 128.913 141.242  1.00  0.00     0.088 C 
ATOM     22  O   UNL     1     137.920 130.497 141.842  1.00  0.00    -0.300 OA
ENDBRANCH   1  20
BRANCH  16  23
ATOM     23  O   UNL     1     139.404 131.545 130.790  1.00  0.00    -0.393 OA
ATOM     24  H   UNL     1     140.271 131.062 130.800  1.00  0.00     0.210 HD
ENDBRANCH  16  23
TORSDOF 2
ENDMDL
MODEL 5
REMARK VINA RESULT:    -5.183      3.937      5.411
REMARK INTER + INTRA:          -5.789
REMARK INTER:                  -5.609
REMARK INTRA:                  -0.180
REMARK UNBOUND:                -0.152
REMARK SMILES CC(=O)[C@@H]1CC[C@H]2[C@H]3CC=C4C[C@H](O)CC[C@@]4(C)[C@H]3CC[C@@]12C
REMARK SMILES IDX 4 1 5 2 6 3 7 4 22 5 21 6 20 7 19 8 8 9 9 10 10 11 11 12
REMARK SMILES IDX 17 13 16 14 15 15 13 16 12 17 18 18 23 19 2 20 1 21 3 22
REMARK SMILES IDX 14 23
REMARK H PARENT 14 24
REMARK Flexibility Score: inf
ROOT
ATOM      1  C   UNL     1     134.540 130.618 144.286  1.00  0.00     0.062 C 
ATOM      2  C   UNL     1     135.244 130.786 145.630  1.00  0.00     0.012 C 
ATOM      3  C   UNL     1     135.522 132.271 145.717  1.00  0.00     0.005 C 
ATOM      4  C   UNL     1     134.267 132.933 145.137  1.00  0.00    -0.001 C 
ATOM      5  C   UNL     1     133.705 131.929 144.075  1.00  0.00    -0.020 C 
ATOM      6  C   UNL     1     133.889 132.440 142.618  1.00  0.00     0.008 C 
ATOM      7  C   UNL     1     135.181 133.247 142.450  1.00  0.00     0.005 C 
ATOM      8  C   UNL     1     135.071 134.587 143.212  1.00  0.00     0.003 C 
ATOM      9  C   UNL     1     134.445 134.408 144.642  1.00  0.00     0.000 C 
ATOM     10  C   UNL     1     135.085 135.296 145.721  1.00  0.00     0.031 C 
ATOM     11  C   UNL     1     135.517 136.626 145.193  1.00  0.00    -0.027 C 
ATOM     12  C   UNL     1     136.228 136.716 144.052  1.00  0.00    -0.065 C 
ATOM     13  C   UNL     1     136.348 135.522 143.102  1.00  0.00    -0.008 C 
ATOM     14  C   UNL     1     137.681 134.804 143.466  1.00  0.00     0.014 C 
ATOM     15  C   UNL     1     138.896 135.766 143.501  1.00  0.00     0.033 C 
ATOM     16  C   UNL     1     138.657 137.017 144.382  1.00  0.00     0.118 C 
ATOM     17  C   UNL     1     137.346 137.736 144.018  1.00  0.00     0.063 C 
ATOM     18  C   UNL     1     136.425 136.039 141.632  1.00  0.00     0.016 C 
ATOM     19  C   UNL     1     132.192 131.711 144.336  1.00  0.00     0.012 C 
ENDROOT
BRANCH   1  20
ATOM     20  C   UNL     1     133.775 129.313 144.117  1.00  0.00     0.133 C 
ATOM     21  C   UNL     1     133.250 128.520 145.282  1.00  0.00     0.088 C 
ATOM     22  O   UNL     1     133.594 128.882 142.988  1.00  0.00    -0.300 OA
ENDBRANCH   1  20
BRANCH  16  23
ATOM     23  O   UNL     1     139.725 137.915 144.237  1.00  0.00    -0.393 OA
ATOM     24  H   UNL     1     139.516 138.702 144.805  1.00  0.00     0.210 HD
ENDBRANCH  16  23
TORSDOF 2
ENDMDL
MODEL 6
REMARK VINA RESULT:    -5.120      9.602     13.070
REMARK INTER + INTRA:          -5.722
REMARK INTER:                  -5.550
REMARK INTRA:                  -0.171
REMARK UNBOUND:                -0.152
REMARK SMILES CC(=O)[C@@H]1CC[C@H]2[C@H]3CC=C4C[C@H](O)CC[C@@]4(C)[C@H]3CC[C@@]12C
REMARK SMILES IDX 4 1 5 2 6 3 7 4 22 5 21 6 20 7 19 8 8 9 9 10 10 11 11 12
REMARK SMILES IDX 17 13 16 14 15 15 13 16 12 17 18 18 23 19 2 20 1 21 3 22
REMARK SMILES IDX 14 23
REMARK H PARENT 14 24
REMARK Flexibility Score: inf
ROOT
ATOM      1  C   UNL     1     133.228 127.218 137.118  1.00  0.00     0.062 C 
ATOM      2  C   UNL     1     133.350 126.026 136.172  1.00  0.00     0.012 C 
ATOM      3  C   UNL     1     132.220 125.109 136.586  1.00  0.00     0.005 C 
ATOM      4  C   UNL     1     131.050 126.051 136.887  1.00  0.00    -0.001 C 
ATOM      5  C   UNL     1     131.693 127.385 137.396  1.00  0.00    -0.020 C 
ATOM      6  C   UNL     1     131.458 127.617 138.916  1.00  0.00     0.008 C 
ATOM      7  C   UNL     1     131.448 126.302 139.704  1.00  0.00     0.005 C 
ATOM      8  C   UNL     1     130.193 125.477 139.341  1.00  0.00     0.003 C 
ATOM      9  C   UNL     1     129.919 125.459 137.794  1.00  0.00     0.000 C 
ATOM     10  C   UNL     1     129.414 124.108 137.264  1.00  0.00     0.031 C 
ATOM     11  C   UNL     1     128.540 123.392 138.243  1.00  0.00    -0.027 C 
ATOM     12  C   UNL     1     128.913 123.262 139.531  1.00  0.00    -0.065 C 
ATOM     13  C   UNL     1     130.062 124.093 140.107  1.00  0.00    -0.008 C 
ATOM     14  C   UNL     1     131.336 123.204 140.011  1.00  0.00     0.014 C 
ATOM     15  C   UNL     1     131.141 121.797 140.632  1.00  0.00     0.033 C 
ATOM     16  C   UNL     1     129.886 121.064 140.097  1.00  0.00     0.118 C 
ATOM     17  C   UNL     1     128.622 121.936 140.200  1.00  0.00     0.063 C 
ATOM     18  C   UNL     1     129.767 124.412 141.605  1.00  0.00     0.016 C 
ATOM     19  C   UNL     1     131.079 128.573 136.613  1.00  0.00     0.012 C 
ENDROOT
BRANCH   1  20
ATOM     20  C   UNL     1     133.958 128.476 136.669  1.00  0.00     0.133 C 
ATOM     21  C   UNL     1     134.333 129.582 137.616  1.00  0.00     0.088 C 
ATOM     22  O   UNL     1     134.236 128.601 135.485  1.00  0.00    -0.300 OA
ENDBRANCH   1  20
BRANCH  16  23
ATOM     23  O   UNL     1     129.682 119.877 140.817  1.00  0.00    -0.393 OA
ATOM     24  H   UNL     1     128.794 119.956 141.252  1.00  0.00     0.210 HD
ENDBRANCH  16  23
TORSDOF 2
ENDMDL
MODEL 7
REMARK VINA RESULT:    -5.046      1.810      7.070
REMARK INTER + INTRA:          -5.640
REMARK INTER:                  -5.454
REMARK INTRA:                  -0.187
REMARK UNBOUND:                -0.152
REMARK SMILES CC(=O)[C@@H]1CC[C@H]2[C@H]3CC=C4C[C@H](O)CC[C@@]4(C)[C@H]3CC[C@@]12C
REMARK SMILES IDX 4 1 5 2 6 3 7 4 22 5 21 6 20 7 19 8 8 9 9 10 10 11 11 12
REMARK SMILES IDX 17 13 16 14 15 15 13 16 12 17 18 18 23 19 2 20 1 21 3 22
REMARK SMILES IDX 14 23
REMARK H PARENT 14 24
REMARK Flexibility Score: inf
ROOT
ATOM      1  C   UNL     1     137.788 136.172 141.293  1.00  0.00     0.062 C 
ATOM      2  C   UNL     1     136.274 136.011 141.187  1.00  0.00     0.012 C 
ATOM      3  C   UNL     1     136.093 134.746 140.376  1.00  0.00     0.005 C 
ATOM      4  C   UNL     1     137.182 133.799 140.890  1.00  0.00    -0.001 C 
ATOM      5  C   UNL     1     138.369 134.716 141.342  1.00  0.00    -0.020 C 
ATOM      6  C   UNL     1     139.597 134.608 140.394  1.00  0.00     0.008 C 
ATOM      7  C   UNL     1     139.181 134.384 138.936  1.00  0.00     0.005 C 
ATOM      8  C   UNL     1     138.568 132.974 138.772  1.00  0.00     0.003 C 
ATOM      9  C   UNL     1     137.566 132.623 139.931  1.00  0.00     0.000 C 
ATOM     10  C   UNL     1     136.328 131.837 139.471  1.00  0.00     0.031 C 
ATOM     11  C   UNL     1     136.626 130.893 138.351  1.00  0.00    -0.027 C 
ATOM     12  C   UNL     1     137.330 131.299 137.277  1.00  0.00    -0.065 C 
ATOM     13  C   UNL     1     138.109 132.616 137.297  1.00  0.00    -0.008 C 
ATOM     14  C   UNL     1     137.177 133.685 136.655  1.00  0.00     0.014 C 
ATOM     15  C   UNL     1     136.615 133.251 135.277  1.00  0.00     0.033 C 
ATOM     16  C   UNL     1     135.953 131.852 135.303  1.00  0.00     0.118 C 
ATOM     17  C   UNL     1     136.875 130.790 135.926  1.00  0.00     0.063 C 
ATOM     18  C   UNL     1     139.396 132.466 136.428  1.00  0.00     0.016 C 
ATOM     19  C   UNL     1     138.809 134.305 142.771  1.00  0.00     0.012 C 
ENDROOT
BRANCH   1  20
ATOM     20  C   UNL     1     138.262 137.109 142.394  1.00  0.00     0.133 C 
ATOM     21  C   UNL     1     137.401 137.491 143.566  1.00  0.00     0.088 C 
ATOM     22  O   UNL     1     139.385 137.587 142.314  1.00  0.00    -0.300 OA
ENDBRANCH   1  20
BRANCH  16  23
ATOM     23  O   UNL     1     135.617 131.458 133.998  1.00  0.00    -0.393 OA
ATOM     24  H   UNL     1     134.851 130.831 134.077  1.00  0.00     0.210 HD
ENDBRANCH  16  23
TORSDOF 2
ENDMDL
MODEL 8
REMARK VINA RESULT:    -4.976      9.918     12.905
REMARK INTER + INTRA:          -5.564
REMARK INTER:                  -5.389
REMARK INTRA:                  -0.175
REMARK UNBOUND:                -0.152
REMARK SMILES CC(=O)[C@@H]1CC[C@H]2[C@H]3CC=C4C[C@H](O)CC[C@@]4(C)[C@H]3CC[C@@]12C
REMARK SMILES IDX 4 1 5 2 6 3 7 4 22 5 21 6 20 7 19 8 8 9 9 10 10 11 11 12
REMARK SMILES IDX 17 13 16 14 15 15 13 16 12 17 18 18 23 19 2 20 1 21 3 22
REMARK SMILES IDX 14 23
REMARK H PARENT 14 24
REMARK Flexibility Score: inf
ROOT
ATOM      1  C   UNL     1     129.562 127.751 140.717  1.00  0.00     0.062 C 
ATOM      2  C   UNL     1     128.189 127.553 140.080  1.00  0.00     0.012 C 
ATOM      3  C   UNL     1     128.496 127.006 138.703  1.00  0.00     0.005 C 
ATOM      4  C   UNL     1     129.662 126.037 138.925  1.00  0.00    -0.001 C 
ATOM      5  C   UNL     1     130.467 126.606 140.142  1.00  0.00    -0.020 C 
ATOM      6  C   UNL     1     131.847 127.189 139.722  1.00  0.00     0.008 C 
ATOM      7  C   UNL     1     131.800 127.837 138.334  1.00  0.00     0.005 C 
ATOM      8  C   UNL     1     131.605 126.752 137.250  1.00  0.00     0.003 C 
ATOM      9  C   UNL     1     130.513 125.697 137.655  1.00  0.00     0.000 C 
ATOM     10  C   UNL     1     129.628 125.233 136.486  1.00  0.00     0.031 C 
ATOM     11  C   UNL     1     130.371 125.166 135.191  1.00  0.00    -0.027 C 
ATOM     12  C   UNL     1     131.151 126.189 134.790  1.00  0.00    -0.065 C 
ATOM     13  C   UNL     1     131.554 127.300 135.762  1.00  0.00    -0.008 C 
ATOM     14  C   UNL     1     130.532 128.456 135.557  1.00  0.00     0.014 C 
ATOM     15  C   UNL     1     130.384 128.876 134.072  1.00  0.00     0.033 C 
ATOM     16  C   UNL     1     130.102 127.683 133.126  1.00  0.00     0.118 C 
ATOM     17  C   UNL     1     131.117 126.543 133.319  1.00  0.00     0.063 C 
ATOM     18  C   UNL     1     132.985 127.807 135.401  1.00  0.00     0.016 C 
ATOM     19  C   UNL     1     130.701 125.469 141.169  1.00  0.00     0.012 C 
ENDROOT
BRANCH   1  20
ATOM     20  C   UNL     1     129.556 127.890 142.233  1.00  0.00     0.133 C 
ATOM     21  C   UNL     1     130.659 128.574 142.992  1.00  0.00     0.088 C 
ATOM     22  O   UNL     1     128.625 127.409 142.862  1.00  0.00    -0.300 OA
ENDBRANCH   1  20
BRANCH  16  23
ATOM     23  O   UNL     1     130.143 128.111 131.791  1.00  0.00    -0.393 OA
ATOM     24  H   UNL     1     129.442 127.603 131.305  1.00  0.00     0.210 HD
ENDBRANCH  16  23
TORSDOF 2
ENDMDL
MODEL 9
REMARK VINA RESULT:    -4.947     10.159     12.953
REMARK INTER + INTRA:          -5.533
REMARK INTER:                  -5.359
REMARK INTRA:                  -0.174
REMARK UNBOUND:                -0.152
REMARK SMILES CC(=O)[C@@H]1CC[C@H]2[C@H]3CC=C4C[C@H](O)CC[C@@]4(C)[C@H]3CC[C@@]12C
REMARK SMILES IDX 4 1 5 2 6 3 7 4 22 5 21 6 20 7 19 8 8 9 9 10 10 11 11 12
REMARK SMILES IDX 17 13 16 14 15 15 13 16 12 17 18 18 23 19 2 20 1 21 3 22
REMARK SMILES IDX 14 23
REMARK H PARENT 14 24
REMARK Flexibility Score: inf
ROOT
ATOM      1  C   UNL     1     130.462 126.498 144.407  1.00  0.00     0.062 C 
ATOM      2  C   UNL     1     130.272 127.999 144.204  1.00  0.00     0.012 C 
ATOM      3  C   UNL     1     129.790 128.120 142.775  1.00  0.00     0.005 C 
ATOM      4  C   UNL     1     128.830 126.940 142.591  1.00  0.00    -0.001 C 
ATOM      5  C   UNL     1     129.357 125.807 143.534  1.00  0.00    -0.020 C 
ATOM      6  C   UNL     1     129.978 124.618 142.746  1.00  0.00     0.008 C 
ATOM      7  C   UNL     1     130.685 125.082 141.468  1.00  0.00     0.005 C 
ATOM      8  C   UNL     1     129.646 125.593 140.444  1.00  0.00     0.003 C 
ATOM      9  C   UNL     1     128.559 126.512 141.109  1.00  0.00     0.000 C 
ATOM     10  C   UNL     1     128.133 127.706 140.241  1.00  0.00     0.031 C 
ATOM     11  C   UNL     1     128.134 127.389 138.780  1.00  0.00    -0.027 C 
ATOM     12  C   UNL     1     129.185 126.767 138.211  1.00  0.00    -0.065 C 
ATOM     13  C   UNL     1     130.257 126.090 139.067  1.00  0.00    -0.008 C 
ATOM     14  C   UNL     1     131.406 127.128 139.232  1.00  0.00     0.014 C 
ATOM     15  C   UNL     1     131.889 127.717 137.882  1.00  0.00     0.033 C 
ATOM     16  C   UNL     1     130.734 128.270 137.011  1.00  0.00     0.118 C 
ATOM     17  C   UNL     1     129.602 127.243 136.836  1.00  0.00     0.063 C 
ATOM     18  C   UNL     1     130.801 124.836 138.315  1.00  0.00     0.016 C 
ATOM     19  C   UNL     1     128.180 125.273 144.390  1.00  0.00     0.012 C 
ENDROOT
BRANCH   1  20
ATOM     20  C   UNL     1     130.535 126.047 145.859  1.00  0.00     0.133 C 
ATOM     21  C   UNL     1     131.150 124.739 146.276  1.00  0.00     0.088 C 
ATOM     22  O   UNL     1     130.056 126.769 146.721  1.00  0.00    -0.300 OA
ENDBRANCH   1  20
BRANCH  16  23
ATOM     23  O   UNL     1     131.221 128.634 135.746  1.00  0.00    -0.393 OA
ATOM     24  H   UNL     1     132.069 128.136 135.613  1.00  0.00     0.210 HD
ENDBRANCH  16  23
TORSDOF 2
ENDMDL
