MODEL 1
REMARK VINA RESULT:    18.677      0.000      0.000
REMARK INTER + INTRA:          27.972
REMARK INTER:                  26.321
REMARK INTRA:                   1.651
REMARK UNBOUND:                 1.651
REMARK SMILES CC1=CCC(=C(C)C)C(=O)CC(C)=CCC1
REMARK SMILES IDX 12 1 14 2 13 3 15 4 16 5 2 6 1 7 3 8 11 10 9 11 10 12 5 13
REMARK SMILES IDX 6 14 7 15 8 16 4 17
REMARK H PARENT
REMARK Flexibility Score: 60.00
ROOT
ATOM      1  C   UNL     1      -7.425 -18.933 -24.593  1.00  0.00    -0.070 C 
ATOM      2  C   UNL     1      -6.652 -17.868 -24.232  1.00  0.00    -0.027 C 
ATOM      3  C   UNL     1      -6.693 -20.182 -25.031  1.00  0.00     0.039 C 
ENDROOT
BRANCH   2   4
ATOM      4  C   UNL     1      -7.023 -16.454 -23.799  1.00  0.00     0.032 C 
BRANCH   4   5
ATOM      5  C   UNL     1      -8.444 -15.971 -24.114  1.00  0.00     0.034 C 
BRANCH   5   6
ATOM      6  C   UNL     1      -9.266 -15.339 -22.983  1.00  0.00    -0.077 C 
ATOM      7  C   UNL     1      -9.030 -13.860 -22.759  1.00  0.00     0.039 C 
ATOM      8  C   UNL     1     -10.116 -15.939 -22.098  1.00  0.00    -0.023 CG0
ATOM      9  G   UNL     1     -10.550 -17.386 -21.964  1.00  0.00     0.000 G0
ENDBRANCH   5   6
ENDBRANCH   4   5
ENDBRANCH   2   4
BRANCH   1  10
ATOM     10  C   UNL     1      -8.944 -19.001 -24.591  1.00  0.00     0.111 C 
BRANCH  10  11
ATOM     11  C   UNL     1      -9.485 -19.323 -23.232  1.00  0.00     0.163 C 
ATOM     12  O   UNL     1     -10.063 -20.429 -23.050  1.00  0.00    -0.294 OA
BRANCH  11  13
ATOM     13  C   UNL     1      -9.383 -18.342 -22.121  1.00  0.00    -0.002 C 
ATOM     14  C   UNL     1      -8.316 -18.336 -21.270  1.00  0.00    -0.069 C 
ATOM     15  C   UNL     1      -8.259 -17.411 -20.075  1.00  0.00     0.039 C 
ATOM     16  C   UNL     1      -7.132 -19.249 -21.495  1.00  0.00     0.039 C 
BRANCH  13  17
ATOM     17  C   UNL     1     -10.535 -17.369 -21.985  1.00  0.00     0.066 CG0
ATOM     18  G   UNL     1     -10.072 -15.926 -22.049  1.00  0.00     0.000 G0
ENDBRANCH  13  17
ENDBRANCH  11  13
ENDBRANCH  10  11
ENDBRANCH   1  10
TORSDOF 0
ENDMDL
MODEL 2
REMARK VINA RESULT:    19.853     12.509     14.494
REMARK INTER + INTRA:          29.628
REMARK INTER:                  27.422
REMARK INTRA:                   2.206
REMARK UNBOUND:                 1.651
REMARK SMILES CC1=CCC(=C(C)C)C(=O)CC(C)=CCC1
REMARK SMILES IDX 12 1 14 2 13 3 15 4 16 5 2 6 1 7 3 8 11 10 9 11 10 12 5 13
REMARK SMILES IDX 6 14 7 15 8 16 4 17
REMARK H PARENT
REMARK Flexibility Score: 60.00
ROOT
ATOM      1  C   UNL     1      -3.541  -5.111 -13.851  1.00  0.00    -0.070 C 
ATOM      2  C   UNL     1      -4.889  -4.907 -13.804  1.00  0.00    -0.027 C 
ATOM      3  C   UNL     1      -2.776  -4.878 -12.568  1.00  0.00     0.039 C 
ENDROOT
BRANCH   2   4
ATOM      4  C   UNL     1      -5.960  -4.986 -14.887  1.00  0.00     0.032 C 
BRANCH   4   5
ATOM      5  C   UNL     1      -5.913  -6.189 -15.837  1.00  0.00     0.034 C 
BRANCH   5   6
ATOM      6  C   UNL     1      -5.574  -5.938 -17.312  1.00  0.00    -0.077 C 
ATOM      7  C   UNL     1      -6.409  -4.877 -17.998  1.00  0.00     0.039 C 
ATOM      8  C   UNL     1      -4.683  -6.594 -18.114  1.00  0.00    -0.023 CG0
ATOM      9  G   UNL     1      -3.730  -7.735 -17.814  1.00  0.00     0.000 G0
ENDBRANCH   5   6
ENDBRANCH   4   5
ENDBRANCH   2   4
BRANCH   1  10
ATOM     10  C   UNL     1      -2.727  -5.556 -15.057  1.00  0.00     0.111 C 
BRANCH  10  11
ATOM     11  C   UNL     1      -3.124  -6.924 -15.521  1.00  0.00     0.163 C 
ATOM     12  O   UNL     1      -3.823  -7.648 -14.762  1.00  0.00    -0.294 OA
BRANCH  11  13
ATOM     13  C   UNL     1      -2.669  -7.441 -16.837  1.00  0.00    -0.002 C 
ATOM     14  C   UNL     1      -1.344  -7.609 -17.119  1.00  0.00    -0.069 C 
ATOM     15  C   UNL     1      -0.872  -8.033 -18.491  1.00  0.00     0.039 C 
ATOM     16  C   UNL     1      -0.286  -7.393 -16.059  1.00  0.00     0.039 C 
BRANCH  13  17
ATOM     17  C   UNL     1      -3.758  -7.750 -17.842  1.00  0.00     0.066 CG0
ATOM     18  G   UNL     1      -4.647  -6.550 -18.103  1.00  0.00     0.000 G0
ENDBRANCH  13  17
ENDBRANCH  11  13
ENDBRANCH  10  11
ENDBRANCH   1  10
TORSDOF 0
ENDMDL
