MODEL 1
REMARK VINA RESULT:    -6.470      0.000      0.000
REMARK INTER + INTRA:          -8.102
REMARK INTER:                  -7.794
REMARK INTRA:                  -0.308
REMARK UNBOUND:                -0.308
REMARK SMILES O=c1c(O)c(-c2ccc(O)c(O)c2)oc2cc(O)cc(O)c12
REMARK SMILES IDX 5 1 3 2 2 3 1 4 22 5 20 6 19 7 17 8 16 9 15 10 14 11 6 12
REMARK SMILES IDX 7 13 8 14 9 15 13 16 11 17 10 18 12 20 4 22 21 24 18 26
REMARK H PARENT 10 19 12 21 4 23 21 25 18 27
REMARK Flexibility Score: inf
ROOT
ATOM      1  C   UNL     1       1.922  -3.618   8.967  1.00  0.00     0.180 A 
ATOM      2  C   UNL     1       3.309  -3.396   8.957  1.00  0.00     0.208 A 
ATOM      3  C   UNL     1       3.789  -2.077   9.004  1.00  0.00     0.238 A 
ATOM      4  O   UNL     1       5.031  -1.884   8.940  1.00  0.00    -0.285 OA
ATOM      5  C   UNL     1       2.877  -0.998   9.079  1.00  0.00     0.111 A 
ATOM      6  C   UNL     1       3.252   0.376   9.171  1.00  0.00     0.134 A 
ATOM      7  C   UNL     1       2.265   1.367   9.107  1.00  0.00     0.093 A 
ATOM      8  C   UNL     1       0.912   1.032   9.020  1.00  0.00     0.123 A 
ATOM      9  C   UNL     1       0.531  -0.307   8.989  1.00  0.00     0.094 A 
ATOM     10  C   UNL     1       1.495  -1.318   9.014  1.00  0.00     0.146 A 
ATOM     11  O   UNL     1       1.090  -2.582   8.972  1.00  0.00    -0.452 OA
ENDROOT
BRANCH   1  12
ATOM     12  C   UNL     1       1.341  -4.979   8.945  1.00  0.00     0.025 A 
ATOM     13  C   UNL     1       0.909  -5.611  10.125  1.00  0.00     0.016 A 
ATOM     14  C   UNL     1       0.342  -6.886  10.076  1.00  0.00     0.051 A 
ATOM     15  C   UNL     1       0.184  -7.545   8.850  1.00  0.00     0.157 A 
ATOM     16  C   UNL     1       1.161  -5.635   7.716  1.00  0.00     0.062 A 
ATOM     17  C   UNL     1       0.593  -6.913   7.663  1.00  0.00     0.158 A 
BRANCH  15  18
ATOM     18  O   UNL     1      -0.381  -8.819   8.805  1.00  0.00    -0.504 OA
ATOM     19  H   UNL     1      -0.877  -9.207   9.599  1.00  0.00     0.293 HD
ENDBRANCH  15  18
BRANCH  17  20
ATOM     20  O   UNL     1       0.443  -7.537   6.426  1.00  0.00    -0.504 OA
ATOM     21  H   UNL     1       0.725  -8.498   6.271  1.00  0.00     0.293 HD
ENDBRANCH  17  20
ENDBRANCH   1  12
BRANCH   2  22
ATOM     22  O   UNL     1       4.193  -4.475   8.861  1.00  0.00    -0.502 OA
ATOM     23  H   UNL     1       4.208  -5.097   8.062  1.00  0.00     0.293 HD
ENDBRANCH   2  22
BRANCH   6  24
ATOM     24  O   UNL     1       4.567   0.815   9.354  1.00  0.00    -0.507 OA
ATOM     25  H   UNL     1       5.106   0.680  10.196  1.00  0.00     0.293 HD
ENDBRANCH   6  24
BRANCH   8  26
ATOM     26  O   UNL     1      -0.064   2.025   8.973  1.00  0.00    -0.508 OA
ATOM     27  H   UNL     1      -0.592   2.209   8.127  1.00  0.00     0.293 HD
ENDBRANCH   8  26
TORSDOF 6
ENDMDL
MODEL 2
REMARK VINA RESULT:    -6.469      3.243      6.922
REMARK INTER + INTRA:          -8.100
REMARK INTER:                  -8.453
REMARK INTRA:                   0.353
REMARK UNBOUND:                -0.308
REMARK SMILES O=c1c(O)c(-c2ccc(O)c(O)c2)oc2cc(O)cc(O)c12
REMARK SMILES IDX 5 1 3 2 2 3 1 4 22 5 20 6 19 7 17 8 16 9 15 10 14 11 6 12
REMARK SMILES IDX 7 13 8 14 9 15 13 16 11 17 10 18 12 20 4 22 21 24 18 26
REMARK H PARENT 10 19 12 21 4 23 21 25 18 27
REMARK Flexibility Score: inf
ROOT
ATOM      1  C   UNL     1       3.955  -4.347   7.968  1.00  0.00     0.180 A 
ATOM      2  C   UNL     1       4.139  -5.149   6.828  1.00  0.00     0.208 A 
ATOM      3  C   UNL     1       3.159  -6.099   6.498  1.00  0.00     0.238 A 
ATOM      4  O   UNL     1       3.357  -6.850   5.508  1.00  0.00    -0.285 OA
ATOM      5  C   UNL     1       2.000  -6.224   7.300  1.00  0.00     0.111 A 
ATOM      6  C   UNL     1       0.925  -7.125   7.037  1.00  0.00     0.134 A 
ATOM      7  C   UNL     1      -0.111  -7.256   7.970  1.00  0.00     0.093 A 
ATOM      8  C   UNL     1      -0.143  -6.471   9.125  1.00  0.00     0.123 A 
ATOM      9  C   UNL     1       0.871  -5.547   9.363  1.00  0.00     0.094 A 
ATOM     10  C   UNL     1       1.937  -5.419   8.468  1.00  0.00     0.146 A 
ATOM     11  O   UNL     1       2.889  -4.533   8.737  1.00  0.00    -0.452 OA
ENDROOT
BRANCH   1  12
ATOM     12  C   UNL     1       4.931  -3.307   8.366  1.00  0.00     0.025 A 
ATOM     13  C   UNL     1       5.099  -2.939   9.713  1.00  0.00     0.016 A 
ATOM     14  C   UNL     1       6.043  -1.972  10.068  1.00  0.00     0.051 A 
ATOM     15  C   UNL     1       6.841  -1.369   9.088  1.00  0.00     0.157 A 
ATOM     16  C   UNL     1       5.748  -2.715   7.390  1.00  0.00     0.062 A 
ATOM     17  C   UNL     1       6.694  -1.745   7.742  1.00  0.00     0.158 A 
BRANCH  15  18
ATOM     18  O   UNL     1       7.781  -0.403   9.446  1.00  0.00    -0.504 OA
ATOM     19  H   UNL     1       7.514   0.561   9.609  1.00  0.00     0.293 HD
ENDBRANCH  15  18
BRANCH  17  20
ATOM     20  O   UNL     1       7.478  -1.170   6.744  1.00  0.00    -0.504 OA
ATOM     21  H   UNL     1       7.914  -0.262   6.858  1.00  0.00     0.293 HD
ENDBRANCH  17  20
ENDBRANCH   1  12
BRANCH   2  22
ATOM     22  O   UNL     1       5.301  -5.024   6.062  1.00  0.00    -0.502 OA
ATOM     23  H   UNL     1       5.844  -5.825   5.762  1.00  0.00     0.293 HD
ENDBRANCH   2  22
BRANCH   6  24
ATOM     24  O   UNL     1       0.813  -7.886   5.870  1.00  0.00    -0.507 OA
ATOM     25  H   UNL     1       0.108  -8.590   5.708  1.00  0.00     0.293 HD
ENDBRANCH   6  24
BRANCH   8  26
ATOM     26  O   UNL     1      -1.185  -6.597  10.041  1.00  0.00    -0.508 OA
ATOM     27  H   UNL     1      -2.077  -6.999   9.777  1.00  0.00     0.293 HD
ENDBRANCH   8  26
TORSDOF 6
ENDMDL
MODEL 3
REMARK VINA RESULT:    -5.845      5.289      8.053
REMARK INTER + INTRA:          -7.349
REMARK INTER:                  -7.206
REMARK INTRA:                  -0.143
REMARK UNBOUND:                -0.308
REMARK SMILES O=c1c(O)c(-c2ccc(O)c(O)c2)oc2cc(O)cc(O)c12
REMARK SMILES IDX 5 1 3 2 2 3 1 4 22 5 20 6 19 7 17 8 16 9 15 10 14 11 6 12
REMARK SMILES IDX 7 13 8 14 9 15 13 16 11 17 10 18 12 20 4 22 21 24 18 26
REMARK H PARENT 10 19 12 21 4 23 21 25 18 27
REMARK Flexibility Score: inf
ROOT
ATOM      1  C   UNL     1       3.152   2.320   8.713  1.00  0.00     0.180 A 
ATOM      2  C   UNL     1       3.189   0.948   8.410  1.00  0.00     0.208 A 
ATOM      3  C   UNL     1       4.435   0.319   8.252  1.00  0.00     0.238 A 
ATOM      4  O   UNL     1       4.460  -0.896   7.927  1.00  0.00    -0.285 OA
ATOM      5  C   UNL     1       5.627   1.065   8.414  1.00  0.00     0.111 A 
ATOM      6  C   UNL     1       6.943   0.522   8.315  1.00  0.00     0.134 A 
ATOM      7  C   UNL     1       8.049   1.379   8.365  1.00  0.00     0.093 A 
ATOM      8  C   UNL     1       7.889   2.751   8.575  1.00  0.00     0.123 A 
ATOM      9  C   UNL     1       6.611   3.282   8.731  1.00  0.00     0.094 A 
ATOM     10  C   UNL     1       5.486   2.458   8.650  1.00  0.00     0.146 A 
ATOM     11  O   UNL     1       4.286   3.007   8.795  1.00  0.00    -0.452 OA
ENDROOT
BRANCH   1  12
ATOM     12  C   UNL     1       1.879   3.047   8.920  1.00  0.00     0.025 A 
ATOM     13  C   UNL     1       0.979   2.674   9.933  1.00  0.00     0.016 A 
ATOM     14  C   UNL     1      -0.205   3.390  10.125  1.00  0.00     0.051 A 
ATOM     15  C   UNL     1      -0.502   4.496   9.318  1.00  0.00     0.157 A 
ATOM     16  C   UNL     1       1.587   4.170   8.127  1.00  0.00     0.062 A 
ATOM     17  C   UNL     1       0.401   4.889   8.316  1.00  0.00     0.158 A 
BRANCH  15  18
ATOM     18  O   UNL     1      -1.686   5.208   9.511  1.00  0.00    -0.504 OA
ATOM     19  H   UNL     1      -1.799   5.847  10.288  1.00  0.00     0.293 HD
ENDBRANCH  15  18
BRANCH  17  20
ATOM     20  O   UNL     1       0.139   5.989   7.501  1.00  0.00    -0.504 OA
ATOM     21  H   UNL     1       0.881   6.522   7.062  1.00  0.00     0.293 HD
ENDBRANCH  17  20
ENDBRANCH   1  12
BRANCH   2  22
ATOM     22  O   UNL     1       2.001   0.235   8.233  1.00  0.00    -0.502 OA
ATOM     23  H   UNL     1       1.178   0.396   8.802  1.00  0.00     0.293 HD
ENDBRANCH   2  22
BRANCH   6  24
ATOM     24  O   UNL     1       7.217  -0.844   8.198  1.00  0.00    -0.507 OA
ATOM     25  H   UNL     1       7.271  -1.488   8.973  1.00  0.00     0.293 HD
ENDBRANCH   6  24
BRANCH   8  26
ATOM     26  O   UNL     1       8.996   3.594   8.638  1.00  0.00    -0.508 OA
ATOM     27  H   UNL     1       9.255   4.065   9.497  1.00  0.00     0.293 HD
ENDBRANCH   8  26
TORSDOF 6
ENDMDL
MODEL 4
REMARK VINA RESULT:    -5.817      1.894      2.454
REMARK INTER + INTRA:          -7.315
REMARK INTER:                  -7.592
REMARK INTRA:                   0.277
REMARK UNBOUND:                -0.308
REMARK SMILES O=c1c(O)c(-c2ccc(O)c(O)c2)oc2cc(O)cc(O)c12
REMARK SMILES IDX 5 1 3 2 2 3 1 4 22 5 20 6 19 7 17 8 16 9 15 10 14 11 6 12
REMARK SMILES IDX 7 13 8 14 9 15 13 16 11 17 10 18 12 20 4 22 21 24 18 26
REMARK H PARENT 10 19 12 21 4 23 21 25 18 27
REMARK Flexibility Score: inf
ROOT
ATOM      1  C   UNL     1       3.523  -3.629   8.562  1.00  0.00     0.180 A 
ATOM      2  C   UNL     1       4.678  -3.824   7.786  1.00  0.00     0.208 A 
ATOM      3  C   UNL     1       5.597  -2.770   7.655  1.00  0.00     0.238 A 
ATOM      4  O   UNL     1       6.601  -2.933   6.915  1.00  0.00    -0.285 OA
ATOM      5  C   UNL     1       5.358  -1.541   8.315  1.00  0.00     0.111 A 
ATOM      6  C   UNL     1       6.241  -0.419   8.285  1.00  0.00     0.134 A 
ATOM      7  C   UNL     1       5.841   0.790   8.867  1.00  0.00     0.093 A 
ATOM      8  C   UNL     1       4.619   0.898   9.535  1.00  0.00     0.123 A 
ATOM      9  C   UNL     1       3.777  -0.207   9.621  1.00  0.00     0.094 A 
ATOM     10  C   UNL     1       4.132  -1.417   9.019  1.00  0.00     0.146 A 
ATOM     11  O   UNL     1       3.295  -2.443   9.116  1.00  0.00    -0.452 OA
ENDROOT
BRANCH   1  12
ATOM     12  C   UNL     1       2.521  -4.699   8.768  1.00  0.00     0.025 A 
ATOM     13  C   UNL     1       1.788  -4.796   9.963  1.00  0.00     0.016 A 
ATOM     14  C   UNL     1       0.830  -5.800  10.125  1.00  0.00     0.051 A 
ATOM     15  C   UNL     1       0.581  -6.714   9.093  1.00  0.00     0.157 A 
ATOM     16  C   UNL     1       2.253  -5.605   7.728  1.00  0.00     0.062 A 
ATOM     17  C   UNL     1       1.295  -6.613   7.887  1.00  0.00     0.158 A 
BRANCH  15  18
ATOM     18  O   UNL     1      -0.374  -7.716   9.258  1.00  0.00    -0.504 OA
ATOM     19  H   UNL     1      -0.147  -8.693   9.116  1.00  0.00     0.293 HD
ENDBRANCH  15  18
BRANCH  17  20
ATOM     20  O   UNL     1       1.066  -7.501   6.837  1.00  0.00    -0.504 OA
ATOM     21  H   UNL     1       0.132  -7.776   6.560  1.00  0.00     0.293 HD
ENDBRANCH  17  20
ENDBRANCH   1  12
BRANCH   2  22
ATOM     22  O   UNL     1       4.884  -5.038   7.125  1.00  0.00    -0.502 OA
ATOM     23  H   UNL     1       5.744  -5.251   6.634  1.00  0.00     0.293 HD
ENDBRANCH   2  22
BRANCH   6  24
ATOM     24  O   UNL     1       7.522  -0.449   7.726  1.00  0.00    -0.507 OA
ATOM     25  H   UNL     1       8.380  -0.367   8.250  1.00  0.00     0.293 HD
ENDBRANCH   6  24
BRANCH   8  26
ATOM     26  O   UNL     1       4.236   2.101  10.124  1.00  0.00    -0.508 OA
ATOM     27  H   UNL     1       4.550   2.360  11.053  1.00  0.00     0.293 HD
ENDBRANCH   8  26
TORSDOF 6
ENDMDL
MODEL 5
REMARK VINA RESULT:    -5.625      2.621      7.148
REMARK INTER + INTRA:          -7.084
REMARK INTER:                  -6.796
REMARK INTRA:                  -0.288
REMARK UNBOUND:                -0.308
REMARK SMILES O=c1c(O)c(-c2ccc(O)c(O)c2)oc2cc(O)cc(O)c12
REMARK SMILES IDX 5 1 3 2 2 3 1 4 22 5 20 6 19 7 17 8 16 9 15 10 14 11 6 12
REMARK SMILES IDX 7 13 8 14 9 15 13 16 11 17 10 18 12 20 4 22 21 24 18 26
REMARK H PARENT 10 19 12 21 4 23 21 25 18 27
REMARK Flexibility Score: inf
ROOT
ATOM      1  C   UNL     1       4.863  -2.953   8.329  1.00  0.00     0.180 A 
ATOM      2  C   UNL     1       5.372  -3.760   7.298  1.00  0.00     0.208 A 
ATOM      3  C   UNL     1       4.640  -4.889   6.893  1.00  0.00     0.238 A 
ATOM      4  O   UNL     1       5.128  -5.637   6.007  1.00  0.00    -0.285 OA
ATOM      5  C   UNL     1       3.403  -5.185   7.511  1.00  0.00     0.111 A 
ATOM      6  C   UNL     1       2.559  -6.280   7.152  1.00  0.00     0.134 A 
ATOM      7  C   UNL     1       1.420  -6.553   7.919  1.00  0.00     0.093 A 
ATOM      8  C   UNL     1       1.059  -5.733   8.991  1.00  0.00     0.123 A 
ATOM      9  C   UNL     1       1.844  -4.629   9.312  1.00  0.00     0.094 A 
ATOM     10  C   UNL     1       3.006  -4.351   8.589  1.00  0.00     0.146 A 
ATOM     11  O   UNL     1       3.731  -3.293   8.934  1.00  0.00    -0.452 OA
ENDROOT
BRANCH   1  12
ATOM     12  C   UNL     1       5.563  -1.734   8.794  1.00  0.00     0.025 A 
ATOM     13  C   UNL     1       6.670  -1.810   9.658  1.00  0.00     0.016 A 
ATOM     14  C   UNL     1       7.330  -0.648  10.064  1.00  0.00     0.051 A 
ATOM     15  C   UNL     1       6.904   0.606   9.606  1.00  0.00     0.157 A 
ATOM     16  C   UNL     1       5.153  -0.477   8.320  1.00  0.00     0.062 A 
ATOM     17  C   UNL     1       5.812   0.690   8.726  1.00  0.00     0.158 A 
BRANCH  15  18
ATOM     18  O   UNL     1       7.564   1.764  10.015  1.00  0.00    -0.504 OA
ATOM     19  H   UNL     1       7.410   2.165  10.933  1.00  0.00     0.293 HD
ENDBRANCH  15  18
BRANCH  17  20
ATOM     20  O   UNL     1       5.367   1.920   8.246  1.00  0.00    -0.504 OA
ATOM     21  H   UNL     1       4.763   2.525   8.790  1.00  0.00     0.293 HD
ENDBRANCH  17  20
ENDBRANCH   1  12
BRANCH   2  22
ATOM     22  O   UNL     1       6.607  -3.462   6.716  1.00  0.00    -0.502 OA
ATOM     23  H   UNL     1       7.329  -4.160   6.582  1.00  0.00     0.293 HD
ENDBRANCH   2  22
BRANCH   6  24
ATOM     24  O   UNL     1       2.778  -7.103   6.045  1.00  0.00    -0.507 OA
ATOM     25  H   UNL     1       3.505  -7.801   5.982  1.00  0.00     0.293 HD
ENDBRANCH   6  24
BRANCH   8  26
ATOM     26  O   UNL     1      -0.084  -6.004   9.740  1.00  0.00    -0.508 OA
ATOM     27  H   UNL     1      -0.804  -6.633   9.400  1.00  0.00     0.293 HD
ENDBRANCH   8  26
TORSDOF 6
ENDMDL
MODEL 6
REMARK VINA RESULT:    -5.467      1.844      3.451
REMARK INTER + INTRA:          -6.893
REMARK INTER:                  -6.638
REMARK INTRA:                  -0.256
REMARK UNBOUND:                -0.308
REMARK SMILES O=c1c(O)c(-c2ccc(O)c(O)c2)oc2cc(O)cc(O)c12
REMARK SMILES IDX 5 1 3 2 2 3 1 4 22 5 20 6 19 7 17 8 16 9 15 10 14 11 6 12
REMARK SMILES IDX 7 13 8 14 9 15 13 16 11 17 10 18 12 20 4 22 21 24 18 26
REMARK H PARENT 10 19 12 21 4 23 21 25 18 27
REMARK Flexibility Score: inf
ROOT
ATOM      1  C   UNL     1       3.023  -3.139   9.188  1.00  0.00     0.180 A 
ATOM      2  C   UNL     1       2.269  -1.956   9.108  1.00  0.00     0.208 A 
ATOM      3  C   UNL     1       2.928  -0.720   9.200  1.00  0.00     0.238 A 
ATOM      4  O   UNL     1       2.241   0.334   9.182  1.00  0.00    -0.285 OA
ATOM      5  C   UNL     1       4.335  -0.681   9.353  1.00  0.00     0.111 A 
ATOM      6  C   UNL     1       5.111   0.515   9.416  1.00  0.00     0.134 A 
ATOM      7  C   UNL     1       6.479   0.436   9.700  1.00  0.00     0.093 A 
ATOM      8  C   UNL     1       7.112  -0.799   9.858  1.00  0.00     0.123 A 
ATOM      9  C   UNL     1       6.375  -1.975   9.739  1.00  0.00     0.094 A 
ATOM     10  C   UNL     1       5.000  -1.927   9.492  1.00  0.00     0.146 A 
ATOM     11  O   UNL     1       4.333  -3.071   9.397  1.00  0.00    -0.452 OA
ENDROOT
BRANCH   1  12
ATOM     12  C   UNL     1       2.403  -4.479   9.075  1.00  0.00     0.025 A 
ATOM     13  C   UNL     1       1.646  -5.026  10.125  1.00  0.00     0.016 A 
ATOM     14  C   UNL     1       1.050  -6.282   9.986  1.00  0.00     0.051 A 
ATOM     15  C   UNL     1       1.190  -7.004   8.795  1.00  0.00     0.157 A 
ATOM     16  C   UNL     1       2.523  -5.197   7.874  1.00  0.00     0.062 A 
ATOM     17  C   UNL     1       1.928  -6.456   7.732  1.00  0.00     0.158 A 
BRANCH  15  18
ATOM     18  O   UNL     1       0.596  -8.259   8.660  1.00  0.00    -0.504 OA
ATOM     19  H   UNL     1       0.059  -8.505   7.837  1.00  0.00     0.293 HD
ENDBRANCH  15  18
BRANCH  17  20
ATOM     20  O   UNL     1       2.081  -7.146   6.530  1.00  0.00    -0.504 OA
ATOM     21  H   UNL     1       1.747  -8.094   6.408  1.00  0.00     0.293 HD
ENDBRANCH  17  20
ENDBRANCH   1  12
BRANCH   2  22
ATOM     22  O   UNL     1       0.878  -2.016   8.978  1.00  0.00    -0.502 OA
ATOM     23  H   UNL     1       0.259  -1.365   9.446  1.00  0.00     0.293 HD
ENDBRANCH   2  22
BRANCH   6  24
ATOM     24  O   UNL     1       4.595   1.793   9.181  1.00  0.00    -0.507 OA
ATOM     25  H   UNL     1       3.808   1.994   8.583  1.00  0.00     0.293 HD
ENDBRANCH   6  24
BRANCH   8  26
ATOM     26  O   UNL     1       8.478  -0.869  10.125  1.00  0.00    -0.508 OA
ATOM     27  H   UNL     1       8.830  -0.933  11.073  1.00  0.00     0.293 HD
ENDBRANCH   8  26
TORSDOF 6
ENDMDL
MODEL 7
REMARK VINA RESULT:    -5.391      2.882      7.519
REMARK INTER + INTRA:          -6.802
REMARK INTER:                  -6.996
REMARK INTRA:                   0.194
REMARK UNBOUND:                -0.308
REMARK SMILES O=c1c(O)c(-c2ccc(O)c(O)c2)oc2cc(O)cc(O)c12
REMARK SMILES IDX 5 1 3 2 2 3 1 4 22 5 20 6 19 7 17 8 16 9 15 10 14 11 6 12
REMARK SMILES IDX 7 13 8 14 9 15 13 16 11 17 10 18 12 20 4 22 21 24 18 26
REMARK H PARENT 10 19 12 21 4 23 21 25 18 27
REMARK Flexibility Score: inf
ROOT
ATOM      1  C   UNL     1       2.549   1.335   8.918  1.00  0.00     0.180 A 
ATOM      2  C   UNL     1       3.910   1.578   8.671  1.00  0.00     0.208 A 
ATOM      3  C   UNL     1       4.785   0.486   8.542  1.00  0.00     0.238 A 
ATOM      4  O   UNL     1       6.011   0.712   8.374  1.00  0.00    -0.285 OA
ATOM      5  C   UNL     1       4.284  -0.833   8.645  1.00  0.00     0.111 A 
ATOM      6  C   UNL     1       5.072  -2.014   8.491  1.00  0.00     0.134 A 
ATOM      7  C   UNL     1       4.497  -3.265   8.743  1.00  0.00     0.093 A 
ATOM      8  C   UNL     1       3.146  -3.383   9.079  1.00  0.00     0.123 A 
ATOM      9  C   UNL     1       2.355  -2.241   9.174  1.00  0.00     0.094 A 
ATOM     10  C   UNL     1       2.908  -0.976   8.964  1.00  0.00     0.146 A 
ATOM     11  O   UNL     1       2.121   0.088   9.074  1.00  0.00    -0.452 OA
ENDROOT
BRANCH   1  12
ATOM     12  C   UNL     1       1.562   2.432   9.041  1.00  0.00     0.025 A 
ATOM     13  C   UNL     1       0.545   2.396  10.011  1.00  0.00     0.016 A 
ATOM     14  C   UNL     1      -0.360   3.454  10.125  1.00  0.00     0.051 A 
ATOM     15  C   UNL     1      -0.257   4.568   9.281  1.00  0.00     0.157 A 
ATOM     16  C   UNL     1       1.674   3.560   8.212  1.00  0.00     0.062 A 
ATOM     17  C   UNL     1       0.768   4.621   8.322  1.00  0.00     0.158 A 
BRANCH  15  18
ATOM     18  O   UNL     1      -1.163   5.621   9.395  1.00  0.00    -0.504 OA
ATOM     19  H   UNL     1      -1.391   6.029  10.294  1.00  0.00     0.293 HD
ENDBRANCH  15  18
BRANCH  17  20
ATOM     20  O   UNL     1       0.903   5.718   7.472  1.00  0.00    -0.504 OA
ATOM     21  H   UNL     1       1.515   5.701   6.665  1.00  0.00     0.293 HD
ENDBRANCH  17  20
ENDBRANCH   1  12
BRANCH   2  22
ATOM     22  O   UNL     1       4.388   2.889   8.594  1.00  0.00    -0.502 OA
ATOM     23  H   UNL     1       5.357   3.104   8.391  1.00  0.00     0.293 HD
ENDBRANCH   2  22
BRANCH   6  24
ATOM     24  O   UNL     1       6.405  -2.013   8.069  1.00  0.00    -0.507 OA
ATOM     25  H   UNL     1       7.042  -2.788   8.176  1.00  0.00     0.293 HD
ENDBRANCH   6  24
BRANCH   8  26
ATOM     26  O   UNL     1       2.579  -4.633   9.314  1.00  0.00    -0.508 OA
ATOM     27  H   UNL     1       1.638  -4.854   9.008  1.00  0.00     0.293 HD
ENDBRANCH   8  26
TORSDOF 6
ENDMDL
MODEL 8
REMARK VINA RESULT:    -5.337      4.211      6.503
REMARK INTER + INTRA:          -6.737
REMARK INTER:                  -7.152
REMARK INTRA:                   0.416
REMARK UNBOUND:                -0.308
REMARK SMILES O=c1c(O)c(-c2ccc(O)c(O)c2)oc2cc(O)cc(O)c12
REMARK SMILES IDX 5 1 3 2 2 3 1 4 22 5 20 6 19 7 17 8 16 9 15 10 14 11 6 12
REMARK SMILES IDX 7 13 8 14 9 15 13 16 11 17 10 18 12 20 4 22 21 24 18 26
REMARK H PARENT 10 19 12 21 4 23 21 25 18 27
REMARK Flexibility Score: inf
ROOT
ATOM      1  C   UNL     1       3.875   0.789   8.980  1.00  0.00     0.180 A 
ATOM      2  C   UNL     1       4.628  -0.364   8.702  1.00  0.00     0.208 A 
ATOM      3  C   UNL     1       6.024  -0.257   8.593  1.00  0.00     0.238 A 
ATOM      4  O   UNL     1       6.686  -1.284   8.291  1.00  0.00    -0.285 OA
ATOM      5  C   UNL     1       6.651   0.998   8.780  1.00  0.00     0.111 A 
ATOM      6  C   UNL     1       8.061   1.215   8.732  1.00  0.00     0.134 A 
ATOM      7  C   UNL     1       8.562   2.520   8.801  1.00  0.00     0.093 A 
ATOM      8  C   UNL     1       7.707   3.611   8.983  1.00  0.00     0.123 A 
ATOM      9  C   UNL     1       6.334   3.404   9.090  1.00  0.00     0.094 A 
ATOM     10  C   UNL     1       5.802   2.116   8.988  1.00  0.00     0.146 A 
ATOM     11  O   UNL     1       4.486   1.964   9.085  1.00  0.00    -0.452 OA
ENDROOT
BRANCH   1  12
ATOM     12  C   UNL     1       2.403   0.752   9.134  1.00  0.00     0.025 A 
ATOM     13  C   UNL     1       1.714  -0.463   9.288  1.00  0.00     0.016 A 
ATOM     14  C   UNL     1       0.327  -0.472   9.456  1.00  0.00     0.051 A 
ATOM     15  C   UNL     1      -0.390   0.731   9.486  1.00  0.00     0.157 A 
ATOM     16  C   UNL     1       1.682   1.957   9.187  1.00  0.00     0.062 A 
ATOM     17  C   UNL     1       0.293   1.952   9.354  1.00  0.00     0.158 A 
BRANCH  15  18
ATOM     18  O   UNL     1      -1.775   0.718   9.652  1.00  0.00    -0.504 OA
ATOM     19  H   UNL     1      -2.265   1.498  10.074  1.00  0.00     0.293 HD
ENDBRANCH  15  18
BRANCH  17  20
ATOM     20  O   UNL     1      -0.390   3.166   9.387  1.00  0.00    -0.504 OA
ATOM     21  H   UNL     1      -0.240   3.848  10.121  1.00  0.00     0.293 HD
ENDBRANCH  17  20
ENDBRANCH   1  12
BRANCH   2  22
ATOM     22  O   UNL     1       3.987  -1.590   8.500  1.00  0.00    -0.502 OA
ATOM     23  H   UNL     1       4.322  -2.276   7.833  1.00  0.00     0.293 HD
ENDBRANCH   2  22
BRANCH   6  24
ATOM     24  O   UNL     1       9.006   0.188   8.646  1.00  0.00    -0.507 OA
ATOM     25  H   UNL     1       9.862   0.149   9.179  1.00  0.00     0.293 HD
ENDBRANCH   6  24
BRANCH   8  26
ATOM     26  O   UNL     1       8.215   4.905   9.066  1.00  0.00    -0.508 OA
ATOM     27  H   UNL     1       8.716   5.226   9.887  1.00  0.00     0.293 HD
ENDBRANCH   8  26
TORSDOF 6
ENDMDL
MODEL 9
REMARK VINA RESULT:    -4.661     16.655     19.327
REMARK INTER + INTRA:          -5.922
REMARK INTER:                  -5.660
REMARK INTRA:                  -0.262
REMARK UNBOUND:                -0.308
REMARK SMILES O=c1c(O)c(-c2ccc(O)c(O)c2)oc2cc(O)cc(O)c12
REMARK SMILES IDX 5 1 3 2 2 3 1 4 22 5 20 6 19 7 17 8 16 9 15 10 14 11 6 12
REMARK SMILES IDX 7 13 8 14 9 15 13 16 11 17 10 18 12 20 4 22 21 24 18 26
REMARK H PARENT 10 19 12 21 4 23 21 25 18 27
REMARK Flexibility Score: inf
ROOT
ATOM      1  C   UNL     1      -5.157  -6.109  -7.594  1.00  0.00     0.180 A 
ATOM      2  C   UNL     1      -5.555  -7.436  -7.353  1.00  0.00     0.208 A 
ATOM      3  C   UNL     1      -6.828  -7.852  -7.775  1.00  0.00     0.238 A 
ATOM      4  O   UNL     1      -7.198  -9.025  -7.508  1.00  0.00    -0.285 OA
ATOM      5  C   UNL     1      -7.681  -6.943  -8.445  1.00  0.00     0.111 A 
ATOM      6  C   UNL     1      -8.976  -7.268  -8.951  1.00  0.00     0.134 A 
ATOM      7  C   UNL     1      -9.784  -6.255  -9.480  1.00  0.00     0.093 A 
ATOM      8  C   UNL     1      -9.319  -4.941  -9.583  1.00  0.00     0.123 A 
ATOM      9  C   UNL     1      -8.035  -4.626  -9.146  1.00  0.00     0.094 A 
ATOM     10  C   UNL     1      -7.218  -5.608  -8.579  1.00  0.00     0.146 A 
ATOM     11  O   UNL     1      -6.005  -5.262  -8.166  1.00  0.00    -0.452 OA
ENDROOT
BRANCH   1  12
ATOM     12  C   UNL     1      -3.822  -5.603  -7.202  1.00  0.00     0.025 A 
ATOM     13  C   UNL     1      -2.818  -5.372  -8.158  1.00  0.00     0.016 A 
ATOM     14  C   UNL     1      -1.573  -4.871  -7.768  1.00  0.00     0.051 A 
ATOM     15  C   UNL     1      -1.317  -4.582  -6.422  1.00  0.00     0.157 A 
ATOM     16  C   UNL     1      -3.567  -5.292  -5.856  1.00  0.00     0.062 A 
ATOM     17  C   UNL     1      -2.322  -4.791  -5.462  1.00  0.00     0.158 A 
BRANCH  15  18
ATOM     18  O   UNL     1      -0.073  -4.085  -6.035  1.00  0.00    -0.504 OA
ATOM     19  H   UNL     1       0.332  -3.268  -6.478  1.00  0.00     0.293 HD
ENDBRANCH  15  18
BRANCH  17  20
ATOM     20  O   UNL     1      -2.101  -4.507  -4.115  1.00  0.00    -0.504 OA
ATOM     21  H   UNL     1      -1.609  -5.147  -3.504  1.00  0.00     0.293 HD
ENDBRANCH  17  20
ENDBRANCH   1  12
BRANCH   2  22
ATOM     22  O   UNL     1      -4.706  -8.311  -6.671  1.00  0.00    -0.502 OA
ATOM     23  H   UNL     1      -3.822  -8.623  -7.055  1.00  0.00     0.293 HD
ENDBRANCH   2  22
BRANCH   6  24
ATOM     24  O   UNL     1      -9.499  -8.564  -8.982  1.00  0.00    -0.507 OA
ATOM     25  H   UNL     1     -10.278  -8.855  -9.552  1.00  0.00     0.293 HD
ENDBRANCH   6  24
BRANCH   8  26
ATOM     26  O   UNL     1     -10.125  -3.943 -10.125  1.00  0.00    -0.508 OA
ATOM     27  H   UNL     1     -10.124  -3.000  -9.752  1.00  0.00     0.293 HD
ENDBRANCH   8  26
TORSDOF 6
ENDMDL
