MODEL 1
REMARK VINA RESULT:    -4.921      0.000      0.000
REMARK INTER + INTRA:         -11.833
REMARK INTER:                  -9.524
REMARK INTRA:                  -2.309
REMARK UNBOUND:                -2.309
REMARK SMILES CCCCCCCCCCCCCCCCCC(=O)[O-]
REMARK SMILES IDX 10 1 11 2 12 3 13 4 14 5 15 6 16 7 17 8 18 9 19 10 20 11
REMARK SMILES IDX 9 12 8 13 7 14 6 15 5 16 4 17 3 18 2 19 1 20
REMARK H PARENT
REMARK Flexibility Score: inf
ROOT
ATOM      1  C   UNL     1     185.221 183.699 182.022  1.00  0.00     0.000 C 
ENDROOT
BRANCH   1   2
ATOM      2  C   UNL     1     186.042 182.406 181.920  1.00  0.00     0.000 C 
BRANCH   2   3
ATOM      3  C   UNL     1     185.147 181.217 181.538  1.00  0.00     0.000 C 
BRANCH   3   4
ATOM      4  C   UNL     1     184.612 180.461 182.765  1.00  0.00     0.000 C 
BRANCH   4   5
ATOM      5  C   UNL     1     183.075 180.460 182.831  1.00  0.00     0.000 C 
BRANCH   5   6
ATOM      6  C   UNL     1     182.440 179.508 181.805  1.00  0.00     0.000 C 
BRANCH   6   7
ATOM      7  C   UNL     1     181.524 180.234 180.808  1.00  0.00     0.006 C 
BRANCH   7   8
ATOM      8  C   UNL     1     182.328 180.774 179.619  1.00  0.00     0.053 C 
BRANCH   8   9
ATOM      9  C   UNL     1     181.429 181.492 178.663  1.00  0.00     0.041 C 
ATOM     10  O   UNL     1     180.179 181.366 178.751  1.00  0.00    -0.550 OA
ATOM     11  O   UNL     1     181.970 182.346 177.708  1.00  0.00    -0.550 OA
ENDBRANCH   8   9
ENDBRANCH   7   8
ENDBRANCH   6   7
ENDBRANCH   5   6
ENDBRANCH   4   5
ENDBRANCH   3   4
ENDBRANCH   2   3
ENDBRANCH   1   2
BRANCH   1  12
ATOM     12  C   UNL     1     183.950 183.671 181.155  1.00  0.00     0.000 C 
BRANCH  12  13
ATOM     13  C   UNL     1     183.267 185.039 180.948  1.00  0.00    -0.000 C 
BRANCH  13  14
ATOM     14  C   UNL     1     181.775 185.090 181.323  1.00  0.00    -0.000 C 
BRANCH  14  15
ATOM     15  C   UNL     1     181.175 183.696 181.574  1.00  0.00    -0.000 C 
BRANCH  15  16
ATOM     16  C   UNL     1     180.491 183.587 182.947  1.00  0.00    -0.000 C 
BRANCH  16  17
ATOM     17  C   UNL     1     178.966 183.430 182.838  1.00  0.00    -0.000 C 
BRANCH  17  18
ATOM     18  C   UNL     1     178.560 183.008 181.418  1.00  0.00    -0.000 C 
BRANCH  18  19
ATOM     19  C   UNL     1     177.595 181.813 181.410  1.00  0.00    -0.003 C 
ATOM     20  C   UNL     1     178.141 180.607 182.174  1.00  0.00     0.004 C 
ENDBRANCH  18  19
ENDBRANCH  17  18
ENDBRANCH  16  17
ENDBRANCH  15  16
ENDBRANCH  14  15
ENDBRANCH  13  14
ENDBRANCH  12  13
ENDBRANCH   1  12
TORSDOF 16
ENDMDL
MODEL 2
REMARK VINA RESULT:    -4.900      1.785      5.705
REMARK INTER + INTRA:         -11.792
REMARK INTER:                  -9.269
REMARK INTRA:                  -2.523
REMARK UNBOUND:                -2.309
REMARK SMILES CCCCCCCCCCCCCCCCCC(=O)[O-]
REMARK SMILES IDX 10 1 11 2 12 3 13 4 14 5 15 6 16 7 17 8 18 9 19 10 20 11
REMARK SMILES IDX 9 12 8 13 7 14 6 15 5 16 4 17 3 18 2 19 1 20
REMARK H PARENT
REMARK Flexibility Score: inf
ROOT
ATOM      1  C   UNL     1     181.645 182.216 178.843  1.00  0.00     0.000 C 
ENDROOT
BRANCH   1   2
ATOM      2  C   UNL     1     183.025 182.741 179.265  1.00  0.00     0.000 C 
BRANCH   2   3
ATOM      3  C   UNL     1     182.889 183.936 180.221  1.00  0.00     0.000 C 
BRANCH   3   4
ATOM      4  C   UNL     1     181.444 184.145 180.703  1.00  0.00     0.000 C 
BRANCH   4   5
ATOM      5  C   UNL     1     181.271 183.830 182.198  1.00  0.00     0.000 C 
BRANCH   5   6
ATOM      6  C   UNL     1     179.811 183.534 182.576  1.00  0.00     0.000 C 
BRANCH   6   7
ATOM      7  C   UNL     1     179.059 182.763 181.480  1.00  0.00     0.006 C 
BRANCH   7   8
ATOM      8  C   UNL     1     177.722 182.229 182.006  1.00  0.00     0.053 C 
BRANCH   8   9
ATOM      9  C   UNL     1     177.725 180.733 182.021  1.00  0.00     0.041 C 
ATOM     10  O   UNL     1     178.811 180.102 182.113  1.00  0.00    -0.550 OA
ATOM     11  O   UNL     1     176.523 180.035 181.986  1.00  0.00    -0.550 OA
ENDBRANCH   8   9
ENDBRANCH   7   8
ENDBRANCH   6   7
ENDBRANCH   5   6
ENDBRANCH   4   5
ENDBRANCH   3   4
ENDBRANCH   2   3
ENDBRANCH   1   2
BRANCH   1  12
ATOM     12  C   UNL     1     181.299 180.860 179.483  1.00  0.00     0.000 C 
BRANCH  12  13
ATOM     13  C   UNL     1     182.436 180.210 180.299  1.00  0.00    -0.000 C 
BRANCH  13  14
ATOM     14  C   UNL     1     182.125 179.983 181.789  1.00  0.00    -0.000 C 
BRANCH  14  15
ATOM     15  C   UNL     1     183.371 180.104 182.683  1.00  0.00    -0.000 C 
BRANCH  15  16
ATOM     16  C   UNL     1     184.116 181.434 182.479  1.00  0.00    -0.000 C 
BRANCH  16  17
ATOM     17  C   UNL     1     185.607 181.234 182.162  1.00  0.00    -0.000 C 
BRANCH  17  18
ATOM     18  C   UNL     1     186.159 182.420 181.356  1.00  0.00    -0.000 C 
BRANCH  18  19
ATOM     19  C   UNL     1     186.223 183.714 182.181  1.00  0.00    -0.003 C 
ATOM     20  C   UNL     1     187.373 184.628 181.759  1.00  0.00     0.004 C 
ENDBRANCH  18  19
ENDBRANCH  17  18
ENDBRANCH  16  17
ENDBRANCH  15  16
ENDBRANCH  14  15
ENDBRANCH  13  14
ENDBRANCH  12  13
ENDBRANCH   1  12
TORSDOF 16
ENDMDL
MODEL 3
REMARK VINA RESULT:    -4.886      2.070      5.085
REMARK INTER + INTRA:         -11.766
REMARK INTER:                  -8.855
REMARK INTRA:                  -2.911
REMARK UNBOUND:                -2.309
REMARK SMILES CCCCCCCCCCCCCCCCCC(=O)[O-]
REMARK SMILES IDX 10 1 11 2 12 3 13 4 14 5 15 6 16 7 17 8 18 9 19 10 20 11
REMARK SMILES IDX 9 12 8 13 7 14 6 15 5 16 4 17 3 18 2 19 1 20
REMARK H PARENT
REMARK Flexibility Score: inf
ROOT
ATOM      1  C   UNL     1     181.591 184.736 181.808  1.00  0.00     0.000 C 
ENDROOT
BRANCH   1   2
ATOM      2  C   UNL     1     181.603 184.246 180.353  1.00  0.00     0.000 C 
BRANCH   2   3
ATOM      3  C   UNL     1     182.903 183.489 180.041  1.00  0.00     0.000 C 
BRANCH   3   4
ATOM      4  C   UNL     1     182.683 182.306 179.083  1.00  0.00     0.000 C 
BRANCH   4   5
ATOM      5  C   UNL     1     181.288 181.677 179.236  1.00  0.00     0.000 C 
BRANCH   5   6
ATOM      6  C   UNL     1     181.275 180.502 180.226  1.00  0.00     0.000 C 
BRANCH   6   7
ATOM      7  C   UNL     1     180.089 180.559 181.201  1.00  0.00     0.006 C 
BRANCH   7   8
ATOM      8  C   UNL     1     179.070 181.616 180.762  1.00  0.00     0.053 C 
BRANCH   8   9
ATOM      9  C   UNL     1     177.924 181.668 181.722  1.00  0.00     0.041 C 
ATOM     10  O   UNL     1     177.509 180.615 182.273  1.00  0.00    -0.550 OA
ATOM     11  O   UNL     1     177.348 182.890 182.051  1.00  0.00    -0.550 OA
ENDBRANCH   8   9
ENDBRANCH   7   8
ENDBRANCH   6   7
ENDBRANCH   5   6
ENDBRANCH   4   5
ENDBRANCH   3   4
ENDBRANCH   2   3
ENDBRANCH   1   2
BRANCH   1  12
ATOM     12  C   UNL     1     180.614 183.946 182.698  1.00  0.00     0.000 C 
BRANCH  12  13
ATOM     13  C   UNL     1     181.278 183.007 183.727  1.00  0.00    -0.000 C 
BRANCH  13  14
ATOM     14  C   UNL     1     182.560 182.307 183.243  1.00  0.00    -0.000 C 
BRANCH  14  15
ATOM     15  C   UNL     1     182.814 180.967 183.955  1.00  0.00    -0.000 C 
BRANCH  15  16
ATOM     16  C   UNL     1     183.857 180.101 183.229  1.00  0.00    -0.000 C 
BRANCH  16  17
ATOM     17  C   UNL     1     184.418 180.782 181.970  1.00  0.00    -0.000 C 
BRANCH  17  18
ATOM     18  C   UNL     1     185.877 181.212 182.184  1.00  0.00    -0.000 C 
BRANCH  18  19
ATOM     19  C   UNL     1     186.256 182.446 181.353  1.00  0.00    -0.003 C 
ATOM     20  C   UNL     1     186.116 183.752 182.135  1.00  0.00     0.004 C 
ENDBRANCH  18  19
ENDBRANCH  17  18
ENDBRANCH  16  17
ENDBRANCH  15  16
ENDBRANCH  14  15
ENDBRANCH  13  14
ENDBRANCH  12  13
ENDBRANCH   1  12
TORSDOF 16
ENDMDL
MODEL 4
REMARK VINA RESULT:    -4.867      2.457      4.876
REMARK INTER + INTRA:         -11.728
REMARK INTER:                  -8.845
REMARK INTRA:                  -2.883
REMARK UNBOUND:                -2.309
REMARK SMILES CCCCCCCCCCCCCCCCCC(=O)[O-]
REMARK SMILES IDX 10 1 11 2 12 3 13 4 14 5 15 6 16 7 17 8 18 9 19 10 20 11
REMARK SMILES IDX 9 12 8 13 7 14 6 15 5 16 4 17 3 18 2 19 1 20
REMARK H PARENT
REMARK Flexibility Score: inf
ROOT
ATOM      1  C   UNL     1     181.252 179.864 181.440  1.00  0.00     0.000 C 
ENDROOT
BRANCH   1   2
ATOM      2  C   UNL     1     181.944 180.278 180.134  1.00  0.00     0.000 C 
BRANCH   2   3
ATOM      3  C   UNL     1     181.110 181.326 179.380  1.00  0.00     0.000 C 
BRANCH   3   4
ATOM      4  C   UNL     1     181.966 182.481 178.833  1.00  0.00     0.000 C 
BRANCH   4   5
ATOM      5  C   UNL     1     183.390 182.484 179.414  1.00  0.00     0.000 C 
BRANCH   5   6
ATOM      6  C   UNL     1     183.543 183.449 180.600  1.00  0.00     0.000 C 
BRANCH   6   7
ATOM      7  C   UNL     1     184.590 182.975 181.621  1.00  0.00     0.006 C 
BRANCH   7   8
ATOM      8  C   UNL     1     185.169 181.615 181.219  1.00  0.00     0.053 C 
BRANCH   8   9
ATOM      9  C   UNL     1     185.407 180.769 182.431  1.00  0.00     0.041 C 
ATOM     10  O   UNL     1     184.474 180.075 182.913  1.00  0.00    -0.550 OA
ATOM     11  O   UNL     1     186.676 180.706 182.996  1.00  0.00    -0.550 OA
ENDBRANCH   8   9
ENDBRANCH   7   8
ENDBRANCH   6   7
ENDBRANCH   5   6
ENDBRANCH   4   5
ENDBRANCH   3   4
ENDBRANCH   2   3
ENDBRANCH   1   2
BRANCH   1  12
ATOM     12  C   UNL     1     179.757 179.551 181.253  1.00  0.00     0.000 C 
BRANCH  12  13
ATOM     13  C   UNL     1     178.810 180.255 182.247  1.00  0.00    -0.000 C 
BRANCH  13  14
ATOM     14  C   UNL     1     177.728 181.143 181.605  1.00  0.00    -0.000 C 
BRANCH  14  15
ATOM     15  C   UNL     1     178.236 182.557 181.275  1.00  0.00    -0.000 C 
BRANCH  15  16
ATOM     16  C   UNL     1     178.856 183.260 182.494  1.00  0.00    -0.000 C 
BRANCH  16  17
ATOM     17  C   UNL     1     180.375 183.455 182.355  1.00  0.00    -0.000 C 
BRANCH  17  18
ATOM     18  C   UNL     1     181.060 183.414 183.729  1.00  0.00    -0.000 C 
BRANCH  18  19
ATOM     19  C   UNL     1     181.978 182.193 183.894  1.00  0.00    -0.003 C 
ATOM     20  C   UNL     1     181.950 181.619 185.310  1.00  0.00     0.004 C 
ENDBRANCH  18  19
ENDBRANCH  17  18
ENDBRANCH  16  17
ENDBRANCH  15  16
ENDBRANCH  14  15
ENDBRANCH  13  14
ENDBRANCH  12  13
ENDBRANCH   1  12
TORSDOF 16
ENDMDL
MODEL 5
REMARK VINA RESULT:    -4.865      2.166      3.691
REMARK INTER + INTRA:         -11.725
REMARK INTER:                  -9.367
REMARK INTRA:                  -2.358
REMARK UNBOUND:                -2.309
REMARK SMILES CCCCCCCCCCCCCCCCCC(=O)[O-]
REMARK SMILES IDX 10 1 11 2 12 3 13 4 14 5 15 6 16 7 17 8 18 9 19 10 20 11
REMARK SMILES IDX 9 12 8 13 7 14 6 15 5 16 4 17 3 18 2 19 1 20
REMARK H PARENT
REMARK Flexibility Score: inf
ROOT
ATOM      1  C   UNL     1     182.054 181.446 178.992  1.00  0.00     0.000 C 
ENDROOT
BRANCH   1   2
ATOM      2  C   UNL     1     180.762 180.867 179.585  1.00  0.00     0.000 C 
BRANCH   2   3
ATOM      3  C   UNL     1     181.074 179.764 180.608  1.00  0.00     0.000 C 
BRANCH   3   4
ATOM      4  C   UNL     1     182.557 179.734 181.012  1.00  0.00     0.000 C 
BRANCH   4   5
ATOM      5  C   UNL     1     182.764 180.014 182.510  1.00  0.00     0.000 C 
BRANCH   5   6
ATOM      6  C   UNL     1     184.116 180.682 182.806  1.00  0.00     0.000 C 
BRANCH   6   7
ATOM      7  C   UNL     1     184.788 181.248 181.545  1.00  0.00     0.006 C 
BRANCH   7   8
ATOM      8  C   UNL     1     186.134 181.897 181.886  1.00  0.00     0.053 C 
BRANCH   8   9
ATOM      9  C   UNL     1     185.993 183.384 181.965  1.00  0.00     0.041 C 
ATOM     10  O   UNL     1     184.860 183.921 181.847  1.00  0.00    -0.550 OA
ATOM     11  O   UNL     1     187.106 184.175 182.224  1.00  0.00    -0.550 OA
ENDBRANCH   8   9
ENDBRANCH   7   8
ENDBRANCH   6   7
ENDBRANCH   5   6
ENDBRANCH   4   5
ENDBRANCH   3   4
ENDBRANCH   2   3
ENDBRANCH   1   2
BRANCH   1  12
ATOM     12  C   UNL     1     182.366 182.863 179.505  1.00  0.00     0.000 C 
BRANCH  12  13
ATOM     13  C   UNL     1     181.183 183.593 180.175  1.00  0.00    -0.000 C 
BRANCH  13  14
ATOM     14  C   UNL     1     181.552 184.454 181.396  1.00  0.00    -0.000 C 
BRANCH  14  15
ATOM     15  C   UNL     1     181.014 183.878 182.717  1.00  0.00    -0.000 C 
BRANCH  15  16
ATOM     16  C   UNL     1     180.063 182.690 182.498  1.00  0.00    -0.000 C 
BRANCH  16  17
ATOM     17  C   UNL     1     178.584 183.110 182.493  1.00  0.00    -0.000 C 
BRANCH  17  18
ATOM     18  C   UNL     1     177.719 182.057 181.784  1.00  0.00    -0.000 C 
BRANCH  18  19
ATOM     19  C   UNL     1     178.045 180.625 182.233  1.00  0.00    -0.003 C 
ATOM     20  C   UNL     1     176.817 179.716 182.247  1.00  0.00     0.004 C 
ENDBRANCH  18  19
ENDBRANCH  17  18
ENDBRANCH  16  17
ENDBRANCH  15  16
ENDBRANCH  14  15
ENDBRANCH  13  14
ENDBRANCH  12  13
ENDBRANCH   1  12
TORSDOF 16
ENDMDL
MODEL 6
REMARK VINA RESULT:    -4.823      2.311      4.941
REMARK INTER + INTRA:         -11.644
REMARK INTER:                  -9.081
REMARK INTRA:                  -2.562
REMARK UNBOUND:                -2.309
REMARK SMILES CCCCCCCCCCCCCCCCCC(=O)[O-]
REMARK SMILES IDX 10 1 11 2 12 3 13 4 14 5 15 6 16 7 17 8 18 9 19 10 20 11
REMARK SMILES IDX 9 12 8 13 7 14 6 15 5 16 4 17 3 18 2 19 1 20
REMARK H PARENT
REMARK Flexibility Score: inf
ROOT
ATOM      1  C   UNL     1     177.912 181.580 182.003  1.00  0.00     0.000 C 
ENDROOT
BRANCH   1   2
ATOM      2  C   UNL     1     178.770 180.307 181.996  1.00  0.00     0.000 C 
BRANCH   2   3
ATOM      3  C   UNL     1     180.028 180.498 181.136  1.00  0.00     0.000 C 
BRANCH   3   4
ATOM      4  C   UNL     1     180.847 179.205 180.991  1.00  0.00     0.000 C 
BRANCH   4   5
ATOM      5  C   UNL     1     182.273 179.347 181.549  1.00  0.00     0.000 C 
BRANCH   5   6
ATOM      6  C   UNL     1     182.349 180.315 182.741  1.00  0.00     0.000 C 
BRANCH   6   7
ATOM      7  C   UNL     1     183.793 180.645 183.148  1.00  0.00     0.006 C 
BRANCH   7   8
ATOM      8  C   UNL     1     184.745 180.497 181.957  1.00  0.00     0.053 C 
BRANCH   8   9
ATOM      9  C   UNL     1     186.059 181.148 182.253  1.00  0.00     0.041 C 
ATOM     10  O   UNL     1     186.842 180.641 183.099  1.00  0.00    -0.550 OA
ATOM     11  O   UNL     1     186.443 182.287 181.555  1.00  0.00    -0.550 OA
ENDBRANCH   8   9
ENDBRANCH   7   8
ENDBRANCH   6   7
ENDBRANCH   5   6
ENDBRANCH   4   5
ENDBRANCH   3   4
ENDBRANCH   2   3
ENDBRANCH   1   2
BRANCH   1  12
ATOM     12  C   UNL     1     178.701 182.836 181.591  1.00  0.00     0.000 C 
BRANCH  12  13
ATOM     13  C   UNL     1     179.455 183.542 182.737  1.00  0.00    -0.000 C 
BRANCH  13  14
ATOM     14  C   UNL     1     180.960 183.757 182.494  1.00  0.00    -0.000 C 
BRANCH  14  15
ATOM     15  C   UNL     1     181.256 185.019 181.666  1.00  0.00    -0.000 C 
BRANCH  15  16
ATOM     16  C   UNL     1     182.588 184.925 180.904  1.00  0.00    -0.000 C 
BRANCH  16  17
ATOM     17  C   UNL     1     183.228 183.531 181.000  1.00  0.00    -0.000 C 
BRANCH  17  18
ATOM     18  C   UNL     1     183.252 182.844 179.626  1.00  0.00    -0.000 C 
BRANCH  18  19
ATOM     19  C   UNL     1     181.848 182.680 179.024  1.00  0.00    -0.003 C 
ATOM     20  C   UNL     1     181.763 181.526 178.025  1.00  0.00     0.004 C 
ENDBRANCH  18  19
ENDBRANCH  17  18
ENDBRANCH  16  17
ENDBRANCH  15  16
ENDBRANCH  14  15
ENDBRANCH  13  14
ENDBRANCH  12  13
ENDBRANCH   1  12
TORSDOF 16
ENDMDL
MODEL 7
REMARK VINA RESULT:    -4.818      2.396      4.206
REMARK INTER + INTRA:         -11.633
REMARK INTER:                  -8.733
REMARK INTRA:                  -2.899
REMARK UNBOUND:                -2.309
REMARK SMILES CCCCCCCCCCCCCCCCCC(=O)[O-]
REMARK SMILES IDX 10 1 11 2 12 3 13 4 14 5 15 6 16 7 17 8 18 9 19 10 20 11
REMARK SMILES IDX 9 12 8 13 7 14 6 15 5 16 4 17 3 18 2 19 1 20
REMARK H PARENT
REMARK Flexibility Score: inf
ROOT
ATOM      1  C   UNL     1     182.113 179.454 181.844  1.00  0.00     0.000 C 
ENDROOT
BRANCH   1   2
ATOM      2  C   UNL     1     182.233 179.837 180.362  1.00  0.00     0.000 C 
BRANCH   2   3
ATOM      3  C   UNL     1     180.968 180.563 179.879  1.00  0.00     0.000 C 
BRANCH   3   4
ATOM      4  C   UNL     1     181.284 181.740 178.941  1.00  0.00     0.000 C 
BRANCH   4   5
ATOM      5  C   UNL     1     182.719 182.265 179.119  1.00  0.00     0.000 C 
BRANCH   5   6
ATOM      6  C   UNL     1     182.786 183.508 180.020  1.00  0.00     0.000 C 
BRANCH   6   7
ATOM      7  C   UNL     1     183.973 183.471 180.996  1.00  0.00     0.006 C 
BRANCH   7   8
ATOM      8  C   UNL     1     184.927 182.322 180.655  1.00  0.00     0.053 C 
BRANCH   8   9
ATOM      9  C   UNL     1     186.036 182.247 181.657  1.00  0.00     0.041 C 
ATOM     10  O   UNL     1     186.514 183.301 182.153  1.00  0.00    -0.550 OA
ATOM     11  O   UNL     1     186.504 181.010 182.083  1.00  0.00    -0.550 OA
ENDBRANCH   8   9
ENDBRANCH   7   8
ENDBRANCH   6   7
ENDBRANCH   5   6
ENDBRANCH   4   5
ENDBRANCH   3   4
ENDBRANCH   2   3
ENDBRANCH   1   2
BRANCH   1  12
ATOM     12  C   UNL     1     183.145 180.171 182.733  1.00  0.00     0.000 C 
BRANCH  12  13
ATOM     13  C   UNL     1     182.624 181.426 183.462  1.00  0.00    -0.000 C 
BRANCH  13  14
ATOM     14  C   UNL     1     181.122 181.712 183.283  1.00  0.00    -0.000 C 
BRANCH  14  15
ATOM     15  C   UNL     1     180.821 183.202 183.049  1.00  0.00    -0.000 C 
BRANCH  15  16
ATOM     16  C   UNL     1     179.756 183.426 181.963  1.00  0.00    -0.000 C 
BRANCH  16  17
ATOM     17  C   UNL     1     178.357 182.964 182.401  1.00  0.00    -0.000 C 
BRANCH  17  18
ATOM     18  C   UNL     1     177.887 181.768 181.558  1.00  0.00    -0.000 C 
BRANCH  18  19
ATOM     19  C   UNL     1     177.907 180.449 182.344  1.00  0.00    -0.003 C 
ATOM     20  C   UNL     1     176.697 179.564 182.045  1.00  0.00     0.004 C 
ENDBRANCH  18  19
ENDBRANCH  17  18
ENDBRANCH  16  17
ENDBRANCH  15  16
ENDBRANCH  14  15
ENDBRANCH  13  14
ENDBRANCH  12  13
ENDBRANCH   1  12
TORSDOF 16
ENDMDL
MODEL 8
REMARK VINA RESULT:    -4.755      2.486      5.044
REMARK INTER + INTRA:         -11.513
REMARK INTER:                  -8.588
REMARK INTRA:                  -2.925
REMARK UNBOUND:                -2.309
REMARK SMILES CCCCCCCCCCCCCCCCCC(=O)[O-]
REMARK SMILES IDX 10 1 11 2 12 3 13 4 14 5 15 6 16 7 17 8 18 9 19 10 20 11
REMARK SMILES IDX 9 12 8 13 7 14 6 15 5 16 4 17 3 18 2 19 1 20
REMARK H PARENT
REMARK Flexibility Score: inf
ROOT
ATOM      1  C   UNL     1     179.639 183.808 182.651  1.00  0.00     0.000 C 
ENDROOT
BRANCH   1   2
ATOM      2  C   UNL     1     180.146 183.507 184.069  1.00  0.00     0.000 C 
BRANCH   2   3
ATOM      3  C   UNL     1     181.637 183.137 184.051  1.00  0.00     0.000 C 
BRANCH   3   4
ATOM      4  C   UNL     1     181.966 181.964 184.989  1.00  0.00     0.000 C 
BRANCH   4   5
ATOM      5  C   UNL     1     182.805 180.875 184.299  1.00  0.00     0.000 C 
BRANCH   5   6
ATOM      6  C   UNL     1     183.019 181.154 182.802  1.00  0.00     0.000 C 
BRANCH   6   7
ATOM      7  C   UNL     1     183.964 180.140 182.138  1.00  0.00     0.006 C 
BRANCH   7   8
ATOM      8  C   UNL     1     184.986 180.850 181.244  1.00  0.00     0.053 C 
BRANCH   8   9
ATOM      9  C   UNL     1     186.092 181.427 182.071  1.00  0.00     0.041 C 
ATOM     10  O   UNL     1     186.440 182.627 181.916  1.00  0.00    -0.550 OA
ATOM     11  O   UNL     1     186.703 180.654 183.052  1.00  0.00    -0.550 OA
ENDBRANCH   8   9
ENDBRANCH   7   8
ENDBRANCH   6   7
ENDBRANCH   5   6
ENDBRANCH   4   5
ENDBRANCH   3   4
ENDBRANCH   2   3
ENDBRANCH   1   2
BRANCH   1  12
ATOM     12  C   UNL     1     178.363 183.024 182.293  1.00  0.00     0.000 C 
BRANCH  12  13
ATOM     13  C   UNL     1     178.555 181.898 181.257  1.00  0.00    -0.000 C 
BRANCH  13  14
ATOM     14  C   UNL     1     179.603 180.834 181.631  1.00  0.00    -0.000 C 
BRANCH  14  15
ATOM     15  C   UNL     1     180.489 180.426 180.442  1.00  0.00    -0.000 C 
BRANCH  15  16
ATOM     16  C   UNL     1     180.625 181.545 179.396  1.00  0.00    -0.000 C 
BRANCH  16  17
ATOM     17  C   UNL     1     181.982 181.518 178.674  1.00  0.00    -0.000 C 
BRANCH  17  18
ATOM     18  C   UNL     1     182.882 182.665 179.157  1.00  0.00    -0.000 C 
BRANCH  18  19
ATOM     19  C   UNL     1     182.165 183.604 180.139  1.00  0.00    -0.003 C 
ATOM     20  C   UNL     1     183.134 184.467 180.946  1.00  0.00     0.004 C 
ENDBRANCH  18  19
ENDBRANCH  17  18
ENDBRANCH  16  17
ENDBRANCH  15  16
ENDBRANCH  14  15
ENDBRANCH  13  14
ENDBRANCH  12  13
ENDBRANCH   1  12
TORSDOF 16
ENDMDL
MODEL 9
REMARK VINA RESULT:    -4.714      1.636      4.678
REMARK INTER + INTRA:         -11.433
REMARK INTER:                  -9.418
REMARK INTRA:                  -2.015
REMARK UNBOUND:                -2.309
REMARK SMILES CCCCCCCCCCCCCCCCCC(=O)[O-]
REMARK SMILES IDX 10 1 11 2 12 3 13 4 14 5 15 6 16 7 17 8 18 9 19 10 20 11
REMARK SMILES IDX 9 12 8 13 7 14 6 15 5 16 4 17 3 18 2 19 1 20
REMARK H PARENT
REMARK Flexibility Score: inf
ROOT
ATOM      1  C   UNL     1     183.886 183.951 181.050  1.00  0.00     0.000 C 
ENDROOT
BRANCH   1   2
ATOM      2  C   UNL     1     183.501 185.434 180.947  1.00  0.00     0.000 C 
BRANCH   2   3
ATOM      3  C   UNL     1     182.039 185.652 181.366  1.00  0.00     0.000 C 
BRANCH   3   4
ATOM      4  C   UNL     1     181.215 184.354 181.332  1.00  0.00     0.000 C 
BRANCH   4   5
ATOM      5  C   UNL     1     180.822 183.870 182.739  1.00  0.00     0.000 C 
BRANCH   5   6
ATOM      6  C   UNL     1     179.327 183.533 182.852  1.00  0.00     0.000 C 
BRANCH   6   7
ATOM      7  C   UNL     1     178.795 182.772 181.628  1.00  0.00     0.006 C 
BRANCH   7   8
ATOM      8  C   UNL     1     177.484 182.050 181.959  1.00  0.00     0.053 C 
BRANCH   8   9
ATOM      9  C   UNL     1     177.729 180.589 182.163  1.00  0.00     0.041 C 
ATOM     10  O   UNL     1     178.904 180.136 182.162  1.00  0.00    -0.550 OA
ATOM     11  O   UNL     1     176.661 179.733 182.409  1.00  0.00    -0.550 OA
ENDBRANCH   8   9
ENDBRANCH   7   8
ENDBRANCH   6   7
ENDBRANCH   5   6
ENDBRANCH   4   5
ENDBRANCH   3   4
ENDBRANCH   2   3
ENDBRANCH   1   2
BRANCH   1  12
ATOM     12  C   UNL     1     185.112 183.712 181.949  1.00  0.00     0.000 C 
BRANCH  12  13
ATOM     13  C   UNL     1     185.916 182.433 181.635  1.00  0.00    -0.000 C 
BRANCH  13  14
ATOM     14  C   UNL     1     185.069 181.187 181.321  1.00  0.00    -0.000 C 
BRANCH  14  15
ATOM     15  C   UNL     1     184.274 180.683 182.538  1.00  0.00    -0.000 C 
BRANCH  15  16
ATOM     16  C   UNL     1     182.760 180.640 182.277  1.00  0.00    -0.000 C 
BRANCH  16  17
ATOM     17  C   UNL     1     182.336 179.413 181.454  1.00  0.00    -0.000 C 
BRANCH  17  18
ATOM     18  C   UNL     1     181.522 179.836 180.221  1.00  0.00    -0.000 C 
BRANCH  18  19
ATOM     19  C   UNL     1     181.693 181.324 179.883  1.00  0.00    -0.003 C 
ATOM     20  C   UNL     1     181.608 181.604 178.383  1.00  0.00     0.004 C 
ENDBRANCH  18  19
ENDBRANCH  17  18
ENDBRANCH  16  17
ENDBRANCH  15  16
ENDBRANCH  14  15
ENDBRANCH  13  14
ENDBRANCH  12  13
ENDBRANCH   1  12
TORSDOF 16
ENDMDL
