MODEL 1
REMARK VINA RESULT:    -4.625      0.000      0.000
REMARK INTER + INTRA:          -4.761
REMARK INTER:                  -4.761
REMARK INTRA:                   0.000
REMARK UNBOUND:                 0.000
REMARK SMILES C=C1CCC[C@]2(C)C[C@]3(O)OC(=O)C(C)=C3C[C@@H]12
REMARK SMILES IDX 15 1 14 2 16 3 17 4 18 5 2 6 1 7 3 8 4 9 5 10 6 11 8 12 9 13
REMARK SMILES IDX 11 14 12 15 13 16 7 17 10 18
REMARK H PARENT 10 19
REMARK Flexibility Score: inf
ROOT
ATOM      1  C   UNL     1      37.278 -43.676  11.151  1.00  0.00     0.052 C 
ATOM      2  C   UNL     1      36.878 -43.225  12.522  1.00  0.00     0.040 C 
ATOM      3  C   UNL     1      35.823 -42.473  12.840  1.00  0.00     0.012 C 
ATOM      4  C   UNL     1      34.866 -41.828  11.881  1.00  0.00     0.047 C 
ATOM      5  C   UNL     1      35.012 -40.294  12.013  1.00  0.00     0.025 C 
ATOM      6  C   UNL     1      34.135 -39.463  11.086  1.00  0.00    -0.073 C 
ATOM      7  C   UNL     1      33.180 -39.978  10.290  1.00  0.00     0.008 C 
ATOM      8  C   UNL     1      34.380 -37.973  11.113  1.00  0.00     0.031 C 
ATOM      9  C   UNL     1      34.292 -37.442  12.550  1.00  0.00     0.005 C 
ATOM     10  C   UNL     1      35.152 -38.265  13.532  1.00  0.00     0.008 C 
ATOM     11  C   UNL     1      34.851 -39.796  13.491  1.00  0.00    -0.019 C 
ATOM     12  C   UNL     1      35.891 -40.520  14.409  1.00  0.00     0.092 C 
ATOM     13  C   UNL     1      35.874 -42.061  14.292  1.00  0.00     0.235 C 
ATOM     14  O   UNL     1      37.108 -42.615  14.752  1.00  0.00    -0.426 OA
ATOM     15  C   UNL     1      37.692 -43.318  13.715  1.00  0.00     0.336 C 
ATOM     16  O   UNL     1      38.794 -43.920  13.808  1.00  0.00    -0.246 OA
ATOM     17  C   UNL     1      33.413 -40.042  14.028  1.00  0.00     0.012 C 
ENDROOT
BRANCH  13  18
ATOM     18  O   UNL     1      34.804 -42.608  15.018  1.00  0.00    -0.353 OA
ATOM     19  H   UNL     1      33.964 -42.304  14.584  1.00  0.00     0.215 HD
ENDBRANCH  13  18
TORSDOF 1
ENDMDL
MODEL 2
REMARK VINA RESULT:    -4.513     14.368     16.181
REMARK INTER + INTRA:          -4.645
REMARK INTER:                  -4.645
REMARK INTRA:                   0.000
REMARK UNBOUND:                 0.000
REMARK SMILES C=C1CCC[C@]2(C)C[C@]3(O)OC(=O)C(C)=C3C[C@@H]12
REMARK SMILES IDX 15 1 14 2 16 3 17 4 18 5 2 6 1 7 3 8 4 9 5 10 6 11 8 12 9 13
REMARK SMILES IDX 11 14 12 15 13 16 7 17 10 18
REMARK H PARENT 10 19
REMARK Flexibility Score: inf
ROOT
ATOM      1  C   UNL     1      33.542 -39.764  -1.214  1.00  0.00     0.052 C 
ATOM      2  C   UNL     1      34.504 -40.300  -2.229  1.00  0.00     0.040 C 
ATOM      3  C   UNL     1      35.836 -40.274  -2.159  1.00  0.00     0.012 C 
ATOM      4  C   UNL     1      36.662 -39.610  -1.097  1.00  0.00     0.047 C 
ATOM      5  C   UNL     1      37.456 -38.457  -1.754  1.00  0.00     0.025 C 
ATOM      6  C   UNL     1      38.334 -37.638  -0.817  1.00  0.00    -0.073 C 
ATOM      7  C   UNL     1      38.547 -37.947   0.475  1.00  0.00     0.008 C 
ATOM      8  C   UNL     1      38.996 -36.428  -1.430  1.00  0.00     0.031 C 
ATOM      9  C   UNL     1      39.782 -36.825  -2.686  1.00  0.00     0.005 C 
ATOM     10  C   UNL     1      38.937 -37.674  -3.660  1.00  0.00     0.008 C 
ATOM     11  C   UNL     1      38.291 -38.928  -2.994  1.00  0.00    -0.019 C 
ATOM     12  C   UNL     1      37.345 -39.602  -4.044  1.00  0.00     0.092 C 
ATOM     13  C   UNL     1      36.452 -40.721  -3.464  1.00  0.00     0.235 C 
ATOM     14  O   UNL     1      35.320 -40.950  -4.304  1.00  0.00    -0.426 OA
ATOM     15  C   UNL     1      34.170 -40.720  -3.572  1.00  0.00     0.336 C 
ATOM     16  O   UNL     1      33.006 -40.835  -4.039  1.00  0.00    -0.246 OA
ATOM     17  C   UNL     1      39.417 -39.921  -2.587  1.00  0.00     0.012 C 
ENDROOT
BRANCH  13  18
ATOM     18  O   UNL     1      37.178 -41.913  -3.306  1.00  0.00    -0.353 OA
ATOM     19  H   UNL     1      37.855 -41.756  -2.597  1.00  0.00     0.215 HD
ENDBRANCH  13  18
TORSDOF 1
ENDMDL
MODEL 3
REMARK VINA RESULT:    -4.506     14.208     16.113
REMARK INTER + INTRA:          -4.638
REMARK INTER:                  -4.638
REMARK INTRA:                   0.000
REMARK UNBOUND:                 0.000
REMARK SMILES C=C1CCC[C@]2(C)C[C@]3(O)OC(=O)C(C)=C3C[C@@H]12
REMARK SMILES IDX 15 1 14 2 16 3 17 4 18 5 2 6 1 7 3 8 4 9 5 10 6 11 8 12 9 13
REMARK SMILES IDX 11 14 12 15 13 16 7 17 10 18
REMARK H PARENT 10 19
REMARK Flexibility Score: inf
ROOT
ATOM      1  C   UNL     1      34.968 -39.604  -0.442  1.00  0.00     0.052 C 
ATOM      2  C   UNL     1      34.570 -40.028  -1.822  1.00  0.00     0.040 C 
ATOM      3  C   UNL     1      33.482 -40.720  -2.162  1.00  0.00     0.012 C 
ATOM      4  C   UNL     1      32.472 -41.315  -1.225  1.00  0.00     0.047 C 
ATOM      5  C   UNL     1      32.537 -42.853  -1.360  1.00  0.00     0.025 C 
ATOM      6  C   UNL     1      31.597 -43.638  -0.452  1.00  0.00    -0.073 C 
ATOM      7  C   UNL     1      30.657 -43.073   0.326  1.00  0.00     0.008 C 
ATOM      8  C   UNL     1      31.761 -45.139  -0.481  1.00  0.00     0.031 C 
ATOM      9  C   UNL     1      31.672 -45.661  -1.921  1.00  0.00     0.005 C 
ATOM     10  C   UNL     1      32.595 -44.883  -2.883  1.00  0.00     0.008 C 
ATOM     11  C   UNL     1      32.377 -43.338  -2.842  1.00  0.00    -0.019 C 
ATOM     12  C   UNL     1      33.473 -42.670  -3.738  1.00  0.00     0.092 C 
ATOM     13  C   UNL     1      33.539 -41.131  -3.615  1.00  0.00     0.235 C 
ATOM     14  O   UNL     1      34.810 -40.644  -4.049  1.00  0.00    -0.426 OA
ATOM     15  C   UNL     1      35.412 -39.977  -2.998  1.00  0.00     0.336 C 
ATOM     16  O   UNL     1      36.546 -39.436  -3.068  1.00  0.00    -0.246 OA
ATOM     17  C   UNL     1      30.966 -43.012  -3.407  1.00  0.00     0.012 C 
ENDROOT
BRANCH  13  18
ATOM     18  O   UNL     1      32.515 -40.524  -4.359  1.00  0.00    -0.353 OA
ATOM     19  H   UNL     1      31.683 -41.040  -4.196  1.00  0.00     0.215 HD
ENDBRANCH  13  18
TORSDOF 1
ENDMDL
MODEL 4
REMARK VINA RESULT:    -4.440     15.116     16.609
REMARK INTER + INTRA:          -4.570
REMARK INTER:                  -4.570
REMARK INTRA:                   0.000
REMARK UNBOUND:                 0.000
REMARK SMILES C=C1CCC[C@]2(C)C[C@]3(O)OC(=O)C(C)=C3C[C@@H]12
REMARK SMILES IDX 15 1 14 2 16 3 17 4 18 5 2 6 1 7 3 8 4 9 5 10 6 11 8 12 9 13
REMARK SMILES IDX 11 14 12 15 13 16 7 17 10 18
REMARK H PARENT 10 19
REMARK Flexibility Score: inf
ROOT
ATOM      1  C   UNL     1      37.403 -39.911  -4.042  1.00  0.00     0.052 C 
ATOM      2  C   UNL     1      37.610 -38.995  -2.875  1.00  0.00     0.040 C 
ATOM      3  C   UNL     1      38.580 -38.093  -2.731  1.00  0.00     0.012 C 
ATOM      4  C   UNL     1      39.738 -37.869  -3.659  1.00  0.00     0.047 C 
ATOM      5  C   UNL     1      41.037 -38.234  -2.905  1.00  0.00     0.025 C 
ATOM      6  C   UNL     1      42.327 -38.101  -3.705  1.00  0.00    -0.073 C 
ATOM      7  C   UNL     1      42.396 -37.571  -4.940  1.00  0.00     0.008 C 
ATOM      8  C   UNL     1      43.578 -38.593  -3.017  1.00  0.00     0.031 C 
ATOM      9  C   UNL     1      43.732 -37.927  -1.643  1.00  0.00     0.005 C 
ATOM     10  C   UNL     1      42.442 -38.021  -0.802  1.00  0.00     0.008 C 
ATOM     11  C   UNL     1      41.177 -37.480  -1.538  1.00  0.00    -0.019 C 
ATOM     12  C   UNL     1      39.929 -37.777  -0.641  1.00  0.00     0.092 C 
ATOM     13  C   UNL     1      38.573 -37.514  -1.335  1.00  0.00     0.235 C 
ATOM     14  O   UNL     1      37.525 -38.232  -0.683  1.00  0.00    -0.426 OA
ATOM     15  C   UNL     1      36.943 -39.093  -1.595  1.00  0.00     0.336 C 
ATOM     16  O   UNL     1      35.989 -39.867  -1.320  1.00  0.00    -0.246 OA
ATOM     17  C   UNL     1      41.326 -35.945  -1.739  1.00  0.00     0.012 C 
ENDROOT
BRANCH  13  18
ATOM     18  O   UNL     1      38.275 -36.142  -1.351  1.00  0.00    -0.353 OA
ATOM     19  H   UNL     1      39.072 -35.669  -1.706  1.00  0.00     0.215 HD
ENDBRANCH  13  18
TORSDOF 1
ENDMDL
MODEL 5
REMARK VINA RESULT:    -4.414      9.668     11.480
REMARK INTER + INTRA:          -4.543
REMARK INTER:                  -4.543
REMARK INTRA:                   0.000
REMARK UNBOUND:                 0.000
REMARK SMILES C=C1CCC[C@]2(C)C[C@]3(O)OC(=O)C(C)=C3C[C@@H]12
REMARK SMILES IDX 15 1 14 2 16 3 17 4 18 5 2 6 1 7 3 8 4 9 5 10 6 11 8 12 9 13
REMARK SMILES IDX 11 14 12 15 13 16 7 17 10 18
REMARK H PARENT 10 19
REMARK Flexibility Score: inf
ROOT
ATOM      1  C   UNL     1      34.931 -40.079  -0.601  1.00  0.00     0.052 C 
ATOM      2  C   UNL     1      34.182 -39.400   0.504  1.00  0.00     0.040 C 
ATOM      3  C   UNL     1      34.661 -38.486   1.349  1.00  0.00     0.012 C 
ATOM      4  C   UNL     1      36.082 -38.014   1.444  1.00  0.00     0.047 C 
ATOM      5  C   UNL     1      36.641 -38.441   2.821  1.00  0.00     0.025 C 
ATOM      6  C   UNL     1      38.096 -38.075   3.087  1.00  0.00    -0.073 C 
ATOM      7  C   UNL     1      38.841 -37.310   2.270  1.00  0.00     0.008 C 
ATOM      8  C   UNL     1      38.682 -38.616   4.370  1.00  0.00     0.031 C 
ATOM      9  C   UNL     1      37.805 -38.226   5.567  1.00  0.00     0.005 C 
ATOM     10  C   UNL     1      36.317 -38.561   5.335  1.00  0.00     0.008 C 
ATOM     11  C   UNL     1      35.742 -37.963   4.013  1.00  0.00    -0.019 C 
ATOM     12  C   UNL     1      34.286 -38.506   3.827  1.00  0.00     0.092 C 
ATOM     13  C   UNL     1      33.665 -38.195   2.447  1.00  0.00     0.235 C 
ATOM     14  O   UNL     1      32.588 -39.089   2.165  1.00  0.00    -0.426 OA
ATOM     15  C   UNL     1      32.883 -39.787   1.009  1.00  0.00     0.336 C 
ATOM     16  O   UNL     1      32.126 -40.657   0.502  1.00  0.00    -0.246 OA
ATOM     17  C   UNL     1      35.715 -36.413   4.129  1.00  0.00     0.012 C 
ENDROOT
BRANCH  13  18
ATOM     18  O   UNL     1      33.212 -36.867   2.389  1.00  0.00    -0.353 OA
ATOM     19  H   UNL     1      32.538 -36.751   3.109  1.00  0.00     0.215 HD
ENDBRANCH  13  18
TORSDOF 1
ENDMDL
MODEL 6
REMARK VINA RESULT:    -4.389      5.552      7.614
REMARK INTER + INTRA:          -4.518
REMARK INTER:                  -4.518
REMARK INTRA:                   0.000
REMARK UNBOUND:                 0.000
REMARK SMILES C=C1CCC[C@]2(C)C[C@]3(O)OC(=O)C(C)=C3C[C@@H]12
REMARK SMILES IDX 15 1 14 2 16 3 17 4 18 5 2 6 1 7 3 8 4 9 5 10 6 11 8 12 9 13
REMARK SMILES IDX 11 14 12 15 13 16 7 17 10 18
REMARK H PARENT 10 19
REMARK Flexibility Score: inf
ROOT
ATOM      1  C   UNL     1      35.079 -39.564  10.261  1.00  0.00     0.052 C 
ATOM      2  C   UNL     1      34.294 -38.380   9.788  1.00  0.00     0.040 C 
ATOM      3  C   UNL     1      33.875 -38.145   8.544  1.00  0.00     0.012 C 
ATOM      4  C   UNL     1      34.188 -38.964   7.326  1.00  0.00     0.047 C 
ATOM      5  C   UNL     1      35.037 -38.097   6.367  1.00  0.00     0.025 C 
ATOM      6  C   UNL     1      35.483 -38.778   5.079  1.00  0.00    -0.073 C 
ATOM      7  C   UNL     1      35.072 -39.999   4.692  1.00  0.00     0.008 C 
ATOM      8  C   UNL     1      36.428 -37.981   4.211  1.00  0.00     0.031 C 
ATOM      9  C   UNL     1      35.841 -36.597   3.909  1.00  0.00     0.005 C 
ATOM     10  C   UNL     1      35.358 -35.875   5.184  1.00  0.00     0.008 C 
ATOM     11  C   UNL     1      34.364 -36.720   6.040  1.00  0.00    -0.019 C 
ATOM     12  C   UNL     1      34.081 -35.941   7.367  1.00  0.00     0.092 C 
ATOM     13  C   UNL     1      33.300 -36.753   8.424  1.00  0.00     0.235 C 
ATOM     14  O   UNL     1      33.491 -36.201   9.727  1.00  0.00    -0.426 OA
ATOM     15  C   UNL     1      34.060 -37.165  10.538  1.00  0.00     0.336 C 
ATOM     16  O   UNL     1      34.355 -36.980  11.748  1.00  0.00    -0.246 OA
ATOM     17  C   UNL     1      33.040 -36.901   5.244  1.00  0.00     0.012 C 
ENDROOT
BRANCH  13  18
ATOM     18  O   UNL     1      31.930 -36.790   8.117  1.00  0.00    -0.353 OA
ATOM     19  H   UNL     1      31.823 -37.349   7.304  1.00  0.00     0.215 HD
ENDBRANCH  13  18
TORSDOF 1
ENDMDL
MODEL 7
REMARK VINA RESULT:    -4.372     13.504     15.303
REMARK INTER + INTRA:          -4.500
REMARK INTER:                  -4.500
REMARK INTRA:                   0.000
REMARK UNBOUND:                 0.000
REMARK SMILES C=C1CCC[C@]2(C)C[C@]3(O)OC(=O)C(C)=C3C[C@@H]12
REMARK SMILES IDX 15 1 14 2 16 3 17 4 18 5 2 6 1 7 3 8 4 9 5 10 6 11 8 12 9 13
REMARK SMILES IDX 11 14 12 15 13 16 7 17 10 18
REMARK H PARENT 10 19
REMARK Flexibility Score: inf
ROOT
ATOM      1  C   UNL     1      38.503 -37.069  -3.237  1.00  0.00     0.052 C 
ATOM      2  C   UNL     1      38.117 -37.738  -1.955  1.00  0.00     0.040 C 
ATOM      3  C   UNL     1      37.542 -38.933  -1.819  1.00  0.00     0.012 C 
ATOM      4  C   UNL     1      37.060 -39.823  -2.928  1.00  0.00     0.047 C 
ATOM      5  C   UNL     1      35.522 -39.941  -2.817  1.00  0.00     0.025 C 
ATOM      6  C   UNL     1      34.844 -40.786  -3.888  1.00  0.00    -0.073 C 
ATOM      7  C   UNL     1      35.507 -41.516  -4.803  1.00  0.00     0.008 C 
ATOM      8  C   UNL     1      33.334 -40.784  -3.865  1.00  0.00     0.031 C 
ATOM      9  C   UNL     1      32.818 -41.171  -2.473  1.00  0.00     0.005 C 
ATOM     10  C   UNL     1      33.491 -40.353  -1.351  1.00  0.00     0.008 C 
ATOM     11  C   UNL     1      35.050 -40.401  -1.395  1.00  0.00    -0.019 C 
ATOM     12  C   UNL     1      35.597 -39.412  -0.311  1.00  0.00     0.092 C 
ATOM     13  C   UNL     1      37.121 -39.169  -0.388  1.00  0.00     0.235 C 
ATOM     14  O   UNL     1      37.471 -37.949   0.267  1.00  0.00    -0.426 OA
ATOM     15  C   UNL     1      38.075 -37.111  -0.651  1.00  0.00     0.336 C 
ATOM     16  O   UNL     1      38.495 -35.955  -0.378  1.00  0.00    -0.246 OA
ATOM     17  C   UNL     1      35.520 -41.847  -1.072  1.00  0.00     0.012 C 
ENDROOT
BRANCH  13  18
ATOM     18  O   UNL     1      37.830 -40.239   0.185  1.00  0.00    -0.353 OA
ATOM     19  H   UNL     1      37.734 -41.017  -0.424  1.00  0.00     0.215 HD
ENDBRANCH  13  18
TORSDOF 1
ENDMDL
MODEL 8
REMARK VINA RESULT:    -4.311      2.964      4.694
REMARK INTER + INTRA:          -4.437
REMARK INTER:                  -4.437
REMARK INTRA:                   0.000
REMARK UNBOUND:                 0.000
REMARK SMILES C=C1CCC[C@]2(C)C[C@]3(O)OC(=O)C(C)=C3C[C@@H]12
REMARK SMILES IDX 15 1 14 2 16 3 17 4 18 5 2 6 1 7 3 8 4 9 5 10 6 11 8 12 9 13
REMARK SMILES IDX 11 14 12 15 13 16 7 17 10 18
REMARK H PARENT 10 19
REMARK Flexibility Score: inf
ROOT
ATOM      1  C   UNL     1      35.221 -41.472  11.842  1.00  0.00     0.052 C 
ATOM      2  C   UNL     1      34.612 -40.144  12.172  1.00  0.00     0.040 C 
ATOM      3  C   UNL     1      33.739 -39.460  11.431  1.00  0.00     0.012 C 
ATOM      4  C   UNL     1      33.258 -39.822  10.056  1.00  0.00     0.047 C 
ATOM      5  C   UNL     1      33.752 -38.738   9.071  1.00  0.00     0.025 C 
ATOM      6  C   UNL     1      33.385 -38.955   7.608  1.00  0.00    -0.073 C 
ATOM      7  C   UNL     1      32.568 -39.931   7.174  1.00  0.00     0.008 C 
ATOM      8  C   UNL     1      33.988 -37.975   6.630  1.00  0.00     0.031 C 
ATOM      9  C   UNL     1      33.673 -36.534   7.051  1.00  0.00     0.005 C 
ATOM     10  C   UNL     1      34.012 -36.271   8.533  1.00  0.00     0.008 C 
ATOM     11  C   UNL     1      33.350 -37.289   9.514  1.00  0.00    -0.019 C 
ATOM     12  C   UNL     1      33.899 -37.005  10.952  1.00  0.00     0.092 C 
ATOM     13  C   UNL     1      33.520 -38.077  11.998  1.00  0.00     0.235 C 
ATOM     14  O   UNL     1      34.410 -38.030  13.114  1.00  0.00    -0.426 OA
ATOM     15  C   UNL     1      35.041 -39.255  13.229  1.00  0.00     0.336 C 
ATOM     16  O   UNL     1      35.890 -39.526  14.119  1.00  0.00    -0.246 OA
ATOM     17  C   UNL     1      31.809 -37.085   9.489  1.00  0.00     0.012 C 
ENDROOT
BRANCH  13  18
ATOM     18  O   UNL     1      32.196 -37.907  12.434  1.00  0.00    -0.353 OA
ATOM     19  H   UNL     1      31.615 -38.450  11.840  1.00  0.00     0.215 HD
ENDBRANCH  13  18
TORSDOF 1
ENDMDL
