MODEL 1
REMARK VINA RESULT:    -2.284      0.000      0.000
REMARK INTER + INTRA:          -2.284
REMARK INTER:                  -2.284
REMARK INTRA:                   0.000
REMARK UNBOUND:                 0.000
REMARK SMILES CC(=O)[O-]
REMARK SMILES IDX 1 1 2 2 3 3 4 4
REMARK H PARENT
REMARK Flexibility Score: inf
ROOT
ATOM      1  C   UNL     1      -0.404   5.787   6.467  1.00  0.00     0.063 C 
ATOM      2  C   UNL     1      -0.540   6.016   5.000  1.00  0.00     0.038 C 
ATOM      3  O   UNL     1      -0.018   5.211   4.185  1.00  0.00    -0.550 OA
ATOM      4  O   UNL     1      -1.196   7.146   4.529  1.00  0.00    -0.550 OA
ENDROOT
TORSDOF 0
ENDMDL
MODEL 2
REMARK VINA RESULT:    -2.268      0.125      1.625
REMARK INTER + INTRA:          -2.268
REMARK INTER:                  -2.268
REMARK INTRA:                   0.000
REMARK UNBOUND:                 0.000
REMARK SMILES CC(=O)[O-]
REMARK SMILES IDX 1 1 2 2 3 3 4 4
REMARK H PARENT
REMARK Flexibility Score: inf
ROOT
ATOM      1  C   UNL     1      -0.578   5.905   6.469  1.00  0.00     0.063 C 
ATOM      2  C   UNL     1      -0.588   6.130   4.995  1.00  0.00     0.038 C 
ATOM      3  O   UNL     1      -1.179   7.132   4.514  1.00  0.00    -0.550 OA
ATOM      4  O   UNL     1       0.006   5.206   4.146  1.00  0.00    -0.550 OA
ENDROOT
TORSDOF 0
ENDMDL
MODEL 3
REMARK VINA RESULT:    -2.105     11.150     11.543
REMARK INTER + INTRA:          -2.105
REMARK INTER:                  -2.105
REMARK INTRA:                   0.000
REMARK UNBOUND:                 0.000
REMARK SMILES CC(=O)[O-]
REMARK SMILES IDX 1 1 2 2 3 3 4 4
REMARK H PARENT
REMARK Flexibility Score: inf
ROOT
ATOM      1  C   UNL     1      -8.459   3.394  -3.389  1.00  0.00     0.063 C 
ATOM      2  C   UNL     1      -8.416   4.868  -3.165  1.00  0.00     0.038 C 
ATOM      3  O   UNL     1      -7.319   5.483  -3.224  1.00  0.00    -0.550 OA
ATOM      4  O   UNL     1      -9.575   5.557  -2.835  1.00  0.00    -0.550 OA
ENDROOT
TORSDOF 0
ENDMDL
MODEL 4
REMARK VINA RESULT:    -1.912     12.886     13.344
REMARK INTER + INTRA:          -1.912
REMARK INTER:                  -1.912
REMARK INTRA:                   0.000
REMARK UNBOUND:                 0.000
REMARK SMILES CC(=O)[O-]
REMARK SMILES IDX 1 1 2 2 3 3 4 4
REMARK H PARENT
REMARK Flexibility Score: inf
ROOT
ATOM      1  C   UNL     1      -0.780  -4.135  -1.858  1.00  0.00     0.063 C 
ATOM      2  C   UNL     1       0.346  -4.829  -2.545  1.00  0.00     0.038 C 
ATOM      3  O   UNL     1       1.369  -5.169  -1.894  1.00  0.00    -0.550 OA
ATOM      4  O   UNL     1       0.295  -5.055  -3.914  1.00  0.00    -0.550 OA
ENDROOT
TORSDOF 0
ENDMDL
MODEL 5
REMARK VINA RESULT:    -1.891      8.722      9.045
REMARK INTER + INTRA:          -1.891
REMARK INTER:                  -1.891
REMARK INTRA:                   0.000
REMARK UNBOUND:                 0.000
REMARK SMILES CC(=O)[O-]
REMARK SMILES IDX 1 1 2 2 3 3 4 4
REMARK H PARENT
REMARK Flexibility Score: inf
ROOT
ATOM      1  C   UNL     1       3.441  -2.539   6.503  1.00  0.00     0.063 C 
ATOM      2  C   UNL     1       3.004  -2.268   5.103  1.00  0.00     0.038 C 
ATOM      3  O   UNL     1       3.840  -2.307   4.163  1.00  0.00    -0.550 OA
ATOM      4  O   UNL     1       1.687  -1.917   4.840  1.00  0.00    -0.550 OA
ENDROOT
TORSDOF 0
ENDMDL
MODEL 6
REMARK VINA RESULT:    -1.872      8.062      8.469
REMARK INTER + INTRA:          -1.872
REMARK INTER:                  -1.872
REMARK INTRA:                   0.000
REMARK UNBOUND:                 0.000
REMARK SMILES CC(=O)[O-]
REMARK SMILES IDX 1 1 2 2 3 3 4 4
REMARK H PARENT
REMARK Flexibility Score: inf
ROOT
ATOM      1  C   UNL     1       3.736  -2.308   4.786  1.00  0.00     0.063 C 
ATOM      2  C   UNL     1       2.517  -1.657   5.347  1.00  0.00     0.038 C 
ATOM      3  O   UNL     1       1.382  -1.929   4.874  1.00  0.00    -0.550 OA
ATOM      4  O   UNL     1       2.634  -0.707   6.353  1.00  0.00    -0.550 OA
ENDROOT
TORSDOF 0
ENDMDL
MODEL 7
REMARK VINA RESULT:    -1.867      8.135      8.509
REMARK INTER + INTRA:          -1.867
REMARK INTER:                  -1.867
REMARK INTRA:                   0.000
REMARK UNBOUND:                 0.000
REMARK SMILES CC(=O)[O-]
REMARK SMILES IDX 1 1 2 2 3 3 4 4
REMARK H PARENT
REMARK Flexibility Score: inf
ROOT
ATOM      1  C   UNL     1      -4.579  -0.915   5.074  1.00  0.00     0.063 C 
ATOM      2  C   UNL     1      -3.833  -1.651   4.014  1.00  0.00     0.038 C 
ATOM      3  O   UNL     1      -4.376  -2.616   3.415  1.00  0.00    -0.550 OA
ATOM      4  O   UNL     1      -2.519  -1.309   3.722  1.00  0.00    -0.550 OA
ENDROOT
TORSDOF 0
ENDMDL
MODEL 8
REMARK VINA RESULT:    -1.865     16.579     16.965
REMARK INTER + INTRA:          -1.865
REMARK INTER:                  -1.865
REMARK INTRA:                   0.000
REMARK UNBOUND:                 0.000
REMARK SMILES CC(=O)[O-]
REMARK SMILES IDX 1 1 2 2 3 3 4 4
REMARK H PARENT
REMARK Flexibility Score: inf
ROOT
ATOM      1  C   UNL     1       3.587  -8.085  -0.697  1.00  0.00     0.063 C 
ATOM      2  C   UNL     1       4.735  -9.026  -0.560  1.00  0.00     0.038 C 
ATOM      3  O   UNL     1       4.598 -10.098   0.087  1.00  0.00    -0.550 OA
ATOM      4  O   UNL     1       5.972  -8.699  -1.099  1.00  0.00    -0.550 OA
ENDROOT
TORSDOF 0
ENDMDL
MODEL 9
REMARK VINA RESULT:    -1.813      5.189      5.641
REMARK INTER + INTRA:          -1.813
REMARK INTER:                  -1.813
REMARK INTRA:                   0.000
REMARK UNBOUND:                 0.000
REMARK SMILES CC(=O)[O-]
REMARK SMILES IDX 1 1 2 2 3 3 4 4
REMARK H PARENT
REMARK Flexibility Score: inf
ROOT
ATOM      1  C   UNL     1       4.286   4.000   0.783  1.00  0.00     0.063 C 
ATOM      2  C   UNL     1       3.224   4.784   1.477  1.00  0.00     0.038 C 
ATOM      3  O   UNL     1       3.207   4.849   2.734  1.00  0.00    -0.550 OA
ATOM      4  O   UNL     1       2.219   5.398   0.742  1.00  0.00    -0.550 OA
ENDROOT
TORSDOF 0
ENDMDL
