MODEL 1
REMARK VINA RESULT:    -2.908      0.000      0.000
REMARK INTER + INTRA:          -6.840
REMARK INTER:                  -4.522
REMARK INTRA:                  -2.318
REMARK UNBOUND:                -2.318
REMARK SMILES COc1cc(CNC(=O)CCCCC=CC(C)C)ccc1O
REMARK SMILES IDX 11 1 12 2 13 3 14 4 15 5 16 6 17 7 18 8 10 9 8 10 9 11 7 12
REMARK SMILES IDX 6 14 5 15 4 16 19 17 3 18 20 19 21 20 2 21 1 22 22 23
REMARK H PARENT 7 13 22 24
REMARK Flexibility Score: inf
ROOT
ATOM      1  C   UNL     1     134.964 143.252 137.986  1.00  0.00     0.010 C 
ENDROOT
BRANCH   1   2
ATOM      2  C   UNL     1     133.694 142.380 138.063  1.00  0.00     0.005 C 
BRANCH   2   3
ATOM      3  C   UNL     1     132.772 142.480 136.836  1.00  0.00     0.027 C 
BRANCH   3   4
ATOM      4  C   UNL     1     131.630 141.493 136.840  1.00  0.00    -0.031 C 
ATOM      5  C   UNL     1     130.477 141.544 137.546  1.00  0.00    -0.028 C 
BRANCH   5   6
ATOM      6  C   UNL     1     130.033 142.524 138.621  1.00  0.00     0.005 C 
ATOM      7  C   UNL     1     128.511 142.699 138.616  1.00  0.00     0.012 C 
ATOM      8  C   UNL     1     130.586 142.275 140.028  1.00  0.00     0.012 C 
ENDBRANCH   5   6
ENDBRANCH   3   4
ENDBRANCH   2   3
ENDBRANCH   1   2
BRANCH   1   9
ATOM      9  C   UNL     1     135.727 143.394 139.317  1.00  0.00     0.100 C 
BRANCH   9  10
ATOM     10  C   UNL     1     134.875 143.978 140.409  1.00  0.00     0.220 C 
ATOM     11  O   UNL     1     134.767 143.367 141.507  1.00  0.00    -0.275 OA
ATOM     12  N   UNL     1     134.184 145.216 140.200  1.00  0.00    -0.352 N 
ATOM     13  H   UNL     1     134.417 145.789 139.357  1.00  0.00     0.163 HD
BRANCH  12  14
ATOM     14  C   UNL     1     132.970 145.560 140.935  1.00  0.00     0.151 C 
BRANCH  14  15
ATOM     15  C   UNL     1     131.862 145.854 139.962  1.00  0.00    -0.025 A 
ATOM     16  C   UNL     1     130.573 146.158 140.425  1.00  0.00     0.056 A 
ATOM     17  C   UNL     1     132.087 145.719 138.584  1.00  0.00     0.009 A 
ATOM     18  C   UNL     1     129.508 146.323 139.517  1.00  0.00     0.160 A 
ATOM     19  C   UNL     1     131.038 145.897 137.680  1.00  0.00     0.050 A 
ATOM     20  C   UNL     1     129.749 146.195 138.142  1.00  0.00     0.157 A 
BRANCH  18  21
ATOM     21  O   UNL     1     128.199 146.601 139.944  1.00  0.00    -0.493 OA
ATOM     22  C   UNL     1     127.875 147.375 141.094  1.00  0.00     0.278 C 
ENDBRANCH  18  21
BRANCH  20  23
ATOM     23  O   UNL     1     128.700 146.357 137.240  1.00  0.00    -0.504 OA
ATOM     24  H   UNL     1     128.605 145.764 136.425  1.00  0.00     0.293 HD
ENDBRANCH  20  23
ENDBRANCH  14  15
ENDBRANCH  12  14
ENDBRANCH   9  10
ENDBRANCH   1   9
TORSDOF 10
ENDMDL
MODEL 2
REMARK VINA RESULT:    -2.887      2.559      4.715
REMARK INTER + INTRA:          -6.807
REMARK INTER:                  -4.898
REMARK INTRA:                  -1.909
REMARK UNBOUND:                -2.318
REMARK SMILES COc1cc(CNC(=O)CCCCC=CC(C)C)ccc1O
REMARK SMILES IDX 11 1 12 2 13 3 14 4 15 5 16 6 17 7 18 8 10 9 8 10 9 11 7 12
REMARK SMILES IDX 6 14 5 15 4 16 19 17 3 18 20 19 21 20 2 21 1 22 22 23
REMARK H PARENT 7 13 22 24
REMARK Flexibility Score: inf
ROOT
ATOM      1  C   UNL     1     130.414 140.471 140.356  1.00  0.00     0.010 C 
ENDROOT
BRANCH   1   2
ATOM      2  C   UNL     1     128.963 139.957 140.454  1.00  0.00     0.005 C 
BRANCH   2   3
ATOM      3  C   UNL     1     127.885 141.043 140.303  1.00  0.00     0.027 C 
BRANCH   3   4
ATOM      4  C   UNL     1     128.021 141.877 139.052  1.00  0.00    -0.031 C 
ATOM      5  C   UNL     1     128.279 143.201 138.948  1.00  0.00    -0.028 C 
BRANCH   5   6
ATOM      6  C   UNL     1     128.389 144.262 140.033  1.00  0.00     0.005 C 
ATOM      7  C   UNL     1     129.720 144.151 140.783  1.00  0.00     0.012 C 
ATOM      8  C   UNL     1     128.081 145.700 139.601  1.00  0.00     0.012 C 
ENDBRANCH   5   6
ENDBRANCH   3   4
ENDBRANCH   2   3
ENDBRANCH   1   2
BRANCH   1   9
ATOM      9  C   UNL     1     131.256 139.807 139.250  1.00  0.00     0.100 C 
BRANCH   9  10
ATOM     10  C   UNL     1     131.503 140.725 138.086  1.00  0.00     0.220 C 
ATOM     11  O   UNL     1     131.746 140.237 136.949  1.00  0.00    -0.275 OA
ATOM     12  N   UNL     1     131.469 142.147 138.269  1.00  0.00    -0.352 N 
ATOM     13  H   UNL     1     131.102 142.531 139.169  1.00  0.00     0.163 HD
BRANCH  12  14
ATOM     14  C   UNL     1     132.199 143.058 137.392  1.00  0.00     0.151 C 
BRANCH  14  15
ATOM     15  C   UNL     1     132.371 144.384 138.081  1.00  0.00    -0.025 A 
ATOM     16  C   UNL     1     133.389 144.563 139.030  1.00  0.00     0.056 A 
ATOM     17  C   UNL     1     131.446 145.414 137.857  1.00  0.00     0.009 A 
ATOM     18  C   UNL     1     133.482 145.765 139.759  1.00  0.00     0.160 A 
ATOM     19  C   UNL     1     131.544 146.613 138.566  1.00  0.00     0.050 A 
ATOM     20  C   UNL     1     132.557 146.791 139.518  1.00  0.00     0.157 A 
BRANCH  18  21
ATOM     21  O   UNL     1     134.470 145.972 140.735  1.00  0.00    -0.493 OA
ATOM     22  C   UNL     1     135.862 145.756 140.530  1.00  0.00     0.278 C 
ENDBRANCH  18  21
BRANCH  20  23
ATOM     23  O   UNL     1     132.645 147.982 140.235  1.00  0.00    -0.504 OA
ATOM     24  H   UNL     1     132.814 147.989 141.234  1.00  0.00     0.293 HD
ENDBRANCH  20  23
ENDBRANCH  14  15
ENDBRANCH  12  14
ENDBRANCH   9  10
ENDBRANCH   1   9
TORSDOF 10
ENDMDL
MODEL 3
REMARK VINA RESULT:    -2.856      2.450      5.337
REMARK INTER + INTRA:          -6.759
REMARK INTER:                  -4.448
REMARK INTRA:                  -2.311
REMARK UNBOUND:                -2.318
REMARK SMILES COc1cc(CNC(=O)CCCCC=CC(C)C)ccc1O
REMARK SMILES IDX 11 1 12 2 13 3 14 4 15 5 16 6 17 7 18 8 10 9 8 10 9 11 7 12
REMARK SMILES IDX 6 14 5 15 4 16 19 17 3 18 20 19 21 20 2 21 1 22 22 23
REMARK H PARENT 7 13 22 24
REMARK Flexibility Score: inf
ROOT
ATOM      1  C   UNL     1     128.255 143.140 138.752  1.00  0.00     0.010 C 
ENDROOT
BRANCH   1   2
ATOM      2  C   UNL     1     128.492 144.327 139.708  1.00  0.00     0.005 C 
BRANCH   2   3
ATOM      3  C   UNL     1     128.892 143.930 141.138  1.00  0.00     0.027 C 
BRANCH   3   4
ATOM      4  C   UNL     1     130.310 144.294 141.506  1.00  0.00    -0.031 C 
ATOM      5  C   UNL     1     130.754 145.401 142.145  1.00  0.00    -0.028 C 
BRANCH   5   6
ATOM      6  C   UNL     1     130.000 146.650 142.574  1.00  0.00     0.005 C 
ATOM      7  C   UNL     1     130.810 147.466 143.586  1.00  0.00     0.012 C 
ATOM      8  C   UNL     1     129.436 147.517 141.444  1.00  0.00     0.012 C 
ENDBRANCH   5   6
ENDBRANCH   3   4
ENDBRANCH   2   3
ENDBRANCH   1   2
BRANCH   1   9
ATOM      9  C   UNL     1     128.953 141.831 139.168  1.00  0.00     0.100 C 
BRANCH   9  10
ATOM     10  C   UNL     1     130.383 141.769 138.708  1.00  0.00     0.220 C 
ATOM     11  O   UNL     1     131.210 141.058 139.339  1.00  0.00    -0.275 OA
ATOM     12  N   UNL     1     130.804 142.522 137.562  1.00  0.00    -0.352 N 
ATOM     13  H   UNL     1     130.077 142.967 136.956  1.00  0.00     0.163 HD
BRANCH  12  14
ATOM     14  C   UNL     1     132.189 142.946 137.380  1.00  0.00     0.151 C 
BRANCH  14  15
ATOM     15  C   UNL     1     132.402 144.265 138.070  1.00  0.00    -0.025 A 
ATOM     16  C   UNL     1     133.460 144.427 138.979  1.00  0.00     0.056 A 
ATOM     17  C   UNL     1     131.480 145.306 137.891  1.00  0.00     0.009 A 
ATOM     18  C   UNL     1     133.595 145.623 139.712  1.00  0.00     0.160 A 
ATOM     19  C   UNL     1     131.620 146.499 138.602  1.00  0.00     0.050 A 
ATOM     20  C   UNL     1     132.671 146.660 139.514  1.00  0.00     0.157 A 
BRANCH  18  21
ATOM     21  O   UNL     1     134.623 145.813 140.648  1.00  0.00    -0.493 OA
ATOM     22  C   UNL     1     135.362 144.759 141.257  1.00  0.00     0.278 C 
ENDBRANCH  18  21
BRANCH  20  23
ATOM     23  O   UNL     1     132.801 147.845 140.235  1.00  0.00    -0.504 OA
ATOM     24  H   UNL     1     133.579 148.476 140.085  1.00  0.00     0.293 HD
ENDBRANCH  20  23
ENDBRANCH  14  15
ENDBRANCH  12  14
ENDBRANCH   9  10
ENDBRANCH   1   9
TORSDOF 10
ENDMDL
MODEL 4
REMARK VINA RESULT:    -2.781      2.501      5.030
REMARK INTER + INTRA:          -6.643
REMARK INTER:                  -4.192
REMARK INTRA:                  -2.451
REMARK UNBOUND:                -2.318
REMARK SMILES COc1cc(CNC(=O)CCCCC=CC(C)C)ccc1O
REMARK SMILES IDX 11 1 12 2 13 3 14 4 15 5 16 6 17 7 18 8 10 9 8 10 9 11 7 12
REMARK SMILES IDX 6 14 5 15 4 16 19 17 3 18 20 19 21 20 2 21 1 22 22 23
REMARK H PARENT 7 13 22 24
REMARK Flexibility Score: inf
ROOT
ATOM      1  C   UNL     1     128.414 142.721 138.587  1.00  0.00     0.010 C 
ENDROOT
BRANCH   1   2
ATOM      2  C   UNL     1     128.338 143.955 139.509  1.00  0.00     0.005 C 
BRANCH   2   3
ATOM      3  C   UNL     1     128.691 143.680 140.980  1.00  0.00     0.027 C 
BRANCH   3   4
ATOM      4  C   UNL     1     129.795 144.554 141.524  1.00  0.00    -0.031 C 
ATOM      5  C   UNL     1     131.046 144.195 141.894  1.00  0.00    -0.028 C 
BRANCH   5   6
ATOM      6  C   UNL     1     131.677 142.815 141.991  1.00  0.00     0.005 C 
ATOM      7  C   UNL     1     133.175 142.911 142.299  1.00  0.00     0.012 C 
ATOM      8  C   UNL     1     130.960 141.809 142.896  1.00  0.00     0.012 C 
ENDBRANCH   5   6
ENDBRANCH   3   4
ENDBRANCH   2   3
ENDBRANCH   1   2
BRANCH   1   9
ATOM      9  C   UNL     1     129.268 141.562 139.135  1.00  0.00     0.100 C 
BRANCH   9  10
ATOM     10  C   UNL     1     130.690 141.617 138.652  1.00  0.00     0.220 C 
ATOM     11  O   UNL     1     131.554 140.860 139.172  1.00  0.00    -0.275 OA
ATOM     12  N   UNL     1     131.063 142.530 137.612  1.00  0.00    -0.352 N 
ATOM     13  H   UNL     1     130.311 143.024 137.080  1.00  0.00     0.163 HD
BRANCH  12  14
ATOM     14  C   UNL     1     132.429 143.028 137.471  1.00  0.00     0.151 C 
BRANCH  14  15
ATOM     15  C   UNL     1     132.561 144.339 138.195  1.00  0.00    -0.025 A 
ATOM     16  C   UNL     1     133.597 144.537 139.121  1.00  0.00     0.056 A 
ATOM     17  C   UNL     1     131.584 145.331 138.029  1.00  0.00     0.009 A 
ATOM     18  C   UNL     1     133.656 145.721 139.884  1.00  0.00     0.160 A 
ATOM     19  C   UNL     1     131.648 146.512 138.771  1.00  0.00     0.050 A 
ATOM     20  C   UNL     1     132.679 146.709 139.700  1.00  0.00     0.157 A 
BRANCH  18  21
ATOM     21  O   UNL     1     134.662 145.944 140.838  1.00  0.00    -0.493 OA
ATOM     22  C   UNL     1     135.983 146.376 140.529  1.00  0.00     0.278 C 
ENDBRANCH  18  21
BRANCH  20  23
ATOM     23  O   UNL     1     132.733 147.881 140.451  1.00  0.00    -0.504 OA
ATOM     24  H   UNL     1     133.261 148.688 140.138  1.00  0.00     0.293 HD
ENDBRANCH  20  23
ENDBRANCH  14  15
ENDBRANCH  12  14
ENDBRANCH   9  10
ENDBRANCH   1   9
TORSDOF 10
ENDMDL
MODEL 5
REMARK VINA RESULT:    -2.756      2.604      6.230
REMARK INTER + INTRA:          -6.604
REMARK INTER:                  -4.519
REMARK INTRA:                  -2.085
REMARK UNBOUND:                -2.318
REMARK SMILES COc1cc(CNC(=O)CCCCC=CC(C)C)ccc1O
REMARK SMILES IDX 11 1 12 2 13 3 14 4 15 5 16 6 17 7 18 8 10 9 8 10 9 11 7 12
REMARK SMILES IDX 6 14 5 15 4 16 19 17 3 18 20 19 21 20 2 21 1 22 22 23
REMARK H PARENT 7 13 22 24
REMARK Flexibility Score: inf
ROOT
ATOM      1  C   UNL     1     130.886 146.105 137.774  1.00  0.00     0.010 C 
ENDROOT
BRANCH   1   2
ATOM      2  C   UNL     1     131.848 146.202 138.975  1.00  0.00     0.005 C 
BRANCH   2   3
ATOM      3  C   UNL     1     132.494 144.870 139.390  1.00  0.00     0.027 C 
BRANCH   3   4
ATOM      4  C   UNL     1     132.973 144.029 138.231  1.00  0.00    -0.031 C 
ATOM      5  C   UNL     1     134.089 143.269 138.149  1.00  0.00    -0.028 C 
BRANCH   5   6
ATOM      6  C   UNL     1     135.245 143.121 139.128  1.00  0.00     0.005 C 
ATOM      7  C   UNL     1     135.313 141.700 139.694  1.00  0.00     0.012 C 
ATOM      8  C   UNL     1     136.608 143.620 138.638  1.00  0.00     0.012 C 
ENDBRANCH   5   6
ENDBRANCH   3   4
ENDBRANCH   2   3
ENDBRANCH   1   2
BRANCH   1   9
ATOM      9  C   UNL     1     129.398 146.292 138.125  1.00  0.00     0.100 C 
BRANCH   9  10
ATOM     10  C   UNL     1     128.801 145.072 138.769  1.00  0.00     0.220 C 
ATOM     11  O   UNL     1     128.056 145.203 139.778  1.00  0.00    -0.275 OA
ATOM     12  N   UNL     1     129.083 143.768 138.244  1.00  0.00    -0.352 N 
ATOM     13  H   UNL     1     129.559 143.690 137.317  1.00  0.00     0.163 HD
BRANCH  12  14
ATOM     14  C   UNL     1     129.017 142.568 139.073  1.00  0.00     0.151 C 
BRANCH  14  15
ATOM     15  C   UNL     1     130.215 141.702 138.797  1.00  0.00    -0.025 A 
ATOM     16  C   UNL     1     130.611 141.441 137.476  1.00  0.00     0.056 A 
ATOM     17  C   UNL     1     130.877 141.064 139.855  1.00  0.00     0.009 A 
ATOM     18  C   UNL     1     131.662 140.540 137.210  1.00  0.00     0.160 A 
ATOM     19  C   UNL     1     131.929 140.183 139.598  1.00  0.00     0.050 A 
ATOM     20  C   UNL     1     132.321 139.917 138.279  1.00  0.00     0.157 A 
BRANCH  18  21
ATOM     21  O   UNL     1     132.069 140.232 135.903  1.00  0.00    -0.493 OA
ATOM     22  C   UNL     1     132.956 141.032 135.127  1.00  0.00     0.278 C 
ENDBRANCH  18  21
BRANCH  20  23
ATOM     23  O   UNL     1     133.361 139.027 138.023  1.00  0.00    -0.504 OA
ATOM     24  H   UNL     1     133.271 138.035 138.212  1.00  0.00     0.293 HD
ENDBRANCH  20  23
ENDBRANCH  14  15
ENDBRANCH  12  14
ENDBRANCH   9  10
ENDBRANCH   1   9
TORSDOF 10
ENDMDL
MODEL 6
REMARK VINA RESULT:    -2.754      2.458      5.952
REMARK INTER + INTRA:          -6.602
REMARK INTER:                  -3.954
REMARK INTRA:                  -2.648
REMARK UNBOUND:                -2.318
REMARK SMILES COc1cc(CNC(=O)CCCCC=CC(C)C)ccc1O
REMARK SMILES IDX 11 1 12 2 13 3 14 4 15 5 16 6 17 7 18 8 10 9 8 10 9 11 7 12
REMARK SMILES IDX 6 14 5 15 4 16 19 17 3 18 20 19 21 20 2 21 1 22 22 23
REMARK H PARENT 7 13 22 24
REMARK Flexibility Score: inf
ROOT
ATOM      1  C   UNL     1     130.104 146.225 137.947  1.00  0.00     0.010 C 
ENDROOT
BRANCH   1   2
ATOM      2  C   UNL     1     131.608 146.171 138.282  1.00  0.00     0.005 C 
BRANCH   2   3
ATOM      3  C   UNL     1     132.195 144.753 138.372  1.00  0.00     0.027 C 
BRANCH   3   4
ATOM      4  C   UNL     1     133.214 144.575 139.472  1.00  0.00    -0.031 C 
ATOM      5  C   UNL     1     133.006 144.507 140.807  1.00  0.00    -0.028 C 
BRANCH   5   6
ATOM      6  C   UNL     1     131.728 144.706 141.608  1.00  0.00     0.005 C 
ATOM      7  C   UNL     1     131.642 143.711 142.769  1.00  0.00     0.012 C 
ATOM      8  C   UNL     1     131.427 146.142 142.048  1.00  0.00     0.012 C 
ENDBRANCH   5   6
ENDBRANCH   3   4
ENDBRANCH   2   3
ENDBRANCH   1   2
BRANCH   1   9
ATOM      9  C   UNL     1     129.171 146.194 139.173  1.00  0.00     0.100 C 
BRANCH   9  10
ATOM     10  C   UNL     1     128.601 144.827 139.427  1.00  0.00     0.220 C 
ATOM     11  O   UNL     1     128.168 144.537 140.575  1.00  0.00    -0.275 OA
ATOM     12  N   UNL     1     128.557 143.856 138.372  1.00  0.00    -0.352 N 
ATOM     13  H   UNL     1     128.760 144.165 137.394  1.00  0.00     0.163 HD
BRANCH  12  14
ATOM     14  C   UNL     1     128.545 142.421 138.640  1.00  0.00     0.151 C 
BRANCH  14  15
ATOM     15  C   UNL     1     129.958 141.911 138.696  1.00  0.00    -0.025 A 
ATOM     16  C   UNL     1     130.658 141.629 137.512  1.00  0.00     0.056 A 
ATOM     17  C   UNL     1     130.545 141.611 139.933  1.00  0.00     0.009 A 
ATOM     18  C   UNL     1     131.939 141.044 137.562  1.00  0.00     0.160 A 
ATOM     19  C   UNL     1     131.821 141.046 139.988  1.00  0.00     0.050 A 
ATOM     20  C   UNL     1     132.518 140.760 138.807  1.00  0.00     0.157 A 
BRANCH  18  21
ATOM     21  O   UNL     1     132.659 140.724 136.400  1.00  0.00    -0.493 OA
ATOM     22  C   UNL     1     133.362 141.671 135.602  1.00  0.00     0.278 C 
ENDBRANCH  18  21
BRANCH  20  23
ATOM     23  O   UNL     1     133.785 140.182 138.862  1.00  0.00    -0.504 OA
ATOM     24  H   UNL     1     134.585 140.614 138.414  1.00  0.00     0.293 HD
ENDBRANCH  20  23
ENDBRANCH  14  15
ENDBRANCH  12  14
ENDBRANCH   9  10
ENDBRANCH   1   9
TORSDOF 10
ENDMDL
MODEL 7
REMARK VINA RESULT:    -2.740      8.081     12.251
REMARK INTER + INTRA:          -6.579
REMARK INTER:                  -4.246
REMARK INTRA:                  -2.333
REMARK UNBOUND:                -2.318
REMARK SMILES COc1cc(CNC(=O)CCCCC=CC(C)C)ccc1O
REMARK SMILES IDX 11 1 12 2 13 3 14 4 15 5 16 6 17 7 18 8 10 9 8 10 9 11 7 12
REMARK SMILES IDX 6 14 5 15 4 16 19 17 3 18 20 19 21 20 2 21 1 22 22 23
REMARK H PARENT 7 13 22 24
REMARK Flexibility Score: inf
ROOT
ATOM      1  C   UNL     1     139.349 144.388 139.104  1.00  0.00     0.010 C 
ENDROOT
BRANCH   1   2
ATOM      2  C   UNL     1     140.413 144.263 137.994  1.00  0.00     0.005 C 
BRANCH   2   3
ATOM      3  C   UNL     1     141.726 143.596 138.436  1.00  0.00     0.027 C 
BRANCH   3   4
ATOM      4  C   UNL     1     141.906 143.519 139.933  1.00  0.00    -0.031 C 
ATOM      5  C   UNL     1     142.922 142.960 140.629  1.00  0.00    -0.028 C 
BRANCH   5   6
ATOM      6  C   UNL     1     144.111 142.147 140.140  1.00  0.00     0.005 C 
ATOM      7  C   UNL     1     145.279 142.224 141.127  1.00  0.00     0.012 C 
ATOM      8  C   UNL     1     143.809 140.709 139.705  1.00  0.00     0.012 C 
ENDBRANCH   5   6
ENDBRANCH   3   4
ENDBRANCH   2   3
ENDBRANCH   1   2
BRANCH   1   9
ATOM      9  C   UNL     1     138.455 145.638 138.998  1.00  0.00     0.100 C 
BRANCH   9  10
ATOM     10  C   UNL     1     139.233 146.916 139.135  1.00  0.00     0.220 C 
ATOM     11  O   UNL     1     139.093 147.825 138.273  1.00  0.00    -0.275 OA
ATOM     12  N   UNL     1     140.134 147.096 140.236  1.00  0.00    -0.352 N 
ATOM     13  H   UNL     1     140.111 146.410 141.025  1.00  0.00     0.163 HD
BRANCH  12  14
ATOM     14  C   UNL     1     141.277 148.002 140.161  1.00  0.00     0.151 C 
BRANCH  14  15
ATOM     15  C   UNL     1     142.540 147.202 140.002  1.00  0.00    -0.025 A 
ATOM     16  C   UNL     1     143.269 146.795 141.130  1.00  0.00     0.056 A 
ATOM     17  C   UNL     1     143.053 146.953 138.721  1.00  0.00     0.009 A 
ATOM     18  C   UNL     1     144.510 146.145 140.982  1.00  0.00     0.160 A 
ATOM     19  C   UNL     1     144.275 146.294 138.569  1.00  0.00     0.050 A 
ATOM     20  C   UNL     1     145.006 145.893 139.695  1.00  0.00     0.157 A 
BRANCH  18  21
ATOM     21  O   UNL     1     145.281 145.746 142.086  1.00  0.00    -0.493 OA
ATOM     22  C   UNL     1     146.262 146.560 142.719  1.00  0.00     0.278 C 
ENDBRANCH  18  21
BRANCH  20  23
ATOM     23  O   UNL     1     146.232 145.249 139.543  1.00  0.00    -0.504 OA
ATOM     24  H   UNL     1     146.293 144.295 139.209  1.00  0.00     0.293 HD
ENDBRANCH  20  23
ENDBRANCH  14  15
ENDBRANCH  12  14
ENDBRANCH   9  10
ENDBRANCH   1   9
TORSDOF 10
ENDMDL
MODEL 8
REMARK VINA RESULT:    -2.720      1.727      2.407
REMARK INTER + INTRA:          -6.548
REMARK INTER:                  -4.647
REMARK INTRA:                  -1.901
REMARK UNBOUND:                -2.318
REMARK SMILES COc1cc(CNC(=O)CCCCC=CC(C)C)ccc1O
REMARK SMILES IDX 11 1 12 2 13 3 14 4 15 5 16 6 17 7 18 8 10 9 8 10 9 11 7 12
REMARK SMILES IDX 6 14 5 15 4 16 19 17 3 18 20 19 21 20 2 21 1 22 22 23
REMARK H PARENT 7 13 22 24
REMARK Flexibility Score: inf
ROOT
ATOM      1  C   UNL     1     134.882 144.037 140.537  1.00  0.00     0.010 C 
ENDROOT
BRANCH   1   2
ATOM      2  C   UNL     1     133.513 143.790 139.870  1.00  0.00     0.005 C 
BRANCH   2   3
ATOM      3  C   UNL     1     133.515 143.907 138.337  1.00  0.00     0.027 C 
BRANCH   3   4
ATOM      4  C   UNL     1     133.949 142.650 137.622  1.00  0.00    -0.031 C 
ATOM      5  C   UNL     1     133.182 141.746 136.972  1.00  0.00    -0.028 C 
BRANCH   5   6
ATOM      6  C   UNL     1     131.667 141.648 136.864  1.00  0.00     0.005 C 
ATOM      7  C   UNL     1     131.252 140.865 135.614  1.00  0.00     0.012 C 
ATOM      8  C   UNL     1     130.932 141.172 138.121  1.00  0.00     0.012 C 
ENDBRANCH   5   6
ENDBRANCH   3   4
ENDBRANCH   2   3
ENDBRANCH   1   2
BRANCH   1   9
ATOM      9  C   UNL     1     135.361 145.500 140.497  1.00  0.00     0.100 C 
BRANCH   9  10
ATOM     10  C   UNL     1     134.293 146.467 140.926  1.00  0.00     0.220 C 
ATOM     11  O   UNL     1     133.903 146.472 142.125  1.00  0.00    -0.275 OA
ATOM     12  N   UNL     1     133.717 147.373 139.976  1.00  0.00    -0.352 N 
ATOM     13  H   UNL     1     134.166 147.473 139.037  1.00  0.00     0.163 HD
BRANCH  12  14
ATOM     14  C   UNL     1     132.375 147.924 140.145  1.00  0.00     0.151 C 
BRANCH  14  15
ATOM     15  C   UNL     1     131.360 146.920 139.672  1.00  0.00    -0.025 A 
ATOM     16  C   UNL     1     130.596 146.194 140.599  1.00  0.00     0.056 A 
ATOM     17  C   UNL     1     131.249 146.628 138.306  1.00  0.00     0.009 A 
ATOM     18  C   UNL     1     129.727 145.173 140.164  1.00  0.00     0.160 A 
ATOM     19  C   UNL     1     130.377 145.629 137.869  1.00  0.00     0.050 A 
ATOM     20  C   UNL     1     129.618 144.899 138.793  1.00  0.00     0.157 A 
BRANCH  18  21
ATOM     21  O   UNL     1     128.966 144.407 141.062  1.00  0.00    -0.493 OA
ATOM     22  C   UNL     1     128.264 144.939 142.180  1.00  0.00     0.278 C 
ENDBRANCH  18  21
BRANCH  20  23
ATOM     23  O   UNL     1     128.760 143.892 138.358  1.00  0.00    -0.504 OA
ATOM     24  H   UNL     1     128.994 142.912 138.462  1.00  0.00     0.293 HD
ENDBRANCH  20  23
ENDBRANCH  14  15
ENDBRANCH  12  14
ENDBRANCH   9  10
ENDBRANCH   1   9
TORSDOF 10
ENDMDL
MODEL 9
REMARK VINA RESULT:    -2.656      2.424      4.379
REMARK INTER + INTRA:          -6.449
REMARK INTER:                  -4.361
REMARK INTRA:                  -2.088
REMARK UNBOUND:                -2.318
REMARK SMILES COc1cc(CNC(=O)CCCCC=CC(C)C)ccc1O
REMARK SMILES IDX 11 1 12 2 13 3 14 4 15 5 16 6 17 7 18 8 10 9 8 10 9 11 7 12
REMARK SMILES IDX 6 14 5 15 4 16 19 17 3 18 20 19 21 20 2 21 1 22 22 23
REMARK H PARENT 7 13 22 24
REMARK Flexibility Score: inf
ROOT
ATOM      1  C   UNL     1     130.927 141.083 139.917  1.00  0.00     0.010 C 
ENDROOT
BRANCH   1   2
ATOM      2  C   UNL     1     131.712 140.117 139.006  1.00  0.00     0.005 C 
BRANCH   2   3
ATOM      3  C   UNL     1     132.314 140.766 137.749  1.00  0.00     0.027 C 
BRANCH   3   4
ATOM      4  C   UNL     1     131.823 142.168 137.483  1.00  0.00    -0.031 C 
ATOM      5  C   UNL     1     132.480 143.337 137.662  1.00  0.00    -0.028 C 
BRANCH   5   6
ATOM      6  C   UNL     1     133.841 143.607 138.287  1.00  0.00     0.005 C 
ATOM      7  C   UNL     1     133.800 143.418 139.806  1.00  0.00     0.012 C 
ATOM      8  C   UNL     1     135.031 142.890 137.641  1.00  0.00     0.012 C 
ENDBRANCH   5   6
ENDBRANCH   3   4
ENDBRANCH   2   3
ENDBRANCH   1   2
BRANCH   1   9
ATOM      9  C   UNL     1     129.401 140.876 139.911  1.00  0.00     0.100 C 
BRANCH   9  10
ATOM     10  C   UNL     1     128.663 142.053 139.339  1.00  0.00     0.220 C 
ATOM     11  O   UNL     1     128.294 142.031 138.134  1.00  0.00    -0.275 OA
ATOM     12  N   UNL     1     128.386 143.198 140.158  1.00  0.00    -0.352 N 
ATOM     13  H   UNL     1     128.547 143.131 141.189  1.00  0.00     0.163 HD
BRANCH  12  14
ATOM     14  C   UNL     1     128.189 144.528 139.589  1.00  0.00     0.151 C 
BRANCH  14  15
ATOM     15  C   UNL     1     129.513 145.236 139.502  1.00  0.00    -0.025 A 
ATOM     16  C   UNL     1     130.326 145.362 140.638  1.00  0.00     0.056 A 
ATOM     17  C   UNL     1     129.891 145.868 138.308  1.00  0.00     0.009 A 
ATOM     18  C   UNL     1     131.512 146.122 140.588  1.00  0.00     0.160 A 
ATOM     19  C   UNL     1     131.073 146.608 138.249  1.00  0.00     0.050 A 
ATOM     20  C   UNL     1     131.883 146.739 139.385  1.00  0.00     0.157 A 
BRANCH  18  21
ATOM     21  O   UNL     1     132.337 146.294 141.710  1.00  0.00    -0.493 OA
ATOM     22  C   UNL     1     132.250 145.517 142.900  1.00  0.00     0.278 C 
ENDBRANCH  18  21
BRANCH  20  23
ATOM     23  O   UNL     1     133.054 147.491 139.328  1.00  0.00    -0.504 OA
ATOM     24  H   UNL     1     133.954 147.059 139.152  1.00  0.00     0.293 HD
ENDBRANCH  20  23
ENDBRANCH  14  15
ENDBRANCH  12  14
ENDBRANCH   9  10
ENDBRANCH   1   9
TORSDOF 10
ENDMDL
