MODEL 1
REMARK VINA RESULT:    -4.064      0.000      0.000
REMARK INTER + INTRA:          -4.913
REMARK INTER:                  -4.896
REMARK INTRA:                  -0.017
REMARK UNBOUND:                -0.017
REMARK SMILES CC[C@H](C)[C@H]([NH3+])C(=O)[O-]
REMARK SMILES IDX 3 1 4 2 5 3 6 4 7 8 8 9 9 10 2 11 1 12
REMARK H PARENT 6 5 6 6 6 7
REMARK Flexibility Score: inf
ROOT
ATOM      1  C   UNL     1     135.599 136.666 132.160  1.00  0.00     0.050 C 
ATOM      2  C   UNL     1     136.695 135.926 132.955  1.00  0.00     0.014 C 
ENDROOT
BRANCH   1   3
ATOM      3  C   UNL     1     134.258 135.871 132.089  1.00  0.00     0.230 C 
BRANCH   3   4
ATOM      4  N   UNL     1     133.259 136.387 133.038  1.00  0.00    -0.350 N 
ATOM      5  H   UNL     1     132.299 136.391 132.624  1.00  0.00     0.345 HD
ATOM      6  H   UNL     1     133.256 135.808 133.908  1.00  0.00     0.345 HD
ATOM      7  H   UNL     1     133.506 137.368 133.303  1.00  0.00     0.345 HD
ENDBRANCH   3   4
BRANCH   3   8
ATOM      8  C   UNL     1     134.454 134.384 132.269  1.00  0.00     0.099 C 
ATOM      9  O   UNL     1     134.970 133.687 131.355  1.00  0.00    -0.544 OA
ATOM     10  O   UNL     1     134.033 133.768 133.441  1.00  0.00    -0.544 OA
ENDBRANCH   3   8
ENDBRANCH   1   3
BRANCH   1  11
ATOM     11  C   UNL     1     136.092 137.033 130.738  1.00  0.00     0.006 C 
ATOM     12  C   UNL     1     137.549 136.640 130.487  1.00  0.00     0.004 C 
ENDBRANCH   1  11
TORSDOF 4
ENDMDL
MODEL 2
REMARK VINA RESULT:    -4.003      2.046      2.347
REMARK INTER + INTRA:          -4.838
REMARK INTER:                  -4.737
REMARK INTRA:                  -0.101
REMARK UNBOUND:                -0.017
REMARK SMILES CC[C@H](C)[C@H]([NH3+])C(=O)[O-]
REMARK SMILES IDX 3 1 4 2 5 3 6 4 7 8 8 9 9 10 2 11 1 12
REMARK H PARENT 6 5 6 6 6 7
REMARK Flexibility Score: inf
ROOT
ATOM      1  C   UNL     1     135.785 136.094 130.853  1.00  0.00     0.050 C 
ATOM      2  C   UNL     1     136.217 137.463 131.418  1.00  0.00     0.014 C 
ENDROOT
BRANCH   1   3
ATOM      3  C   UNL     1     136.088 134.912 131.827  1.00  0.00     0.230 C 
BRANCH   3   4
ATOM      4  N   UNL     1     135.639 133.621 131.286  1.00  0.00    -0.350 N 
ATOM      5  H   UNL     1     136.230 132.831 131.631  1.00  0.00     0.345 HD
ATOM      6  H   UNL     1     134.643 133.446 131.550  1.00  0.00     0.345 HD
ATOM      7  H   UNL     1     135.698 133.643 130.242  1.00  0.00     0.345 HD
ENDBRANCH   3   4
BRANCH   3   8
ATOM      8  C   UNL     1     135.526 135.142 133.211  1.00  0.00     0.099 C 
ATOM      9  O   UNL     1     136.287 135.217 134.211  1.00  0.00    -0.544 OA
ATOM     10  O   UNL     1     134.152 135.239 133.390  1.00  0.00    -0.544 OA
ENDBRANCH   3   8
ENDBRANCH   1   3
BRANCH   1  11
ATOM     11  C   UNL     1     136.424 135.835 129.466  1.00  0.00     0.006 C 
ATOM     12  C   UNL     1     137.691 136.657 129.225  1.00  0.00     0.004 C 
ENDBRANCH   1  11
TORSDOF 4
ENDMDL
MODEL 3
REMARK VINA RESULT:    -3.985      1.956      2.372
REMARK INTER + INTRA:          -4.817
REMARK INTER:                  -4.695
REMARK INTRA:                  -0.122
REMARK UNBOUND:                -0.017
REMARK SMILES CC[C@H](C)[C@H]([NH3+])C(=O)[O-]
REMARK SMILES IDX 3 1 4 2 5 3 6 4 7 8 8 9 9 10 2 11 1 12
REMARK H PARENT 6 5 6 6 6 7
REMARK Flexibility Score: inf
ROOT
ATOM      1  C   UNL     1     135.271 135.145 132.226  1.00  0.00     0.050 C 
ATOM      2  C   UNL     1     135.243 133.763 131.542  1.00  0.00     0.014 C 
ENDROOT
BRANCH   1   3
ATOM      3  C   UNL     1     134.182 135.298 133.333  1.00  0.00     0.230 C 
BRANCH   3   4
ATOM      4  N   UNL     1     133.237 136.385 133.035  1.00  0.00    -0.350 N 
ATOM      5  H   UNL     1     132.693 136.667 133.881  1.00  0.00     0.345 HD
ATOM      6  H   UNL     1     133.751 137.216 132.662  1.00  0.00     0.345 HD
ATOM      7  H   UNL     1     132.563 136.067 132.302  1.00  0.00     0.345 HD
ENDBRANCH   3   4
BRANCH   3   8
ATOM      8  C   UNL     1     134.776 135.463 134.713  1.00  0.00     0.099 C 
ATOM      9  O   UNL     1     135.982 135.175 134.934  1.00  0.00    -0.544 OA
ATOM     10  O   UNL     1     133.977 135.907 135.759  1.00  0.00    -0.544 OA
ENDBRANCH   3   8
ENDBRANCH   1   3
BRANCH   1  11
ATOM     11  C   UNL     1     135.154 136.286 131.184  1.00  0.00     0.006 C 
ATOM     12  C   UNL     1     136.287 137.309 131.283  1.00  0.00     0.004 C 
ENDBRANCH   1  11
TORSDOF 4
ENDMDL
MODEL 4
REMARK VINA RESULT:    -3.903      2.158      2.641
REMARK INTER + INTRA:          -4.718
REMARK INTER:                  -4.718
REMARK INTRA:                   0.001
REMARK UNBOUND:                -0.017
REMARK SMILES CC[C@H](C)[C@H]([NH3+])C(=O)[O-]
REMARK SMILES IDX 3 1 4 2 5 3 6 4 7 8 8 9 9 10 2 11 1 12
REMARK H PARENT 6 5 6 6 6 7
REMARK Flexibility Score: inf
ROOT
ATOM      1  C   UNL     1     134.782 134.805 131.653  1.00  0.00     0.050 C 
ATOM      2  C   UNL     1     134.236 136.246 131.735  1.00  0.00     0.014 C 
ENDROOT
BRANCH   1   3
ATOM      3  C   UNL     1     134.712 134.050 133.017  1.00  0.00     0.230 C 
BRANCH   3   4
ATOM      4  N   UNL     1     133.473 133.269 133.154  1.00  0.00    -0.350 N 
ATOM      5  H   UNL     1     132.789 133.738 133.789  1.00  0.00     0.345 HD
ATOM      6  H   UNL     1     133.032 133.126 132.217  1.00  0.00     0.345 HD
ATOM      7  H   UNL     1     133.698 132.328 133.552  1.00  0.00     0.345 HD
ENDBRANCH   3   4
BRANCH   3   8
ATOM      8  C   UNL     1     134.902 134.970 134.200  1.00  0.00     0.099 C 
ATOM      9  O   UNL     1     133.913 135.386 134.859  1.00  0.00    -0.544 OA
ATOM     10  O   UNL     1     136.180 135.391 134.548  1.00  0.00    -0.544 OA
ENDBRANCH   3   8
ENDBRANCH   1   3
BRANCH   1  11
ATOM     11  C   UNL     1     136.225 134.785 131.091  1.00  0.00     0.006 C 
ATOM     12  C   UNL     1     136.428 135.751 129.923  1.00  0.00     0.004 C 
ENDBRANCH   1  11
TORSDOF 4
ENDMDL
MODEL 5
REMARK VINA RESULT:    -3.819      2.201      3.162
REMARK INTER + INTRA:          -4.618
REMARK INTER:                  -4.497
REMARK INTRA:                  -0.121
REMARK UNBOUND:                -0.017
REMARK SMILES CC[C@H](C)[C@H]([NH3+])C(=O)[O-]
REMARK SMILES IDX 3 1 4 2 5 3 6 4 7 8 8 9 9 10 2 11 1 12
REMARK H PARENT 6 5 6 6 6 7
REMARK Flexibility Score: inf
ROOT
ATOM      1  C   UNL     1     134.830 135.775 133.862  1.00  0.00     0.050 C 
ATOM      2  C   UNL     1     133.929 135.779 135.115  1.00  0.00     0.014 C 
ENDROOT
BRANCH   1   3
ATOM      3  C   UNL     1     134.323 134.803 132.752  1.00  0.00     0.230 C 
BRANCH   3   4
ATOM      4  N   UNL     1     134.367 133.398 133.185  1.00  0.00    -0.350 N 
ATOM      5  H   UNL     1     134.456 132.746 132.372  1.00  0.00     0.345 HD
ATOM      6  H   UNL     1     135.170 133.247 133.837  1.00  0.00     0.345 HD
ATOM      7  H   UNL     1     133.485 133.165 133.697  1.00  0.00     0.345 HD
ENDBRANCH   3   4
BRANCH   3   8
ATOM      8  C   UNL     1     135.054 134.986 131.442  1.00  0.00     0.099 C 
ATOM      9  O   UNL     1     135.763 134.062 130.964  1.00  0.00    -0.544 OA
ATOM     10  O   UNL     1     134.972 136.200 130.770  1.00  0.00    -0.544 OA
ENDBRANCH   3   8
ENDBRANCH   1   3
BRANCH   1  11
ATOM     11  C   UNL     1     136.301 135.461 134.234  1.00  0.00     0.006 C 
ATOM     12  C   UNL     1     136.502 135.208 135.729  1.00  0.00     0.004 C 
ENDBRANCH   1  11
TORSDOF 4
ENDMDL
MODEL 6
REMARK VINA RESULT:    -3.793      0.797      2.199
REMARK INTER + INTRA:          -4.586
REMARK INTER:                  -4.445
REMARK INTRA:                  -0.141
REMARK UNBOUND:                -0.017
REMARK SMILES CC[C@H](C)[C@H]([NH3+])C(=O)[O-]
REMARK SMILES IDX 3 1 4 2 5 3 6 4 7 8 8 9 9 10 2 11 1 12
REMARK H PARENT 6 5 6 6 6 7
REMARK Flexibility Score: inf
ROOT
ATOM      1  C   UNL     1     135.928 136.358 132.292  1.00  0.00     0.050 C 
ATOM      2  C   UNL     1     136.220 137.442 131.234  1.00  0.00     0.014 C 
ENDROOT
BRANCH   1   3
ATOM      3  C   UNL     1     134.506 135.732 132.145  1.00  0.00     0.230 C 
BRANCH   3   4
ATOM      4  N   UNL     1     133.528 136.361 133.046  1.00  0.00    -0.350 N 
ATOM      5  H   UNL     1     132.876 136.992 132.527  1.00  0.00     0.345 HD
ATOM      6  H   UNL     1     132.975 135.628 133.545  1.00  0.00     0.345 HD
ATOM      7  H   UNL     1     134.034 136.930 133.763  1.00  0.00     0.345 HD
ENDBRANCH   3   4
BRANCH   3   8
ATOM      8  C   UNL     1     134.511 134.231 132.319  1.00  0.00     0.099 C 
ATOM      9  O   UNL     1     133.948 133.695 133.309  1.00  0.00    -0.544 OA
ATOM     10  O   UNL     1     135.174 133.432 131.395  1.00  0.00    -0.544 OA
ENDBRANCH   3   8
ENDBRANCH   1   3
BRANCH   1  11
ATOM     11  C   UNL     1     136.138 136.906 133.726  1.00  0.00     0.006 C 
ATOM     12  C   UNL     1     136.873 135.927 134.642  1.00  0.00     0.004 C 
ENDBRANCH   1  11
TORSDOF 4
ENDMDL
MODEL 7
REMARK VINA RESULT:    -3.763      1.831      2.195
REMARK INTER + INTRA:          -4.550
REMARK INTER:                  -4.452
REMARK INTRA:                  -0.099
REMARK UNBOUND:                -0.017
REMARK SMILES CC[C@H](C)[C@H]([NH3+])C(=O)[O-]
REMARK SMILES IDX 3 1 4 2 5 3 6 4 7 8 8 9 9 10 2 11 1 12
REMARK H PARENT 6 5 6 6 6 7
REMARK Flexibility Score: inf
ROOT
ATOM      1  C   UNL     1     136.004 135.393 131.433  1.00  0.00     0.050 C 
ATOM      2  C   UNL     1     135.445 133.960 131.301  1.00  0.00     0.014 C 
ENDROOT
BRANCH   1   3
ATOM      3  C   UNL     1     135.328 136.205 132.581  1.00  0.00     0.230 C 
BRANCH   3   4
ATOM      4  N   UNL     1     135.995 137.495 132.813  1.00  0.00    -0.350 N 
ATOM      5  H   UNL     1     135.308 138.252 133.028  1.00  0.00     0.345 HD
ATOM      6  H   UNL     1     136.675 137.412 133.603  1.00  0.00     0.345 HD
ATOM      7  H   UNL     1     136.528 137.769 131.956  1.00  0.00     0.345 HD
ENDBRANCH   3   4
BRANCH   3   8
ATOM      8  C   UNL     1     135.219 135.416 133.865  1.00  0.00     0.099 C 
ATOM      9  O   UNL     1     136.240 135.175 134.562  1.00  0.00    -0.544 OA
ATOM     10  O   UNL     1     133.986 134.919 134.267  1.00  0.00    -0.544 OA
ENDBRANCH   3   8
ENDBRANCH   1   3
BRANCH   1  11
ATOM     11  C   UNL     1     135.902 136.158 130.089  1.00  0.00     0.006 C 
ATOM     12  C   UNL     1     137.266 136.517 129.498  1.00  0.00     0.004 C 
ENDBRANCH   1  11
TORSDOF 4
ENDMDL
MODEL 8
REMARK VINA RESULT:    -3.682      2.128      3.195
REMARK INTER + INTRA:          -4.452
REMARK INTER:                  -4.355
REMARK INTRA:                  -0.097
REMARK UNBOUND:                -0.017
REMARK SMILES CC[C@H](C)[C@H]([NH3+])C(=O)[O-]
REMARK SMILES IDX 3 1 4 2 5 3 6 4 7 8 8 9 9 10 2 11 1 12
REMARK H PARENT 6 5 6 6 6 7
REMARK Flexibility Score: inf
ROOT
ATOM      1  C   UNL     1     134.761 135.249 134.022  1.00  0.00     0.050 C 
ATOM      2  C   UNL     1     136.183 135.453 134.585  1.00  0.00     0.014 C 
ENDROOT
BRANCH   1   3
ATOM      3  C   UNL     1     134.529 135.995 132.671  1.00  0.00     0.230 C 
BRANCH   3   4
ATOM      4  N   UNL     1     133.134 136.434 132.514  1.00  0.00    -0.350 N 
ATOM      5  H   UNL     1     132.762 136.205 131.564  1.00  0.00     0.345 HD
ATOM      6  H   UNL     1     132.531 135.983 133.238  1.00  0.00     0.345 HD
ATOM      7  H   UNL     1     133.079 137.470 132.647  1.00  0.00     0.345 HD
ENDBRANCH   3   4
BRANCH   3   8
ATOM      8  C   UNL     1     134.977 135.186 131.477  1.00  0.00     0.099 C 
ATOM      9  O   UNL     1     135.378 135.754 130.426  1.00  0.00    -0.544 OA
ATOM     10  O   UNL     1     134.918 133.798 131.521  1.00  0.00    -0.544 OA
ENDBRANCH   3   8
ENDBRANCH   1   3
BRANCH   1  11
ATOM     11  C   UNL     1     133.685 135.654 135.061  1.00  0.00     0.006 C 
ATOM     12  C   UNL     1     134.261 136.418 136.255  1.00  0.00     0.004 C 
ENDBRANCH   1  11
TORSDOF 4
ENDMDL
MODEL 9
REMARK VINA RESULT:    -3.674      2.816      3.898
REMARK INTER + INTRA:          -4.442
REMARK INTER:                  -4.425
REMARK INTRA:                  -0.017
REMARK UNBOUND:                -0.017
REMARK SMILES CC[C@H](C)[C@H]([NH3+])C(=O)[O-]
REMARK SMILES IDX 3 1 4 2 5 3 6 4 7 8 8 9 9 10 2 11 1 12
REMARK H PARENT 6 5 6 6 6 7
REMARK Flexibility Score: inf
ROOT
ATOM      1  C   UNL     1     134.795 135.210 131.723  1.00  0.00     0.050 C 
ATOM      2  C   UNL     1     134.094 133.864 132.000  1.00  0.00     0.014 C 
ENDROOT
BRANCH   1   3
ATOM      3  C   UNL     1     136.169 135.042 131.003  1.00  0.00     0.230 C 
BRANCH   3   4
ATOM      4  N   UNL     1     137.288 134.972 131.955  1.00  0.00    -0.350 N 
ATOM      5  H   UNL     1     137.515 135.911 132.353  1.00  0.00     0.345 HD
ATOM      6  H   UNL     1     137.057 134.314 132.734  1.00  0.00     0.345 HD
ATOM      7  H   UNL     1     138.138 134.609 131.466  1.00  0.00     0.345 HD
ENDBRANCH   3   4
BRANCH   3   8
ATOM      8  C   UNL     1     136.413 136.109 129.962  1.00  0.00     0.099 C 
ATOM      9  O   UNL     1     136.297 137.330 130.250  1.00  0.00    -0.544 OA
ATOM     10  O   UNL     1     136.738 135.744 128.661  1.00  0.00    -0.544 OA
ENDBRANCH   3   8
ENDBRANCH   1   3
BRANCH   1  11
ATOM     11  C   UNL     1     134.957 136.033 133.025  1.00  0.00     0.006 C 
ATOM     12  C   UNL     1     134.023 135.576 134.146  1.00  0.00     0.004 C 
ENDBRANCH   1  11
TORSDOF 4
ENDMDL
