MODEL 1
REMARK VINA RESULT:    -5.823      0.000      0.000
REMARK INTER + INTRA:         -16.490
REMARK INTER:                 -13.313
REMARK INTRA:                  -3.177
REMARK UNBOUND:                -3.177
REMARK SMILES CCCCCCCCCCCCCCCCCCCCCCCC(=O)[O-]
REMARK SMILES IDX 13 1 14 2 15 3 16 4 17 5 18 6 19 7 20 8 21 9 22 10 23 11
REMARK SMILES IDX 24 12 25 13 26 14 12 15 11 16 10 17 9 18 8 19 7 20 6 21 5 22
REMARK SMILES IDX 4 23 3 24 2 25 1 26
REMARK H PARENT
REMARK Flexibility Score: inf
ROOT
ATOM      1  C   UNL     1      55.044  18.095   1.483  1.00  0.00     0.000 C 
ENDROOT
BRANCH   1   2
ATOM      2  C   UNL     1      54.518  17.038   2.469  1.00  0.00     0.000 C 
BRANCH   2   3
ATOM      3  C   UNL     1      53.019  16.750   2.275  1.00  0.00     0.000 C 
BRANCH   3   4
ATOM      4  C   UNL     1      52.752  15.354   1.686  1.00  0.00     0.000 C 
BRANCH   4   5
ATOM      5  C   UNL     1      54.009  14.491   1.460  1.00  0.00     0.000 C 
BRANCH   5   6
ATOM      6  C   UNL     1      54.209  14.048  -0.008  1.00  0.00     0.000 C 
BRANCH   6   7
ATOM      7  C   UNL     1      53.100  14.569  -0.937  1.00  0.00     0.000 C 
BRANCH   7   8
ATOM      8  C   UNL     1      53.571  15.721  -1.841  1.00  0.00     0.000 C 
BRANCH   8   9
ATOM      9  C   UNL     1      52.482  16.785  -2.117  1.00  0.00     0.000 C 
BRANCH   9  10
ATOM     10  C   UNL     1      52.426  17.923  -1.074  1.00  0.00     0.006 C 
BRANCH  10  11
ATOM     11  C   UNL     1      51.020  18.226  -0.519  1.00  0.00     0.053 C 
BRANCH  11  12
ATOM     12  C   UNL     1      50.304  19.278  -1.314  1.00  0.00     0.041 C 
ATOM     13  O   UNL     1      50.944  20.251  -1.799  1.00  0.00    -0.550 OA
ATOM     14  O   UNL     1      48.922  19.224  -1.453  1.00  0.00    -0.550 OA
ENDBRANCH  11  12
ENDBRANCH  10  11
ENDBRANCH   9  10
ENDBRANCH   8   9
ENDBRANCH   7   8
ENDBRANCH   6   7
ENDBRANCH   5   6
ENDBRANCH   4   5
ENDBRANCH   3   4
ENDBRANCH   2   3
ENDBRANCH   1   2
BRANCH   1  15
ATOM     15  C   UNL     1      55.942  17.485   0.391  1.00  0.00     0.000 C 
BRANCH  15  16
ATOM     16  C   UNL     1      57.026  16.554   0.961  1.00  0.00     0.000 C 
BRANCH  16  17
ATOM     17  C   UNL     1      57.647  15.576  -0.058  1.00  0.00     0.000 C 
BRANCH  17  18
ATOM     18  C   UNL     1      58.887  14.810   0.441  1.00  0.00    -0.000 C 
BRANCH  18  19
ATOM     19  C   UNL     1      58.716  13.281   0.519  1.00  0.00    -0.000 C 
BRANCH  19  20
ATOM     20  C   UNL     1      57.510  12.747  -0.285  1.00  0.00    -0.000 C 
BRANCH  20  21
ATOM     21  C   UNL     1      57.656  11.262  -0.659  1.00  0.00    -0.000 C 
BRANCH  21  22
ATOM     22  C   UNL     1      58.751  10.554   0.170  1.00  0.00    -0.000 C 
BRANCH  22  23
ATOM     23  C   UNL     1      59.854   9.910  -0.688  1.00  0.00    -0.000 C 
BRANCH  23  24
ATOM     24  C   UNL     1      61.222   9.890   0.016  1.00  0.00    -0.000 C 
BRANCH  24  25
ATOM     25  C   UNL     1      62.141   8.776  -0.508  1.00  0.00    -0.003 C 
ATOM     26  C   UNL     1      62.108   7.517   0.362  1.00  0.00     0.004 C 
ENDBRANCH  24  25
ENDBRANCH  23  24
ENDBRANCH  22  23
ENDBRANCH  21  22
ENDBRANCH  20  21
ENDBRANCH  19  20
ENDBRANCH  18  19
ENDBRANCH  17  18
ENDBRANCH  16  17
ENDBRANCH  15  16
ENDBRANCH   1  15
TORSDOF 22
ENDMDL
MODEL 2
REMARK VINA RESULT:    -5.787      4.224      9.348
REMARK INTER + INTRA:         -16.406
REMARK INTER:                 -12.753
REMARK INTRA:                  -3.654
REMARK UNBOUND:                -3.177
REMARK SMILES CCCCCCCCCCCCCCCCCCCCCCCC(=O)[O-]
REMARK SMILES IDX 13 1 14 2 15 3 16 4 17 5 18 6 19 7 20 8 21 9 22 10 23 11
REMARK SMILES IDX 24 12 25 13 26 14 12 15 11 16 10 17 9 18 8 19 7 20 6 21 5 22
REMARK SMILES IDX 4 23 3 24 2 25 1 26
REMARK H PARENT
REMARK Flexibility Score: inf
ROOT
ATOM      1  C   UNL     1      54.310  13.886   0.417  1.00  0.00     0.000 C 
ENDROOT
BRANCH   1   2
ATOM      2  C   UNL     1      55.554  13.388  -0.337  1.00  0.00     0.000 C 
BRANCH   2   3
ATOM      3  C   UNL     1      56.538  12.644   0.583  1.00  0.00     0.000 C 
BRANCH   3   4
ATOM      4  C   UNL     1      57.853  13.414   0.794  1.00  0.00     0.000 C 
BRANCH   4   5
ATOM      5  C   UNL     1      58.218  14.403  -0.331  1.00  0.00     0.000 C 
BRANCH   5   6
ATOM      6  C   UNL     1      59.692  14.868  -0.302  1.00  0.00     0.000 C 
BRANCH   6   7
ATOM      7  C   UNL     1      60.342  14.681   1.079  1.00  0.00     0.000 C 
BRANCH   7   8
ATOM      8  C   UNL     1      61.667  13.902   1.014  1.00  0.00     0.000 C 
BRANCH   8   9
ATOM      9  C   UNL     1      61.731  12.875  -0.141  1.00  0.00     0.000 C 
BRANCH   9  10
ATOM     10  C   UNL     1      61.531  11.408   0.300  1.00  0.00     0.006 C 
BRANCH  10  11
ATOM     11  C   UNL     1      60.130  10.830   0.015  1.00  0.00     0.053 C 
BRANCH  11  12
ATOM     12  C   UNL     1      59.785   9.689   0.926  1.00  0.00     0.041 C 
ATOM     13  O   UNL     1      60.327   8.562   0.762  1.00  0.00    -0.550 OA
ATOM     14  O   UNL     1      58.810   9.850   1.903  1.00  0.00    -0.550 OA
ENDBRANCH  11  12
ENDBRANCH  10  11
ENDBRANCH   9  10
ENDBRANCH   8   9
ENDBRANCH   7   8
ENDBRANCH   6   7
ENDBRANCH   5   6
ENDBRANCH   4   5
ENDBRANCH   3   4
ENDBRANCH   2   3
ENDBRANCH   1   2
BRANCH   1  15
ATOM     15  C   UNL     1      53.186  14.336  -0.534  1.00  0.00     0.000 C 
BRANCH  15  16
ATOM     16  C   UNL     1      53.691  15.251  -1.664  1.00  0.00     0.000 C 
BRANCH  16  17
ATOM     17  C   UNL     1      53.190  16.708  -1.596  1.00  0.00     0.000 C 
BRANCH  17  18
ATOM     18  C   UNL     1      54.230  17.738  -1.115  1.00  0.00    -0.000 C 
BRANCH  18  19
ATOM     19  C   UNL     1      55.649  17.175  -0.903  1.00  0.00    -0.000 C 
BRANCH  19  20
ATOM     20  C   UNL     1      56.077  17.107   0.579  1.00  0.00    -0.000 C 
BRANCH  20  21
ATOM     21  C   UNL     1      55.137  17.898   1.505  1.00  0.00    -0.000 C 
BRANCH  21  22
ATOM     22  C   UNL     1      54.460  16.995   2.560  1.00  0.00    -0.000 C 
BRANCH  22  23
ATOM     23  C   UNL     1      53.028  17.433   2.917  1.00  0.00    -0.000 C 
BRANCH  23  24
ATOM     24  C   UNL     1      52.038  17.239   1.756  1.00  0.00    -0.000 C 
BRANCH  24  25
ATOM     25  C   UNL     1      51.153  18.473   1.522  1.00  0.00    -0.003 C 
ATOM     26  C   UNL     1      50.248  18.334   0.296  1.00  0.00     0.004 C 
ENDBRANCH  24  25
ENDBRANCH  23  24
ENDBRANCH  22  23
ENDBRANCH  21  22
ENDBRANCH  20  21
ENDBRANCH  19  20
ENDBRANCH  18  19
ENDBRANCH  17  18
ENDBRANCH  16  17
ENDBRANCH  15  16
ENDBRANCH   1  15
TORSDOF 22
ENDMDL
MODEL 3
REMARK VINA RESULT:    -5.755      2.867      6.129
REMARK INTER + INTRA:         -16.333
REMARK INTER:                 -12.695
REMARK INTRA:                  -3.637
REMARK UNBOUND:                -3.177
REMARK SMILES CCCCCCCCCCCCCCCCCCCCCCCC(=O)[O-]
REMARK SMILES IDX 13 1 14 2 15 3 16 4 17 5 18 6 19 7 20 8 21 9 22 10 23 11
REMARK SMILES IDX 24 12 25 13 26 14 12 15 11 16 10 17 9 18 8 19 7 20 6 21 5 22
REMARK SMILES IDX 4 23 3 24 2 25 1 26
REMARK H PARENT
REMARK Flexibility Score: inf
ROOT
ATOM      1  C   UNL     1      53.136  16.797  -1.675  1.00  0.00     0.000 C 
ENDROOT
BRANCH   1   2
ATOM      2  C   UNL     1      51.812  17.551  -1.887  1.00  0.00     0.000 C 
BRANCH   2   3
ATOM      3  C   UNL     1      51.360  18.306  -0.625  1.00  0.00     0.000 C 
BRANCH   3   4
ATOM      4  C   UNL     1      50.185  19.262  -0.893  1.00  0.00     0.000 C 
BRANCH   4   5
ATOM      5  C   UNL     1      49.121  18.729  -1.874  1.00  0.00     0.000 C 
BRANCH   5   6
ATOM      6  C   UNL     1      47.884  19.645  -2.014  1.00  0.00     0.000 C 
BRANCH   6   7
ATOM      7  C   UNL     1      48.211  21.123  -1.739  1.00  0.00     0.000 C 
BRANCH   7   8
ATOM      8  C   UNL     1      47.352  21.724  -0.613  1.00  0.00     0.000 C 
BRANCH   8   9
ATOM      9  C   UNL     1      46.451  20.692   0.104  1.00  0.00     0.000 C 
BRANCH   9  10
ATOM     10  C   UNL     1      46.577  20.699   1.644  1.00  0.00     0.006 C 
BRANCH  10  11
ATOM     11  C   UNL     1      46.972  19.346   2.269  1.00  0.00     0.053 C 
BRANCH  11  12
ATOM     12  C   UNL     1      48.459  19.178   2.379  1.00  0.00     0.041 C 
ATOM     13  O   UNL     1      49.205  20.190   2.483  1.00  0.00    -0.550 OA
ATOM     14  O   UNL     1      49.024  17.911   2.290  1.00  0.00    -0.550 OA
ENDBRANCH  11  12
ENDBRANCH  10  11
ENDBRANCH   9  10
ENDBRANCH   8   9
ENDBRANCH   7   8
ENDBRANCH   6   7
ENDBRANCH   5   6
ENDBRANCH   4   5
ENDBRANCH   3   4
ENDBRANCH   2   3
ENDBRANCH   1   2
BRANCH   1  15
ATOM     15  C   UNL     1      54.248  17.705  -1.119  1.00  0.00     0.000 C 
BRANCH  15  16
ATOM     16  C   UNL     1      55.575  16.956  -0.900  1.00  0.00     0.000 C 
BRANCH  16  17
ATOM     17  C   UNL     1      56.242  17.200   0.470  1.00  0.00     0.000 C 
BRANCH  17  18
ATOM     18  C   UNL     1      55.372  17.946   1.499  1.00  0.00    -0.000 C 
BRANCH  18  19
ATOM     19  C   UNL     1      54.612  17.039   2.485  1.00  0.00    -0.000 C 
BRANCH  19  20
ATOM     20  C   UNL     1      53.085  17.014   2.258  1.00  0.00    -0.000 C 
BRANCH  20  21
ATOM     21  C   UNL     1      52.581  15.648   1.761  1.00  0.00    -0.000 C 
BRANCH  21  22
ATOM     22  C   UNL     1      53.736  14.655   1.505  1.00  0.00    -0.000 C 
BRANCH  22  23
ATOM     23  C   UNL     1      53.628  13.917   0.159  1.00  0.00    -0.000 C 
BRANCH  23  24
ATOM     24  C   UNL     1      54.982  13.385  -0.340  1.00  0.00    -0.000 C 
BRANCH  24  25
ATOM     25  C   UNL     1      56.064  13.406   0.750  1.00  0.00    -0.003 C 
ATOM     26  C   UNL     1      57.485  13.361   0.182  1.00  0.00     0.004 C 
ENDBRANCH  24  25
ENDBRANCH  23  24
ENDBRANCH  22  23
ENDBRANCH  21  22
ENDBRANCH  20  21
ENDBRANCH  19  20
ENDBRANCH  18  19
ENDBRANCH  17  18
ENDBRANCH  16  17
ENDBRANCH  15  16
ENDBRANCH   1  15
TORSDOF 22
ENDMDL
MODEL 4
REMARK VINA RESULT:    -5.749      4.409     10.953
REMARK INTER + INTRA:         -16.319
REMARK INTER:                 -13.490
REMARK INTRA:                  -2.829
REMARK UNBOUND:                -3.177
REMARK SMILES CCCCCCCCCCCCCCCCCCCCCCCC(=O)[O-]
REMARK SMILES IDX 13 1 14 2 15 3 16 4 17 5 18 6 19 7 20 8 21 9 22 10 23 11
REMARK SMILES IDX 24 12 25 13 26 14 12 15 11 16 10 17 9 18 8 19 7 20 6 21 5 22
REMARK SMILES IDX 4 23 3 24 2 25 1 26
REMARK H PARENT
REMARK Flexibility Score: inf
ROOT
ATOM      1  C   UNL     1      53.010  14.681  -0.919  1.00  0.00     0.000 C 
ENDROOT
BRANCH   1   2
ATOM      2  C   UNL     1      54.165  14.126  -0.069  1.00  0.00     0.000 C 
BRANCH   2   3
ATOM      3  C   UNL     1      54.000  14.452   1.426  1.00  0.00     0.000 C 
BRANCH   3   4
ATOM      4  C   UNL     1      52.805  15.379   1.705  1.00  0.00     0.000 C 
BRANCH   4   5
ATOM      5  C   UNL     1      53.178  16.810   2.143  1.00  0.00     0.000 C 
BRANCH   5   6
ATOM      6  C   UNL     1      54.681  16.999   2.450  1.00  0.00     0.000 C 
BRANCH   6   7
ATOM      7  C   UNL     1      55.367  17.963   1.467  1.00  0.00     0.000 C 
BRANCH   7   8
ATOM      8  C   UNL     1      56.083  17.234   0.318  1.00  0.00     0.000 C 
BRANCH   8   9
ATOM      9  C   UNL     1      57.376  16.502   0.750  1.00  0.00     0.000 C 
BRANCH   9  10
ATOM     10  C   UNL     1      57.645  15.184  -0.009  1.00  0.00     0.006 C 
BRANCH  10  11
ATOM     11  C   UNL     1      58.540  14.176   0.739  1.00  0.00     0.053 C 
BRANCH  11  12
ATOM     12  C   UNL     1      59.895  14.035   0.111  1.00  0.00     0.041 C 
ATOM     13  O   UNL     1      60.635  13.060   0.412  1.00  0.00    -0.550 OA
ATOM     14  O   UNL     1      60.369  15.021  -0.747  1.00  0.00    -0.550 OA
ENDBRANCH  11  12
ENDBRANCH  10  11
ENDBRANCH   9  10
ENDBRANCH   8   9
ENDBRANCH   7   8
ENDBRANCH   6   7
ENDBRANCH   5   6
ENDBRANCH   4   5
ENDBRANCH   3   4
ENDBRANCH   2   3
ENDBRANCH   1   2
BRANCH   1  15
ATOM     15  C   UNL     1      53.489  15.697  -1.973  1.00  0.00     0.000 C 
BRANCH  15  16
ATOM     16  C   UNL     1      53.174  17.152  -1.584  1.00  0.00     0.000 C 
BRANCH  16  17
ATOM     17  C   UNL     1      51.673  17.480  -1.447  1.00  0.00     0.000 C 
BRANCH  17  18
ATOM     18  C   UNL     1      51.356  18.839  -0.794  1.00  0.00    -0.000 C 
BRANCH  18  19
ATOM     19  C   UNL     1      50.502  18.760   0.486  1.00  0.00    -0.000 C 
BRANCH  19  20
ATOM     20  C   UNL     1      49.147  19.494   0.378  1.00  0.00    -0.000 C 
BRANCH  20  21
ATOM     21  C   UNL     1      48.443  19.642   1.738  1.00  0.00    -0.000 C 
BRANCH  21  22
ATOM     22  C   UNL     1      47.083  20.366   1.617  1.00  0.00    -0.000 C 
BRANCH  22  23
ATOM     23  C   UNL     1      47.159  21.873   1.916  1.00  0.00    -0.000 C 
BRANCH  23  24
ATOM     24  C   UNL     1      46.538  22.244   3.273  1.00  0.00    -0.000 C 
BRANCH  24  25
ATOM     25  C   UNL     1      45.346  21.348   3.643  1.00  0.00    -0.003 C 
ATOM     26  C   UNL     1      43.994  21.995   3.334  1.00  0.00     0.004 C 
ENDBRANCH  24  25
ENDBRANCH  23  24
ENDBRANCH  22  23
ENDBRANCH  21  22
ENDBRANCH  20  21
ENDBRANCH  19  20
ENDBRANCH  18  19
ENDBRANCH  17  18
ENDBRANCH  16  17
ENDBRANCH  15  16
ENDBRANCH   1  15
TORSDOF 22
ENDMDL
MODEL 5
REMARK VINA RESULT:    -5.738      3.409      6.531
REMARK INTER + INTRA:         -16.294
REMARK INTER:                 -12.840
REMARK INTRA:                  -3.454
REMARK UNBOUND:                -3.177
REMARK SMILES CCCCCCCCCCCCCCCCCCCCCCCC(=O)[O-]
REMARK SMILES IDX 13 1 14 2 15 3 16 4 17 5 18 6 19 7 20 8 21 9 22 10 23 11
REMARK SMILES IDX 24 12 25 13 26 14 12 15 11 16 10 17 9 18 8 19 7 20 6 21 5 22
REMARK SMILES IDX 4 23 3 24 2 25 1 26
REMARK H PARENT
REMARK Flexibility Score: inf
ROOT
ATOM      1  C   UNL     1      51.830  17.207  -2.258  1.00  0.00     0.000 C 
ENDROOT
BRANCH   1   2
ATOM      2  C   UNL     1      50.954  18.354  -1.727  1.00  0.00     0.000 C 
BRANCH   2   3
ATOM      3  C   UNL     1      50.580  18.167  -0.246  1.00  0.00     0.000 C 
BRANCH   3   4
ATOM      4  C   UNL     1      50.211  19.491   0.446  1.00  0.00     0.000 C 
BRANCH   4   5
ATOM      5  C   UNL     1      50.444  19.517   1.970  1.00  0.00     0.000 C 
BRANCH   5   6
ATOM      6  C   UNL     1      49.200  19.937   2.787  1.00  0.00     0.000 C 
BRANCH   6   7
ATOM      7  C   UNL     1      47.997  19.009   2.547  1.00  0.00     0.000 C 
BRANCH   7   8
ATOM      8  C   UNL     1      46.698  19.781   2.255  1.00  0.00     0.000 C 
BRANCH   8   9
ATOM      9  C   UNL     1      46.921  21.272   1.910  1.00  0.00     0.000 C 
BRANCH   9  10
ATOM     10  C   UNL     1      46.670  21.626   0.427  1.00  0.00     0.006 C 
BRANCH  10  11
ATOM     11  C   UNL     1      46.513  20.413  -0.512  1.00  0.00     0.053 C 
BRANCH  11  12
ATOM     12  C   UNL     1      47.372  20.521  -1.737  1.00  0.00     0.041 C 
ATOM     13  O   UNL     1      47.715  19.481  -2.364  1.00  0.00    -0.550 OA
ATOM     14  O   UNL     1      47.854  21.760  -2.141  1.00  0.00    -0.550 OA
ENDBRANCH  11  12
ENDBRANCH  10  11
ENDBRANCH   9  10
ENDBRANCH   8   9
ENDBRANCH   7   8
ENDBRANCH   6   7
ENDBRANCH   5   6
ENDBRANCH   4   5
ENDBRANCH   3   4
ENDBRANCH   2   3
ENDBRANCH   1   2
BRANCH   1  15
ATOM     15  C   UNL     1      53.204  17.146  -1.566  1.00  0.00     0.000 C 
BRANCH  15  16
ATOM     16  C   UNL     1      53.876  15.768  -1.695  1.00  0.00     0.000 C 
BRANCH  16  17
ATOM     17  C   UNL     1      53.212  14.640  -0.880  1.00  0.00     0.000 C 
BRANCH  17  18
ATOM     18  C   UNL     1      54.070  14.063   0.262  1.00  0.00    -0.000 C 
BRANCH  18  19
ATOM     19  C   UNL     1      53.690  14.555   1.671  1.00  0.00    -0.000 C 
BRANCH  19  20
ATOM     20  C   UNL     1      52.572  15.621   1.679  1.00  0.00    -0.000 C 
BRANCH  20  21
ATOM     21  C   UNL     1      53.029  16.955   2.293  1.00  0.00    -0.000 C 
BRANCH  21  22
ATOM     22  C   UNL     1      54.564  17.034   2.449  1.00  0.00    -0.000 C 
BRANCH  22  23
ATOM     23  C   UNL     1      55.251  17.883   1.366  1.00  0.00    -0.000 C 
BRANCH  23  24
ATOM     24  C   UNL     1      56.723  17.495   1.148  1.00  0.00    -0.000 C 
BRANCH  24  25
ATOM     25  C   UNL     1      56.879  16.142   0.436  1.00  0.00    -0.003 C 
ATOM     26  C   UNL     1      58.308  15.598   0.495  1.00  0.00     0.004 C 
ENDBRANCH  24  25
ENDBRANCH  23  24
ENDBRANCH  22  23
ENDBRANCH  21  22
ENDBRANCH  20  21
ENDBRANCH  19  20
ENDBRANCH  18  19
ENDBRANCH  17  18
ENDBRANCH  16  17
ENDBRANCH  15  16
ENDBRANCH   1  15
TORSDOF 22
ENDMDL
MODEL 6
REMARK VINA RESULT:    -5.688      4.296     10.099
REMARK INTER + INTRA:         -16.181
REMARK INTER:                 -12.873
REMARK INTRA:                  -3.308
REMARK UNBOUND:                -3.177
REMARK SMILES CCCCCCCCCCCCCCCCCCCCCCCC(=O)[O-]
REMARK SMILES IDX 13 1 14 2 15 3 16 4 17 5 18 6 19 7 20 8 21 9 22 10 23 11
REMARK SMILES IDX 24 12 25 13 26 14 12 15 11 16 10 17 9 18 8 19 7 20 6 21 5 22
REMARK SMILES IDX 4 23 3 24 2 25 1 26
REMARK H PARENT
REMARK Flexibility Score: inf
ROOT
ATOM      1  C   UNL     1      52.594  17.150  -1.994  1.00  0.00     0.000 C 
ENDROOT
BRANCH   1   2
ATOM      2  C   UNL     1      53.686  16.145  -1.590  1.00  0.00     0.000 C 
BRANCH   2   3
ATOM      3  C   UNL     1      53.100  14.808  -1.104  1.00  0.00     0.000 C 
BRANCH   3   4
ATOM      4  C   UNL     1      54.026  14.077  -0.116  1.00  0.00     0.000 C 
BRANCH   4   5
ATOM      5  C   UNL     1      53.883  14.512   1.357  1.00  0.00     0.000 C 
BRANCH   5   6
ATOM      6  C   UNL     1      52.672  15.436   1.621  1.00  0.00     0.000 C 
BRANCH   6   7
ATOM      7  C   UNL     1      53.081  16.779   2.249  1.00  0.00     0.000 C 
BRANCH   7   8
ATOM      8  C   UNL     1      54.603  16.912   2.433  1.00  0.00     0.000 C 
BRANCH   8   9
ATOM      9  C   UNL     1      55.301  17.708   1.305  1.00  0.00     0.000 C 
BRANCH   9  10
ATOM     10  C   UNL     1      56.779  17.319   1.074  1.00  0.00     0.006 C 
BRANCH  10  11
ATOM     11  C   UNL     1      56.999  16.188   0.050  1.00  0.00     0.053 C 
BRANCH  11  12
ATOM     12  C   UNL     1      58.239  15.391   0.333  1.00  0.00     0.041 C 
ATOM     13  O   UNL     1      58.150  14.178   0.668  1.00  0.00    -0.550 OA
ATOM     14  O   UNL     1      59.484  16.008   0.301  1.00  0.00    -0.550 OA
ENDBRANCH  11  12
ENDBRANCH  10  11
ENDBRANCH   9  10
ENDBRANCH   8   9
ENDBRANCH   7   8
ENDBRANCH   6   7
ENDBRANCH   5   6
ENDBRANCH   4   5
ENDBRANCH   3   4
ENDBRANCH   2   3
ENDBRANCH   1   2
BRANCH   1  15
ATOM     15  C   UNL     1      52.380  18.245  -0.932  1.00  0.00     0.000 C 
BRANCH  15  16
ATOM     16  C   UNL     1      50.949  18.254  -0.365  1.00  0.00     0.000 C 
BRANCH  16  17
ATOM     17  C   UNL     1      49.828  18.265  -1.425  1.00  0.00     0.000 C 
BRANCH  17  18
ATOM     18  C   UNL     1      49.647  19.599  -2.174  1.00  0.00    -0.000 C 
BRANCH  18  19
ATOM     19  C   UNL     1      48.890  20.686  -1.387  1.00  0.00    -0.000 C 
BRANCH  19  20
ATOM     20  C   UNL     1      47.353  20.574  -1.490  1.00  0.00    -0.000 C 
BRANCH  20  21
ATOM     21  C   UNL     1      46.667  20.537  -0.114  1.00  0.00    -0.000 C 
BRANCH  21  22
ATOM     22  C   UNL     1      47.132  21.690   0.804  1.00  0.00    -0.000 C 
BRANCH  22  23
ATOM     23  C   UNL     1      47.436  21.246   2.245  1.00  0.00    -0.000 C 
BRANCH  23  24
ATOM     24  C   UNL     1      48.226  19.928   2.310  1.00  0.00    -0.000 C 
BRANCH  24  25
ATOM     25  C   UNL     1      49.685  20.134   2.745  1.00  0.00    -0.003 C 
ATOM     26  C   UNL     1      50.354  18.842   3.220  1.00  0.00     0.004 C 
ENDBRANCH  24  25
ENDBRANCH  23  24
ENDBRANCH  22  23
ENDBRANCH  21  22
ENDBRANCH  20  21
ENDBRANCH  19  20
ENDBRANCH  18  19
ENDBRANCH  17  18
ENDBRANCH  16  17
ENDBRANCH  15  16
ENDBRANCH   1  15
TORSDOF 22
ENDMDL
MODEL 7
REMARK VINA RESULT:    -5.687      2.638      5.832
REMARK INTER + INTRA:         -16.178
REMARK INTER:                 -13.156
REMARK INTRA:                  -3.021
REMARK UNBOUND:                -3.177
REMARK SMILES CCCCCCCCCCCCCCCCCCCCCCCC(=O)[O-]
REMARK SMILES IDX 13 1 14 2 15 3 16 4 17 5 18 6 19 7 20 8 21 9 22 10 23 11
REMARK SMILES IDX 24 12 25 13 26 14 12 15 11 16 10 17 9 18 8 19 7 20 6 21 5 22
REMARK SMILES IDX 4 23 3 24 2 25 1 26
REMARK H PARENT
REMARK Flexibility Score: inf
ROOT
ATOM      1  C   UNL     1      53.618  15.705  -1.886  1.00  0.00     0.000 C 
ENDROOT
BRANCH   1   2
ATOM      2  C   UNL     1      52.493  16.701  -2.210  1.00  0.00     0.000 C 
BRANCH   2   3
ATOM      3  C   UNL     1      52.211  17.666  -1.046  1.00  0.00     0.000 C 
BRANCH   3   4
ATOM      4  C   UNL     1      50.817  18.312  -1.132  1.00  0.00     0.000 C 
BRANCH   4   5
ATOM      5  C   UNL     1      50.382  19.094   0.123  1.00  0.00     0.000 C 
BRANCH   5   6
ATOM      6  C   UNL     1      50.026  18.196   1.330  1.00  0.00     0.000 C 
BRANCH   6   7
ATOM      7  C   UNL     1      48.929  18.807   2.217  1.00  0.00     0.000 C 
BRANCH   7   8
ATOM      8  C   UNL     1      48.395  20.142   1.670  1.00  0.00     0.000 C 
BRANCH   8   9
ATOM      9  C   UNL     1      46.873  20.140   1.390  1.00  0.00     0.000 C 
BRANCH   9  10
ATOM     10  C   UNL     1      46.456  20.934   0.133  1.00  0.00     0.006 C 
BRANCH  10  11
ATOM     11  C   UNL     1      47.160  20.504  -1.170  1.00  0.00     0.053 C 
BRANCH  11  12
ATOM     12  C   UNL     1      47.621  21.675  -1.987  1.00  0.00     0.041 C 
ATOM     13  O   UNL     1      46.790  22.346  -2.657  1.00  0.00    -0.550 OA
ATOM     14  O   UNL     1      48.976  21.975  -2.067  1.00  0.00    -0.550 OA
ENDBRANCH  11  12
ENDBRANCH  10  11
ENDBRANCH   9  10
ENDBRANCH   8   9
ENDBRANCH   7   8
ENDBRANCH   6   7
ENDBRANCH   5   6
ENDBRANCH   4   5
ENDBRANCH   3   4
ENDBRANCH   2   3
ENDBRANCH   1   2
BRANCH   1  15
ATOM     15  C   UNL     1      53.133  14.532  -1.013  1.00  0.00     0.000 C 
BRANCH  15  16
ATOM     16  C   UNL     1      54.195  14.062  -0.003  1.00  0.00     0.000 C 
BRANCH  16  17
ATOM     17  C   UNL     1      53.944  14.498   1.456  1.00  0.00     0.000 C 
BRANCH  17  18
ATOM     18  C   UNL     1      52.791  15.501   1.651  1.00  0.00    -0.000 C 
BRANCH  18  19
ATOM     19  C   UNL     1      53.187  16.817   2.346  1.00  0.00    -0.000 C 
BRANCH  19  20
ATOM     20  C   UNL     1      54.711  17.063   2.392  1.00  0.00    -0.000 C 
BRANCH  20  21
ATOM     21  C   UNL     1      55.204  17.947   1.233  1.00  0.00    -0.000 C 
BRANCH  21  22
ATOM     22  C   UNL     1      56.050  17.155   0.212  1.00  0.00    -0.000 C 
BRANCH  22  23
ATOM     23  C   UNL     1      57.333  16.551   0.810  1.00  0.00    -0.000 C 
BRANCH  23  24
ATOM     24  C   UNL     1      57.836  15.325   0.029  1.00  0.00    -0.000 C 
BRANCH  24  25
ATOM     25  C   UNL     1      58.846  14.488   0.829  1.00  0.00    -0.003 C 
ATOM     26  C   UNL     1      60.185  14.319   0.108  1.00  0.00     0.004 C 
ENDBRANCH  24  25
ENDBRANCH  23  24
ENDBRANCH  22  23
ENDBRANCH  21  22
ENDBRANCH  20  21
ENDBRANCH  19  20
ENDBRANCH  18  19
ENDBRANCH  17  18
ENDBRANCH  16  17
ENDBRANCH  15  16
ENDBRANCH   1  15
TORSDOF 22
ENDMDL
MODEL 8
REMARK VINA RESULT:    -5.678      2.999      6.068
REMARK INTER + INTRA:         -16.158
REMARK INTER:                 -12.788
REMARK INTRA:                  -3.369
REMARK UNBOUND:                -3.177
REMARK SMILES CCCCCCCCCCCCCCCCCCCCCCCC(=O)[O-]
REMARK SMILES IDX 13 1 14 2 15 3 16 4 17 5 18 6 19 7 20 8 21 9 22 10 23 11
REMARK SMILES IDX 24 12 25 13 26 14 12 15 11 16 10 17 9 18 8 19 7 20 6 21 5 22
REMARK SMILES IDX 4 23 3 24 2 25 1 26
REMARK H PARENT
REMARK Flexibility Score: inf
ROOT
ATOM      1  C   UNL     1      52.103  16.847   1.690  1.00  0.00     0.000 C 
ENDROOT
BRANCH   1   2
ATOM      2  C   UNL     1      51.182  17.894   1.043  1.00  0.00     0.000 C 
BRANCH   2   3
ATOM      3  C   UNL     1      50.056  18.347   1.989  1.00  0.00     0.000 C 
BRANCH   3   4
ATOM      4  C   UNL     1      50.002  19.876   2.160  1.00  0.00     0.000 C 
BRANCH   4   5
ATOM      5  C   UNL     1      48.662  20.426   2.688  1.00  0.00     0.000 C 
BRANCH   5   6
ATOM      6  C   UNL     1      47.438  19.560   2.312  1.00  0.00     0.000 C 
BRANCH   6   7
ATOM      7  C   UNL     1      46.306  20.384   1.674  1.00  0.00     0.000 C 
BRANCH   7   8
ATOM      8  C   UNL     1      46.407  20.450   0.141  1.00  0.00     0.000 C 
BRANCH   8   9
ATOM      9  C   UNL     1      47.368  21.546  -0.376  1.00  0.00     0.000 C 
BRANCH   9  10
ATOM     10  C   UNL     1      47.981  21.253  -1.763  1.00  0.00     0.006 C 
BRANCH  10  11
ATOM     11  C   UNL     1      49.376  20.596  -1.731  1.00  0.00     0.053 C 
BRANCH  11  12
ATOM     12  C   UNL     1      49.363  19.196  -2.269  1.00  0.00     0.041 C 
ATOM     13  O   UNL     1      50.449  18.592  -2.488  1.00  0.00    -0.550 OA
ATOM     14  O   UNL     1      48.157  18.589  -2.598  1.00  0.00    -0.550 OA
ENDBRANCH  11  12
ENDBRANCH  10  11
ENDBRANCH   9  10
ENDBRANCH   8   9
ENDBRANCH   7   8
ENDBRANCH   6   7
ENDBRANCH   5   6
ENDBRANCH   4   5
ENDBRANCH   3   4
ENDBRANCH   2   3
ENDBRANCH   1   2
BRANCH   1  15
ATOM     15  C   UNL     1      52.974  17.441   2.812  1.00  0.00     0.000 C 
BRANCH  15  16
ATOM     16  C   UNL     1      54.472  17.146   2.624  1.00  0.00     0.000 C 
BRANCH  16  17
ATOM     17  C   UNL     1      55.148  17.913   1.468  1.00  0.00     0.000 C 
BRANCH  17  18
ATOM     18  C   UNL     1      55.982  17.046   0.506  1.00  0.00    -0.000 C 
BRANCH  18  19
ATOM     19  C   UNL     1      55.536  17.100  -0.968  1.00  0.00    -0.000 C 
BRANCH  19  20
ATOM     20  C   UNL     1      54.116  17.674  -1.168  1.00  0.00    -0.000 C 
BRANCH  20  21
ATOM     21  C   UNL     1      53.158  16.670  -1.833  1.00  0.00    -0.000 C 
BRANCH  21  22
ATOM     22  C   UNL     1      53.687  15.220  -1.760  1.00  0.00    -0.000 C 
BRANCH  22  23
ATOM     23  C   UNL     1      53.067  14.395  -0.619  1.00  0.00    -0.000 C 
BRANCH  23  24
ATOM     24  C   UNL     1      54.109  13.923   0.410  1.00  0.00    -0.000 C 
BRANCH  24  25
ATOM     25  C   UNL     1      55.239  13.101  -0.227  1.00  0.00    -0.003 C 
ATOM     26  C   UNL     1      56.611  13.401   0.381  1.00  0.00     0.004 C 
ENDBRANCH  24  25
ENDBRANCH  23  24
ENDBRANCH  22  23
ENDBRANCH  21  22
ENDBRANCH  20  21
ENDBRANCH  19  20
ENDBRANCH  18  19
ENDBRANCH  17  18
ENDBRANCH  16  17
ENDBRANCH  15  16
ENDBRANCH   1  15
TORSDOF 22
ENDMDL
MODEL 9
REMARK VINA RESULT:    -5.638      4.085     10.238
REMARK INTER + INTRA:         -16.066
REMARK INTER:                 -12.496
REMARK INTRA:                  -3.570
REMARK UNBOUND:                -3.177
REMARK SMILES CCCCCCCCCCCCCCCCCCCCCCCC(=O)[O-]
REMARK SMILES IDX 13 1 14 2 15 3 16 4 17 5 18 6 19 7 20 8 21 9 22 10 23 11
REMARK SMILES IDX 24 12 25 13 26 14 12 15 11 16 10 17 9 18 8 19 7 20 6 21 5 22
REMARK SMILES IDX 4 23 3 24 2 25 1 26
REMARK H PARENT
REMARK Flexibility Score: inf
ROOT
ATOM      1  C   UNL     1      53.602  15.610  -1.893  1.00  0.00     0.000 C 
ENDROOT
BRANCH   1   2
ATOM      2  C   UNL     1      53.016  14.658  -0.838  1.00  0.00     0.000 C 
BRANCH   2   3
ATOM      3  C   UNL     1      54.087  14.122   0.127  1.00  0.00     0.000 C 
BRANCH   3   4
ATOM      4  C   UNL     1      53.846  14.555   1.584  1.00  0.00     0.000 C 
BRANCH   4   5
ATOM      5  C   UNL     1      52.802  15.675   1.767  1.00  0.00     0.000 C 
BRANCH   5   6
ATOM      6  C   UNL     1      53.359  16.947   2.445  1.00  0.00     0.000 C 
BRANCH   6   7
ATOM      7  C   UNL     1      54.857  17.156   2.164  1.00  0.00     0.000 C 
BRANCH   7   8
ATOM      8  C   UNL     1      55.120  17.841   0.811  1.00  0.00     0.000 C 
BRANCH   8   9
ATOM      9  C   UNL     1      56.163  17.110  -0.066  1.00  0.00     0.000 C 
BRANCH   9  10
ATOM     10  C   UNL     1      57.298  16.427   0.730  1.00  0.00     0.006 C 
BRANCH  10  11
ATOM     11  C   UNL     1      57.640  14.995   0.272  1.00  0.00     0.053 C 
BRANCH  11  12
ATOM     12  C   UNL     1      59.066  14.861  -0.174  1.00  0.00     0.041 C 
ATOM     13  O   UNL     1      59.517  15.607  -1.085  1.00  0.00    -0.550 OA
ATOM     14  O   UNL     1      59.870  13.861   0.361  1.00  0.00    -0.550 OA
ENDBRANCH  11  12
ENDBRANCH  10  11
ENDBRANCH   9  10
ENDBRANCH   8   9
ENDBRANCH   7   8
ENDBRANCH   6   7
ENDBRANCH   5   6
ENDBRANCH   4   5
ENDBRANCH   3   4
ENDBRANCH   2   3
ENDBRANCH   1   2
BRANCH   1  15
ATOM     15  C   UNL     1      52.646  16.767  -2.238  1.00  0.00     0.000 C 
BRANCH  15  16
ATOM     16  C   UNL     1      51.763  17.186  -1.049  1.00  0.00     0.000 C 
BRANCH  16  17
ATOM     17  C   UNL     1      51.428  18.690  -0.983  1.00  0.00     0.000 C 
BRANCH  17  18
ATOM     18  C   UNL     1      50.694  19.143   0.293  1.00  0.00    -0.000 C 
BRANCH  18  19
ATOM     19  C   UNL     1      49.983  18.016   1.066  1.00  0.00    -0.000 C 
BRANCH  19  20
ATOM     20  C   UNL     1      49.206  18.506   2.308  1.00  0.00    -0.000 C 
BRANCH  20  21
ATOM     21  C   UNL     1      49.451  19.994   2.612  1.00  0.00    -0.000 C 
BRANCH  21  22
ATOM     22  C   UNL     1      48.138  20.807   2.657  1.00  0.00    -0.000 C 
BRANCH  22  23
ATOM     23  C   UNL     1      47.092  20.344   1.628  1.00  0.00    -0.000 C 
BRANCH  23  24
ATOM     24  C   UNL     1      46.887  21.357   0.489  1.00  0.00    -0.000 C 
BRANCH  24  25
ATOM     25  C   UNL     1      47.678  20.993  -0.777  1.00  0.00    -0.003 C 
ATOM     26  C   UNL     1      47.433  21.963  -1.934  1.00  0.00     0.004 C 
ENDBRANCH  24  25
ENDBRANCH  23  24
ENDBRANCH  22  23
ENDBRANCH  21  22
ENDBRANCH  20  21
ENDBRANCH  19  20
ENDBRANCH  18  19
ENDBRANCH  17  18
ENDBRANCH  16  17
ENDBRANCH  15  16
ENDBRANCH   1  15
TORSDOF 22
ENDMDL
