MODEL 1
REMARK VINA RESULT:    -2.848      0.000      0.000
REMARK INTER + INTRA:          -3.778
REMARK INTER:                  -3.515
REMARK INTRA:                  -0.263
REMARK UNBOUND:                -0.263
REMARK SMILES COc1cc(-c2oc3cc(O)cc(O)c3c(=O)c2O)ccc1O
REMARK SMILES IDX 6 1 18 2 16 3 17 4 15 5 13 6 12 7 10 8 9 9 8 10 7 11 5 12
REMARK SMILES IDX 3 13 22 14 4 15 21 16 20 17 2 18 1 19 23 20 19 22 14 24
REMARK SMILES IDX 11 26
REMARK H PARENT 23 21 19 23 14 25 11 27
REMARK Flexibility Score: inf
ROOT
ATOM      1  C   UNL     1      13.148 -13.058  28.309  1.00  0.00     0.180 A 
ATOM      2  C   UNL     1      11.857 -13.021  27.753  1.00  0.00     0.208 A 
ATOM      3  C   UNL     1      10.964 -12.021  28.169  1.00  0.00     0.238 A 
ATOM      4  O   UNL     1       9.829 -11.960  27.627  1.00  0.00    -0.285 OA
ATOM      5  C   UNL     1      11.366 -11.080  29.148  1.00  0.00     0.111 A 
ATOM      6  C   UNL     1      10.531 -10.049  29.673  1.00  0.00     0.134 A 
ATOM      7  C   UNL     1      11.074  -9.095  30.543  1.00  0.00     0.093 A 
ATOM      8  C   UNL     1      12.406  -9.175  30.956  1.00  0.00     0.123 A 
ATOM      9  C   UNL     1      13.213 -10.211  30.496  1.00  0.00     0.094 A 
ATOM     10  C   UNL     1      12.710 -11.158  29.599  1.00  0.00     0.146 A 
ATOM     11  O   UNL     1      13.516 -12.123  29.177  1.00  0.00    -0.452 OA
ENDROOT
BRANCH   1  12
ATOM     12  C   UNL     1      14.135 -14.097  27.938  1.00  0.00     0.025 A 
ATOM     13  C   UNL     1      15.382 -16.116  28.532  1.00  0.00     0.161 A 
ATOM     14  C   UNL     1      15.961 -16.126  27.256  1.00  0.00     0.157 A 
ATOM     15  C   UNL     1      14.463 -15.101  28.866  1.00  0.00     0.062 A 
ATOM     16  C   UNL     1      15.621 -15.138  26.322  1.00  0.00     0.051 A 
ATOM     17  C   UNL     1      14.709 -14.135  26.657  1.00  0.00     0.016 A 
BRANCH  13  18
ATOM     18  O   UNL     1      15.743 -17.125  29.437  1.00  0.00    -0.493 OA
ATOM     19  C   UNL     1      15.504 -17.075  30.841  1.00  0.00     0.278 C 
ENDBRANCH  13  18
BRANCH  14  20
ATOM     20  O   UNL     1      16.872 -17.125  26.919  1.00  0.00    -0.504 OA
ATOM     21  H   UNL     1      17.442 -17.064  26.085  1.00  0.00     0.293 HD
ENDBRANCH  14  20
ENDBRANCH   1  12
BRANCH   2  22
ATOM     22  O   UNL     1      11.489 -13.946  26.771  1.00  0.00    -0.502 OA
ATOM     23  H   UNL     1      11.874 -13.926  25.834  1.00  0.00     0.293 HD
ENDBRANCH   2  22
BRANCH   6  24
ATOM     24  O   UNL     1       9.164  -9.935  29.397  1.00  0.00    -0.507 OA
ATOM     25  H   UNL     1       8.779  -9.455  28.598  1.00  0.00     0.293 HD
ENDBRANCH   6  24
BRANCH   8  26
ATOM     26  O   UNL     1      12.935  -8.230  31.834  1.00  0.00    -0.508 OA
ATOM     27  H   UNL     1      13.916  -7.978  31.814  1.00  0.00     0.293 HD
ENDBRANCH   8  26
TORSDOF 6
ENDMDL
MODEL 2
REMARK VINA RESULT:    -0.785      9.806     12.168
REMARK INTER + INTRA:          -1.232
REMARK INTER:                  -1.394
REMARK INTRA:                   0.163
REMARK UNBOUND:                -0.263
REMARK SMILES COc1cc(-c2oc3cc(O)cc(O)c3c(=O)c2O)ccc1O
REMARK SMILES IDX 6 1 18 2 16 3 17 4 15 5 13 6 12 7 10 8 9 9 8 10 7 11 5 12
REMARK SMILES IDX 3 13 22 14 4 15 21 16 20 17 2 18 1 19 23 20 19 22 14 24
REMARK SMILES IDX 11 26
REMARK H PARENT 23 21 19 23 14 25 11 27
REMARK Flexibility Score: inf
ROOT
ATOM      1  C   UNL     1      15.898  -1.835  26.962  1.00  0.00     0.180 A 
ATOM      2  C   UNL     1      15.895  -1.219  28.225  1.00  0.00     0.208 A 
ATOM      3  C   UNL     1      15.581   0.147  28.315  1.00  0.00     0.238 A 
ATOM      4  O   UNL     1      15.526   0.681  29.454  1.00  0.00    -0.285 OA
ATOM      5  C   UNL     1      15.291   0.883  27.141  1.00  0.00     0.111 A 
ATOM      6  C   UNL     1      14.998   2.279  27.110  1.00  0.00     0.134 A 
ATOM      7  C   UNL     1      14.598   2.875  25.907  1.00  0.00     0.093 A 
ATOM      8  C   UNL     1      14.543   2.138  24.722  1.00  0.00     0.123 A 
ATOM      9  C   UNL     1      14.883   0.788  24.730  1.00  0.00     0.094 A 
ATOM     10  C   UNL     1      15.252   0.156  25.921  1.00  0.00     0.146 A 
ATOM     11  O   UNL     1      15.558  -1.134  25.887  1.00  0.00    -0.452 OA
ENDROOT
BRANCH   1  12
ATOM     12  C   UNL     1      16.243  -3.265  26.784  1.00  0.00     0.025 A 
ATOM     13  C   UNL     1      15.541  -5.540  26.227  1.00  0.00     0.161 A 
ATOM     14  C   UNL     1      16.864  -5.977  26.377  1.00  0.00     0.157 A 
ATOM     15  C   UNL     1      15.238  -4.178  26.425  1.00  0.00     0.062 A 
ATOM     16  C   UNL     1      17.872  -5.066  26.715  1.00  0.00     0.051 A 
ATOM     17  C   UNL     1      17.566  -3.717  26.910  1.00  0.00     0.016 A 
BRANCH  13  18
ATOM     18  O   UNL     1      14.561  -6.483  25.882  1.00  0.00    -0.493 OA
ATOM     19  C   UNL     1      14.674  -7.407  24.803  1.00  0.00     0.278 C 
ENDBRANCH  13  18
BRANCH  14  20
ATOM     20  O   UNL     1      17.172  -7.323  26.185  1.00  0.00    -0.504 OA
ATOM     21  H   UNL     1      16.645  -8.059  26.640  1.00  0.00     0.293 HD
ENDBRANCH  14  20
ENDBRANCH   1  12
BRANCH   2  22
ATOM     22  O   UNL     1      16.163  -1.968  29.374  1.00  0.00    -0.502 OA
ATOM     23  H   UNL     1      16.470  -1.543  30.240  1.00  0.00     0.293 HD
ENDBRANCH   2  22
BRANCH   6  24
ATOM     24  O   UNL     1      15.113   3.125  28.218  1.00  0.00    -0.507 OA
ATOM     25  H   UNL     1      14.541   3.940  28.379  1.00  0.00     0.293 HD
ENDBRANCH   6  24
BRANCH   8  26
ATOM     26  O   UNL     1      14.159   2.743  23.527  1.00  0.00    -0.508 OA
ATOM     27  H   UNL     1      14.821   2.903  22.777  1.00  0.00     0.293 HD
ENDBRANCH   8  26
TORSDOF 6
ENDMDL
MODEL 3
REMARK VINA RESULT:    -0.692      1.516      6.915
REMARK INTER + INTRA:          -1.117
REMARK INTER:                  -1.207
REMARK INTRA:                   0.090
REMARK UNBOUND:                -0.263
REMARK SMILES COc1cc(-c2oc3cc(O)cc(O)c3c(=O)c2O)ccc1O
REMARK SMILES IDX 6 1 18 2 16 3 17 4 15 5 13 6 12 7 10 8 9 9 8 10 7 11 5 12
REMARK SMILES IDX 3 13 22 14 4 15 21 16 20 17 2 18 1 19 23 20 19 22 14 24
REMARK SMILES IDX 11 26
REMARK H PARENT 23 21 19 23 14 25 11 27
REMARK Flexibility Score: inf
ROOT
ATOM      1  C   UNL     1      13.376 -13.052  29.466  1.00  0.00     0.180 A 
ATOM      2  C   UNL     1      13.494 -13.586  28.171  1.00  0.00     0.208 A 
ATOM      3  C   UNL     1      14.254 -14.752  27.982  1.00  0.00     0.238 A 
ATOM      4  O   UNL     1      14.311 -15.256  26.830  1.00  0.00    -0.285 OA
ATOM      5  C   UNL     1      14.901 -15.359  29.086  1.00  0.00     0.111 A 
ATOM      6  C   UNL     1      15.728 -16.518  29.003  1.00  0.00     0.134 A 
ATOM      7  C   UNL     1      16.211 -17.108  30.179  1.00  0.00     0.093 A 
ATOM      8  C   UNL     1      15.949 -16.541  31.428  1.00  0.00     0.123 A 
ATOM      9  C   UNL     1      15.191 -15.376  31.515  1.00  0.00     0.094 A 
ATOM     10  C   UNL     1      14.666 -14.784  30.363  1.00  0.00     0.146 A 
ATOM     11  O   UNL     1      13.940 -13.681  30.491  1.00  0.00    -0.452 OA
ENDROOT
BRANCH   1  12
ATOM     12  C   UNL     1      12.613 -11.813  29.740  1.00  0.00     0.025 A 
ATOM     13  C   UNL     1      12.454  -9.652  30.874  1.00  0.00     0.161 A 
ATOM     14  C   UNL     1      11.226  -9.418  30.242  1.00  0.00     0.157 A 
ATOM     15  C   UNL     1      13.148 -10.851  30.613  1.00  0.00     0.062 A 
ATOM     16  C   UNL     1      10.699 -10.366  29.355  1.00  0.00     0.051 A 
ATOM     17  C   UNL     1      11.391 -11.552  29.099  1.00  0.00     0.016 A 
BRANCH  13  18
ATOM     18  O   UNL     1      12.952  -8.676  31.751  1.00  0.00    -0.493 OA
ATOM     19  C   UNL     1      13.565  -8.955  33.006  1.00  0.00     0.278 C 
ENDBRANCH  13  18
BRANCH  14  20
ATOM     20  O   UNL     1      10.533  -8.236  30.497  1.00  0.00    -0.504 OA
ATOM     21  H   UNL     1       9.547  -8.238  30.728  1.00  0.00     0.293 HD
ENDBRANCH  14  20
ENDBRANCH   1  12
BRANCH   2  22
ATOM     22  O   UNL     1      12.829 -12.984  27.099  1.00  0.00    -0.502 OA
ATOM     23  H   UNL     1      12.957 -12.008  26.860  1.00  0.00     0.293 HD
ENDBRANCH   2  22
BRANCH   6  24
ATOM     24  O   UNL     1      16.126 -17.109  27.800  1.00  0.00    -0.507 OA
ATOM     25  H   UNL     1      16.139 -18.102  27.625  1.00  0.00     0.293 HD
ENDBRANCH   6  24
BRANCH   8  26
ATOM     26  O   UNL     1      16.446 -17.125  32.591  1.00  0.00    -0.508 OA
ATOM     27  H   UNL     1      16.727 -16.565  33.387  1.00  0.00     0.293 HD
ENDBRANCH   8  26
TORSDOF 6
ENDMDL
MODEL 4
REMARK VINA RESULT:     0.089      3.079      7.281
REMARK INTER + INTRA:          -0.153
REMARK INTER:                  -0.226
REMARK INTRA:                   0.073
REMARK UNBOUND:                -0.263
REMARK SMILES COc1cc(-c2oc3cc(O)cc(O)c3c(=O)c2O)ccc1O
REMARK SMILES IDX 6 1 18 2 16 3 17 4 15 5 13 6 12 7 10 8 9 9 8 10 7 11 5 12
REMARK SMILES IDX 3 13 22 14 4 15 21 16 20 17 2 18 1 19 23 20 19 22 14 24
REMARK SMILES IDX 11 26
REMARK H PARENT 23 21 19 23 14 25 11 27
REMARK Flexibility Score: inf
ROOT
ATOM      1  C   UNL     1      14.410 -11.971  28.280  1.00  0.00     0.180 A 
ATOM      2  C   UNL     1      14.301 -12.323  29.636  1.00  0.00     0.208 A 
ATOM      3  C   UNL     1      14.599 -13.639  30.025  1.00  0.00     0.238 A 
ATOM      4  O   UNL     1      14.553 -13.934  31.248  1.00  0.00    -0.285 OA
ATOM      5  C   UNL     1      14.983 -14.592  29.050  1.00  0.00     0.111 A 
ATOM      6  C   UNL     1      15.269 -15.962  29.324  1.00  0.00     0.134 A 
ATOM      7  C   UNL     1      15.766 -16.783  28.303  1.00  0.00     0.093 A 
ATOM      8  C   UNL     1      15.926 -16.297  27.003  1.00  0.00     0.123 A 
ATOM      9  C   UNL     1      15.594 -14.976  26.712  1.00  0.00     0.094 A 
ATOM     10  C   UNL     1      15.130 -14.123  27.717  1.00  0.00     0.146 A 
ATOM     11  O   UNL     1      14.836 -12.869  27.399  1.00  0.00    -0.452 OA
ENDROOT
BRANCH   1  12
ATOM     12  C   UNL     1      14.089 -10.610  27.791  1.00  0.00     0.025 A 
ATOM     13  C   UNL     1      14.795  -8.575  26.632  1.00  0.00     0.161 A 
ATOM     14  C   UNL     1      13.508  -8.046  26.793  1.00  0.00     0.157 A 
ATOM     15  C   UNL     1      15.078  -9.864  27.128  1.00  0.00     0.062 A 
ATOM     16  C   UNL     1      12.514  -8.795  27.436  1.00  0.00     0.051 A 
ATOM     17  C   UNL     1      12.800 -10.071  27.925  1.00  0.00     0.016 A 
BRANCH  13  18
ATOM     18  O   UNL     1      15.761  -7.797  25.978  1.00  0.00    -0.493 OA
ATOM     19  C   UNL     1      15.662  -7.354  24.627  1.00  0.00     0.278 C 
ENDBRANCH  13  18
BRANCH  14  20
ATOM     20  O   UNL     1      13.221  -6.771  26.307  1.00  0.00    -0.504 OA
ATOM     21  H   UNL     1      13.955  -6.137  26.016  1.00  0.00     0.293 HD
ENDBRANCH  14  20
ENDBRANCH   1  12
BRANCH   2  22
ATOM     22  O   UNL     1      13.942 -11.361  30.585  1.00  0.00    -0.502 OA
ATOM     23  H   UNL     1      13.046 -11.373  31.057  1.00  0.00     0.293 HD
ENDBRANCH   2  22
BRANCH   6  24
ATOM     24  O   UNL     1      15.056 -16.571  30.566  1.00  0.00    -0.507 OA
ATOM     25  H   UNL     1      14.662 -16.109  31.371  1.00  0.00     0.293 HD
ENDBRANCH   6  24
BRANCH   8  26
ATOM     26  O   UNL     1      16.406 -17.124  25.990  1.00  0.00    -0.508 OA
ATOM     27  H   UNL     1      16.258 -16.905  25.012  1.00  0.00     0.293 HD
ENDBRANCH   8  26
TORSDOF 6
ENDMDL
