MODEL 1
REMARK VINA RESULT:     8.505      0.000      0.000
REMARK INTER + INTRA:          15.465
REMARK INTER:                  16.460
REMARK INTRA:                  -0.995
REMARK UNBOUND:                -0.995
REMARK SMILES CCCCCCCCCCCCCCCCCC(=O)[O-]
REMARK SMILES IDX 10 1 11 2 12 3 13 4 14 5 15 6 16 7 17 8 18 9 19 10 20 11
REMARK SMILES IDX 9 12 8 13 7 14 6 15 5 16 4 17 3 18 2 19 1 20
REMARK H PARENT
REMARK Flexibility Score: inf
ROOT
ATOM      1  C   UNL     1      13.692  35.356  48.040  1.00  0.00     0.000 C 
ENDROOT
BRANCH   1   2
ATOM      2  C   UNL     1      15.054  35.726  48.636  1.00  0.00     0.000 C 
BRANCH   2   3
ATOM      3  C   UNL     1      15.301  34.979  49.953  1.00  0.00     0.000 C 
BRANCH   3   4
ATOM      4  C   UNL     1      15.206  33.459  49.747  1.00  0.00     0.000 C 
BRANCH   4   5
ATOM      5  C   UNL     1      15.856  32.663  50.891  1.00  0.00     0.000 C 
BRANCH   5   6
ATOM      6  C   UNL     1      15.727  31.143  50.698  1.00  0.00     0.000 C 
BRANCH   6   7
ATOM      7  C   UNL     1      14.341  30.612  51.101  1.00  0.00     0.006 C 
BRANCH   7   8
ATOM      8  C   UNL     1      13.536  30.089  49.902  1.00  0.00     0.053 C 
BRANCH   8   9
ATOM      9  C   UNL     1      13.235  28.633  50.074  1.00  0.00     0.041 C 
ATOM     10  O   UNL     1      13.495  28.055  51.162  1.00  0.00    -0.550 OA
ATOM     11  O   UNL     1      12.624  27.924  49.046  1.00  0.00    -0.550 OA
ENDBRANCH   8   9
ENDBRANCH   7   8
ENDBRANCH   6   7
ENDBRANCH   5   6
ENDBRANCH   4   5
ENDBRANCH   3   4
ENDBRANCH   2   3
ENDBRANCH   1   2
BRANCH   1  12
ATOM     12  C   UNL     1      12.952  36.603  47.539  1.00  0.00     0.000 C 
BRANCH  12  13
ATOM     13  C   UNL     1      13.762  37.874  47.821  1.00  0.00    -0.000 C 
BRANCH  13  14
ATOM     14  C   UNL     1      13.957  38.697  46.542  1.00  0.00    -0.000 C 
BRANCH  14  15
ATOM     15  C   UNL     1      15.146  39.661  46.686  1.00  0.00    -0.000 C 
BRANCH  15  16
ATOM     16  C   UNL     1      16.420  38.964  47.188  1.00  0.00    -0.000 C 
BRANCH  16  17
ATOM     17  C   UNL     1      17.261  38.367  46.046  1.00  0.00    -0.000 C 
BRANCH  17  18
ATOM     18  C   UNL     1      18.368  37.423  46.547  1.00  0.00    -0.000 C 
BRANCH  18  19
ATOM     19  C   UNL     1      19.644  38.124  47.048  1.00  0.00    -0.003 C 
ATOM     20  C   UNL     1      19.642  39.629  46.786  1.00  0.00     0.004 C 
ENDBRANCH  18  19
ENDBRANCH  17  18
ENDBRANCH  16  17
ENDBRANCH  15  16
ENDBRANCH  14  15
ENDBRANCH  13  14
ENDBRANCH  12  13
ENDBRANCH   1  12
TORSDOF 16
ENDMDL
MODEL 2
REMARK VINA RESULT:     8.612      0.629      1.124
REMARK INTER + INTRA:          15.672
REMARK INTER:                  16.699
REMARK INTRA:                  -1.027
REMARK UNBOUND:                -0.995
REMARK SMILES CCCCCCCCCCCCCCCCCC(=O)[O-]
REMARK SMILES IDX 10 1 11 2 12 3 13 4 14 5 15 6 16 7 17 8 18 9 19 10 20 11
REMARK SMILES IDX 9 12 8 13 7 14 6 15 5 16 4 17 3 18 2 19 1 20
REMARK H PARENT
REMARK Flexibility Score: inf
ROOT
ATOM      1  C   UNL     1      13.240  35.922  47.465  1.00  0.00     0.000 C 
ENDROOT
BRANCH   1   2
ATOM      2  C   UNL     1      13.687  34.937  48.552  1.00  0.00     0.000 C 
BRANCH   2   3
ATOM      3  C   UNL     1      15.000  35.392  49.201  1.00  0.00     0.000 C 
BRANCH   3   4
ATOM      4  C   UNL     1      15.520  34.334  50.187  1.00  0.00     0.000 C 
BRANCH   4   5
ATOM      5  C   UNL     1      15.156  32.901  49.765  1.00  0.00     0.000 C 
BRANCH   5   6
ATOM      6  C   UNL     1      15.694  31.845  50.746  1.00  0.00     0.000 C 
BRANCH   6   7
ATOM      7  C   UNL     1      14.651  30.767  51.083  1.00  0.00     0.006 C 
BRANCH   7   8
ATOM      8  C   UNL     1      13.792  30.376  49.873  1.00  0.00     0.053 C 
BRANCH   8   9
ATOM      9  C   UNL     1      13.355  28.949  49.984  1.00  0.00     0.041 C 
ATOM     10  O   UNL     1      12.899  28.345  48.978  1.00  0.00    -0.550 OA
ATOM     11  O   UNL     1      13.492  28.272  51.190  1.00  0.00    -0.550 OA
ENDBRANCH   8   9
ENDBRANCH   7   8
ENDBRANCH   6   7
ENDBRANCH   5   6
ENDBRANCH   4   5
ENDBRANCH   3   4
ENDBRANCH   2   3
ENDBRANCH   1   2
BRANCH   1  12
ATOM     12  C   UNL     1      13.717  37.345  47.780  1.00  0.00     0.000 C 
BRANCH  12  13
ATOM     13  C   UNL     1      13.390  38.303  46.628  1.00  0.00    -0.000 C 
BRANCH  13  14
ATOM     14  C   UNL     1      13.967  39.699  46.892  1.00  0.00    -0.000 C 
BRANCH  14  15
ATOM     15  C   UNL     1      15.396  39.605  47.450  1.00  0.00    -0.000 C 
BRANCH  15  16
ATOM     16  C   UNL     1      16.404  39.070  46.420  1.00  0.00    -0.000 C 
BRANCH  16  17
ATOM     17  C   UNL     1      17.162  37.828  46.921  1.00  0.00    -0.000 C 
BRANCH  17  18
ATOM     18  C   UNL     1      18.531  37.648  46.242  1.00  0.00    -0.000 C 
BRANCH  18  19
ATOM     19  C   UNL     1      19.720  38.272  46.996  1.00  0.00    -0.003 C 
ATOM     20  C   UNL     1      19.804  39.789  46.830  1.00  0.00     0.004 C 
ENDBRANCH  18  19
ENDBRANCH  17  18
ENDBRANCH  16  17
ENDBRANCH  15  16
ENDBRANCH  14  15
ENDBRANCH  13  14
ENDBRANCH  12  13
ENDBRANCH   1  12
TORSDOF 16
ENDMDL
MODEL 3
REMARK VINA RESULT:     8.736      4.090      8.965
REMARK INTER + INTRA:          15.913
REMARK INTER:                  17.110
REMARK INTRA:                  -1.197
REMARK UNBOUND:                -0.995
REMARK SMILES CCCCCCCCCCCCCCCCCC(=O)[O-]
REMARK SMILES IDX 10 1 11 2 12 3 13 4 14 5 15 6 16 7 17 8 18 9 19 10 20 11
REMARK SMILES IDX 9 12 8 13 7 14 6 15 5 16 4 17 3 18 2 19 1 20
REMARK H PARENT
REMARK Flexibility Score: inf
ROOT
ATOM      1  C   UNL     1      13.777  35.097  48.184  1.00  0.00     0.000 C 
ENDROOT
BRANCH   1   2
ATOM      2  C   UNL     1      13.000  36.295  47.627  1.00  0.00     0.000 C 
BRANCH   2   3
ATOM      3  C   UNL     1      13.813  37.588  47.757  1.00  0.00     0.000 C 
BRANCH   3   4
ATOM      4  C   UNL     1      13.485  38.560  46.612  1.00  0.00     0.000 C 
BRANCH   4   5
ATOM      5  C   UNL     1      14.344  39.835  46.653  1.00  0.00     0.000 C 
BRANCH   5   6
ATOM      6  C   UNL     1      15.762  39.573  47.188  1.00  0.00     0.000 C 
BRANCH   6   7
ATOM      7  C   UNL     1      16.666  38.884  46.152  1.00  0.00     0.006 C 
BRANCH   7   8
ATOM      8  C   UNL     1      17.469  37.719  46.748  1.00  0.00     0.053 C 
BRANCH   8   9
ATOM      9  C   UNL     1      18.926  38.057  46.784  1.00  0.00     0.041 C 
ATOM     10  O   UNL     1      19.791  37.142  46.741  1.00  0.00    -0.550 OA
ATOM     11  O   UNL     1      19.331  39.386  46.820  1.00  0.00    -0.550 OA
ENDBRANCH   8   9
ENDBRANCH   7   8
ENDBRANCH   6   7
ENDBRANCH   5   6
ENDBRANCH   4   5
ENDBRANCH   3   4
ENDBRANCH   2   3
ENDBRANCH   1   2
BRANCH   1  12
ATOM     12  C   UNL     1      15.074  35.550  48.866  1.00  0.00     0.000 C 
BRANCH  12  13
ATOM     13  C   UNL     1      15.394  34.670  50.080  1.00  0.00    -0.000 C 
BRANCH  13  14
ATOM     14  C   UNL     1      15.230  33.183  49.742  1.00  0.00    -0.000 C 
BRANCH  14  15
ATOM     15  C   UNL     1      15.643  32.301  50.932  1.00  0.00    -0.000 C 
BRANCH  15  16
ATOM     16  C   UNL     1      15.144  30.853  50.801  1.00  0.00    -0.000 C 
BRANCH  16  17
ATOM     17  C   UNL     1      13.738  30.763  50.183  1.00  0.00    -0.000 C 
BRANCH  17  18
ATOM     18  C   UNL     1      13.307  29.316  49.885  1.00  0.00    -0.000 C 
BRANCH  18  19
ATOM     19  C   UNL     1      14.032  28.237  50.710  1.00  0.00    -0.003 C 
ATOM     20  C   UNL     1      13.343  27.936  52.041  1.00  0.00     0.004 C 
ENDBRANCH  18  19
ENDBRANCH  17  18
ENDBRANCH  16  17
ENDBRANCH  15  16
ENDBRANCH  14  15
ENDBRANCH  13  14
ENDBRANCH  12  13
ENDBRANCH   1  12
TORSDOF 16
ENDMDL
MODEL 4
REMARK VINA RESULT:     8.749      4.015      9.030
REMARK INTER + INTRA:          15.937
REMARK INTER:                  17.025
REMARK INTRA:                  -1.088
REMARK UNBOUND:                -0.995
REMARK SMILES CCCCCCCCCCCCCCCCCC(=O)[O-]
REMARK SMILES IDX 10 1 11 2 12 3 13 4 14 5 15 6 16 7 17 8 18 9 19 10 20 11
REMARK SMILES IDX 9 12 8 13 7 14 6 15 5 16 4 17 3 18 2 19 1 20
REMARK H PARENT
REMARK Flexibility Score: inf
ROOT
ATOM      1  C   UNL     1      14.049  34.858  48.206  1.00  0.00     0.000 C 
ENDROOT
BRANCH   1   2
ATOM      2  C   UNL     1      13.112  36.033  47.905  1.00  0.00     0.000 C 
BRANCH   2   3
ATOM      3  C   UNL     1      13.884  37.358  47.871  1.00  0.00     0.000 C 
BRANCH   3   4
ATOM      4  C   UNL     1      13.341  38.280  46.768  1.00  0.00     0.000 C 
BRANCH   4   5
ATOM      5  C   UNL     1      14.204  39.538  46.569  1.00  0.00     0.000 C 
BRANCH   5   6
ATOM      6  C   UNL     1      15.608  39.391  47.179  1.00  0.00     0.000 C 
BRANCH   6   7
ATOM      7  C   UNL     1      16.629  38.822  46.180  1.00  0.00     0.006 C 
BRANCH   7   8
ATOM      8  C   UNL     1      17.384  37.605  46.733  1.00  0.00     0.053 C 
BRANCH   8   9
ATOM      9  C   UNL     1      18.861  37.827  46.652  1.00  0.00     0.041 C 
ATOM     10  O   UNL     1      19.354  38.942  46.968  1.00  0.00    -0.550 OA
ATOM     11  O   UNL     1      19.701  36.787  46.270  1.00  0.00    -0.550 OA
ENDBRANCH   8   9
ENDBRANCH   7   8
ENDBRANCH   6   7
ENDBRANCH   5   6
ENDBRANCH   4   5
ENDBRANCH   3   4
ENDBRANCH   2   3
ENDBRANCH   1   2
BRANCH   1  12
ATOM     12  C   UNL     1      15.149  35.268  49.193  1.00  0.00     0.000 C 
BRANCH  12  13
ATOM     13  C   UNL     1      15.279  34.246  50.329  1.00  0.00    -0.000 C 
BRANCH  13  14
ATOM     14  C   UNL     1      15.700  32.874  49.790  1.00  0.00    -0.000 C 
BRANCH  14  15
ATOM     15  C   UNL     1      15.340  31.759  50.786  1.00  0.00    -0.000 C 
BRANCH  15  16
ATOM     16  C   UNL     1      14.179  30.877  50.298  1.00  0.00    -0.000 C 
BRANCH  16  17
ATOM     17  C   UNL     1      13.948  29.650  51.198  1.00  0.00    -0.000 C 
BRANCH  17  18
ATOM     18  C   UNL     1      13.616  28.376  50.399  1.00  0.00    -0.000 C 
BRANCH  18  19
ATOM     19  C   UNL     1      12.994  28.621  49.012  1.00  0.00    -0.003 C 
ATOM     20  C   UNL     1      11.824  27.687  48.707  1.00  0.00     0.004 C 
ENDBRANCH  18  19
ENDBRANCH  17  18
ENDBRANCH  16  17
ENDBRANCH  15  16
ENDBRANCH  14  15
ENDBRANCH  13  14
ENDBRANCH  12  13
ENDBRANCH   1  12
TORSDOF 16
ENDMDL
MODEL 5
REMARK VINA RESULT:     9.281      4.566      7.197
REMARK INTER + INTRA:          16.966
REMARK INTER:                  18.152
REMARK INTRA:                  -1.186
REMARK UNBOUND:                -0.995
REMARK SMILES CCCCCCCCCCCCCCCCCC(=O)[O-]
REMARK SMILES IDX 10 1 11 2 12 3 13 4 14 5 15 6 16 7 17 8 18 9 19 10 20 11
REMARK SMILES IDX 9 12 8 13 7 14 6 15 5 16 4 17 3 18 2 19 1 20
REMARK H PARENT
REMARK Flexibility Score: inf
ROOT
ATOM      1  C   UNL     1      16.290  39.476  47.452  1.00  0.00     0.000 C 
ENDROOT
BRANCH   1   2
ATOM      2  C   UNL     1      16.266  38.623  46.179  1.00  0.00     0.000 C 
BRANCH   2   3
ATOM      3  C   UNL     1      17.685  38.380  45.652  1.00  0.00     0.000 C 
BRANCH   3   4
ATOM      4  C   UNL     1      18.725  39.107  46.520  1.00  0.00     0.000 C 
BRANCH   4   5
ATOM      5  C   UNL     1      19.926  38.216  46.878  1.00  0.00     0.000 C 
BRANCH   5   6
ATOM      6  C   UNL     1      19.505  36.785  47.254  1.00  0.00     0.000 C 
BRANCH   6   7
ATOM      7  C   UNL     1      20.259  35.716  46.447  1.00  0.00     0.006 C 
BRANCH   7   8
ATOM      8  C   UNL     1      20.309  36.034  44.945  1.00  0.00     0.053 C 
BRANCH   8   9
ATOM      9  C   UNL     1      21.039  34.956  44.209  1.00  0.00     0.041 C 
ATOM     10  O   UNL     1      21.344  33.883  44.792  1.00  0.00    -0.550 OA
ATOM     11  O   UNL     1      21.344  35.118  42.862  1.00  0.00    -0.550 OA
ENDBRANCH   8   9
ENDBRANCH   7   8
ENDBRANCH   6   7
ENDBRANCH   5   6
ENDBRANCH   4   5
ENDBRANCH   3   4
ENDBRANCH   2   3
ENDBRANCH   1   2
BRANCH   1  12
ATOM     12  C   UNL     1      14.896  40.031  47.771  1.00  0.00     0.000 C 
BRANCH  12  13
ATOM     13  C   UNL     1      14.017  40.068  46.515  1.00  0.00    -0.000 C 
BRANCH  13  14
ATOM     14  C   UNL     1      13.116  38.830  46.436  1.00  0.00    -0.000 C 
BRANCH  14  15
ATOM     15  C   UNL     1      13.355  37.901  47.638  1.00  0.00    -0.000 C 
BRANCH  15  16
ATOM     16  C   UNL     1      12.944  36.446  47.357  1.00  0.00    -0.000 C 
BRANCH  16  17
ATOM     17  C   UNL     1      13.824  35.427  48.103  1.00  0.00    -0.000 C 
BRANCH  17  18
ATOM     18  C   UNL     1      15.126  36.044  48.645  1.00  0.00    -0.000 C 
BRANCH  18  19
ATOM     19  C   UNL     1      15.515  35.599  50.067  1.00  0.00    -0.003 C 
ATOM     20  C   UNL     1      16.432  36.595  50.776  1.00  0.00     0.004 C 
ENDBRANCH  18  19
ENDBRANCH  17  18
ENDBRANCH  16  17
ENDBRANCH  15  16
ENDBRANCH  14  15
ENDBRANCH  13  14
ENDBRANCH  12  13
ENDBRANCH   1  12
TORSDOF 16
ENDMDL
MODEL 6
REMARK VINA RESULT:     9.901      3.499      5.983
REMARK INTER + INTRA:          18.168
REMARK INTER:                  19.379
REMARK INTRA:                  -1.212
REMARK UNBOUND:                -0.995
REMARK SMILES CCCCCCCCCCCCCCCCCC(=O)[O-]
REMARK SMILES IDX 10 1 11 2 12 3 13 4 14 5 15 6 16 7 17 8 18 9 19 10 20 11
REMARK SMILES IDX 9 12 8 13 7 14 6 15 5 16 4 17 3 18 2 19 1 20
REMARK H PARENT
REMARK Flexibility Score: inf
ROOT
ATOM      1  C   UNL     1      16.083  39.184  45.964  1.00  0.00     0.000 C 
ENDROOT
BRANCH   1   2
ATOM      2  C   UNL     1      15.162  39.946  46.924  1.00  0.00     0.000 C 
BRANCH   2   3
ATOM      3  C   UNL     1      13.748  40.074  46.345  1.00  0.00     0.000 C 
BRANCH   3   4
ATOM      4  C   UNL     1      13.004  38.731  46.411  1.00  0.00     0.000 C 
BRANCH   4   5
ATOM      5  C   UNL     1      13.443  37.867  47.606  1.00  0.00     0.000 C 
BRANCH   5   6
ATOM      6  C   UNL     1      13.044  36.391  47.442  1.00  0.00     0.000 C 
BRANCH   6   7
ATOM      7  C   UNL     1      14.002  35.436  48.173  1.00  0.00     0.006 C 
BRANCH   7   8
ATOM      8  C   UNL     1      15.277  36.137  48.662  1.00  0.00     0.053 C 
BRANCH   8   9
ATOM      9  C   UNL     1      15.679  35.609  50.003  1.00  0.00     0.041 C 
ATOM     10  O   UNL     1      16.278  36.353  50.825  1.00  0.00    -0.550 OA
ATOM     11  O   UNL     1      15.351  34.308  50.365  1.00  0.00    -0.550 OA
ENDBRANCH   8   9
ENDBRANCH   7   8
ENDBRANCH   6   7
ENDBRANCH   5   6
ENDBRANCH   4   5
ENDBRANCH   3   4
ENDBRANCH   2   3
ENDBRANCH   1   2
BRANCH   1  12
ATOM     12  C   UNL     1      17.209  38.476  46.726  1.00  0.00     0.000 C 
BRANCH  12  13
ATOM     13  C   UNL     1      18.487  39.324  46.734  1.00  0.00    -0.000 C 
BRANCH  13  14
ATOM     14  C   UNL     1      19.727  38.450  46.959  1.00  0.00    -0.000 C 
BRANCH  14  15
ATOM     15  C   UNL     1      19.335  36.970  47.102  1.00  0.00    -0.000 C 
BRANCH  15  16
ATOM     16  C   UNL     1      20.428  36.013  46.596  1.00  0.00    -0.000 C 
BRANCH  16  17
ATOM     17  C   UNL     1      20.286  35.689  45.099  1.00  0.00    -0.000 C 
BRANCH  17  18
ATOM     18  C   UNL     1      20.907  34.333  44.719  1.00  0.00    -0.000 C 
BRANCH  18  19
ATOM     19  C   UNL     1      21.222  34.157  43.222  1.00  0.00    -0.003 C 
ATOM     20  C   UNL     1      21.958  35.354  42.621  1.00  0.00     0.004 C 
ENDBRANCH  18  19
ENDBRANCH  17  18
ENDBRANCH  16  17
ENDBRANCH  15  16
ENDBRANCH  14  15
ENDBRANCH  13  14
ENDBRANCH  12  13
ENDBRANCH   1  12
TORSDOF 16
ENDMDL
MODEL 7
REMARK VINA RESULT:    10.292      3.539      6.113
REMARK INTER + INTRA:          18.924
REMARK INTER:                  18.873
REMARK INTRA:                   0.051
REMARK UNBOUND:                -0.995
REMARK SMILES CCCCCCCCCCCCCCCCCC(=O)[O-]
REMARK SMILES IDX 10 1 11 2 12 3 13 4 14 5 15 6 16 7 17 8 18 9 19 10 20 11
REMARK SMILES IDX 9 12 8 13 7 14 6 15 5 16 4 17 3 18 2 19 1 20
REMARK H PARENT
REMARK Flexibility Score: inf
ROOT
ATOM      1  C   UNL     1      16.192  38.735  46.362  1.00  0.00     0.000 C 
ENDROOT
BRANCH   1   2
ATOM      2  C   UNL     1      16.017  39.539  47.655  1.00  0.00     0.000 C 
BRANCH   2   3
ATOM      3  C   UNL     1      14.603  40.124  47.754  1.00  0.00     0.000 C 
BRANCH   3   4
ATOM      4  C   UNL     1      13.905  40.105  46.385  1.00  0.00     0.000 C 
BRANCH   4   5
ATOM      5  C   UNL     1      12.779  39.060  46.307  1.00  0.00     0.000 C 
BRANCH   5   6
ATOM      6  C   UNL     1      13.299  37.622  46.469  1.00  0.00     0.000 C 
BRANCH   6   7
ATOM      7  C   UNL     1      13.155  37.101  47.908  1.00  0.00     0.006 C 
BRANCH   7   8
ATOM      8  C   UNL     1      13.867  35.758  48.126  1.00  0.00     0.053 C 
BRANCH   8   9
ATOM      9  C   UNL     1      12.992  34.627  47.685  1.00  0.00     0.041 C 
ATOM     10  O   UNL     1      12.453  33.873  48.537  1.00  0.00    -0.550 OA
ATOM     11  O   UNL     1      12.735  34.433  46.333  1.00  0.00    -0.550 OA
ENDBRANCH   8   9
ENDBRANCH   7   8
ENDBRANCH   6   7
ENDBRANCH   5   6
ENDBRANCH   4   5
ENDBRANCH   3   4
ENDBRANCH   2   3
ENDBRANCH   1   2
BRANCH   1  12
ATOM     12  C   UNL     1      17.638  38.251  46.205  1.00  0.00     0.000 C 
BRANCH  12  13
ATOM     13  C   UNL     1      18.595  39.086  47.065  1.00  0.00    -0.000 C 
BRANCH  13  14
ATOM     14  C   UNL     1      20.055  38.701  46.797  1.00  0.00    -0.000 C 
BRANCH  14  15
ATOM     15  C   UNL     1      20.345  37.273  47.288  1.00  0.00    -0.000 C 
BRANCH  15  16
ATOM     16  C   UNL     1      19.726  36.195  46.384  1.00  0.00    -0.000 C 
BRANCH  16  17
ATOM     17  C   UNL     1      20.400  36.120  45.003  1.00  0.00    -0.000 C 
BRANCH  17  18
ATOM     18  C   UNL     1      20.811  34.688  44.615  1.00  0.00    -0.000 C 
BRANCH  18  19
ATOM     19  C   UNL     1      21.126  34.483  43.122  1.00  0.00    -0.003 C 
ATOM     20  C   UNL     1      22.515  33.892  42.879  1.00  0.00     0.004 C 
ENDBRANCH  18  19
ENDBRANCH  17  18
ENDBRANCH  16  17
ENDBRANCH  15  16
ENDBRANCH  14  15
ENDBRANCH  13  14
ENDBRANCH  12  13
ENDBRANCH   1  12
TORSDOF 16
ENDMDL
