MODEL 1
REMARK VINA RESULT:    -3.078      0.000      0.000
REMARK INTER + INTRA:          -3.585
REMARK INTER:                  -3.527
REMARK INTRA:                  -0.058
REMARK UNBOUND:                -0.058
REMARK SMILES CC(C)[C@H]([NH3+])C(=O)[O-]
REMARK SMILES IDX 4 1 5 2 6 6 7 7 8 8 2 9 1 10 3 11
REMARK H PARENT 5 3 5 4 5 5
REMARK Flexibility Score: inf
ROOT
ATOM      1  C   UNL     1      46.463  19.280  77.771  1.00  0.00     0.230 C 
ENDROOT
BRANCH   1   2
ATOM      2  N   UNL     1      47.167  18.406  78.722  1.00  0.00    -0.350 N 
ATOM      3  H   UNL     1      48.183  18.352  78.476  1.00  0.00     0.345 HD
ATOM      4  H   UNL     1      46.787  17.433  78.669  1.00  0.00     0.345 HD
ATOM      5  H   UNL     1      47.071  18.767  79.699  1.00  0.00     0.345 HD
ENDBRANCH   1   2
BRANCH   1   6
ATOM      6  C   UNL     1      45.514  20.179  78.523  1.00  0.00     0.099 C 
ATOM      7  O   UNL     1      45.952  21.148  79.198  1.00  0.00    -0.544 OA
ATOM      8  O   UNL     1      44.147  19.936  78.481  1.00  0.00    -0.544 OA
ENDBRANCH   1   6
BRANCH   1   9
ATOM      9  C   UNL     1      45.705  18.460  76.680  1.00  0.00     0.047 C 
ATOM     10  C   UNL     1      46.147  18.873  75.265  1.00  0.00     0.014 C 
ATOM     11  C   UNL     1      45.916  16.946  76.852  1.00  0.00     0.014 C 
ENDBRANCH   1   9
TORSDOF 3
ENDMDL
MODEL 2
REMARK VINA RESULT:    -3.007      2.825      3.312
REMARK INTER + INTRA:          -3.504
REMARK INTER:                  -3.466
REMARK INTRA:                  -0.038
REMARK UNBOUND:                -0.058
REMARK SMILES CC(C)[C@H]([NH3+])C(=O)[O-]
REMARK SMILES IDX 4 1 5 2 6 6 7 7 8 8 2 9 1 10 3 11
REMARK H PARENT 5 3 5 4 5 5
REMARK Flexibility Score: inf
ROOT
ATOM      1  C   UNL     1      46.107  19.246  75.477  1.00  0.00     0.230 C 
ENDROOT
BRANCH   1   2
ATOM      2  N   UNL     1      46.312  18.224  74.439  1.00  0.00    -0.350 N 
ATOM      3  H   UNL     1      45.458  17.624  74.351  1.00  0.00     0.345 HD
ATOM      4  H   UNL     1      47.104  17.594  74.702  1.00  0.00     0.345 HD
ATOM      5  H   UNL     1      46.511  18.670  73.513  1.00  0.00     0.345 HD
ENDBRANCH   1   2
BRANCH   1   6
ATOM      6  C   UNL     1      47.174  20.305  75.357  1.00  0.00     0.099 C 
ATOM      7  O   UNL     1      47.917  20.578  76.337  1.00  0.00    -0.544 OA
ATOM      8  O   UNL     1      47.338  20.993  74.161  1.00  0.00    -0.544 OA
ENDBRANCH   1   6
BRANCH   1   9
ATOM      9  C   UNL     1      46.100  18.625  76.909  1.00  0.00     0.047 C 
ATOM     10  C   UNL     1      45.049  19.305  77.805  1.00  0.00     0.014 C 
ATOM     11  C   UNL     1      45.828  17.111  76.876  1.00  0.00     0.014 C 
ENDBRANCH   1   9
TORSDOF 3
ENDMDL
MODEL 3
REMARK VINA RESULT:    -2.973      2.147      3.393
REMARK INTER + INTRA:          -3.465
REMARK INTER:                  -3.408
REMARK INTRA:                  -0.057
REMARK UNBOUND:                -0.058
REMARK SMILES CC(C)[C@H]([NH3+])C(=O)[O-]
REMARK SMILES IDX 4 1 5 2 6 6 7 7 8 8 2 9 1 10 3 11
REMARK H PARENT 5 3 5 4 5 5
REMARK Flexibility Score: inf
ROOT
ATOM      1  C   UNL     1      45.783  18.660  77.842  1.00  0.00     0.230 C 
ENDROOT
BRANCH   1   2
ATOM      2  N   UNL     1      47.053  18.441  78.551  1.00  0.00    -0.350 N 
ATOM      3  H   UNL     1      47.016  18.885  79.499  1.00  0.00     0.345 HD
ATOM      4  H   UNL     1      47.840  18.892  78.032  1.00  0.00     0.345 HD
ATOM      5  H   UNL     1      47.245  17.418  78.661  1.00  0.00     0.345 HD
ENDBRANCH   1   2
BRANCH   1   6
ATOM      6  C   UNL     1      45.936  18.246  76.400  1.00  0.00     0.099 C 
ATOM      7  O   UNL     1      45.938  17.027  76.081  1.00  0.00    -0.544 OA
ATOM      8  O   UNL     1      46.085  19.212  75.412  1.00  0.00    -0.544 OA
ENDBRANCH   1   6
BRANCH   1   9
ATOM      9  C   UNL     1      45.308  20.143  77.946  1.00  0.00     0.047 C 
ATOM     10  C   UNL     1      43.871  20.229  78.491  1.00  0.00     0.014 C 
ATOM     11  C   UNL     1      46.236  20.981  78.842  1.00  0.00     0.014 C 
ENDBRANCH   1   9
TORSDOF 3
ENDMDL
MODEL 4
REMARK VINA RESULT:    -2.943      2.236      3.320
REMARK INTER + INTRA:          -3.431
REMARK INTER:                  -3.371
REMARK INTRA:                  -0.060
REMARK UNBOUND:                -0.058
REMARK SMILES CC(C)[C@H]([NH3+])C(=O)[O-]
REMARK SMILES IDX 4 1 5 2 6 6 7 7 8 8 2 9 1 10 3 11
REMARK H PARENT 5 3 5 4 5 5
REMARK Flexibility Score: inf
ROOT
ATOM      1  C   UNL     1      46.215  18.638  78.010  1.00  0.00     0.230 C 
ENDROOT
BRANCH   1   2
ATOM      2  N   UNL     1      47.288  17.951  78.745  1.00  0.00    -0.350 N 
ATOM      3  H   UNL     1      46.935  17.626  79.675  1.00  0.00     0.345 HD
ATOM      4  H   UNL     1      48.079  18.609  78.929  1.00  0.00     0.345 HD
ATOM      5  H   UNL     1      47.636  17.125  78.205  1.00  0.00     0.345 HD
ENDBRANCH   1   2
BRANCH   1   6
ATOM      6  C   UNL     1      45.935  17.901  76.724  1.00  0.00     0.099 C 
ATOM      7  O   UNL     1      45.701  16.663  76.735  1.00  0.00    -0.544 OA
ATOM      8  O   UNL     1      45.942  18.586  75.515  1.00  0.00    -0.544 OA
ENDBRANCH   1   6
BRANCH   1   9
ATOM      9  C   UNL     1      46.569  20.132  77.728  1.00  0.00     0.047 C 
ATOM     10  C   UNL     1      45.742  21.077  78.618  1.00  0.00     0.014 C 
ATOM     11  C   UNL     1      48.065  20.417  77.944  1.00  0.00     0.014 C 
ENDBRANCH   1   9
TORSDOF 3
ENDMDL
MODEL 5
REMARK VINA RESULT:    -2.865      7.061      7.965
REMARK INTER + INTRA:          -3.342
REMARK INTER:                  -3.366
REMARK INTRA:                   0.024
REMARK UNBOUND:                -0.058
REMARK SMILES CC(C)[C@H]([NH3+])C(=O)[O-]
REMARK SMILES IDX 4 1 5 2 6 6 7 7 8 8 2 9 1 10 3 11
REMARK H PARENT 5 3 5 4 5 5
REMARK Flexibility Score: inf
ROOT
ATOM      1  C   UNL     1      38.963  19.184  80.370  1.00  0.00     0.230 C 
ENDROOT
BRANCH   1   2
ATOM      2  N   UNL     1      38.690  18.049  79.475  1.00  0.00    -0.350 N 
ATOM      3  H   UNL     1      39.586  17.573  79.215  1.00  0.00     0.345 HD
ATOM      4  H   UNL     1      38.252  18.385  78.587  1.00  0.00     0.345 HD
ATOM      5  H   UNL     1      38.058  17.355  79.938  1.00  0.00     0.345 HD
ENDBRANCH   1   2
BRANCH   1   6
ATOM      6  C   UNL     1      37.666  19.684  80.957  1.00  0.00     0.099 C 
ATOM      7  O   UNL     1      37.435  19.565  82.190  1.00  0.00    -0.544 OA
ATOM      8  O   UNL     1      36.713  20.272  80.135  1.00  0.00    -0.544 OA
ENDBRANCH   1   6
BRANCH   1   9
ATOM      9  C   UNL     1      39.719  20.335  79.635  1.00  0.00     0.047 C 
ATOM     10  C   UNL     1      39.685  21.636  80.455  1.00  0.00     0.014 C 
ATOM     11  C   UNL     1      41.182  19.963  79.341  1.00  0.00     0.014 C 
ENDBRANCH   1   9
TORSDOF 3
ENDMDL
MODEL 6
REMARK VINA RESULT:    -2.836     17.418     17.996
REMARK INTER + INTRA:          -3.308
REMARK INTER:                  -3.239
REMARK INTRA:                  -0.070
REMARK UNBOUND:                -0.058
REMARK SMILES CC(C)[C@H]([NH3+])C(=O)[O-]
REMARK SMILES IDX 4 1 5 2 6 6 7 7 8 8 2 9 1 10 3 11
REMARK H PARENT 5 3 5 4 5 5
REMARK Flexibility Score: inf
ROOT
ATOM      1  C   UNL     1      48.986  34.580  85.387  1.00  0.00     0.230 C 
ENDROOT
BRANCH   1   2
ATOM      2  N   UNL     1      48.292  35.664  84.674  1.00  0.00    -0.350 N 
ATOM      3  H   UNL     1      48.886  36.526  84.664  1.00  0.00     0.345 HD
ATOM      4  H   UNL     1      47.403  35.910  85.166  1.00  0.00     0.345 HD
ATOM      5  H   UNL     1      48.082  35.384  83.688  1.00  0.00     0.345 HD
ENDBRANCH   1   2
BRANCH   1   6
ATOM      6  C   UNL     1      48.823  34.773  86.874  1.00  0.00     0.099 C 
ATOM      7  O   UNL     1      48.280  33.880  87.578  1.00  0.00    -0.544 OA
ATOM      8  O   UNL     1      49.265  35.945  87.475  1.00  0.00    -0.544 OA
ENDBRANCH   1   6
BRANCH   1   9
ATOM      9  C   UNL     1      50.496  34.503  84.999  1.00  0.00     0.047 C 
ATOM     10  C   UNL     1      51.181  33.297  85.666  1.00  0.00     0.014 C 
ATOM     11  C   UNL     1      50.692  34.415  83.476  1.00  0.00     0.014 C 
ENDBRANCH   1   9
TORSDOF 3
ENDMDL
MODEL 7
REMARK VINA RESULT:    -2.803     12.269     12.713
REMARK INTER + INTRA:          -3.270
REMARK INTER:                  -3.210
REMARK INTRA:                  -0.060
REMARK UNBOUND:                -0.058
REMARK SMILES CC(C)[C@H]([NH3+])C(=O)[O-]
REMARK SMILES IDX 4 1 5 2 6 6 7 7 8 8 2 9 1 10 3 11
REMARK H PARENT 5 3 5 4 5 5
REMARK Flexibility Score: inf
ROOT
ATOM      1  C   UNL     1      55.392  18.307  86.874  1.00  0.00     0.230 C 
ENDROOT
BRANCH   1   2
ATOM      2  N   UNL     1      55.381  17.706  88.217  1.00  0.00    -0.350 N 
ATOM      3  H   UNL     1      55.533  16.672  88.149  1.00  0.00     0.345 HD
ATOM      4  H   UNL     1      54.450  17.851  88.670  1.00  0.00     0.345 HD
ATOM      5  H   UNL     1      56.132  18.122  88.815  1.00  0.00     0.345 HD
ENDBRANCH   1   2
BRANCH   1   6
ATOM      6  C   UNL     1      54.192  19.208  86.718  1.00  0.00     0.099 C 
ATOM      7  O   UNL     1      54.244  20.412  87.086  1.00  0.00    -0.544 OA
ATOM      8  O   UNL     1      53.015  18.709  86.173  1.00  0.00    -0.544 OA
ENDBRANCH   1   6
BRANCH   1   9
ATOM      9  C   UNL     1      55.422  17.223  85.752  1.00  0.00     0.047 C 
ATOM     10  C   UNL     1      56.125  17.750  84.488  1.00  0.00     0.014 C 
ATOM     11  C   UNL     1      56.123  15.936  86.219  1.00  0.00     0.014 C 
ENDBRANCH   1   9
TORSDOF 3
ENDMDL
MODEL 8
REMARK VINA RESULT:    -2.745     11.174     11.980
REMARK INTER + INTRA:          -3.204
REMARK INTER:                  -3.128
REMARK INTRA:                  -0.077
REMARK UNBOUND:                -0.058
REMARK SMILES CC(C)[C@H]([NH3+])C(=O)[O-]
REMARK SMILES IDX 4 1 5 2 6 6 7 7 8 8 2 9 1 10 3 11
REMARK H PARENT 5 3 5 4 5 5
REMARK Flexibility Score: inf
ROOT
ATOM      1  C   UNL     1      54.844  17.958  84.742  1.00  0.00     0.230 C 
ENDROOT
BRANCH   1   2
ATOM      2  N   UNL     1      56.043  18.643  84.233  1.00  0.00    -0.350 N 
ATOM      3  H   UNL     1      56.346  19.384  84.908  1.00  0.00     0.345 HD
ATOM      4  H   UNL     1      55.829  19.121  83.328  1.00  0.00     0.345 HD
ATOM      5  H   UNL     1      56.828  17.965  84.095  1.00  0.00     0.345 HD
ENDBRANCH   1   2
BRANCH   1   6
ATOM      6  C   UNL     1      53.686  18.924  84.767  1.00  0.00     0.099 C 
ATOM      7  O   UNL     1      53.828  20.103  84.344  1.00  0.00    -0.544 OA
ATOM      8  O   UNL     1      52.454  18.519  85.266  1.00  0.00    -0.544 OA
ENDBRANCH   1   6
BRANCH   1   9
ATOM      9  C   UNL     1      55.084  17.341  86.155  1.00  0.00     0.047 C 
ATOM     10  C   UNL     1      56.124  16.208  86.098  1.00  0.00     0.014 C 
ATOM     11  C   UNL     1      55.547  18.399  87.171  1.00  0.00     0.014 C 
ENDBRANCH   1   9
TORSDOF 3
ENDMDL
MODEL 9
REMARK VINA RESULT:    -2.743     11.427     12.140
REMARK INTER + INTRA:          -3.202
REMARK INTER:                  -3.148
REMARK INTRA:                  -0.054
REMARK UNBOUND:                -0.058
REMARK SMILES CC(C)[C@H]([NH3+])C(=O)[O-]
REMARK SMILES IDX 4 1 5 2 6 6 7 7 8 8 2 9 1 10 3 11
REMARK H PARENT 5 3 5 4 5 5
REMARK Flexibility Score: inf
ROOT
ATOM      1  C   UNL     1      54.732  18.537  86.469  1.00  0.00     0.230 C 
ENDROOT
BRANCH   1   2
ATOM      2  N   UNL     1      54.655  18.114  87.876  1.00  0.00    -0.350 N 
ATOM      3  H   UNL     1      55.610  17.872  88.231  1.00  0.00     0.345 HD
ATOM      4  H   UNL     1      54.068  17.254  87.963  1.00  0.00     0.345 HD
ATOM      5  H   UNL     1      54.254  18.876  88.471  1.00  0.00     0.345 HD
ENDBRANCH   1   2
BRANCH   1   6
ATOM      6  C   UNL     1      53.394  19.080  86.034  1.00  0.00     0.099 C 
ATOM      7  O   UNL     1      52.721  18.487  85.149  1.00  0.00    -0.544 OA
ATOM      8  O   UNL     1      52.899  20.246  86.604  1.00  0.00    -0.544 OA
ENDBRANCH   1   6
BRANCH   1   9
ATOM      9  C   UNL     1      55.189  17.372  85.536  1.00  0.00     0.047 C 
ATOM     10  C   UNL     1      56.125  17.882  84.426  1.00  0.00     0.014 C 
ATOM     11  C   UNL     1      55.899  16.255  86.320  1.00  0.00     0.014 C 
ENDBRANCH   1   9
TORSDOF 3
ENDMDL
