MODEL 1
REMARK VINA RESULT:    -7.507      0.000      0.000
REMARK INTER + INTRA:          -9.106
REMARK INTER:                  -8.823
REMARK INTRA:                  -0.283
REMARK UNBOUND:                -0.283
REMARK SMILES O=c1cc(-c2ccc(O)c(O)c2)oc2cc(O)cc(O)c12
REMARK SMILES IDX 4 1 3 2 2 3 1 4 21 5 19 6 18 7 16 8 15 9 14 10 13 11 5 12
REMARK SMILES IDX 6 13 7 14 8 15 12 16 10 17 9 18 11 20 20 22 17 24
REMARK H PARENT 9 19 11 21 20 23 17 25
REMARK Flexibility Score: inf
ROOT
ATOM      1  C   UNL     1     128.941 125.141 130.312  1.00  0.00     0.138 A 
ATOM      2  C   UNL     1     128.670 124.912 131.668  1.00  0.00     0.100 A 
ATOM      3  C   UNL     1     128.084 123.707 132.060  1.00  0.00     0.197 A 
ATOM      4  O   UNL     1     127.796 123.556 133.276  1.00  0.00    -0.289 OA
ATOM      5  C   UNL     1     127.798 122.717 131.092  1.00  0.00     0.107 A 
ATOM      6  C   UNL     1     127.239 121.435 131.381  1.00  0.00     0.134 A 
ATOM      7  C   UNL     1     126.890 120.581 130.328  1.00  0.00     0.093 A 
ATOM      8  C   UNL     1     127.136 120.934 129.001  1.00  0.00     0.123 A 
ATOM      9  C   UNL     1     127.732 122.162 128.710  1.00  0.00     0.094 A 
ATOM     10  C   UNL     1     128.060 123.051 129.736  1.00  0.00     0.146 A 
ATOM     11  O   UNL     1     128.612 124.217 129.416  1.00  0.00    -0.456 OA
ENDROOT
BRANCH   1  12
ATOM     12  C   UNL     1     129.564 126.404 129.840  1.00  0.00     0.021 A 
ATOM     13  C   UNL     1     129.205 126.991 128.611  1.00  0.00     0.016 A 
ATOM     14  C   UNL     1     129.800 128.184 128.196  1.00  0.00     0.051 A 
ATOM     15  C   UNL     1     130.756 128.817 129.000  1.00  0.00     0.157 A 
ATOM     16  C   UNL     1     130.515 127.053 130.648  1.00  0.00     0.062 A 
ATOM     17  C   UNL     1     131.114 128.248 130.234  1.00  0.00     0.158 A 
BRANCH  15  18
ATOM     18  O   UNL     1     131.347 130.007 128.581  1.00  0.00    -0.504 OA
ATOM     19  H   UNL     1     132.252 130.019 128.125  1.00  0.00     0.293 HD
ENDBRANCH  15  18
BRANCH  17  20
ATOM     20  O   UNL     1     132.059 128.854 131.060  1.00  0.00    -0.504 OA
ATOM     21  H   UNL     1     131.817 129.609 131.691  1.00  0.00     0.293 HD
ENDBRANCH  17  20
ENDBRANCH   1  12
BRANCH   6  22
ATOM     22  O   UNL     1     127.030 120.949 132.674  1.00  0.00    -0.507 OA
ATOM     23  H   UNL     1     126.767 121.513 133.467  1.00  0.00     0.293 HD
ENDBRANCH   6  22
BRANCH   8  24
ATOM     24  O   UNL     1     126.791 120.053 127.979  1.00  0.00    -0.508 OA
ATOM     25  H   UNL     1     125.831 119.766 127.827  1.00  0.00     0.293 HD
ENDBRANCH   8  24
TORSDOF 5
ENDMDL
MODEL 2
REMARK VINA RESULT:    -7.506      6.810     12.106
REMARK INTER + INTRA:          -9.105
REMARK INTER:                  -8.824
REMARK INTRA:                  -0.280
REMARK UNBOUND:                -0.283
REMARK SMILES O=c1cc(-c2ccc(O)c(O)c2)oc2cc(O)cc(O)c12
REMARK SMILES IDX 4 1 3 2 2 3 1 4 21 5 19 6 18 7 16 8 15 9 14 10 13 11 5 12
REMARK SMILES IDX 6 13 7 14 8 15 12 16 10 17 9 18 11 20 20 22 17 24
REMARK H PARENT 9 19 11 21 20 23 17 25
REMARK Flexibility Score: inf
ROOT
ATOM      1  C   UNL     1     129.872 134.106 130.409  1.00  0.00     0.138 A 
ATOM      2  C   UNL     1     130.127 134.339 131.767  1.00  0.00     0.100 A 
ATOM      3  C   UNL     1     130.717 135.541 132.161  1.00  0.00     0.197 A 
ATOM      4  O   UNL     1     130.991 135.696 133.380  1.00  0.00    -0.289 OA
ATOM      5  C   UNL     1     131.023 136.526 131.192  1.00  0.00     0.107 A 
ATOM      6  C   UNL     1     131.587 137.804 131.482  1.00  0.00     0.134 A 
ATOM      7  C   UNL     1     131.956 138.651 130.430  1.00  0.00     0.093 A 
ATOM      8  C   UNL     1     131.725 138.293 129.102  1.00  0.00     0.123 A 
ATOM      9  C   UNL     1     131.123 137.068 128.809  1.00  0.00     0.094 A 
ATOM     10  C   UNL     1     130.776 136.187 129.835  1.00  0.00     0.146 A 
ATOM     11  O   UNL     1     130.219 135.024 129.513  1.00  0.00    -0.456 OA
ENDROOT
BRANCH   1  12
ATOM     12  C   UNL     1     129.246 132.845 129.934  1.00  0.00     0.021 A 
ATOM     13  C   UNL     1     129.672 132.208 128.752  1.00  0.00     0.016 A 
ATOM     14  C   UNL     1     129.072 131.017 128.335  1.00  0.00     0.051 A 
ATOM     15  C   UNL     1     128.045 130.439 129.090  1.00  0.00     0.157 A 
ATOM     16  C   UNL     1     128.223 132.250 130.694  1.00  0.00     0.062 A 
ATOM     17  C   UNL     1     127.620 131.058 130.277  1.00  0.00     0.158 A 
BRANCH  15  18
ATOM     18  O   UNL     1     127.449 129.251 128.669  1.00  0.00    -0.504 OA
ATOM     19  H   UNL     1     126.466 129.208 128.423  1.00  0.00     0.293 HD
ENDBRANCH  15  18
BRANCH  17  20
ATOM     20  O   UNL     1     126.602 130.506 131.053  1.00  0.00    -0.504 OA
ATOM     21  H   UNL     1     125.861 129.947 130.651  1.00  0.00     0.293 HD
ENDBRANCH  17  20
ENDBRANCH   1  12
BRANCH   6  22
ATOM     22  O   UNL     1     131.783 138.295 132.776  1.00  0.00    -0.507 OA
ATOM     23  H   UNL     1     131.820 137.728 133.609  1.00  0.00     0.293 HD
ENDBRANCH   6  22
BRANCH   8  24
ATOM     24  O   UNL     1     132.090 139.167 128.081  1.00  0.00    -0.508 OA
ATOM     25  H   UNL     1     132.598 140.023 128.270  1.00  0.00     0.293 HD
ENDBRANCH   8  24
TORSDOF 5
ENDMDL
MODEL 3
REMARK VINA RESULT:    -7.038      1.380      2.655
REMARK INTER + INTRA:          -8.556
REMARK INTER:                  -8.257
REMARK INTRA:                  -0.299
REMARK UNBOUND:                -0.283
REMARK SMILES O=c1cc(-c2ccc(O)c(O)c2)oc2cc(O)cc(O)c12
REMARK SMILES IDX 4 1 3 2 2 3 1 4 21 5 19 6 18 7 16 8 15 9 14 10 13 11 5 12
REMARK SMILES IDX 6 13 7 14 8 15 12 16 10 17 9 18 11 20 20 22 17 24
REMARK H PARENT 9 19 11 21 20 23 17 25
REMARK Flexibility Score: inf
ROOT
ATOM      1  C   UNL     1     128.956 125.413 129.415  1.00  0.00     0.138 A 
ATOM      2  C   UNL     1     128.277 124.985 128.267  1.00  0.00     0.100 A 
ATOM      3  C   UNL     1     127.820 123.669 128.185  1.00  0.00     0.197 A 
ATOM      4  O   UNL     1     127.269 123.297 127.116  1.00  0.00    -0.289 OA
ATOM      5  C   UNL     1     128.017 122.787 129.274  1.00  0.00     0.107 A 
ATOM      6  C   UNL     1     127.558 121.437 129.320  1.00  0.00     0.134 A 
ATOM      7  C   UNL     1     127.914 120.623 130.402  1.00  0.00     0.093 A 
ATOM      8  C   UNL     1     128.658 121.126 131.469  1.00  0.00     0.123 A 
ATOM      9  C   UNL     1     129.066 122.461 131.460  1.00  0.00     0.094 A 
ATOM     10  C   UNL     1     128.757 123.288 130.378  1.00  0.00     0.146 A 
ATOM     11  O   UNL     1     129.177 124.550 130.402  1.00  0.00    -0.456 OA
ENDROOT
BRANCH   1  12
ATOM     12  C   UNL     1     129.463 126.801 129.555  1.00  0.00     0.021 A 
ATOM     13  C   UNL     1     128.716 127.910 129.111  1.00  0.00     0.016 A 
ATOM     14  C   UNL     1     129.214 129.206 129.265  1.00  0.00     0.051 A 
ATOM     15  C   UNL     1     130.457 129.420 129.870  1.00  0.00     0.157 A 
ATOM     16  C   UNL     1     130.706 127.027 130.174  1.00  0.00     0.062 A 
ATOM     17  C   UNL     1     131.207 128.325 130.329  1.00  0.00     0.158 A 
BRANCH  15  18
ATOM     18  O   UNL     1     130.950 130.716 130.020  1.00  0.00    -0.504 OA
ATOM     19  H   UNL     1     130.566 131.353 130.708  1.00  0.00     0.293 HD
ENDBRANCH  15  18
BRANCH  17  20
ATOM     20  O   UNL     1     132.447 128.504 130.939  1.00  0.00    -0.504 OA
ATOM     21  H   UNL     1     132.881 129.415 131.018  1.00  0.00     0.293 HD
ENDBRANCH  17  20
ENDBRANCH   1  12
BRANCH   6  22
ATOM     22  O   UNL     1     126.738 120.857 128.347  1.00  0.00    -0.507 OA
ATOM     23  H   UNL     1     126.818 119.908 128.016  1.00  0.00     0.293 HD
ENDBRANCH   6  22
BRANCH   8  24
ATOM     24  O   UNL     1     128.981 120.292 132.537  1.00  0.00    -0.508 OA
ATOM     25  H   UNL     1     128.875 120.596 133.498  1.00  0.00     0.293 HD
ENDBRANCH   8  24
TORSDOF 5
ENDMDL
MODEL 4
REMARK VINA RESULT:    -7.028      6.420     11.994
REMARK INTER + INTRA:          -8.543
REMARK INTER:                  -8.237
REMARK INTRA:                  -0.306
REMARK UNBOUND:                -0.283
REMARK SMILES O=c1cc(-c2ccc(O)c(O)c2)oc2cc(O)cc(O)c12
REMARK SMILES IDX 4 1 3 2 2 3 1 4 21 5 19 6 18 7 16 8 15 9 14 10 13 11 5 12
REMARK SMILES IDX 6 13 7 14 8 15 12 16 10 17 9 18 11 20 20 22 17 24
REMARK H PARENT 9 19 11 21 20 23 17 25
REMARK Flexibility Score: inf
ROOT
ATOM      1  C   UNL     1     129.850 133.660 129.385  1.00  0.00     0.138 A 
ATOM      2  C   UNL     1     130.518 134.150 128.255  1.00  0.00     0.100 A 
ATOM      3  C   UNL     1     130.968 135.471 128.238  1.00  0.00     0.197 A 
ATOM      4  O   UNL     1     131.509 135.900 127.186  1.00  0.00    -0.289 OA
ATOM      5  C   UNL     1     130.775 136.294 129.373  1.00  0.00     0.107 A 
ATOM      6  C   UNL     1     131.229 137.642 129.485  1.00  0.00     0.134 A 
ATOM      7  C   UNL     1     130.878 138.397 130.611  1.00  0.00     0.093 A 
ATOM      8  C   UNL     1     130.144 137.835 131.656  1.00  0.00     0.123 A 
ATOM      9  C   UNL     1     129.742 136.500 131.581  1.00  0.00     0.094 A 
ATOM     10  C   UNL     1     130.047 135.732 130.456  1.00  0.00     0.146 A 
ATOM     11  O   UNL     1     129.633 134.469 130.417  1.00  0.00    -0.456 OA
ENDROOT
BRANCH   1  12
ATOM     12  C   UNL     1     129.351 132.263 129.457  1.00  0.00     0.021 A 
ATOM     13  C   UNL     1     130.016 131.205 128.807  1.00  0.00     0.016 A 
ATOM     14  C   UNL     1     129.529 129.900 128.900  1.00  0.00     0.051 A 
ATOM     15  C   UNL     1     128.378 129.624 129.647  1.00  0.00     0.157 A 
ATOM     16  C   UNL     1     128.202 131.975 130.216  1.00  0.00     0.062 A 
ATOM     17  C   UNL     1     127.712 130.668 130.310  1.00  0.00     0.158 A 
BRANCH  15  18
ATOM     18  O   UNL     1     127.896 128.319 129.736  1.00  0.00    -0.504 OA
ATOM     19  H   UNL     1     128.358 127.549 129.267  1.00  0.00     0.293 HD
ENDBRANCH  15  18
BRANCH  17  20
ATOM     20  O   UNL     1     126.565 130.427 131.065  1.00  0.00    -0.504 OA
ATOM     21  H   UNL     1     126.068 129.545 131.022  1.00  0.00     0.293 HD
ENDBRANCH  17  20
ENDBRANCH   1  12
BRANCH   6  22
ATOM     22  O   UNL     1     132.038 138.276 128.538  1.00  0.00    -0.507 OA
ATOM     23  H   UNL     1     132.035 139.266 128.346  1.00  0.00     0.293 HD
ENDBRANCH   6  22
BRANCH   8  24
ATOM     24  O   UNL     1     129.826 138.611 132.768  1.00  0.00    -0.508 OA
ATOM     25  H   UNL     1     129.685 138.196 133.682  1.00  0.00     0.293 HD
ENDBRANCH   8  24
TORSDOF 5
ENDMDL
MODEL 5
REMARK VINA RESULT:    -6.966      6.598     10.077
REMARK INTER + INTRA:          -8.470
REMARK INTER:                  -8.178
REMARK INTRA:                  -0.292
REMARK UNBOUND:                -0.283
REMARK SMILES O=c1cc(-c2ccc(O)c(O)c2)oc2cc(O)cc(O)c12
REMARK SMILES IDX 4 1 3 2 2 3 1 4 21 5 19 6 18 7 16 8 15 9 14 10 13 11 5 12
REMARK SMILES IDX 6 13 7 14 8 15 12 16 10 17 9 18 11 20 20 22 17 24
REMARK H PARENT 9 19 11 21 20 23 17 25
REMARK Flexibility Score: inf
ROOT
ATOM      1  C   UNL     1     130.124 134.687 129.931  1.00  0.00     0.138 A 
ATOM      2  C   UNL     1     130.929 133.983 129.025  1.00  0.00     0.100 A 
ATOM      3  C   UNL     1     130.623 132.657 128.716  1.00  0.00     0.197 A 
ATOM      4  O   UNL     1     131.400 132.032 127.948  1.00  0.00    -0.289 OA
ATOM      5  C   UNL     1     129.487 132.044 129.296  1.00  0.00     0.107 A 
ATOM      6  C   UNL     1     129.055 130.712 129.023  1.00  0.00     0.134 A 
ATOM      7  C   UNL     1     127.983 130.172 129.744  1.00  0.00     0.093 A 
ATOM      8  C   UNL     1     127.288 130.935 130.682  1.00  0.00     0.123 A 
ATOM      9  C   UNL     1     127.668 132.258 130.917  1.00  0.00     0.094 A 
ATOM     10  C   UNL     1     128.755 132.813 130.240  1.00  0.00     0.146 A 
ATOM     11  O   UNL     1     129.094 134.071 130.503  1.00  0.00    -0.456 OA
ENDROOT
BRANCH   1  12
ATOM     12  C   UNL     1     130.403 136.099 130.295  1.00  0.00     0.021 A 
ATOM     13  C   UNL     1     129.834 136.695 131.438  1.00  0.00     0.016 A 
ATOM     14  C   UNL     1     130.122 138.023 131.761  1.00  0.00     0.051 A 
ATOM     15  C   UNL     1     130.986 138.777 130.958  1.00  0.00     0.157 A 
ATOM     16  C   UNL     1     131.280 136.860 129.501  1.00  0.00     0.062 A 
ATOM     17  C   UNL     1     131.569 138.191 129.823  1.00  0.00     0.158 A 
BRANCH  15  18
ATOM     18  O   UNL     1     131.269 140.102 131.285  1.00  0.00    -0.504 OA
ATOM     19  H   UNL     1     130.867 140.545 132.103  1.00  0.00     0.293 HD
ENDBRANCH  15  18
BRANCH  17  20
ATOM     20  O   UNL     1     132.436 138.913 129.004  1.00  0.00    -0.504 OA
ATOM     21  H   UNL     1     132.103 139.611 128.350  1.00  0.00     0.293 HD
ENDBRANCH  17  20
ENDBRANCH   1  12
BRANCH   6  22
ATOM     22  O   UNL     1     129.625 129.890 128.045  1.00  0.00    -0.507 OA
ATOM     23  H   UNL     1     129.394 128.919 127.901  1.00  0.00     0.293 HD
ENDBRANCH   6  22
BRANCH   8  24
ATOM     24  O   UNL     1     126.216 130.372 131.369  1.00  0.00    -0.508 OA
ATOM     25  H   UNL     1     125.681 130.903 132.046  1.00  0.00     0.293 HD
ENDBRANCH   8  24
TORSDOF 5
ENDMDL
MODEL 6
REMARK VINA RESULT:    -6.753      6.238      9.509
REMARK INTER + INTRA:          -8.220
REMARK INTER:                  -7.916
REMARK INTRA:                  -0.304
REMARK UNBOUND:                -0.283
REMARK SMILES O=c1cc(-c2ccc(O)c(O)c2)oc2cc(O)cc(O)c12
REMARK SMILES IDX 4 1 3 2 2 3 1 4 21 5 19 6 18 7 16 8 15 9 14 10 13 11 5 12
REMARK SMILES IDX 6 13 7 14 8 15 12 16 10 17 9 18 11 20 20 22 17 24
REMARK H PARENT 9 19 11 21 20 23 17 25
REMARK Flexibility Score: inf
ROOT
ATOM      1  C   UNL     1     129.629 134.378 130.407  1.00  0.00     0.138 A 
ATOM      2  C   UNL     1     128.493 133.938 131.100  1.00  0.00     0.100 A 
ATOM      3  C   UNL     1     128.067 132.617 130.959  1.00  0.00     0.197 A 
ATOM      4  O   UNL     1     127.008 132.269 131.544  1.00  0.00    -0.289 OA
ATOM      5  C   UNL     1     128.803 131.724 130.144  1.00  0.00     0.107 A 
ATOM      6  C   UNL     1     128.486 130.345 129.959  1.00  0.00     0.134 A 
ATOM      7  C   UNL     1     129.218 129.587 129.036  1.00  0.00     0.093 A 
ATOM      8  C   UNL     1     130.291 130.139 128.339  1.00  0.00     0.123 A 
ATOM      9  C   UNL     1     130.644 131.473 128.553  1.00  0.00     0.094 A 
ATOM     10  C   UNL     1     129.912 132.265 129.440  1.00  0.00     0.146 A 
ATOM     11  O   UNL     1     130.271 133.534 129.605  1.00  0.00    -0.456 OA
ENDROOT
BRANCH   1  12
ATOM     12  C   UNL     1     130.127 135.772 130.521  1.00  0.00     0.021 A 
ATOM     13  C   UNL     1     130.025 136.498 131.724  1.00  0.00     0.016 A 
ATOM     14  C   UNL     1     130.511 137.805 131.805  1.00  0.00     0.051 A 
ATOM     15  C   UNL     1     131.113 138.408 130.694  1.00  0.00     0.157 A 
ATOM     16  C   UNL     1     130.745 136.381 129.414  1.00  0.00     0.062 A 
ATOM     17  C   UNL     1     131.232 137.690 129.493  1.00  0.00     0.158 A 
BRANCH  15  18
ATOM     18  O   UNL     1     131.596 139.712 130.780  1.00  0.00    -0.504 OA
ATOM     19  H   UNL     1     132.482 139.923 131.224  1.00  0.00     0.293 HD
ENDBRANCH  15  18
BRANCH  17  20
ATOM     20  O   UNL     1     131.830 138.260 128.369  1.00  0.00    -0.504 OA
ATOM     21  H   UNL     1     131.420 138.187 127.446  1.00  0.00     0.293 HD
ENDBRANCH  17  20
ENDBRANCH   1  12
BRANCH   6  22
ATOM     22  O   UNL     1     127.487 129.671 130.667  1.00  0.00    -0.507 OA
ATOM     23  H   UNL     1     127.531 128.703 130.946  1.00  0.00     0.293 HD
ENDBRANCH   6  22
BRANCH   8  24
ATOM     24  O   UNL     1     131.007 129.352 127.440  1.00  0.00    -0.508 OA
ATOM     25  H   UNL     1     130.971 129.519 126.442  1.00  0.00     0.293 HD
ENDBRANCH   8  24
TORSDOF 5
ENDMDL
MODEL 7
REMARK VINA RESULT:    -6.724      1.561      7.068
REMARK INTER + INTRA:          -8.186
REMARK INTER:                  -7.887
REMARK INTRA:                  -0.299
REMARK UNBOUND:                -0.283
REMARK SMILES O=c1cc(-c2ccc(O)c(O)c2)oc2cc(O)cc(O)c12
REMARK SMILES IDX 4 1 3 2 2 3 1 4 21 5 19 6 18 7 16 8 15 9 14 10 13 11 5 12
REMARK SMILES IDX 6 13 7 14 8 15 12 16 10 17 9 18 11 20 20 22 17 24
REMARK H PARENT 9 19 11 21 20 23 17 25
REMARK Flexibility Score: inf
ROOT
ATOM      1  C   UNL     1     129.098 125.195 130.196  1.00  0.00     0.138 A 
ATOM      2  C   UNL     1     130.236 125.651 130.876  1.00  0.00     0.100 A 
ATOM      3  C   UNL     1     130.665 126.967 130.698  1.00  0.00     0.197 A 
ATOM      4  O   UNL     1     131.725 127.328 131.272  1.00  0.00    -0.289 OA
ATOM      5  C   UNL     1     129.931 127.838 129.858  1.00  0.00     0.107 A 
ATOM      6  C   UNL     1     130.251 129.211 129.634  1.00  0.00     0.134 A 
ATOM      7  C   UNL     1     129.521 129.945 128.691  1.00  0.00     0.093 A 
ATOM      8  C   UNL     1     128.446 129.375 128.010  1.00  0.00     0.123 A 
ATOM      9  C   UNL     1     128.090 128.049 128.262  1.00  0.00     0.094 A 
ATOM     10  C   UNL     1     128.820 127.281 129.171  1.00  0.00     0.146 A 
ATOM     11  O   UNL     1     128.458 126.018 129.371  1.00  0.00    -0.456 OA
ENDROOT
BRANCH   1  12
ATOM     12  C   UNL     1     128.597 123.806 130.350  1.00  0.00     0.021 A 
ATOM     13  C   UNL     1     128.577 123.160 131.602  1.00  0.00     0.016 A 
ATOM     14  C   UNL     1     128.090 121.857 131.718  1.00  0.00     0.051 A 
ATOM     15  C   UNL     1     127.609 121.177 130.593  1.00  0.00     0.157 A 
ATOM     16  C   UNL     1     128.099 123.120 129.227  1.00  0.00     0.062 A 
ATOM     17  C   UNL     1     127.612 121.813 129.341  1.00  0.00     0.158 A 
BRANCH  15  18
ATOM     18  O   UNL     1     127.125 119.875 130.714  1.00  0.00    -0.504 OA
ATOM     19  H   UNL     1     127.745 119.092 130.889  1.00  0.00     0.293 HD
ENDBRANCH  15  18
BRANCH  17  20
ATOM     20  O   UNL     1     127.136 121.166 128.202  1.00  0.00    -0.504 OA
ATOM     21  H   UNL     1     126.955 120.170 128.185  1.00  0.00     0.293 HD
ENDBRANCH  17  20
ENDBRANCH   1  12
BRANCH   6  22
ATOM     22  O   UNL     1     131.253 129.902 130.322  1.00  0.00    -0.507 OA
ATOM     23  H   UNL     1     131.093 130.539 131.088  1.00  0.00     0.293 HD
ENDBRANCH   6  22
BRANCH   8  24
ATOM     24  O   UNL     1     127.731 130.139 127.090  1.00  0.00    -0.508 OA
ATOM     25  H   UNL     1     127.967 131.107 126.908  1.00  0.00     0.293 HD
ENDBRANCH   8  24
TORSDOF 5
ENDMDL
MODEL 8
REMARK VINA RESULT:    -6.690      7.349     10.162
REMARK INTER + INTRA:          -8.146
REMARK INTER:                  -7.878
REMARK INTRA:                  -0.268
REMARK UNBOUND:                -0.283
REMARK SMILES O=c1cc(-c2ccc(O)c(O)c2)oc2cc(O)cc(O)c12
REMARK SMILES IDX 4 1 3 2 2 3 1 4 21 5 19 6 18 7 16 8 15 9 14 10 13 11 5 12
REMARK SMILES IDX 6 13 7 14 8 15 12 16 10 17 9 18 11 20 20 22 17 24
REMARK H PARENT 9 19 11 21 20 23 17 25
REMARK Flexibility Score: inf
ROOT
ATOM      1  C   UNL     1     129.348 134.578 130.844  1.00  0.00     0.138 A 
ATOM      2  C   UNL     1     129.830 133.346 130.383  1.00  0.00     0.100 A 
ATOM      3  C   UNL     1     129.065 132.193 130.569  1.00  0.00     0.197 A 
ATOM      4  O   UNL     1     129.552 131.093 130.199  1.00  0.00    -0.289 OA
ATOM      5  C   UNL     1     127.799 132.282 131.193  1.00  0.00     0.107 A 
ATOM      6  C   UNL     1     126.915 131.181 131.398  1.00  0.00     0.134 A 
ATOM      7  C   UNL     1     125.737 131.368 132.132  1.00  0.00     0.093 A 
ATOM      8  C   UNL     1     125.381 132.628 132.614  1.00  0.00     0.123 A 
ATOM      9  C   UNL     1     126.212 133.723 132.371  1.00  0.00     0.094 A 
ATOM     10  C   UNL     1     127.410 133.561 131.673  1.00  0.00     0.146 A 
ATOM     11  O   UNL     1     128.180 134.627 131.476  1.00  0.00    -0.456 OA
ENDROOT
BRANCH   1  12
ATOM     12  C   UNL     1     130.119 135.836 130.672  1.00  0.00     0.021 A 
ATOM     13  C   UNL     1     130.483 136.637 131.772  1.00  0.00     0.016 A 
ATOM     14  C   UNL     1     131.218 137.809 131.581  1.00  0.00     0.051 A 
ATOM     15  C   UNL     1     131.608 138.200 130.295  1.00  0.00     0.157 A 
ATOM     16  C   UNL     1     130.527 136.228 129.384  1.00  0.00     0.062 A 
ATOM     17  C   UNL     1     131.262 137.404 129.191  1.00  0.00     0.158 A 
BRANCH  15  18
ATOM     18  O   UNL     1     132.340 139.372 130.109  1.00  0.00    -0.504 OA
ATOM     19  H   UNL     1     132.011 140.113 129.502  1.00  0.00     0.293 HD
ENDBRANCH  15  18
BRANCH  17  20
ATOM     20  O   UNL     1     131.639 137.762 127.897  1.00  0.00    -0.504 OA
ATOM     21  H   UNL     1     131.255 138.574 127.430  1.00  0.00     0.293 HD
ENDBRANCH  17  20
ENDBRANCH   1  12
BRANCH   6  22
ATOM     22  O   UNL     1     127.134 129.898 130.888  1.00  0.00    -0.507 OA
ATOM     23  H   UNL     1     126.879 129.041 131.354  1.00  0.00     0.293 HD
ENDBRANCH   6  22
BRANCH   8  24
ATOM     24  O   UNL     1     124.194 132.781 133.327  1.00  0.00    -0.508 OA
ATOM     25  H   UNL     1     124.185 132.832 134.339  1.00  0.00     0.293 HD
ENDBRANCH   8  24
TORSDOF 5
ENDMDL
MODEL 9
REMARK VINA RESULT:    -6.581      7.508     12.752
REMARK INTER + INTRA:          -8.018
REMARK INTER:                  -7.734
REMARK INTRA:                  -0.284
REMARK UNBOUND:                -0.283
REMARK SMILES O=c1cc(-c2ccc(O)c(O)c2)oc2cc(O)cc(O)c12
REMARK SMILES IDX 4 1 3 2 2 3 1 4 21 5 19 6 18 7 16 8 15 9 14 10 13 11 5 12
REMARK SMILES IDX 6 13 7 14 8 15 12 16 10 17 9 18 11 20 20 22 17 24
REMARK H PARENT 9 19 11 21 20 23 17 25
REMARK Flexibility Score: inf
ROOT
ATOM      1  C   UNL     1     129.731 134.475 130.829  1.00  0.00     0.138 A 
ATOM      2  C   UNL     1     130.062 134.447 129.467  1.00  0.00     0.100 A 
ATOM      3  C   UNL     1     130.618 135.579 128.869  1.00  0.00     0.197 A 
ATOM      4  O   UNL     1     130.847 135.545 127.632  1.00  0.00    -0.289 OA
ATOM      5  C   UNL     1     130.872 136.733 129.648  1.00  0.00     0.107 A 
ATOM      6  C   UNL     1     131.473 137.929 129.155  1.00  0.00     0.134 A 
ATOM      7  C   UNL     1     131.568 139.049 129.991  1.00  0.00     0.093 A 
ATOM      8  C   UNL     1     131.141 138.997 131.317  1.00  0.00     0.123 A 
ATOM      9  C   UNL     1     130.601 137.814 131.826  1.00  0.00     0.094 A 
ATOM     10  C   UNL     1     130.461 136.691 131.007  1.00  0.00     0.146 A 
ATOM     11  O   UNL     1     129.929 135.589 131.526  1.00  0.00    -0.456 OA
ENDROOT
BRANCH   1  12
ATOM     12  C   UNL     1     129.138 133.299 131.516  1.00  0.00     0.021 A 
ATOM     13  C   UNL     1     129.360 133.053 132.885  1.00  0.00     0.016 A 
ATOM     14  C   UNL     1     128.780 131.945 133.507  1.00  0.00     0.051 A 
ATOM     15  C   UNL     1     127.967 131.069 132.780  1.00  0.00     0.157 A 
ATOM     16  C   UNL     1     128.308 132.421 130.796  1.00  0.00     0.062 A 
ATOM     17  C   UNL     1     127.728 131.309 131.417  1.00  0.00     0.158 A 
BRANCH  15  18
ATOM     18  O   UNL     1     127.392 129.963 133.406  1.00  0.00    -0.504 OA
ATOM     19  H   UNL     1     126.706 129.384 132.935  1.00  0.00     0.293 HD
ENDBRANCH  15  18
BRANCH  17  20
ATOM     20  O   UNL     1     126.919 130.458 130.665  1.00  0.00    -0.504 OA
ATOM     21  H   UNL     1     125.942 130.310 130.886  1.00  0.00     0.293 HD
ENDBRANCH  17  20
ENDBRANCH   1  12
BRANCH   6  22
ATOM     22  O   UNL     1     132.010 138.062 127.871  1.00  0.00    -0.507 OA
ATOM     23  H   UNL     1     132.995 138.118 127.660  1.00  0.00     0.293 HD
ENDBRANCH   6  22
BRANCH   8  24
ATOM     24  O   UNL     1     131.265 140.125 132.125  1.00  0.00    -0.508 OA
ATOM     25  H   UNL     1     131.950 140.845 131.930  1.00  0.00     0.293 HD
ENDBRANCH   8  24
TORSDOF 5
ENDMDL
