MODEL 1
REMARK VINA RESULT:    -4.321      0.000      0.000
REMARK INTER + INTRA:         -12.096
REMARK INTER:                  -9.373
REMARK INTRA:                  -2.723
REMARK UNBOUND:                -2.723
REMARK SMILES CCCCCCCCCCCCCCCCCCCCCC(=O)[O-]
REMARK SMILES IDX 12 1 11 2 10 3 9 4 8 5 7 6 6 7 5 8 4 9 3 10 2 11 1 12 13 13
REMARK SMILES IDX 14 14 15 15 16 16 17 17 18 18 19 19 20 20 21 21 22 22 23 23
REMARK SMILES IDX 24 24
REMARK H PARENT
REMARK Flexibility Score: inf
ROOT
ATOM      1  C   UNL     1     -31.622  16.775  28.026  1.00  0.00     0.000 C 
ENDROOT
BRANCH   1   2
ATOM      2  C   UNL     1     -32.838  15.830  28.055  1.00  0.00     0.000 C 
BRANCH   2   3
ATOM      3  C   UNL     1     -33.369  15.493  26.650  1.00  0.00     0.000 C 
BRANCH   3   4
ATOM      4  C   UNL     1     -34.425  16.499  26.166  1.00  0.00    -0.000 C 
BRANCH   4   5
ATOM      5  C   UNL     1     -33.984  17.245  24.894  1.00  0.00    -0.000 C 
BRANCH   5   6
ATOM      6  C   UNL     1     -33.604  18.710  25.166  1.00  0.00    -0.000 C 
BRANCH   6   7
ATOM      7  C   UNL     1     -32.528  19.293  24.227  1.00  0.00    -0.000 C 
BRANCH   7   8
ATOM      8  C   UNL     1     -31.569  18.260  23.605  1.00  0.00    -0.000 C 
BRANCH   8   9
ATOM      9  C   UNL     1     -30.357  18.910  22.917  1.00  0.00    -0.000 C 
BRANCH   9  10
ATOM     10  C   UNL     1     -30.483  20.440  22.824  1.00  0.00    -0.000 C 
BRANCH  10  11
ATOM     11  C   UNL     1     -29.459  21.174  23.702  1.00  0.00    -0.003 C 
ATOM     12  C   UNL     1     -28.391  21.852  22.848  1.00  0.00     0.004 C 
ENDBRANCH  10  11
ENDBRANCH   9  10
ENDBRANCH   8   9
ENDBRANCH   7   8
ENDBRANCH   6   7
ENDBRANCH   5   6
ENDBRANCH   4   5
ENDBRANCH   3   4
ENDBRANCH   2   3
ENDBRANCH   1   2
BRANCH   1  13
ATOM     13  C   UNL     1     -30.719  16.642  26.785  1.00  0.00     0.000 C 
BRANCH  13  14
ATOM     14  C   UNL     1     -29.699  17.787  26.661  1.00  0.00     0.000 C 
BRANCH  14  15
ATOM     15  C   UNL     1     -30.255  19.140  27.142  1.00  0.00     0.000 C 
BRANCH  15  16
ATOM     16  C   UNL     1     -29.207  20.253  27.318  1.00  0.00     0.000 C 
BRANCH  16  17
ATOM     17  C   UNL     1     -29.828  21.661  27.356  1.00  0.00     0.000 C 
BRANCH  17  18
ATOM     18  C   UNL     1     -29.557  22.395  28.679  1.00  0.00     0.000 C 
BRANCH  18  19
ATOM     19  C   UNL     1     -30.715  22.248  29.682  1.00  0.00     0.000 C 
BRANCH  19  20
ATOM     20  C   UNL     1     -31.885  23.203  29.383  1.00  0.00     0.006 C 
BRANCH  20  21
ATOM     21  C   UNL     1     -31.636  24.661  29.802  1.00  0.00     0.053 C 
BRANCH  21  22
ATOM     22  C   UNL     1     -32.469  25.056  30.982  1.00  0.00     0.041 C 
ATOM     23  O   UNL     1     -32.108  24.743  32.147  1.00  0.00    -0.550 OA
ATOM     24  O   UNL     1     -33.631  25.797  30.796  1.00  0.00    -0.550 OA
ENDBRANCH  21  22
ENDBRANCH  20  21
ENDBRANCH  19  20
ENDBRANCH  18  19
ENDBRANCH  17  18
ENDBRANCH  16  17
ENDBRANCH  15  16
ENDBRANCH  14  15
ENDBRANCH  13  14
ENDBRANCH   1  13
TORSDOF 20
ENDMDL
MODEL 2
REMARK VINA RESULT:    -4.272      1.414      4.502
REMARK INTER + INTRA:         -11.990
REMARK INTER:                  -9.617
REMARK INTRA:                  -2.374
REMARK UNBOUND:                -2.723
REMARK SMILES CCCCCCCCCCCCCCCCCCCCCC(=O)[O-]
REMARK SMILES IDX 12 1 11 2 10 3 9 4 8 5 7 6 6 7 5 8 4 9 3 10 2 11 1 12 13 13
REMARK SMILES IDX 14 14 15 15 16 16 17 17 18 18 19 19 20 20 21 21 22 22 23 23
REMARK SMILES IDX 24 24
REMARK H PARENT
REMARK Flexibility Score: inf
ROOT
ATOM      1  C   UNL     1     -27.985  18.550  22.852  1.00  0.00     0.000 C 
ENDROOT
BRANCH   1   2
ATOM      2  C   UNL     1     -29.244  17.956  23.509  1.00  0.00     0.000 C 
BRANCH   2   3
ATOM      3  C   UNL     1     -30.546  18.401  22.820  1.00  0.00     0.000 C 
BRANCH   3   4
ATOM      4  C   UNL     1     -30.903  19.863  23.127  1.00  0.00    -0.000 C 
BRANCH   4   5
ATOM      5  C   UNL     1     -31.649  20.017  24.465  1.00  0.00    -0.000 C 
BRANCH   5   6
ATOM      6  C   UNL     1     -33.161  19.765  24.334  1.00  0.00    -0.000 C 
BRANCH   6   7
ATOM      7  C   UNL     1     -33.734  18.708  25.300  1.00  0.00    -0.000 C 
BRANCH   7   8
ATOM      8  C   UNL     1     -33.976  17.317  24.684  1.00  0.00    -0.000 C 
BRANCH   8   9
ATOM      9  C   UNL     1     -32.942  16.273  25.142  1.00  0.00    -0.000 C 
BRANCH   9  10
ATOM     10  C   UNL     1     -32.411  16.554  26.558  1.00  0.00    -0.000 C 
BRANCH  10  11
ATOM     11  C   UNL     1     -33.349  16.036  27.658  1.00  0.00    -0.003 C 
ATOM     12  C   UNL     1     -33.579  14.534  27.519  1.00  0.00     0.004 C 
ENDBRANCH  10  11
ENDBRANCH   9  10
ENDBRANCH   8   9
ENDBRANCH   7   8
ENDBRANCH   6   7
ENDBRANCH   5   6
ENDBRANCH   4   5
ENDBRANCH   3   4
ENDBRANCH   2   3
ENDBRANCH   1   2
BRANCH   1  13
ATOM     13  C   UNL     1     -27.238  19.599  23.698  1.00  0.00     0.000 C 
BRANCH  13  14
ATOM     14  C   UNL     1     -27.318  21.016  23.104  1.00  0.00     0.000 C 
BRANCH  14  15
ATOM     15  C   UNL     1     -27.957  22.033  24.067  1.00  0.00     0.000 C 
BRANCH  15  16
ATOM     16  C   UNL     1     -28.392  21.462  25.429  1.00  0.00     0.000 C 
BRANCH  16  17
ATOM     17  C   UNL     1     -29.207  22.464  26.267  1.00  0.00     0.000 C 
BRANCH  17  18
ATOM     18  C   UNL     1     -29.997  21.788  27.399  1.00  0.00     0.000 C 
BRANCH  18  19
ATOM     19  C   UNL     1     -30.188  22.709  28.616  1.00  0.00     0.000 C 
BRANCH  19  20
ATOM     20  C   UNL     1     -31.646  22.749  29.109  1.00  0.00     0.006 C 
BRANCH  20  21
ATOM     21  C   UNL     1     -32.005  24.000  29.926  1.00  0.00     0.053 C 
BRANCH  21  22
ATOM     22  C   UNL     1     -32.756  23.658  31.176  1.00  0.00     0.041 C 
ATOM     23  O   UNL     1     -32.492  22.599  31.804  1.00  0.00    -0.550 OA
ATOM     24  O   UNL     1     -33.727  24.524  31.663  1.00  0.00    -0.550 OA
ENDBRANCH  21  22
ENDBRANCH  20  21
ENDBRANCH  19  20
ENDBRANCH  18  19
ENDBRANCH  17  18
ENDBRANCH  16  17
ENDBRANCH  15  16
ENDBRANCH  14  15
ENDBRANCH  13  14
ENDBRANCH   1  13
TORSDOF 20
ENDMDL
MODEL 3
REMARK VINA RESULT:    -4.243      1.558      4.728
REMARK INTER + INTRA:         -11.926
REMARK INTER:                  -9.979
REMARK INTRA:                  -1.946
REMARK UNBOUND:                -2.723
REMARK SMILES CCCCCCCCCCCCCCCCCCCCCC(=O)[O-]
REMARK SMILES IDX 12 1 11 2 10 3 9 4 8 5 7 6 6 7 5 8 4 9 3 10 2 11 1 12 13 13
REMARK SMILES IDX 14 14 15 15 16 16 17 17 18 18 19 19 20 20 21 21 22 22 23 23
REMARK SMILES IDX 24 24
REMARK H PARENT
REMARK Flexibility Score: inf
ROOT
ATOM      1  C   UNL     1     -29.961  19.212  25.567  1.00  0.00     0.000 C 
ENDROOT
BRANCH   1   2
ATOM      2  C   UNL     1     -31.233  20.079  25.532  1.00  0.00     0.000 C 
BRANCH   2   3
ATOM      3  C   UNL     1     -32.005  19.958  24.207  1.00  0.00     0.000 C 
BRANCH   3   4
ATOM      4  C   UNL     1     -33.491  19.630  24.422  1.00  0.00    -0.000 C 
BRANCH   4   5
ATOM      5  C   UNL     1     -33.704  18.540  25.488  1.00  0.00    -0.000 C 
BRANCH   5   6
ATOM      6  C   UNL     1     -33.982  17.157  24.876  1.00  0.00    -0.000 C 
BRANCH   6   7
ATOM      7  C   UNL     1     -32.739  16.263  24.686  1.00  0.00    -0.000 C 
BRANCH   7   8
ATOM      8  C   UNL     1     -32.554  15.161  25.746  1.00  0.00    -0.000 C 
BRANCH   8   9
ATOM      9  C   UNL     1     -33.881  14.724  26.390  1.00  0.00    -0.000 C 
BRANCH   9  10
ATOM     10  C   UNL     1     -33.849  14.816  27.925  1.00  0.00    -0.000 C 
BRANCH  10  11
ATOM     11  C   UNL     1     -32.905  13.786  28.561  1.00  0.00    -0.003 C 
ATOM     12  C   UNL     1     -33.640  12.929  29.588  1.00  0.00     0.004 C 
ENDBRANCH  10  11
ENDBRANCH   9  10
ENDBRANCH   8   9
ENDBRANCH   7   8
ENDBRANCH   6   7
ENDBRANCH   5   6
ENDBRANCH   4   5
ENDBRANCH   3   4
ENDBRANCH   2   3
ENDBRANCH   1   2
BRANCH   1  13
ATOM     13  C   UNL     1     -28.635  19.994  25.558  1.00  0.00     0.000 C 
BRANCH  13  14
ATOM     14  C   UNL     1     -28.800  21.449  25.087  1.00  0.00     0.000 C 
BRANCH  14  15
ATOM     15  C   UNL     1     -28.518  22.475  26.200  1.00  0.00     0.000 C 
BRANCH  15  16
ATOM     16  C   UNL     1     -27.888  21.895  27.480  1.00  0.00     0.000 C 
BRANCH  16  17
ATOM     17  C   UNL     1     -28.777  22.081  28.722  1.00  0.00     0.000 C 
BRANCH  17  18
ATOM     18  C   UNL     1     -30.089  22.817  28.410  1.00  0.00     0.000 C 
BRANCH  18  19
ATOM     19  C   UNL     1     -31.328  22.045  28.893  1.00  0.00     0.000 C 
BRANCH  19  20
ATOM     20  C   UNL     1     -32.134  22.817  29.954  1.00  0.00     0.006 C 
BRANCH  20  21
ATOM     21  C   UNL     1     -32.150  24.341  29.753  1.00  0.00     0.053 C 
BRANCH  21  22
ATOM     22  C   UNL     1     -33.043  25.028  30.738  1.00  0.00     0.041 C 
ATOM     23  O   UNL     1     -34.039  25.688  30.339  1.00  0.00    -0.550 OA
ATOM     24  O   UNL     1     -32.793  24.915  32.101  1.00  0.00    -0.550 OA
ENDBRANCH  21  22
ENDBRANCH  20  21
ENDBRANCH  19  20
ENDBRANCH  18  19
ENDBRANCH  17  18
ENDBRANCH  16  17
ENDBRANCH  15  16
ENDBRANCH  14  15
ENDBRANCH  13  14
ENDBRANCH   1  13
TORSDOF 20
ENDMDL
MODEL 4
REMARK VINA RESULT:    -4.177      2.234      5.092
REMARK INTER + INTRA:         -11.784
REMARK INTER:                  -7.990
REMARK INTRA:                  -3.794
REMARK UNBOUND:                -2.723
REMARK SMILES CCCCCCCCCCCCCCCCCCCCCC(=O)[O-]
REMARK SMILES IDX 12 1 11 2 10 3 9 4 8 5 7 6 6 7 5 8 4 9 3 10 2 11 1 12 13 13
REMARK SMILES IDX 14 14 15 15 16 16 17 17 18 18 19 19 20 20 21 21 22 22 23 23
REMARK SMILES IDX 24 24
REMARK H PARENT
REMARK Flexibility Score: inf
ROOT
ATOM      1  C   UNL     1     -29.305  17.808  25.272  1.00  0.00     0.000 C 
ENDROOT
BRANCH   1   2
ATOM      2  C   UNL     1     -30.540  17.813  26.192  1.00  0.00     0.000 C 
BRANCH   2   3
ATOM      3  C   UNL     1     -31.414  19.066  26.014  1.00  0.00     0.000 C 
BRANCH   3   4
ATOM      4  C   UNL     1     -32.890  18.721  25.761  1.00  0.00    -0.000 C 
BRANCH   4   5
ATOM      5  C   UNL     1     -33.164  18.359  24.290  1.00  0.00    -0.000 C 
BRANCH   5   6
ATOM      6  C   UNL     1     -33.877  17.006  24.134  1.00  0.00    -0.000 C 
BRANCH   6   7
ATOM      7  C   UNL     1     -32.983  15.767  24.345  1.00  0.00    -0.000 C 
BRANCH   7   8
ATOM      8  C   UNL     1     -33.122  15.081  25.718  1.00  0.00    -0.000 C 
BRANCH   8   9
ATOM      9  C   UNL     1     -34.402  15.496  26.465  1.00  0.00    -0.000 C 
BRANCH   9  10
ATOM     10  C   UNL     1     -34.182  15.628  27.981  1.00  0.00    -0.000 C 
BRANCH  10  11
ATOM     11  C   UNL     1     -32.696  15.718  28.359  1.00  0.00    -0.003 C 
ATOM     12  C   UNL     1     -32.338  14.689  29.427  1.00  0.00     0.004 C 
ENDBRANCH  10  11
ENDBRANCH   9  10
ENDBRANCH   8   9
ENDBRANCH   7   8
ENDBRANCH   6   7
ENDBRANCH   5   6
ENDBRANCH   4   5
ENDBRANCH   3   4
ENDBRANCH   2   3
ENDBRANCH   1   2
BRANCH   1  13
ATOM     13  C   UNL     1     -29.583  17.424  23.806  1.00  0.00     0.000 C 
BRANCH  13  14
ATOM     14  C   UNL     1     -29.172  18.524  22.811  1.00  0.00     0.000 C 
BRANCH  14  15
ATOM     15  C   UNL     1     -30.309  19.519  22.516  1.00  0.00     0.000 C 
BRANCH  15  16
ATOM     16  C   UNL     1     -30.182  20.885  23.215  1.00  0.00     0.000 C 
BRANCH  16  17
ATOM     17  C   UNL     1     -28.808  21.544  22.998  1.00  0.00     0.000 C 
BRANCH  17  18
ATOM     18  C   UNL     1     -28.076  21.841  24.316  1.00  0.00     0.000 C 
BRANCH  18  19
ATOM     19  C   UNL     1     -29.039  21.977  25.508  1.00  0.00     0.000 C 
BRANCH  19  20
ATOM     20  C   UNL     1     -28.558  21.208  26.752  1.00  0.00     0.006 C 
BRANCH  20  21
ATOM     21  C   UNL     1     -28.940  21.865  28.089  1.00  0.00     0.053 C 
BRANCH  21  22
ATOM     22  C   UNL     1     -30.263  21.378  28.595  1.00  0.00     0.041 C 
ATOM     23  O   UNL     1     -31.329  21.931  28.217  1.00  0.00    -0.550 OA
ATOM     24  O   UNL     1     -30.319  20.293  29.461  1.00  0.00    -0.550 OA
ENDBRANCH  21  22
ENDBRANCH  20  21
ENDBRANCH  19  20
ENDBRANCH  18  19
ENDBRANCH  17  18
ENDBRANCH  16  17
ENDBRANCH  15  16
ENDBRANCH  14  15
ENDBRANCH  13  14
ENDBRANCH   1  13
TORSDOF 20
ENDMDL
MODEL 5
REMARK VINA RESULT:    -4.165      3.384      8.129
REMARK INTER + INTRA:         -11.757
REMARK INTER:                  -9.615
REMARK INTRA:                  -2.142
REMARK UNBOUND:                -2.723
REMARK SMILES CCCCCCCCCCCCCCCCCCCCCC(=O)[O-]
REMARK SMILES IDX 12 1 11 2 10 3 9 4 8 5 7 6 6 7 5 8 4 9 3 10 2 11 1 12 13 13
REMARK SMILES IDX 14 14 15 15 16 16 17 17 18 18 19 19 20 20 21 21 22 22 23 23
REMARK SMILES IDX 24 24
REMARK H PARENT
REMARK Flexibility Score: inf
ROOT
ATOM      1  C   UNL     1     -28.429  20.426  26.183  1.00  0.00     0.000 C 
ENDROOT
BRANCH   1   2
ATOM      2  C   UNL     1     -28.120  21.797  26.813  1.00  0.00     0.000 C 
BRANCH   2   3
ATOM      3  C   UNL     1     -29.384  22.634  27.075  1.00  0.00     0.000 C 
BRANCH   3   4
ATOM      4  C   UNL     1     -30.495  21.821  27.756  1.00  0.00    -0.000 C 
BRANCH   4   5
ATOM      5  C   UNL     1     -30.606  22.124  29.262  1.00  0.00    -0.000 C 
BRANCH   5   6
ATOM      6  C   UNL     1     -31.843  22.969  29.608  1.00  0.00    -0.000 C 
BRANCH   6   7
ATOM      7  C   UNL     1     -31.602  24.492  29.660  1.00  0.00    -0.000 C 
BRANCH   7   8
ATOM      8  C   UNL     1     -32.360  25.240  30.773  1.00  0.00    -0.000 C 
BRANCH   8   9
ATOM      9  C   UNL     1     -33.861  25.395  30.473  1.00  0.00    -0.000 C 
BRANCH   9  10
ATOM     10  C   UNL     1     -34.746  24.770  31.564  1.00  0.00    -0.000 C 
BRANCH  10  11
ATOM     11  C   UNL     1     -34.212  25.026  32.981  1.00  0.00    -0.003 C 
ATOM     12  C   UNL     1     -34.785  24.019  33.974  1.00  0.00     0.004 C 
ENDBRANCH  10  11
ENDBRANCH   9  10
ENDBRANCH   8   9
ENDBRANCH   7   8
ENDBRANCH   6   7
ENDBRANCH   5   6
ENDBRANCH   4   5
ENDBRANCH   3   4
ENDBRANCH   2   3
ENDBRANCH   1   2
BRANCH   1  13
ATOM     13  C   UNL     1     -27.719  20.145  24.845  1.00  0.00     0.000 C 
BRANCH  13  14
ATOM     14  C   UNL     1     -28.112  21.140  23.739  1.00  0.00     0.000 C 
BRANCH  14  15
ATOM     15  C   UNL     1     -29.627  21.161  23.463  1.00  0.00     0.000 C 
BRANCH  15  16
ATOM     16  C   UNL     1     -30.176  19.925  22.728  1.00  0.00     0.000 C 
BRANCH  16  17
ATOM     17  C   UNL     1     -31.428  19.335  23.401  1.00  0.00     0.000 C 
BRANCH  17  18
ATOM     18  C   UNL     1     -31.850  20.113  24.658  1.00  0.00     0.000 C 
BRANCH  18  19
ATOM     19  C   UNL     1     -32.134  19.190  25.855  1.00  0.00     0.000 C 
BRANCH  19  20
ATOM     20  C   UNL     1     -32.386  17.730  25.434  1.00  0.00     0.006 C 
BRANCH  20  21
ATOM     21  C   UNL     1     -33.765  17.183  25.840  1.00  0.00     0.053 C 
BRANCH  21  22
ATOM     22  C   UNL     1     -33.655  16.074  26.840  1.00  0.00     0.041 C 
ATOM     23  O   UNL     1     -34.245  14.979  26.640  1.00  0.00    -0.550 OA
ATOM     24  O   UNL     1     -32.876  16.238  27.978  1.00  0.00    -0.550 OA
ENDBRANCH  21  22
ENDBRANCH  20  21
ENDBRANCH  19  20
ENDBRANCH  18  19
ENDBRANCH  17  18
ENDBRANCH  16  17
ENDBRANCH  15  16
ENDBRANCH  14  15
ENDBRANCH  13  14
ENDBRANCH   1  13
TORSDOF 20
ENDMDL
MODEL 6
REMARK VINA RESULT:    -4.147      3.455      7.729
REMARK INTER + INTRA:         -11.719
REMARK INTER:                  -9.423
REMARK INTRA:                  -2.296
REMARK UNBOUND:                -2.723
REMARK SMILES CCCCCCCCCCCCCCCCCCCCCC(=O)[O-]
REMARK SMILES IDX 12 1 11 2 10 3 9 4 8 5 7 6 6 7 5 8 4 9 3 10 2 11 1 12 13 13
REMARK SMILES IDX 14 14 15 15 16 16 17 17 18 18 19 19 20 20 21 21 22 22 23 23
REMARK SMILES IDX 24 24
REMARK H PARENT
REMARK Flexibility Score: inf
ROOT
ATOM      1  C   UNL     1     -28.768  21.560  22.930  1.00  0.00     0.000 C 
ENDROOT
BRANCH   1   2
ATOM      2  C   UNL     1     -27.939  22.026  24.142  1.00  0.00     0.000 C 
BRANCH   2   3
ATOM      3  C   UNL     1     -28.760  22.085  25.442  1.00  0.00     0.000 C 
BRANCH   3   4
ATOM      4  C   UNL     1     -27.980  21.548  26.652  1.00  0.00    -0.000 C 
BRANCH   4   5
ATOM      5  C   UNL     1     -28.813  21.576  27.946  1.00  0.00    -0.000 C 
BRANCH   5   6
ATOM      6  C   UNL     1     -29.968  22.589  27.888  1.00  0.00    -0.000 C 
BRANCH   6   7
ATOM      7  C   UNL     1     -31.311  22.086  28.456  1.00  0.00    -0.000 C 
BRANCH   7   8
ATOM      8  C   UNL     1     -31.488  22.261  29.976  1.00  0.00    -0.000 C 
BRANCH   8   9
ATOM      9  C   UNL     1     -30.922  23.595  30.493  1.00  0.00    -0.000 C 
BRANCH   9  10
ATOM     10  C   UNL     1     -31.833  24.789  30.162  1.00  0.00    -0.000 C 
BRANCH  10  11
ATOM     11  C   UNL     1     -33.280  24.579  30.633  1.00  0.00    -0.003 C 
ATOM     12  C   UNL     1     -34.012  25.911  30.764  1.00  0.00     0.004 C 
ENDBRANCH  10  11
ENDBRANCH   9  10
ENDBRANCH   8   9
ENDBRANCH   7   8
ENDBRANCH   6   7
ENDBRANCH   5   6
ENDBRANCH   4   5
ENDBRANCH   3   4
ENDBRANCH   2   3
ENDBRANCH   1   2
BRANCH   1  13
ATOM     13  C   UNL     1     -29.962  20.647  23.266  1.00  0.00     0.000 C 
BRANCH  13  14
ATOM     14  C   UNL     1     -29.737  19.185  22.843  1.00  0.00     0.000 C 
BRANCH  14  15
ATOM     15  C   UNL     1     -29.922  18.191  24.004  1.00  0.00     0.000 C 
BRANCH  15  16
ATOM     16  C   UNL     1     -29.924  18.818  25.410  1.00  0.00     0.000 C 
BRANCH  16  17
ATOM     17  C   UNL     1     -31.292  18.718  26.109  1.00  0.00     0.000 C 
BRANCH  17  18
ATOM     18  C   UNL     1     -32.350  19.638  25.480  1.00  0.00     0.000 C 
BRANCH  18  19
ATOM     19  C   UNL     1     -33.630  18.881  25.087  1.00  0.00     0.000 C 
BRANCH  19  20
ATOM     20  C   UNL     1     -33.489  17.355  25.238  1.00  0.00     0.006 C 
BRANCH  20  21
ATOM     21  C   UNL     1     -34.517  16.715  26.186  1.00  0.00     0.053 C 
BRANCH  21  22
ATOM     22  C   UNL     1     -33.992  15.464  26.820  1.00  0.00     0.041 C 
ATOM     23  O   UNL     1     -33.874  15.389  28.072  1.00  0.00    -0.550 OA
ATOM     24  O   UNL     1     -33.662  14.369  26.030  1.00  0.00    -0.550 OA
ENDBRANCH  21  22
ENDBRANCH  20  21
ENDBRANCH  19  20
ENDBRANCH  18  19
ENDBRANCH  17  18
ENDBRANCH  16  17
ENDBRANCH  15  16
ENDBRANCH  14  15
ENDBRANCH  13  14
ENDBRANCH   1  13
TORSDOF 20
ENDMDL
MODEL 7
REMARK VINA RESULT:    -4.100      2.776      5.973
REMARK INTER + INTRA:         -11.617
REMARK INTER:                  -8.880
REMARK INTRA:                  -2.737
REMARK UNBOUND:                -2.723
REMARK SMILES CCCCCCCCCCCCCCCCCCCCCC(=O)[O-]
REMARK SMILES IDX 12 1 11 2 10 3 9 4 8 5 7 6 6 7 5 8 4 9 3 10 2 11 1 12 13 13
REMARK SMILES IDX 14 14 15 15 16 16 17 17 18 18 19 19 20 20 21 21 22 22 23 23
REMARK SMILES IDX 24 24
REMARK H PARENT
REMARK Flexibility Score: inf
ROOT
ATOM      1  C   UNL     1     -27.899  16.490  20.306  1.00  0.00     0.000 C 
ENDROOT
BRANCH   1   2
ATOM      2  C   UNL     1     -28.297  15.888  21.666  1.00  0.00     0.000 C 
BRANCH   2   3
ATOM      3  C   UNL     1     -29.691  16.338  22.136  1.00  0.00     0.000 C 
BRANCH   3   4
ATOM      4  C   UNL     1     -30.250  17.493  21.291  1.00  0.00    -0.000 C 
BRANCH   4   5
ATOM      5  C   UNL     1     -30.601  18.727  22.141  1.00  0.00    -0.000 C 
BRANCH   5   6
ATOM      6  C   UNL     1     -31.008  18.362  23.579  1.00  0.00    -0.000 C 
BRANCH   6   7
ATOM      7  C   UNL     1     -32.028  19.317  24.232  1.00  0.00    -0.000 C 
BRANCH   7   8
ATOM      8  C   UNL     1     -33.139  18.633  25.051  1.00  0.00    -0.000 C 
BRANCH   8   9
ATOM      9  C   UNL     1     -33.717  17.391  24.351  1.00  0.00    -0.000 C 
BRANCH   9  10
ATOM     10  C   UNL     1     -33.779  16.167  25.281  1.00  0.00    -0.000 C 
BRANCH  10  11
ATOM     11  C   UNL     1     -34.532  16.454  26.589  1.00  0.00    -0.003 C 
ATOM     12  C   UNL     1     -33.692  16.063  27.801  1.00  0.00     0.004 C 
ENDBRANCH  10  11
ENDBRANCH   9  10
ENDBRANCH   8   9
ENDBRANCH   7   8
ENDBRANCH   6   7
ENDBRANCH   5   6
ENDBRANCH   4   5
ENDBRANCH   3   4
ENDBRANCH   2   3
ENDBRANCH   1   2
BRANCH   1  13
ATOM     13  C   UNL     1     -26.577  17.280  20.302  1.00  0.00     0.000 C 
BRANCH  13  14
ATOM     14  C   UNL     1     -25.980  17.457  21.709  1.00  0.00     0.000 C 
BRANCH  14  15
ATOM     15  C   UNL     1     -25.943  18.928  22.164  1.00  0.00     0.000 C 
BRANCH  15  16
ATOM     16  C   UNL     1     -27.201  19.414  22.907  1.00  0.00     0.000 C 
BRANCH  16  17
ATOM     17  C   UNL     1     -27.167  20.921  23.219  1.00  0.00     0.000 C 
BRANCH  17  18
ATOM     18  C   UNL     1     -28.476  21.635  22.844  1.00  0.00     0.000 C 
BRANCH  18  19
ATOM     19  C   UNL     1     -29.450  21.740  24.030  1.00  0.00     0.000 C 
BRANCH  19  20
ATOM     20  C   UNL     1     -28.730  21.772  25.390  1.00  0.00     0.006 C 
BRANCH  20  21
ATOM     21  C   UNL     1     -29.351  20.855  26.457  1.00  0.00     0.053 C 
BRANCH  21  22
ATOM     22  C   UNL     1     -29.948  21.635  27.588  1.00  0.00     0.041 C 
ATOM     23  O   UNL     1     -31.191  21.612  27.787  1.00  0.00    -0.550 OA
ATOM     24  O   UNL     1     -29.127  22.362  28.441  1.00  0.00    -0.550 OA
ENDBRANCH  21  22
ENDBRANCH  20  21
ENDBRANCH  19  20
ENDBRANCH  18  19
ENDBRANCH  17  18
ENDBRANCH  16  17
ENDBRANCH  15  16
ENDBRANCH  14  15
ENDBRANCH  13  14
ENDBRANCH   1  13
TORSDOF 20
ENDMDL
MODEL 8
REMARK VINA RESULT:    -4.079      1.330      4.360
REMARK INTER + INTRA:         -11.572
REMARK INTER:                  -9.206
REMARK INTRA:                  -2.366
REMARK UNBOUND:                -2.723
REMARK SMILES CCCCCCCCCCCCCCCCCCCCCC(=O)[O-]
REMARK SMILES IDX 12 1 11 2 10 3 9 4 8 5 7 6 6 7 5 8 4 9 3 10 2 11 1 12 13 13
REMARK SMILES IDX 14 14 15 15 16 16 17 17 18 18 19 19 20 20 21 21 22 22 23 23
REMARK SMILES IDX 24 24
REMARK H PARENT
REMARK Flexibility Score: inf
ROOT
ATOM      1  C   UNL     1     -29.152  20.230  24.384  1.00  0.00     0.000 C 
ENDROOT
BRANCH   1   2
ATOM      2  C   UNL     1     -30.489  20.231  23.621  1.00  0.00     0.000 C 
BRANCH   2   3
ATOM      3  C   UNL     1     -31.694  19.912  24.523  1.00  0.00     0.000 C 
BRANCH   3   4
ATOM      4  C   UNL     1     -31.713  18.445  24.980  1.00  0.00    -0.000 C 
BRANCH   4   5
ATOM      5  C   UNL     1     -32.381  17.517  23.949  1.00  0.00    -0.000 C 
BRANCH   5   6
ATOM      6  C   UNL     1     -33.735  16.970  24.431  1.00  0.00    -0.000 C 
BRANCH   6   7
ATOM      7  C   UNL     1     -34.193  17.481  25.812  1.00  0.00    -0.000 C 
BRANCH   7   8
ATOM      8  C   UNL     1     -34.664  16.391  26.794  1.00  0.00    -0.000 C 
BRANCH   8   9
ATOM      9  C   UNL     1     -33.516  15.815  27.641  1.00  0.00    -0.000 C 
BRANCH   9  10
ATOM     10  C   UNL     1     -33.033  14.448  27.126  1.00  0.00    -0.000 C 
BRANCH  10  11
ATOM     11  C   UNL     1     -31.736  14.546  26.311  1.00  0.00    -0.003 C 
ATOM     12  C   UNL     1     -30.732  15.475  26.987  1.00  0.00     0.004 C 
ENDBRANCH  10  11
ENDBRANCH   9  10
ENDBRANCH   8   9
ENDBRANCH   7   8
ENDBRANCH   6   7
ENDBRANCH   5   6
ENDBRANCH   4   5
ENDBRANCH   3   4
ENDBRANCH   2   3
ENDBRANCH   1   2
BRANCH   1  13
ATOM     13  C   UNL     1     -28.610  21.623  24.757  1.00  0.00     0.000 C 
BRANCH  13  14
ATOM     14  C   UNL     1     -29.141  22.131  26.108  1.00  0.00     0.000 C 
BRANCH  14  15
ATOM     15  C   UNL     1     -29.000  21.093  27.236  1.00  0.00     0.000 C 
BRANCH  15  16
ATOM     16  C   UNL     1     -30.298  20.774  27.999  1.00  0.00     0.000 C 
BRANCH  16  17
ATOM     17  C   UNL     1     -31.178  22.015  28.231  1.00  0.00     0.000 C 
BRANCH  17  18
ATOM     18  C   UNL     1     -31.554  22.209  29.709  1.00  0.00     0.000 C 
BRANCH  18  19
ATOM     19  C   UNL     1     -30.733  23.321  30.384  1.00  0.00     0.000 C 
BRANCH  19  20
ATOM     20  C   UNL     1     -31.406  24.703  30.281  1.00  0.00     0.006 C 
BRANCH  20  21
ATOM     21  C   UNL     1     -32.911  24.653  29.971  1.00  0.00     0.053 C 
BRANCH  21  22
ATOM     22  C   UNL     1     -33.715  25.431  30.965  1.00  0.00     0.041 C 
ATOM     23  O   UNL     1     -33.561  25.233  32.199  1.00  0.00    -0.550 OA
ATOM     24  O   UNL     1     -34.613  26.399  30.530  1.00  0.00    -0.550 OA
ENDBRANCH  21  22
ENDBRANCH  20  21
ENDBRANCH  19  20
ENDBRANCH  18  19
ENDBRANCH  17  18
ENDBRANCH  16  17
ENDBRANCH  15  16
ENDBRANCH  14  15
ENDBRANCH  13  14
ENDBRANCH   1  13
TORSDOF 20
ENDMDL
MODEL 9
REMARK VINA RESULT:    -4.075      3.978      6.968
REMARK INTER + INTRA:         -11.561
REMARK INTER:                  -7.654
REMARK INTRA:                  -3.907
REMARK UNBOUND:                -2.723
REMARK SMILES CCCCCCCCCCCCCCCCCCCCCC(=O)[O-]
REMARK SMILES IDX 12 1 11 2 10 3 9 4 8 5 7 6 6 7 5 8 4 9 3 10 2 11 1 12 13 13
REMARK SMILES IDX 14 14 15 15 16 16 17 17 18 18 19 19 20 20 21 21 22 22 23 23
REMARK SMILES IDX 24 24
REMARK H PARENT
REMARK Flexibility Score: inf
ROOT
ATOM      1  C   UNL     1     -29.905  18.331  26.086  1.00  0.00     0.000 C 
ENDROOT
BRANCH   1   2
ATOM      2  C   UNL     1     -30.019  17.284  24.963  1.00  0.00     0.000 C 
BRANCH   2   3
ATOM      3  C   UNL     1     -29.535  17.811  23.601  1.00  0.00     0.000 C 
BRANCH   3   4
ATOM      4  C   UNL     1     -28.721  19.109  23.729  1.00  0.00    -0.000 C 
BRANCH   4   5
ATOM      5  C   UNL     1     -29.307  20.255  22.886  1.00  0.00    -0.000 C 
BRANCH   5   6
ATOM      6  C   UNL     1     -28.994  21.643  23.470  1.00  0.00    -0.000 C 
BRANCH   6   7
ATOM      7  C   UNL     1     -28.327  21.632  24.861  1.00  0.00    -0.000 C 
BRANCH   7   8
ATOM      8  C   UNL     1     -28.958  22.577  25.901  1.00  0.00    -0.000 C 
BRANCH   8   9
ATOM      9  C   UNL     1     -28.479  22.292  27.335  1.00  0.00    -0.000 C 
BRANCH   9  10
ATOM     10  C   UNL     1     -27.828  20.905  27.473  1.00  0.00    -0.000 C 
BRANCH  10  11
ATOM     11  C   UNL     1     -28.222  20.193  28.776  1.00  0.00    -0.003 C 
ATOM     12  C   UNL     1     -29.501  20.787  29.360  1.00  0.00     0.004 C 
ENDBRANCH  10  11
ENDBRANCH   9  10
ENDBRANCH   8   9
ENDBRANCH   7   8
ENDBRANCH   6   7
ENDBRANCH   5   6
ENDBRANCH   4   5
ENDBRANCH   3   4
ENDBRANCH   2   3
ENDBRANCH   1   2
BRANCH   1  13
ATOM     13  C   UNL     1     -31.240  18.954  26.538  1.00  0.00     0.000 C 
BRANCH  13  14
ATOM     14  C   UNL     1     -31.678  20.138  25.658  1.00  0.00     0.000 C 
BRANCH  14  15
ATOM     15  C   UNL     1     -32.796  19.766  24.667  1.00  0.00     0.000 C 
BRANCH  15  16
ATOM     16  C   UNL     1     -33.810  18.730  25.183  1.00  0.00     0.000 C 
BRANCH  16  17
ATOM     17  C   UNL     1     -33.791  17.419  24.376  1.00  0.00     0.000 C 
BRANCH  17  18
ATOM     18  C   UNL     1     -33.477  16.191  25.245  1.00  0.00     0.000 C 
BRANCH  18  19
ATOM     19  C   UNL     1     -34.488  16.004  26.388  1.00  0.00     0.000 C 
BRANCH  19  20
ATOM     20  C   UNL     1     -33.850  16.168  27.780  1.00  0.00     0.006 C 
BRANCH  20  21
ATOM     21  C   UNL     1     -32.513  15.428  27.955  1.00  0.00     0.053 C 
BRANCH  21  22
ATOM     22  C   UNL     1     -32.710  14.015  28.411  1.00  0.00     0.041 C 
ATOM     23  O   UNL     1     -31.801  13.161  28.240  1.00  0.00    -0.550 OA
ATOM     24  O   UNL     1     -33.887  13.649  29.053  1.00  0.00    -0.550 OA
ENDBRANCH  21  22
ENDBRANCH  20  21
ENDBRANCH  19  20
ENDBRANCH  18  19
ENDBRANCH  17  18
ENDBRANCH  16  17
ENDBRANCH  15  16
ENDBRANCH  14  15
ENDBRANCH  13  14
ENDBRANCH   1  13
TORSDOF 20
ENDMDL
