MODEL 1
REMARK VINA RESULT:    -5.092      0.000      0.000
REMARK INTER + INTRA:         -15.276
REMARK INTER:                 -11.641
REMARK INTRA:                  -3.635
REMARK UNBOUND:                -3.635
REMARK SMILES CCCCCCCCCCCCCCCCCCCCCCCC(=O)[O-]
REMARK SMILES IDX 13 1 14 2 15 3 16 4 17 5 18 6 19 7 20 8 21 9 22 10 23 11
REMARK SMILES IDX 24 12 25 13 26 14 12 15 11 16 10 17 9 18 8 19 7 20 6 21 5 22
REMARK SMILES IDX 4 23 3 24 2 25 1 26
REMARK H PARENT
REMARK Flexibility Score: inf
ROOT
ATOM      1  C   UNL     1      17.920  29.226  30.568  1.00  0.00     0.000 C 
ENDROOT
BRANCH   1   2
ATOM      2  C   UNL     1      18.481  30.651  30.441  1.00  0.00     0.000 C 
BRANCH   2   3
ATOM      3  C   UNL     1      18.489  31.112  28.978  1.00  0.00     0.000 C 
BRANCH   3   4
ATOM      4  C   UNL     1      18.402  29.913  28.022  1.00  0.00     0.000 C 
BRANCH   4   5
ATOM      5  C   UNL     1      19.779  29.467  27.506  1.00  0.00     0.000 C 
BRANCH   5   6
ATOM      6  C   UNL     1      19.711  28.148  26.715  1.00  0.00     0.000 C 
BRANCH   6   7
ATOM      7  C   UNL     1      18.287  27.577  26.629  1.00  0.00     0.000 C 
BRANCH   7   8
ATOM      8  C   UNL     1      18.180  26.164  27.229  1.00  0.00     0.000 C 
BRANCH   8   9
ATOM      9  C   UNL     1      18.746  26.084  28.656  1.00  0.00     0.000 C 
BRANCH   9  10
ATOM     10  C   UNL     1      19.587  24.816  28.890  1.00  0.00     0.006 C 
BRANCH  10  11
ATOM     11  C   UNL     1      19.027  23.603  28.133  1.00  0.00     0.053 C 
BRANCH  11  12
ATOM     12  C   UNL     1      19.336  22.317  28.838  1.00  0.00     0.041 C 
ATOM     13  O   UNL     1      18.427  21.693  29.446  1.00  0.00    -0.550 OA
ATOM     14  O   UNL     1      20.626  21.798  28.807  1.00  0.00    -0.550 OA
ENDBRANCH  11  12
ENDBRANCH  10  11
ENDBRANCH   9  10
ENDBRANCH   8   9
ENDBRANCH   7   8
ENDBRANCH   6   7
ENDBRANCH   5   6
ENDBRANCH   4   5
ENDBRANCH   3   4
ENDBRANCH   2   3
ENDBRANCH   1   2
BRANCH   1  15
ATOM     15  C   UNL     1      18.766  28.333  31.488  1.00  0.00     0.000 C 
BRANCH  15  16
ATOM     16  C   UNL     1      20.269  28.642  31.403  1.00  0.00     0.000 C 
BRANCH  16  17
ATOM     17  C   UNL     1      21.141  27.395  31.638  1.00  0.00     0.000 C 
BRANCH  17  18
ATOM     18  C   UNL     1      20.399  26.247  32.357  1.00  0.00    -0.000 C 
BRANCH  18  19
ATOM     19  C   UNL     1      20.739  26.139  33.859  1.00  0.00    -0.000 C 
BRANCH  19  20
ATOM     20  C   UNL     1      19.721  26.831  34.788  1.00  0.00    -0.000 C 
BRANCH  20  21
ATOM     21  C   UNL     1      20.225  28.152  35.407  1.00  0.00    -0.000 C 
BRANCH  21  22
ATOM     22  C   UNL     1      19.137  29.242  35.515  1.00  0.00    -0.000 C 
BRANCH  22  23
ATOM     23  C   UNL     1      17.800  28.867  34.847  1.00  0.00    -0.000 C 
BRANCH  23  24
ATOM     24  C   UNL     1      16.714  29.956  34.959  1.00  0.00    -0.000 C 
BRANCH  24  25
ATOM     25  C   UNL     1      16.419  30.634  33.612  1.00  0.00    -0.003 C 
ATOM     26  C   UNL     1      17.045  32.023  33.549  1.00  0.00     0.004 C 
ENDBRANCH  24  25
ENDBRANCH  23  24
ENDBRANCH  22  23
ENDBRANCH  21  22
ENDBRANCH  20  21
ENDBRANCH  19  20
ENDBRANCH  18  19
ENDBRANCH  17  18
ENDBRANCH  16  17
ENDBRANCH  15  16
ENDBRANCH   1  15
TORSDOF 22
ENDMDL
MODEL 2
REMARK VINA RESULT:    -4.993      1.332      3.073
REMARK INTER + INTRA:         -15.050
REMARK INTER:                 -11.617
REMARK INTRA:                  -3.433
REMARK UNBOUND:                -3.635
REMARK SMILES CCCCCCCCCCCCCCCCCCCCCCCC(=O)[O-]
REMARK SMILES IDX 13 1 14 2 15 3 16 4 17 5 18 6 19 7 20 8 21 9 22 10 23 11
REMARK SMILES IDX 24 12 25 13 26 14 12 15 11 16 10 17 9 18 8 19 7 20 6 21 5 22
REMARK SMILES IDX 4 23 3 24 2 25 1 26
REMARK H PARENT
REMARK Flexibility Score: inf
ROOT
ATOM      1  C   UNL     1      19.437  27.378  32.154  1.00  0.00     0.000 C 
ENDROOT
BRANCH   1   2
ATOM      2  C   UNL     1      19.677  28.602  31.258  1.00  0.00     0.000 C 
BRANCH   2   3
ATOM      3  C   UNL     1      18.398  28.996  30.508  1.00  0.00     0.000 C 
BRANCH   3   4
ATOM      4  C   UNL     1      18.633  30.234  29.630  1.00  0.00     0.000 C 
BRANCH   4   5
ATOM      5  C   UNL     1      18.178  30.025  28.177  1.00  0.00     0.000 C 
BRANCH   5   6
ATOM      6  C   UNL     1      18.863  28.814  27.515  1.00  0.00     0.000 C 
BRANCH   6   7
ATOM      7  C   UNL     1      17.867  27.719  27.100  1.00  0.00     0.000 C 
BRANCH   7   8
ATOM      8  C   UNL     1      18.394  26.303  27.385  1.00  0.00     0.000 C 
BRANCH   8   9
ATOM      9  C   UNL     1      19.588  26.301  28.353  1.00  0.00     0.000 C 
BRANCH   9  10
ATOM     10  C   UNL     1      19.789  24.941  29.045  1.00  0.00     0.006 C 
BRANCH  10  11
ATOM     11  C   UNL     1      19.051  23.808  28.319  1.00  0.00     0.053 C 
BRANCH  11  12
ATOM     12  C   UNL     1      19.215  22.495  29.023  1.00  0.00     0.041 C 
ATOM     13  O   UNL     1      19.862  22.431  30.101  1.00  0.00    -0.550 OA
ATOM     14  O   UNL     1      18.638  21.345  28.495  1.00  0.00    -0.550 OA
ENDBRANCH  11  12
ENDBRANCH  10  11
ENDBRANCH   9  10
ENDBRANCH   8   9
ENDBRANCH   7   8
ENDBRANCH   6   7
ENDBRANCH   5   6
ENDBRANCH   4   5
ENDBRANCH   3   4
ENDBRANCH   2   3
ENDBRANCH   1   2
BRANCH   1  15
ATOM     15  C   UNL     1      20.279  27.406  33.439  1.00  0.00     0.000 C 
BRANCH  15  16
ATOM     16  C   UNL     1      19.423  27.347  34.714  1.00  0.00     0.000 C 
BRANCH  16  17
ATOM     17  C   UNL     1      19.708  28.520  35.669  1.00  0.00     0.000 C 
BRANCH  17  18
ATOM     18  C   UNL     1      18.808  29.752  35.423  1.00  0.00    -0.000 C 
BRANCH  18  19
ATOM     19  C   UNL     1      17.411  29.395  34.871  1.00  0.00    -0.000 C 
BRANCH  19  20
ATOM     20  C   UNL     1      16.959  30.270  33.685  1.00  0.00    -0.000 C 
BRANCH  20  21
ATOM     21  C   UNL     1      17.993  31.329  33.247  1.00  0.00    -0.000 C 
BRANCH  21  22
ATOM     22  C   UNL     1      17.495  32.782  33.395  1.00  0.00    -0.000 C 
BRANCH  22  23
ATOM     23  C   UNL     1      16.089  32.908  34.015  1.00  0.00    -0.000 C 
BRANCH  23  24
ATOM     24  C   UNL     1      16.077  33.526  35.427  1.00  0.00    -0.000 C 
BRANCH  24  25
ATOM     25  C   UNL     1      15.817  32.484  36.524  1.00  0.00    -0.003 C 
ATOM     26  C   UNL     1      17.051  32.290  37.399  1.00  0.00     0.004 C 
ENDBRANCH  24  25
ENDBRANCH  23  24
ENDBRANCH  22  23
ENDBRANCH  21  22
ENDBRANCH  20  21
ENDBRANCH  19  20
ENDBRANCH  18  19
ENDBRANCH  17  18
ENDBRANCH  16  17
ENDBRANCH  15  16
ENDBRANCH   1  15
TORSDOF 22
ENDMDL
MODEL 3
REMARK VINA RESULT:    -4.906      4.259      8.776
REMARK INTER + INTRA:         -14.851
REMARK INTER:                 -11.558
REMARK INTRA:                  -3.293
REMARK UNBOUND:                -3.635
REMARK SMILES CCCCCCCCCCCCCCCCCCCCCCCC(=O)[O-]
REMARK SMILES IDX 13 1 14 2 15 3 16 4 17 5 18 6 19 7 20 8 21 9 22 10 23 11
REMARK SMILES IDX 24 12 25 13 26 14 12 15 11 16 10 17 9 18 8 19 7 20 6 21 5 22
REMARK SMILES IDX 4 23 3 24 2 25 1 26
REMARK H PARENT
REMARK Flexibility Score: inf
ROOT
ATOM      1  C   UNL     1      19.510  28.307  31.374  1.00  0.00     0.000 C 
ENDROOT
BRANCH   1   2
ATOM      2  C   UNL     1      19.562  27.167  32.402  1.00  0.00     0.000 C 
BRANCH   2   3
ATOM      3  C   UNL     1      20.485  27.523  33.574  1.00  0.00     0.000 C 
BRANCH   3   4
ATOM      4  C   UNL     1      19.753  27.376  34.916  1.00  0.00     0.000 C 
BRANCH   4   5
ATOM      5  C   UNL     1      19.817  28.654  35.768  1.00  0.00     0.000 C 
BRANCH   5   6
ATOM      6  C   UNL     1      18.825  29.730  35.289  1.00  0.00     0.000 C 
BRANCH   6   7
ATOM      7  C   UNL     1      17.458  29.149  34.896  1.00  0.00     0.000 C 
BRANCH   7   8
ATOM      8  C   UNL     1      16.327  30.187  34.986  1.00  0.00     0.000 C 
BRANCH   8   9
ATOM      9  C   UNL     1      16.787  31.598  34.584  1.00  0.00     0.000 C 
BRANCH   9  10
ATOM     10  C   UNL     1      16.207  32.694  35.497  1.00  0.00     0.006 C 
BRANCH  10  11
ATOM     11  C   UNL     1      15.687  32.125  36.825  1.00  0.00     0.053 C 
BRANCH  11  12
ATOM     12  C   UNL     1      16.447  32.666  37.998  1.00  0.00     0.041 C 
ATOM     13  O   UNL     1      17.029  33.780  37.916  1.00  0.00    -0.550 OA
ATOM     14  O   UNL     1      16.498  31.947  39.187  1.00  0.00    -0.550 OA
ENDBRANCH  11  12
ENDBRANCH  10  11
ENDBRANCH   9  10
ENDBRANCH   8   9
ENDBRANCH   7   8
ENDBRANCH   6   7
ENDBRANCH   5   6
ENDBRANCH   4   5
ENDBRANCH   3   4
ENDBRANCH   2   3
ENDBRANCH   1   2
BRANCH   1  15
ATOM     15  C   UNL     1      18.093  28.867  31.175  1.00  0.00     0.000 C 
BRANCH  15  16
ATOM     16  C   UNL     1      17.997  30.371  31.479  1.00  0.00     0.000 C 
BRANCH  16  17
ATOM     17  C   UNL     1      19.057  31.192  30.724  1.00  0.00     0.000 C 
BRANCH  17  18
ATOM     18  C   UNL     1      18.494  31.957  29.504  1.00  0.00    -0.000 C 
BRANCH  18  19
ATOM     19  C   UNL     1      18.460  31.116  28.211  1.00  0.00    -0.000 C 
BRANCH  19  20
ATOM     20  C   UNL     1      19.852  30.796  27.629  1.00  0.00    -0.000 C 
BRANCH  20  21
ATOM     21  C   UNL     1      20.181  29.290  27.565  1.00  0.00    -0.000 C 
BRANCH  21  22
ATOM     22  C   UNL     1      19.751  28.616  26.244  1.00  0.00    -0.000 C 
BRANCH  22  23
ATOM     23  C   UNL     1      18.827  27.397  26.429  1.00  0.00    -0.000 C 
BRANCH  23  24
ATOM     24  C   UNL     1      17.601  27.667  27.325  1.00  0.00    -0.000 C 
BRANCH  24  25
ATOM     25  C   UNL     1      17.478  26.658  28.475  1.00  0.00    -0.003 C 
ATOM     26  C   UNL     1      18.772  25.870  28.655  1.00  0.00     0.004 C 
ENDBRANCH  24  25
ENDBRANCH  23  24
ENDBRANCH  22  23
ENDBRANCH  21  22
ENDBRANCH  20  21
ENDBRANCH  19  20
ENDBRANCH  18  19
ENDBRANCH  17  18
ENDBRANCH  16  17
ENDBRANCH  15  16
ENDBRANCH   1  15
TORSDOF 22
ENDMDL
MODEL 4
REMARK VINA RESULT:    -4.900      3.849      8.527
REMARK INTER + INTRA:         -14.836
REMARK INTER:                 -12.130
REMARK INTRA:                  -2.706
REMARK UNBOUND:                -3.635
REMARK SMILES CCCCCCCCCCCCCCCCCCCCCCCC(=O)[O-]
REMARK SMILES IDX 13 1 14 2 15 3 16 4 17 5 18 6 19 7 20 8 21 9 22 10 23 11
REMARK SMILES IDX 24 12 25 13 26 14 12 15 11 16 10 17 9 18 8 19 7 20 6 21 5 22
REMARK SMILES IDX 4 23 3 24 2 25 1 26
REMARK H PARENT
REMARK Flexibility Score: inf
ROOT
ATOM      1  C   UNL     1      18.535  29.158  30.766  1.00  0.00     0.000 C 
ENDROOT
BRANCH   1   2
ATOM      2  C   UNL     1      19.665  28.816  31.750  1.00  0.00     0.000 C 
BRANCH   2   3
ATOM      3  C   UNL     1      19.687  27.315  32.064  1.00  0.00     0.000 C 
BRANCH   3   4
ATOM      4  C   UNL     1      20.455  27.036  33.365  1.00  0.00     0.000 C 
BRANCH   4   5
ATOM      5  C   UNL     1      19.544  27.046  34.603  1.00  0.00     0.000 C 
BRANCH   5   6
ATOM      6  C   UNL     1      19.874  28.201  35.566  1.00  0.00     0.000 C 
BRANCH   6   7
ATOM      7  C   UNL     1      18.881  29.370  35.457  1.00  0.00     0.000 C 
BRANCH   7   8
ATOM      8  C   UNL     1      17.538  28.949  34.838  1.00  0.00     0.000 C 
BRANCH   8   9
ATOM      9  C   UNL     1      16.531  30.108  34.767  1.00  0.00     0.000 C 
BRANCH   9  10
ATOM     10  C   UNL     1      16.936  31.184  33.743  1.00  0.00     0.006 C 
BRANCH  10  11
ATOM     11  C   UNL     1      17.299  32.515  34.417  1.00  0.00     0.053 C 
BRANCH  11  12
ATOM     12  C   UNL     1      16.104  33.408  34.567  1.00  0.00     0.041 C 
ATOM     13  O   UNL     1      15.803  33.878  35.695  1.00  0.00    -0.550 OA
ATOM     14  O   UNL     1      15.335  33.733  33.455  1.00  0.00    -0.550 OA
ENDBRANCH  11  12
ENDBRANCH  10  11
ENDBRANCH   9  10
ENDBRANCH   8   9
ENDBRANCH   7   8
ENDBRANCH   6   7
ENDBRANCH   5   6
ENDBRANCH   4   5
ENDBRANCH   3   4
ENDBRANCH   2   3
ENDBRANCH   1   2
BRANCH   1  15
ATOM     15  C   UNL     1      18.753  30.500  30.052  1.00  0.00     0.000 C 
BRANCH  15  16
ATOM     16  C   UNL     1      18.455  30.430  28.545  1.00  0.00     0.000 C 
BRANCH  16  17
ATOM     17  C   UNL     1      19.588  29.755  27.752  1.00  0.00     0.000 C 
BRANCH  17  18
ATOM     18  C   UNL     1      19.116  28.565  26.886  1.00  0.00    -0.000 C 
BRANCH  18  19
ATOM     19  C   UNL     1      17.715  28.041  27.271  1.00  0.00    -0.000 C 
BRANCH  19  20
ATOM     20  C   UNL     1      17.736  26.785  28.166  1.00  0.00    -0.000 C 
BRANCH  20  21
ATOM     21  C   UNL     1      18.769  25.720  27.740  1.00  0.00    -0.000 C 
BRANCH  21  22
ATOM     22  C   UNL     1      19.705  25.271  28.883  1.00  0.00    -0.000 C 
BRANCH  22  23
ATOM     23  C   UNL     1      19.681  23.755  29.159  1.00  0.00    -0.000 C 
BRANCH  23  24
ATOM     24  C   UNL     1      19.208  22.905  27.963  1.00  0.00    -0.000 C 
BRANCH  24  25
ATOM     25  C   UNL     1      19.006  21.428  28.332  1.00  0.00    -0.003 C 
ATOM     26  C   UNL     1      18.620  21.278  29.800  1.00  0.00     0.004 C 
ENDBRANCH  24  25
ENDBRANCH  23  24
ENDBRANCH  22  23
ENDBRANCH  21  22
ENDBRANCH  20  21
ENDBRANCH  19  20
ENDBRANCH  18  19
ENDBRANCH  17  18
ENDBRANCH  16  17
ENDBRANCH  15  16
ENDBRANCH   1  15
TORSDOF 22
ENDMDL
MODEL 5
REMARK VINA RESULT:    -4.894      3.579      8.288
REMARK INTER + INTRA:         -14.822
REMARK INTER:                 -11.078
REMARK INTRA:                  -3.744
REMARK UNBOUND:                -3.635
REMARK SMILES CCCCCCCCCCCCCCCCCCCCCCCC(=O)[O-]
REMARK SMILES IDX 13 1 14 2 15 3 16 4 17 5 18 6 19 7 20 8 21 9 22 10 23 11
REMARK SMILES IDX 24 12 25 13 26 14 12 15 11 16 10 17 9 18 8 19 7 20 6 21 5 22
REMARK SMILES IDX 4 23 3 24 2 25 1 26
REMARK H PARENT
REMARK Flexibility Score: inf
ROOT
ATOM      1  C   UNL     1      19.604  28.009  31.204  1.00  0.00     0.000 C 
ENDROOT
BRANCH   1   2
ATOM      2  C   UNL     1      19.841  26.891  32.231  1.00  0.00     0.000 C 
BRANCH   2   3
ATOM      3  C   UNL     1      20.584  27.423  33.463  1.00  0.00     0.000 C 
BRANCH   3   4
ATOM      4  C   UNL     1      19.722  27.285  34.727  1.00  0.00     0.000 C 
BRANCH   4   5
ATOM      5  C   UNL     1      19.930  28.445  35.714  1.00  0.00     0.000 C 
BRANCH   5   6
ATOM      6  C   UNL     1      18.781  29.469  35.668  1.00  0.00     0.000 C 
BRANCH   6   7
ATOM      7  C   UNL     1      17.600  29.002  34.801  1.00  0.00     0.000 C 
BRANCH   7   8
ATOM      8  C   UNL     1      16.449  30.022  34.773  1.00  0.00     0.000 C 
BRANCH   8   9
ATOM      9  C   UNL     1      16.727  31.251  35.653  1.00  0.00     0.000 C 
BRANCH   9  10
ATOM     10  C   UNL     1      16.382  32.576  34.948  1.00  0.00     0.006 C 
BRANCH  10  11
ATOM     11  C   UNL     1      17.190  32.772  33.657  1.00  0.00     0.053 C 
BRANCH  11  12
ATOM     12  C   UNL     1      18.636  33.044  33.941  1.00  0.00     0.041 C 
ATOM     13  O   UNL     1      19.521  32.237  33.553  1.00  0.00    -0.550 OA
ATOM     14  O   UNL     1      19.007  34.199  34.620  1.00  0.00    -0.550 OA
ENDBRANCH  11  12
ENDBRANCH  10  11
ENDBRANCH   9  10
ENDBRANCH   8   9
ENDBRANCH   7   8
ENDBRANCH   6   7
ENDBRANCH   5   6
ENDBRANCH   4   5
ENDBRANCH   3   4
ENDBRANCH   2   3
ENDBRANCH   1   2
BRANCH   1  15
ATOM     15  C   UNL     1      18.147  28.492  31.174  1.00  0.00     0.000 C 
BRANCH  15  16
ATOM     16  C   UNL     1      18.022  30.020  31.287  1.00  0.00     0.000 C 
BRANCH  16  17
ATOM     17  C   UNL     1      19.034  30.761  30.396  1.00  0.00     0.000 C 
BRANCH  17  18
ATOM     18  C   UNL     1      18.420  31.324  29.095  1.00  0.00    -0.000 C 
BRANCH  18  19
ATOM     19  C   UNL     1      18.807  30.522  27.833  1.00  0.00    -0.000 C 
BRANCH  19  20
ATOM     20  C   UNL     1      20.165  29.799  27.938  1.00  0.00    -0.000 C 
BRANCH  20  21
ATOM     21  C   UNL     1      20.126  28.315  27.517  1.00  0.00    -0.000 C 
BRANCH  21  22
ATOM     22  C   UNL     1      19.068  28.003  26.437  1.00  0.00    -0.000 C 
BRANCH  22  23
ATOM     23  C   UNL     1      18.200  26.767  26.742  1.00  0.00    -0.000 C 
BRANCH  23  24
ATOM     24  C   UNL     1      18.305  26.268  28.197  1.00  0.00    -0.000 C 
BRANCH  24  25
ATOM     25  C   UNL     1      18.822  24.826  28.289  1.00  0.00    -0.003 C 
ATOM     26  C   UNL     1      20.144  24.765  29.047  1.00  0.00     0.004 C 
ENDBRANCH  24  25
ENDBRANCH  23  24
ENDBRANCH  22  23
ENDBRANCH  21  22
ENDBRANCH  20  21
ENDBRANCH  19  20
ENDBRANCH  18  19
ENDBRANCH  17  18
ENDBRANCH  16  17
ENDBRANCH  15  16
ENDBRANCH   1  15
TORSDOF 22
ENDMDL
MODEL 6
REMARK VINA RESULT:    -4.871      4.505      8.869
REMARK INTER + INTRA:         -14.770
REMARK INTER:                 -11.994
REMARK INTRA:                  -2.776
REMARK UNBOUND:                -3.635
REMARK SMILES CCCCCCCCCCCCCCCCCCCCCCCC(=O)[O-]
REMARK SMILES IDX 13 1 14 2 15 3 16 4 17 5 18 6 19 7 20 8 21 9 22 10 23 11
REMARK SMILES IDX 24 12 25 13 26 14 12 15 11 16 10 17 9 18 8 19 7 20 6 21 5 22
REMARK SMILES IDX 4 23 3 24 2 25 1 26
REMARK H PARENT
REMARK Flexibility Score: inf
ROOT
ATOM      1  C   UNL     1      19.742  27.072  34.730  1.00  0.00     0.000 C 
ENDROOT
BRANCH   1   2
ATOM      2  C   UNL     1      20.669  27.570  35.850  1.00  0.00     0.000 C 
BRANCH   2   3
ATOM      3  C   UNL     1      20.233  28.952  36.354  1.00  0.00     0.000 C 
BRANCH   3   4
ATOM      4  C   UNL     1      19.718  29.822  35.198  1.00  0.00     0.000 C 
BRANCH   4   5
ATOM      5  C   UNL     1      18.312  30.384  35.461  1.00  0.00     0.000 C 
BRANCH   5   6
ATOM      6  C   UNL     1      17.222  29.633  34.673  1.00  0.00     0.000 C 
BRANCH   6   7
ATOM      7  C   UNL     1      16.649  30.461  33.512  1.00  0.00     0.000 C 
BRANCH   7   8
ATOM      8  C   UNL     1      17.684  31.424  32.906  1.00  0.00     0.000 C 
BRANCH   8   9
ATOM      9  C   UNL     1      17.234  32.893  32.973  1.00  0.00     0.000 C 
BRANCH   9  10
ATOM     10  C   UNL     1      15.979  33.090  33.842  1.00  0.00     0.006 C 
BRANCH  10  11
ATOM     11  C   UNL     1      15.305  34.445  33.585  1.00  0.00     0.053 C 
BRANCH  11  12
ATOM     12  C   UNL     1      15.271  35.294  34.820  1.00  0.00     0.041 C 
ATOM     13  O   UNL     1      16.009  35.014  35.800  1.00  0.00    -0.550 OA
ATOM     14  O   UNL     1      14.436  36.404  34.880  1.00  0.00    -0.550 OA
ENDBRANCH  11  12
ENDBRANCH  10  11
ENDBRANCH   9  10
ENDBRANCH   8   9
ENDBRANCH   7   8
ENDBRANCH   6   7
ENDBRANCH   5   6
ENDBRANCH   4   5
ENDBRANCH   3   4
ENDBRANCH   2   3
ENDBRANCH   1   2
BRANCH   1  15
ATOM     15  C   UNL     1      20.453  26.143  33.736  1.00  0.00     0.000 C 
BRANCH  15  16
ATOM     16  C   UNL     1      20.274  26.584  32.274  1.00  0.00     0.000 C 
BRANCH  16  17
ATOM     17  C   UNL     1      19.211  27.685  32.117  1.00  0.00     0.000 C 
BRANCH  17  18
ATOM     18  C   UNL     1      19.467  28.629  30.921  1.00  0.00    -0.000 C 
BRANCH  18  19
ATOM     19  C   UNL     1      18.174  29.118  30.233  1.00  0.00    -0.000 C 
BRANCH  19  20
ATOM     20  C   UNL     1      18.408  30.155  29.116  1.00  0.00    -0.000 C 
BRANCH  20  21
ATOM     21  C   UNL     1      18.564  29.544  27.707  1.00  0.00    -0.000 C 
BRANCH  21  22
ATOM     22  C   UNL     1      17.829  28.199  27.529  1.00  0.00    -0.000 C 
BRANCH  22  23
ATOM     23  C   UNL     1      18.701  27.078  26.930  1.00  0.00    -0.000 C 
BRANCH  23  24
ATOM     24  C   UNL     1      19.458  26.241  27.980  1.00  0.00    -0.000 C 
BRANCH  24  25
ATOM     25  C   UNL     1      18.619  25.074  28.521  1.00  0.00    -0.003 C 
ATOM     26  C   UNL     1      19.076  23.747  27.925  1.00  0.00     0.004 C 
ENDBRANCH  24  25
ENDBRANCH  23  24
ENDBRANCH  22  23
ENDBRANCH  21  22
ENDBRANCH  20  21
ENDBRANCH  19  20
ENDBRANCH  18  19
ENDBRANCH  17  18
ENDBRANCH  16  17
ENDBRANCH  15  16
ENDBRANCH   1  15
TORSDOF 22
ENDMDL
MODEL 7
REMARK VINA RESULT:    -4.850      1.466      2.518
REMARK INTER + INTRA:         -14.723
REMARK INTER:                 -11.662
REMARK INTRA:                  -3.062
REMARK UNBOUND:                -3.635
REMARK SMILES CCCCCCCCCCCCCCCCCCCCCCCC(=O)[O-]
REMARK SMILES IDX 13 1 14 2 15 3 16 4 17 5 18 6 19 7 20 8 21 9 22 10 23 11
REMARK SMILES IDX 24 12 25 13 26 14 12 15 11 16 10 17 9 18 8 19 7 20 6 21 5 22
REMARK SMILES IDX 4 23 3 24 2 25 1 26
REMARK H PARENT
REMARK Flexibility Score: inf
ROOT
ATOM      1  C   UNL     1      17.977  28.917  30.481  1.00  0.00     0.000 C 
ENDROOT
BRANCH   1   2
ATOM      2  C   UNL     1      18.544  30.343  30.407  1.00  0.00     0.000 C 
BRANCH   2   3
ATOM      3  C   UNL     1      18.746  30.782  28.951  1.00  0.00     0.000 C 
BRANCH   3   4
ATOM      4  C   UNL     1      18.269  29.694  27.977  1.00  0.00     0.000 C 
BRANCH   4   5
ATOM      5  C   UNL     1      19.358  29.277  26.976  1.00  0.00     0.000 C 
BRANCH   5   6
ATOM      6  C   UNL     1      19.398  27.754  26.750  1.00  0.00     0.000 C 
BRANCH   6   7
ATOM      7  C   UNL     1      18.088  27.058  27.154  1.00  0.00     0.000 C 
BRANCH   7   8
ATOM      8  C   UNL     1      18.312  25.915  28.158  1.00  0.00     0.000 C 
BRANCH   8   9
ATOM      9  C   UNL     1      19.784  25.781  28.580  1.00  0.00     0.000 C 
BRANCH   9  10
ATOM     10  C   UNL     1      20.104  24.402  29.186  1.00  0.00     0.006 C 
BRANCH  10  11
ATOM     11  C   UNL     1      20.356  23.340  28.106  1.00  0.00     0.053 C 
BRANCH  11  12
ATOM     12  C   UNL     1      19.300  22.276  28.114  1.00  0.00     0.041 C 
ATOM     13  O   UNL     1      18.470  22.215  29.059  1.00  0.00    -0.550 OA
ATOM     14  O   UNL     1      19.223  21.363  27.068  1.00  0.00    -0.550 OA
ENDBRANCH  11  12
ENDBRANCH  10  11
ENDBRANCH   9  10
ENDBRANCH   8   9
ENDBRANCH   7   8
ENDBRANCH   6   7
ENDBRANCH   5   6
ENDBRANCH   4   5
ENDBRANCH   3   4
ENDBRANCH   2   3
ENDBRANCH   1   2
BRANCH   1  15
ATOM     15  C   UNL     1      18.791  27.999  31.404  1.00  0.00     0.000 C 
BRANCH  15  16
ATOM     16  C   UNL     1      20.113  28.635  31.864  1.00  0.00     0.000 C 
BRANCH  16  17
ATOM     17  C   UNL     1      20.172  28.831  33.389  1.00  0.00     0.000 C 
BRANCH  17  18
ATOM     18  C   UNL     1      18.939  28.273  34.135  1.00  0.00    -0.000 C 
BRANCH  18  19
ATOM     19  C   UNL     1      18.308  29.279  35.121  1.00  0.00    -0.000 C 
BRANCH  19  20
ATOM     20  C   UNL     1      16.841  29.636  34.806  1.00  0.00    -0.000 C 
BRANCH  20  21
ATOM     21  C   UNL     1      16.648  30.412  33.486  1.00  0.00    -0.000 C 
BRANCH  21  22
ATOM     22  C   UNL     1      16.849  31.936  33.627  1.00  0.00    -0.000 C 
BRANCH  22  23
ATOM     23  C   UNL     1      16.390  32.511  34.981  1.00  0.00    -0.000 C 
BRANCH  23  24
ATOM     24  C   UNL     1      15.805  33.935  34.894  1.00  0.00    -0.000 C 
BRANCH  24  25
ATOM     25  C   UNL     1      15.327  34.290  33.478  1.00  0.00    -0.003 C 
ATOM     26  C   UNL     1      14.646  35.654  33.455  1.00  0.00     0.004 C 
ENDBRANCH  24  25
ENDBRANCH  23  24
ENDBRANCH  22  23
ENDBRANCH  21  22
ENDBRANCH  20  21
ENDBRANCH  19  20
ENDBRANCH  18  19
ENDBRANCH  17  18
ENDBRANCH  16  17
ENDBRANCH  15  16
ENDBRANCH   1  15
TORSDOF 22
ENDMDL
MODEL 8
REMARK VINA RESULT:    -4.805      3.522      7.741
REMARK INTER + INTRA:         -14.618
REMARK INTER:                 -11.183
REMARK INTRA:                  -3.436
REMARK UNBOUND:                -3.635
REMARK SMILES CCCCCCCCCCCCCCCCCCCCCCCC(=O)[O-]
REMARK SMILES IDX 13 1 14 2 15 3 16 4 17 5 18 6 19 7 20 8 21 9 22 10 23 11
REMARK SMILES IDX 24 12 25 13 26 14 12 15 11 16 10 17 9 18 8 19 7 20 6 21 5 22
REMARK SMILES IDX 4 23 3 24 2 25 1 26
REMARK H PARENT
REMARK Flexibility Score: inf
ROOT
ATOM      1  C   UNL     1      18.370  30.648  28.813  1.00  0.00     0.000 C 
ENDROOT
BRANCH   1   2
ATOM      2  C   UNL     1      18.533  31.681  29.939  1.00  0.00     0.000 C 
BRANCH   2   3
ATOM      3  C   UNL     1      18.451  31.013  31.317  1.00  0.00     0.000 C 
BRANCH   3   4
ATOM      4  C   UNL     1      19.831  30.512  31.769  1.00  0.00     0.000 C 
BRANCH   4   5
ATOM      5  C   UNL     1      20.044  29.018  31.478  1.00  0.00     0.000 C 
BRANCH   5   6
ATOM      6  C   UNL     1      18.992  28.130  32.167  1.00  0.00     0.000 C 
BRANCH   6   7
ATOM      7  C   UNL     1      19.600  27.206  33.235  1.00  0.00     0.000 C 
BRANCH   7   8
ATOM      8  C   UNL     1      19.309  27.687  34.667  1.00  0.00     0.000 C 
BRANCH   8   9
ATOM      9  C   UNL     1      18.186  28.735  34.721  1.00  0.00     0.000 C 
BRANCH   9  10
ATOM     10  C   UNL     1      18.518  29.912  35.656  1.00  0.00     0.006 C 
BRANCH  10  11
ATOM     11  C   UNL     1      18.317  31.271  34.970  1.00  0.00     0.053 C 
BRANCH  11  12
ATOM     12  C   UNL     1      16.882  31.702  34.999  1.00  0.00     0.041 C 
ATOM     13  O   UNL     1      16.352  32.209  33.975  1.00  0.00    -0.550 OA
ATOM     14  O   UNL     1      16.125  31.529  36.153  1.00  0.00    -0.550 OA
ENDBRANCH  11  12
ENDBRANCH  10  11
ENDBRANCH   9  10
ENDBRANCH   8   9
ENDBRANCH   7   8
ENDBRANCH   6   7
ENDBRANCH   5   6
ENDBRANCH   4   5
ENDBRANCH   3   4
ENDBRANCH   2   3
ENDBRANCH   1   2
BRANCH   1  15
ATOM     15  C   UNL     1      19.414  30.812  27.698  1.00  0.00     0.000 C 
BRANCH  15  16
ATOM     16  C   UNL     1      20.639  29.902  27.888  1.00  0.00     0.000 C 
BRANCH  16  17
ATOM     17  C   UNL     1      20.801  28.887  26.744  1.00  0.00     0.000 C 
BRANCH  17  18
ATOM     18  C   UNL     1      19.492  28.610  25.970  1.00  0.00    -0.000 C 
BRANCH  18  19
ATOM     19  C   UNL     1      18.821  27.273  26.353  1.00  0.00    -0.000 C 
BRANCH  19  20
ATOM     20  C   UNL     1      17.645  27.418  27.341  1.00  0.00    -0.000 C 
BRANCH  20  21
ATOM     21  C   UNL     1      17.973  26.979  28.784  1.00  0.00    -0.000 C 
BRANCH  21  22
ATOM     22  C   UNL     1      19.382  26.371  28.943  1.00  0.00    -0.000 C 
BRANCH  22  23
ATOM     23  C   UNL     1      19.387  24.861  29.251  1.00  0.00    -0.000 C 
BRANCH  23  24
ATOM     24  C   UNL     1      18.805  23.987  28.122  1.00  0.00    -0.000 C 
BRANCH  24  25
ATOM     25  C   UNL     1      18.884  22.486  28.438  1.00  0.00    -0.003 C 
ATOM     26  C   UNL     1      19.454  21.707  27.258  1.00  0.00     0.004 C 
ENDBRANCH  24  25
ENDBRANCH  23  24
ENDBRANCH  22  23
ENDBRANCH  21  22
ENDBRANCH  20  21
ENDBRANCH  19  20
ENDBRANCH  18  19
ENDBRANCH  17  18
ENDBRANCH  16  17
ENDBRANCH  15  16
ENDBRANCH   1  15
TORSDOF 22
ENDMDL
MODEL 9
REMARK VINA RESULT:    -4.797      4.354      8.981
REMARK INTER + INTRA:         -14.601
REMARK INTER:                 -11.587
REMARK INTRA:                  -3.014
REMARK UNBOUND:                -3.635
REMARK SMILES CCCCCCCCCCCCCCCCCCCCCCCC(=O)[O-]
REMARK SMILES IDX 13 1 14 2 15 3 16 4 17 5 18 6 19 7 20 8 21 9 22 10 23 11
REMARK SMILES IDX 24 12 25 13 26 14 12 15 11 16 10 17 9 18 8 19 7 20 6 21 5 22
REMARK SMILES IDX 4 23 3 24 2 25 1 26
REMARK H PARENT
REMARK Flexibility Score: inf
ROOT
ATOM      1  C   UNL     1      19.082  29.432  35.338  1.00  0.00     0.000 C 
ENDROOT
BRANCH   1   2
ATOM      2  C   UNL     1      18.061  30.568  35.509  1.00  0.00     0.000 C 
BRANCH   2   3
ATOM      3  C   UNL     1      16.767  30.266  34.744  1.00  0.00     0.000 C 
BRANCH   3   4
ATOM      4  C   UNL     1      16.528  31.302  33.635  1.00  0.00     0.000 C 
BRANCH   4   5
ATOM      5  C   UNL     1      17.711  32.268  33.463  1.00  0.00     0.000 C 
BRANCH   5   6
ATOM      6  C   UNL     1      17.289  33.744  33.593  1.00  0.00     0.000 C 
BRANCH   6   7
ATOM      7  C   UNL     1      15.767  33.938  33.511  1.00  0.00     0.000 C 
BRANCH   7   8
ATOM      8  C   UNL     1      15.239  34.916  34.575  1.00  0.00     0.000 C 
BRANCH   8   9
ATOM      9  C   UNL     1      16.028  34.838  35.891  1.00  0.00     0.000 C 
BRANCH   9  10
ATOM     10  C   UNL     1      15.117  34.876  37.132  1.00  0.00     0.006 C 
BRANCH  10  11
ATOM     11  C   UNL     1      15.745  34.155  38.333  1.00  0.00     0.053 C 
BRANCH  11  12
ATOM     12  C   UNL     1      16.001  32.708  38.042  1.00  0.00     0.041 C 
ATOM     13  O   UNL     1      17.057  32.157  38.448  1.00  0.00    -0.550 OA
ATOM     14  O   UNL     1      15.062  31.963  37.336  1.00  0.00    -0.550 OA
ENDBRANCH  11  12
ENDBRANCH  10  11
ENDBRANCH   9  10
ENDBRANCH   8   9
ENDBRANCH   7   8
ENDBRANCH   6   7
ENDBRANCH   5   6
ENDBRANCH   4   5
ENDBRANCH   3   4
ENDBRANCH   2   3
ENDBRANCH   1   2
BRANCH   1  15
ATOM     15  C   UNL     1      18.549  28.277  34.477  1.00  0.00     0.000 C 
BRANCH  15  16
ATOM     16  C   UNL     1      19.630  27.656  33.578  1.00  0.00     0.000 C 
BRANCH  16  17
ATOM     17  C   UNL     1      19.211  27.613  32.098  1.00  0.00     0.000 C 
BRANCH  17  18
ATOM     18  C   UNL     1      18.393  28.846  31.649  1.00  0.00    -0.000 C 
BRANCH  18  19
ATOM     19  C   UNL     1      19.231  29.900  30.894  1.00  0.00    -0.000 C 
BRANCH  19  20
ATOM     20  C   UNL     1      18.391  30.934  30.116  1.00  0.00    -0.000 C 
BRANCH  20  21
ATOM     21  C   UNL     1      18.422  30.751  28.584  1.00  0.00    -0.000 C 
BRANCH  21  22
ATOM     22  C   UNL     1      18.809  29.325  28.136  1.00  0.00    -0.000 C 
BRANCH  22  23
ATOM     23  C   UNL     1      17.733  28.615  27.291  1.00  0.00    -0.000 C 
BRANCH  23  24
ATOM     24  C   UNL     1      17.729  27.081  27.437  1.00  0.00    -0.000 C 
BRANCH  24  25
ATOM     25  C   UNL     1      18.600  26.598  28.606  1.00  0.00    -0.003 C 
ATOM     26  C   UNL     1      18.887  25.104  28.496  1.00  0.00     0.004 C 
ENDBRANCH  24  25
ENDBRANCH  23  24
ENDBRANCH  22  23
ENDBRANCH  21  22
ENDBRANCH  20  21
ENDBRANCH  19  20
ENDBRANCH  18  19
ENDBRANCH  17  18
ENDBRANCH  16  17
ENDBRANCH  15  16
ENDBRANCH   1  15
TORSDOF 22
ENDMDL
