MODEL 1
REMARK VINA RESULT:    -4.364      0.000      0.000
REMARK INTER + INTRA:          -4.491
REMARK INTER:                  -4.491
REMARK INTRA:                   0.000
REMARK UNBOUND:                 0.000
REMARK SMILES O=c1ccc2cc(O)ccc2o1
REMARK SMILES IDX 9 1 10 2 11 3 5 4 4 5 3 6 2 7 1 8 12 9 6 10 7 11 8 12
REMARK H PARENT 8 13
REMARK Flexibility Score: inf
ROOT
ATOM      1  C   UNL     1      43.498  30.328  29.036  1.00  0.00     0.050 A 
ATOM      2  C   UNL     1      44.822  30.266  29.479  1.00  0.00     0.052 A 
ATOM      3  C   UNL     1      45.758  29.491  28.786  1.00  0.00     0.138 A 
ATOM      4  C   UNL     1      45.360  28.773  27.637  1.00  0.00     0.021 A 
ATOM      5  C   UNL     1      46.318  28.007  26.964  1.00  0.00     0.019 A 
ATOM      6  C   UNL     1      47.628  27.974  27.443  1.00  0.00     0.094 A 
ATOM      7  C   UNL     1      47.949  28.711  28.588  1.00  0.00     0.336 A 
ATOM      8  O   UNL     1      49.125  28.695  29.036  1.00  0.00    -0.246 OA
ATOM      9  O   UNL     1      47.018  29.432  29.210  1.00  0.00    -0.423 OA
ATOM     10  C   UNL     1      44.030  28.839  27.195  1.00  0.00     0.058 A 
ATOM     11  C   UNL     1      43.099  29.616  27.894  1.00  0.00     0.116 A 
ENDROOT
BRANCH  11  12
ATOM     12  O   UNL     1      41.781  29.675  27.446  1.00  0.00    -0.508 OA
ATOM     13  H   UNL     1      41.014  29.865  28.081  1.00  0.00     0.293 HD
ENDBRANCH  11  12
TORSDOF 1
ENDMDL
MODEL 2
REMARK VINA RESULT:    -4.285     13.725     14.987
REMARK INTER + INTRA:          -4.410
REMARK INTER:                  -4.410
REMARK INTRA:                   0.000
REMARK UNBOUND:                 0.000
REMARK SMILES O=c1ccc2cc(O)ccc2o1
REMARK SMILES IDX 9 1 10 2 11 3 5 4 4 5 3 6 2 7 1 8 12 9 6 10 7 11 8 12
REMARK H PARENT 8 13
REMARK Flexibility Score: inf
ROOT
ATOM      1  C   UNL     1      29.774  31.771  24.921  1.00  0.00     0.050 A 
ATOM      2  C   UNL     1      29.396  30.792  25.845  1.00  0.00     0.052 A 
ATOM      3  C   UNL     1      30.361  30.184  26.656  1.00  0.00     0.138 A 
ATOM      4  C   UNL     1      31.716  30.563  26.536  1.00  0.00     0.021 A 
ATOM      5  C   UNL     1      32.658  29.937  27.361  1.00  0.00     0.019 A 
ATOM      6  C   UNL     1      32.235  28.966  28.268  1.00  0.00     0.094 A 
ATOM      7  C   UNL     1      30.875  28.643  28.330  1.00  0.00     0.336 A 
ATOM      8  O   UNL     1      30.475  27.769  29.143  1.00  0.00    -0.246 OA
ATOM      9  O   UNL     1      30.000  29.253  27.535  1.00  0.00    -0.423 OA
ATOM     10  C   UNL     1      32.091  31.546  25.608  1.00  0.00     0.058 A 
ATOM     11  C   UNL     1      31.120  32.149  24.800  1.00  0.00     0.116 A 
ENDROOT
BRANCH  11  12
ATOM     12  O   UNL     1      31.502  33.125  23.881  1.00  0.00    -0.508 OA
ATOM     13  H   UNL     1      31.003  34.004  23.803  1.00  0.00     0.293 HD
ENDBRANCH  11  12
TORSDOF 1
ENDMDL
MODEL 3
REMARK VINA RESULT:    -4.089      1.272      1.735
REMARK INTER + INTRA:          -4.209
REMARK INTER:                  -4.209
REMARK INTRA:                   0.000
REMARK UNBOUND:                 0.000
REMARK SMILES O=c1ccc2cc(O)ccc2o1
REMARK SMILES IDX 9 1 10 2 11 3 5 4 4 5 3 6 2 7 1 8 12 9 6 10 7 11 8 12
REMARK H PARENT 8 13
REMARK Flexibility Score: inf
ROOT
ATOM      1  C   UNL     1      43.520  30.190  26.419  1.00  0.00     0.050 A 
ATOM      2  C   UNL     1      44.912  30.165  26.553  1.00  0.00     0.052 A 
ATOM      3  C   UNL     1      45.505  29.400  27.563  1.00  0.00     0.138 A 
ATOM      4  C   UNL     1      44.693  28.653  28.445  1.00  0.00     0.021 A 
ATOM      5  C   UNL     1      45.315  27.897  29.445  1.00  0.00     0.019 A 
ATOM      6  C   UNL     1      46.706  27.902  29.541  1.00  0.00     0.094 A 
ATOM      7  C   UNL     1      47.446  28.666  28.631  1.00  0.00     0.336 A 
ATOM      8  O   UNL     1      48.702  28.683  28.701  1.00  0.00    -0.246 OA
ATOM      9  O   UNL     1      46.829  29.376  27.689  1.00  0.00    -0.423 OA
ATOM     10  C   UNL     1      43.297  28.681  28.307  1.00  0.00     0.058 A 
ATOM     11  C   UNL     1      42.710  29.450  27.295  1.00  0.00     0.116 A 
ENDROOT
BRANCH  11  12
ATOM     12  O   UNL     1      41.323  29.470  27.166  1.00  0.00    -0.508 OA
ATOM     13  H   UNL     1      40.865  29.143  26.323  1.00  0.00     0.293 HD
ENDBRANCH  11  12
TORSDOF 1
ENDMDL
MODEL 4
REMARK VINA RESULT:    -4.080      2.543      3.663
REMARK INTER + INTRA:          -4.199
REMARK INTER:                  -4.199
REMARK INTRA:                   0.000
REMARK UNBOUND:                 0.000
REMARK SMILES O=c1ccc2cc(O)ccc2o1
REMARK SMILES IDX 9 1 10 2 11 3 5 4 4 5 3 6 2 7 1 8 12 9 6 10 7 11 8 12
REMARK H PARENT 8 13
REMARK Flexibility Score: inf
ROOT
ATOM      1  C   UNL     1      44.973  30.791  25.693  1.00  0.00     0.050 A 
ATOM      2  C   UNL     1      44.133  30.121  26.588  1.00  0.00     0.052 A 
ATOM      3  C   UNL     1      44.675  29.271  27.557  1.00  0.00     0.138 A 
ATOM      4  C   UNL     1      46.075  29.094  27.629  1.00  0.00     0.021 A 
ATOM      5  C   UNL     1      46.588  28.238  28.610  1.00  0.00     0.019 A 
ATOM      6  C   UNL     1      45.711  27.590  29.480  1.00  0.00     0.094 A 
ATOM      7  C   UNL     1      44.337  27.815  29.349  1.00  0.00     0.336 A 
ATOM      8  O   UNL     1      43.530  27.240  30.125  1.00  0.00    -0.246 OA
ATOM      9  O   UNL     1      43.874  28.635  28.407  1.00  0.00    -0.423 OA
ATOM     10  C   UNL     1      46.914  29.768  26.730  1.00  0.00     0.058 A 
ATOM     11  C   UNL     1      46.364  30.616  25.762  1.00  0.00     0.116 A 
ENDROOT
BRANCH  11  12
ATOM     12  O   UNL     1      47.207  31.282  24.875  1.00  0.00    -0.508 OA
ATOM     13  H   UNL     1      47.210  31.067  23.884  1.00  0.00     0.293 HD
ENDBRANCH  11  12
TORSDOF 1
ENDMDL
MODEL 5
REMARK VINA RESULT:    -4.050      0.875      4.775
REMARK INTER + INTRA:          -4.168
REMARK INTER:                  -4.168
REMARK INTRA:                   0.000
REMARK UNBOUND:                 0.000
REMARK SMILES O=c1ccc2cc(O)ccc2o1
REMARK SMILES IDX 9 1 10 2 11 3 5 4 4 5 3 6 2 7 1 8 12 9 6 10 7 11 8 12
REMARK H PARENT 8 13
REMARK Flexibility Score: inf
ROOT
ATOM      1  C   UNL     1      47.487  27.733  27.440  1.00  0.00     0.050 A 
ATOM      2  C   UNL     1      46.178  27.701  26.949  1.00  0.00     0.052 A 
ATOM      3  C   UNL     1      45.194  28.514  27.522  1.00  0.00     0.138 A 
ATOM      4  C   UNL     1      45.529  29.367  28.596  1.00  0.00     0.021 A 
ATOM      5  C   UNL     1      44.524  30.169  29.148  1.00  0.00     0.019 A 
ATOM      6  C   UNL     1      43.232  30.104  28.626  1.00  0.00     0.094 A 
ATOM      7  C   UNL     1      42.975  29.234  27.560  1.00  0.00     0.336 A 
ATOM      8  O   UNL     1      41.816  29.160  27.075  1.00  0.00    -0.246 OA
ATOM      9  O   UNL     1      43.949  28.482  27.053  1.00  0.00    -0.423 OA
ATOM     10  C   UNL     1      46.843  29.397  29.085  1.00  0.00     0.058 A 
ATOM     11  C   UNL     1      47.822  28.580  28.508  1.00  0.00     0.116 A 
ENDROOT
BRANCH  11  12
ATOM     12  O   UNL     1      49.125  28.618  29.001  1.00  0.00    -0.508 OA
ATOM     13  H   UNL     1      49.369  29.174  29.812  1.00  0.00     0.293 HD
ENDBRANCH  11  12
TORSDOF 1
ENDMDL
MODEL 6
REMARK VINA RESULT:    -3.998     11.473     13.552
REMARK INTER + INTRA:          -4.115
REMARK INTER:                  -4.115
REMARK INTRA:                   0.000
REMARK UNBOUND:                 0.000
REMARK SMILES O=c1ccc2cc(O)ccc2o1
REMARK SMILES IDX 9 1 10 2 11 3 5 4 4 5 3 6 2 7 1 8 12 9 6 10 7 11 8 12
REMARK H PARENT 8 13
REMARK Flexibility Score: inf
ROOT
ATOM      1  C   UNL     1      30.469  31.831  25.237  1.00  0.00     0.050 A 
ATOM      2  C   UNL     1      31.531  32.082  24.363  1.00  0.00     0.052 A 
ATOM      3  C   UNL     1      32.800  32.381  24.871  1.00  0.00     0.138 A 
ATOM      4  C   UNL     1      33.003  32.426  26.268  1.00  0.00     0.021 A 
ATOM      5  C   UNL     1      34.284  32.727  26.745  1.00  0.00     0.019 A 
ATOM      6  C   UNL     1      35.313  32.971  25.837  1.00  0.00     0.094 A 
ATOM      7  C   UNL     1      35.037  32.908  24.466  1.00  0.00     0.336 A 
ATOM      8  O   UNL     1      35.953  33.125  23.631  1.00  0.00    -0.246 OA
ATOM      9  O   UNL     1      33.810  32.620  24.038  1.00  0.00    -0.423 OA
ATOM     10  C   UNL     1      31.935  32.173  27.140  1.00  0.00     0.058 A 
ATOM     11  C   UNL     1      30.667  31.875  26.625  1.00  0.00     0.116 A 
ENDROOT
BRANCH  11  12
ATOM     12  O   UNL     1      29.613  31.625  27.501  1.00  0.00    -0.508 OA
ATOM     13  H   UNL     1      28.670  31.470  27.164  1.00  0.00     0.293 HD
ENDBRANCH  11  12
TORSDOF 1
ENDMDL
MODEL 7
REMARK VINA RESULT:    -3.936      3.351      3.881
REMARK INTER + INTRA:          -4.051
REMARK INTER:                  -4.051
REMARK INTRA:                   0.000
REMARK UNBOUND:                 0.000
REMARK SMILES O=c1ccc2cc(O)ccc2o1
REMARK SMILES IDX 9 1 10 2 11 3 5 4 4 5 3 6 2 7 1 8 12 9 6 10 7 11 8 12
REMARK H PARENT 8 13
REMARK Flexibility Score: inf
ROOT
ATOM      1  C   UNL     1      46.087  29.444  29.299  1.00  0.00     0.050 A 
ATOM      2  C   UNL     1      46.464  28.103  29.425  1.00  0.00     0.052 A 
ATOM      3  C   UNL     1      45.489  27.112  29.578  1.00  0.00     0.138 A 
ATOM      4  C   UNL     1      44.123  27.470  29.603  1.00  0.00     0.021 A 
ATOM      5  C   UNL     1      43.171  26.457  29.756  1.00  0.00     0.019 A 
ATOM      6  C   UNL     1      43.594  25.133  29.878  1.00  0.00     0.094 A 
ATOM      7  C   UNL     1      44.964  24.853  29.844  1.00  0.00     0.336 A 
ATOM      8  O   UNL     1      45.365  23.666  29.953  1.00  0.00    -0.246 OA
ATOM      9  O   UNL     1      45.850  25.837  29.697  1.00  0.00    -0.423 OA
ATOM     10  C   UNL     1      43.749  28.816  29.476  1.00  0.00     0.058 A 
ATOM     11  C   UNL     1      44.730  29.803  29.325  1.00  0.00     0.116 A 
ENDROOT
BRANCH  11  12
ATOM     12  O   UNL     1      44.348  31.137  29.198  1.00  0.00    -0.508 OA
ATOM     13  H   UNL     1      44.284  31.587  28.292  1.00  0.00     0.293 HD
ENDBRANCH  11  12
TORSDOF 1
ENDMDL
MODEL 8
REMARK VINA RESULT:    -3.887      2.658      3.741
REMARK INTER + INTRA:          -4.001
REMARK INTER:                  -4.001
REMARK INTRA:                   0.000
REMARK UNBOUND:                 0.000
REMARK SMILES O=c1ccc2cc(O)ccc2o1
REMARK SMILES IDX 9 1 10 2 11 3 5 4 4 5 3 6 2 7 1 8 12 9 6 10 7 11 8 12
REMARK H PARENT 8 13
REMARK Flexibility Score: inf
ROOT
ATOM      1  C   UNL     1      46.803  28.495  28.990  1.00  0.00     0.050 A 
ATOM      2  C   UNL     1      47.258  29.340  27.974  1.00  0.00     0.052 A 
ATOM      3  C   UNL     1      46.349  29.905  27.071  1.00  0.00     0.138 A 
ATOM      4  C   UNL     1      44.972  29.617  27.193  1.00  0.00     0.021 A 
ATOM      5  C   UNL     1      44.087  30.197  26.277  1.00  0.00     0.019 A 
ATOM      6  C   UNL     1      44.586  31.033  25.278  1.00  0.00     0.094 A 
ATOM      7  C   UNL     1      45.964  31.272  25.220  1.00  0.00     0.336 A 
ATOM      8  O   UNL     1      46.434  32.024  24.327  1.00  0.00    -0.246 OA
ATOM      9  O   UNL     1      46.784  30.708  26.104  1.00  0.00    -0.423 OA
ATOM     10  C   UNL     1      44.519  28.770  28.215  1.00  0.00     0.058 A 
ATOM     11  C   UNL     1      45.434  28.208  29.113  1.00  0.00     0.116 A 
ENDROOT
BRANCH  11  12
ATOM     12  O   UNL     1      44.975  27.368  30.125  1.00  0.00    -0.508 OA
ATOM     13  H   UNL     1      43.991  27.146  30.223  1.00  0.00     0.293 HD
ENDBRANCH  11  12
TORSDOF 1
ENDMDL
MODEL 9
REMARK VINA RESULT:    -3.841     10.095     12.301
REMARK INTER + INTRA:          -3.954
REMARK INTER:                  -3.954
REMARK INTRA:                   0.000
REMARK UNBOUND:                 0.000
REMARK SMILES O=c1ccc2cc(O)ccc2o1
REMARK SMILES IDX 9 1 10 2 11 3 5 4 4 5 3 6 2 7 1 8 12 9 6 10 7 11 8 12
REMARK H PARENT 8 13
REMARK Flexibility Score: inf
ROOT
ATOM      1  C   UNL     1      32.091  29.412  26.810  1.00  0.00     0.050 A 
ATOM      2  C   UNL     1      33.446  29.467  26.468  1.00  0.00     0.052 A 
ATOM      3  C   UNL     1      34.112  30.697  26.435  1.00  0.00     0.138 A 
ATOM      4  C   UNL     1      33.410  31.882  26.750  1.00  0.00     0.021 A 
ATOM      5  C   UNL     1      34.103  33.097  26.709  1.00  0.00     0.019 A 
ATOM      6  C   UNL     1      35.454  33.104  26.362  1.00  0.00     0.094 A 
ATOM      7  C   UNL     1      36.083  31.890  26.063  1.00  0.00     0.336 A 
ATOM      8  O   UNL     1      37.301  31.875  25.748  1.00  0.00    -0.246 OA
ATOM      9  O   UNL     1      35.400  30.748  26.109  1.00  0.00    -0.423 OA
ATOM     10  C   UNL     1      32.051  31.823  27.093  1.00  0.00     0.058 A 
ATOM     11  C   UNL     1      31.392  30.588  27.123  1.00  0.00     0.116 A 
ENDROOT
BRANCH  11  12
ATOM     12  O   UNL     1      30.042  30.540  27.466  1.00  0.00    -0.508 OA
ATOM     13  H   UNL     1      29.399  31.273  27.190  1.00  0.00     0.293 HD
ENDBRANCH  11  12
TORSDOF 1
ENDMDL
