MODEL 1
REMARK VINA RESULT:    -4.841      0.000      0.000
REMARK INTER + INTRA:          -7.535
REMARK INTER:                  -7.105
REMARK INTRA:                  -0.430
REMARK UNBOUND:                -0.430
REMARK SMILES O=C([O-])CCCCCCCC(=O)[O-]
REMARK SMILES IDX 7 1 6 2 5 3 4 4 2 5 1 6 3 7 8 8 9 9 10 10 11 11 12 12 13 13
REMARK H PARENT
REMARK Flexibility Score: inf
ROOT
ATOM      1  C   UNL     1       3.125  47.899  25.514  1.00  0.00     0.000 C 
ENDROOT
BRANCH   1   2
ATOM      2  C   UNL     1       2.008  47.210  24.714  1.00  0.00     0.000 C 
BRANCH   2   3
ATOM      3  C   UNL     1       2.231  47.291  23.195  1.00  0.00     0.006 C 
BRANCH   3   4
ATOM      4  C   UNL     1       1.244  48.239  22.502  1.00  0.00     0.053 C 
BRANCH   4   5
ATOM      5  C   UNL     1       0.286  47.465  21.654  1.00  0.00     0.041 C 
ATOM      6  O   UNL     1       0.586  47.172  20.466  1.00  0.00    -0.550 OA
ATOM      7  O   UNL     1      -0.918  47.025  22.188  1.00  0.00    -0.550 OA
ENDBRANCH   4   5
ENDBRANCH   3   4
ENDBRANCH   2   3
ENDBRANCH   1   2
BRANCH   1   8
ATOM      8  C   UNL     1       4.227  46.900  25.889  1.00  0.00     0.000 C 
BRANCH   8   9
ATOM      9  C   UNL     1       5.574  47.612  26.079  1.00  0.00     0.006 C 
BRANCH   9  10
ATOM     10  C   UNL     1       5.744  48.801  25.124  1.00  0.00     0.053 C 
BRANCH  10  11
ATOM     11  C   UNL     1       6.675  48.479  23.995  1.00  0.00     0.041 C 
ATOM     12  O   UNL     1       7.904  48.733  24.095  1.00  0.00    -0.550 OA
ATOM     13  O   UNL     1       6.179  47.930  22.818  1.00  0.00    -0.550 OA
ENDBRANCH  10  11
ENDBRANCH   9  10
ENDBRANCH   8   9
ENDBRANCH   1   8
TORSDOF 8
ENDMDL
MODEL 2
REMARK VINA RESULT:    -4.835      1.648      6.558
REMARK INTER + INTRA:          -7.525
REMARK INTER:                  -7.196
REMARK INTRA:                  -0.330
REMARK UNBOUND:                -0.430
REMARK SMILES O=C([O-])CCCCCCCC(=O)[O-]
REMARK SMILES IDX 7 1 6 2 5 3 4 4 2 5 1 6 3 7 8 8 9 9 10 10 11 11 12 12 13 13
REMARK H PARENT
REMARK Flexibility Score: inf
ROOT
ATOM      1  C   UNL     1       3.291  47.820  25.799  1.00  0.00     0.000 C 
ENDROOT
BRANCH   1   2
ATOM      2  C   UNL     1       4.335  48.589  24.973  1.00  0.00     0.000 C 
BRANCH   2   3
ATOM      3  C   UNL     1       5.776  48.161  25.294  1.00  0.00     0.006 C 
BRANCH   3   4
ATOM      4  C   UNL     1       6.815  49.196  24.842  1.00  0.00     0.053 C 
BRANCH   4   5
ATOM      5  C   UNL     1       7.740  49.532  25.968  1.00  0.00     0.041 C 
ATOM      6  O   UNL     1       7.718  48.854  27.029  1.00  0.00    -0.550 OA
ATOM      7  O   UNL     1       8.661  50.562  25.827  1.00  0.00    -0.550 OA
ENDBRANCH   4   5
ENDBRANCH   3   4
ENDBRANCH   2   3
ENDBRANCH   1   2
BRANCH   1   8
ATOM      8  C   UNL     1       2.200  47.234  24.896  1.00  0.00     0.000 C 
BRANCH   8   9
ATOM      9  C   UNL     1       1.998  48.100  23.643  1.00  0.00     0.006 C 
BRANCH   9  10
ATOM     10  C   UNL     1       1.996  47.268  22.355  1.00  0.00     0.053 C 
BRANCH  10  11
ATOM     11  C   UNL     1       0.648  47.257  21.701  1.00  0.00     0.041 C 
ATOM     12  O   UNL     1      -0.396  47.252  22.403  1.00  0.00    -0.550 OA
ATOM     13  O   UNL     1       0.546  47.218  20.316  1.00  0.00    -0.550 OA
ENDBRANCH  10  11
ENDBRANCH   9  10
ENDBRANCH   8   9
ENDBRANCH   1   8
TORSDOF 8
ENDMDL
MODEL 3
REMARK VINA RESULT:    -4.822      1.622      2.329
REMARK INTER + INTRA:          -7.507
REMARK INTER:                  -7.041
REMARK INTRA:                  -0.465
REMARK UNBOUND:                -0.430
REMARK SMILES O=C([O-])CCCCCCCC(=O)[O-]
REMARK SMILES IDX 7 1 6 2 5 3 4 4 2 5 1 6 3 7 8 8 9 9 10 10 11 11 12 12 13 13
REMARK H PARENT
REMARK Flexibility Score: inf
ROOT
ATOM      1  C   UNL     1       4.202  48.488  24.763  1.00  0.00     0.000 C 
ENDROOT
BRANCH   1   2
ATOM      2  C   UNL     1       3.143  47.629  25.471  1.00  0.00     0.000 C 
BRANCH   2   3
ATOM      3  C   UNL     1       2.020  47.174  24.525  1.00  0.00     0.006 C 
BRANCH   3   4
ATOM      4  C   UNL     1       1.691  48.219  23.452  1.00  0.00     0.053 C 
BRANCH   4   5
ATOM      5  C   UNL     1       1.607  47.575  22.105  1.00  0.00     0.041 C 
ATOM      6  O   UNL     1       0.520  47.575  21.470  1.00  0.00    -0.550 OA
ATOM      7  O   UNL     1       2.741  47.018  21.528  1.00  0.00    -0.550 OA
ENDBRANCH   4   5
ENDBRANCH   3   4
ENDBRANCH   2   3
ENDBRANCH   1   2
BRANCH   1   8
ATOM      8  C   UNL     1       5.278  47.609  24.116  1.00  0.00     0.000 C 
BRANCH   8   9
ATOM      9  C   UNL     1       6.603  48.373  23.976  1.00  0.00     0.006 C 
BRANCH   9  10
ATOM     10  C   UNL     1       6.729  49.511  24.997  1.00  0.00     0.053 C 
BRANCH  10  11
ATOM     11  C   UNL     1       7.855  49.275  25.957  1.00  0.00     0.041 C 
ATOM     12  O   UNL     1       7.618  48.866  27.124  1.00  0.00    -0.550 OA
ATOM     13  O   UNL     1       9.164  49.539  25.573  1.00  0.00    -0.550 OA
ENDBRANCH  10  11
ENDBRANCH   9  10
ENDBRANCH   8   9
ENDBRANCH   1   8
TORSDOF 8
ENDMDL
MODEL 4
REMARK VINA RESULT:    -4.769     10.533     11.368
REMARK INTER + INTRA:          -7.429
REMARK INTER:                  -6.789
REMARK INTRA:                  -0.640
REMARK UNBOUND:                -0.430
REMARK SMILES O=C([O-])CCCCCCCC(=O)[O-]
REMARK SMILES IDX 7 1 6 2 5 3 4 4 2 5 1 6 3 7 8 8 9 9 10 10 11 11 12 12 13 13
REMARK H PARENT
REMARK Flexibility Score: inf
ROOT
ATOM      1  C   UNL     1       0.590  57.753  24.877  1.00  0.00     0.000 C 
ENDROOT
BRANCH   1   2
ATOM      2  C   UNL     1       0.522  57.382  23.387  1.00  0.00     0.000 C 
BRANCH   2   3
ATOM      3  C   UNL     1       1.755  56.593  22.917  1.00  0.00     0.006 C 
BRANCH   3   4
ATOM      4  C   UNL     1       2.843  56.499  23.994  1.00  0.00     0.053 C 
BRANCH   4   5
ATOM      5  C   UNL     1       3.060  55.074  24.394  1.00  0.00     0.041 C 
ATOM      6  O   UNL     1       3.124  54.173  23.517  1.00  0.00    -0.550 OA
ATOM      7  O   UNL     1       3.240  54.746  25.732  1.00  0.00    -0.550 OA
ENDBRANCH   4   5
ENDBRANCH   3   4
ENDBRANCH   2   3
ENDBRANCH   1   2
BRANCH   1   8
ATOM      8  C   UNL     1       0.173  59.212  25.098  1.00  0.00     0.000 C 
BRANCH   8   9
ATOM      9  C   UNL     1       0.204  60.000  23.780  1.00  0.00     0.006 C 
BRANCH   9  10
ATOM     10  C   UNL     1       1.015  61.297  23.897  1.00  0.00     0.053 C 
BRANCH  10  11
ATOM     11  C   UNL     1       2.413  61.128  23.386  1.00  0.00     0.041 C 
ATOM     12  O   UNL     1       2.772  60.036  22.873  1.00  0.00    -0.550 OA
ATOM     13  O   UNL     1       3.329  62.166  23.506  1.00  0.00    -0.550 OA
ENDBRANCH  10  11
ENDBRANCH   9  10
ENDBRANCH   8   9
ENDBRANCH   1   8
TORSDOF 8
ENDMDL
MODEL 5
REMARK VINA RESULT:    -4.736      1.966      6.829
REMARK INTER + INTRA:          -7.380
REMARK INTER:                  -7.090
REMARK INTRA:                  -0.290
REMARK UNBOUND:                -0.430
REMARK SMILES O=C([O-])CCCCCCCC(=O)[O-]
REMARK SMILES IDX 7 1 6 2 5 3 4 4 2 5 1 6 3 7 8 8 9 9 10 10 11 11 12 12 13 13
REMARK H PARENT
REMARK Flexibility Score: inf
ROOT
ATOM      1  C   UNL     1       5.074  47.649  21.934  1.00  0.00     0.000 C 
ENDROOT
BRANCH   1   2
ATOM      2  C   UNL     1       5.907  47.262  23.166  1.00  0.00     0.000 C 
BRANCH   2   3
ATOM      3  C   UNL     1       6.979  48.309  23.508  1.00  0.00     0.006 C 
BRANCH   3   4
ATOM      4  C   UNL     1       6.632  49.124  24.761  1.00  0.00     0.053 C 
BRANCH   4   5
ATOM      5  C   UNL     1       7.822  49.230  25.660  1.00  0.00     0.041 C 
ATOM      6  O   UNL     1       7.687  49.100  26.906  1.00  0.00    -0.550 OA
ATOM      7  O   UNL     1       9.087  49.424  25.121  1.00  0.00    -0.550 OA
ENDBRANCH   4   5
ENDBRANCH   3   4
ENDBRANCH   2   3
ENDBRANCH   1   2
BRANCH   1   8
ATOM      8  C   UNL     1       3.754  48.308  22.349  1.00  0.00     0.000 C 
BRANCH   8   9
ATOM      9  C   UNL     1       2.673  47.252  22.624  1.00  0.00     0.006 C 
BRANCH   9  10
ATOM     10  C   UNL     1       1.281  47.875  22.794  1.00  0.00     0.053 C 
BRANCH  10  11
ATOM     11  C   UNL     1       0.322  47.386  21.751  1.00  0.00     0.041 C 
ATOM     12  O   UNL     1       0.713  47.198  20.569  1.00  0.00    -0.550 OA
ATOM     13  O   UNL     1      -1.011  47.171  22.077  1.00  0.00    -0.550 OA
ENDBRANCH  10  11
ENDBRANCH   9  10
ENDBRANCH   8   9
ENDBRANCH   1   8
TORSDOF 8
ENDMDL
MODEL 6
REMARK VINA RESULT:    -4.713     10.176     11.221
REMARK INTER + INTRA:          -7.347
REMARK INTER:                  -6.743
REMARK INTRA:                  -0.604
REMARK UNBOUND:                -0.430
REMARK SMILES O=C([O-])CCCCCCCC(=O)[O-]
REMARK SMILES IDX 7 1 6 2 5 3 4 4 2 5 1 6 3 7 8 8 9 9 10 10 11 11 12 12 13 13
REMARK H PARENT
REMARK Flexibility Score: inf
ROOT
ATOM      1  C   UNL     1       3.135  58.162  22.151  1.00  0.00     0.000 C 
ENDROOT
BRANCH   1   2
ATOM      2  C   UNL     1       2.114  57.082  21.760  1.00  0.00     0.000 C 
BRANCH   2   3
ATOM      3  C   UNL     1       1.636  56.256  22.965  1.00  0.00     0.006 C 
BRANCH   3   4
ATOM      4  C   UNL     1       2.395  54.930  23.111  1.00  0.00     0.053 C 
BRANCH   4   5
ATOM      5  C   UNL     1       3.216  54.935  24.360  1.00  0.00     0.041 C 
ATOM      6  O   UNL     1       2.930  55.719  25.303  1.00  0.00    -0.550 OA
ATOM      7  O   UNL     1       4.267  54.039  24.505  1.00  0.00    -0.550 OA
ENDBRANCH   4   5
ENDBRANCH   3   4
ENDBRANCH   2   3
ENDBRANCH   1   2
BRANCH   1   8
ATOM      8  C   UNL     1       2.806  58.755  23.526  1.00  0.00     0.000 C 
BRANCH   8   9
ATOM      9  C   UNL     1       2.086  60.105  23.387  1.00  0.00     0.006 C 
BRANCH   9  10
ATOM     10  C   UNL     1       0.564  59.968  23.514  1.00  0.00     0.053 C 
BRANCH  10  11
ATOM     11  C   UNL     1       0.126  59.933  24.947  1.00  0.00     0.041 C 
ATOM     12  O   UNL     1      -0.046  61.006  25.582  1.00  0.00    -0.550 OA
ATOM     13  O   UNL     1      -0.059  58.716  25.589  1.00  0.00    -0.550 OA
ENDBRANCH  10  11
ENDBRANCH   9  10
ENDBRANCH   8   9
ENDBRANCH   1   8
TORSDOF 8
ENDMDL
MODEL 7
REMARK VINA RESULT:    -4.696     10.564     11.421
REMARK INTER + INTRA:          -7.322
REMARK INTER:                  -6.718
REMARK INTRA:                  -0.604
REMARK UNBOUND:                -0.430
REMARK SMILES O=C([O-])CCCCCCCC(=O)[O-]
REMARK SMILES IDX 7 1 6 2 5 3 4 4 2 5 1 6 3 7 8 8 9 9 10 10 11 11 12 12 13 13
REMARK H PARENT
REMARK Flexibility Score: inf
ROOT
ATOM      1  C   UNL     1       0.569  57.679  24.780  1.00  0.00     0.000 C 
ENDROOT
BRANCH   1   2
ATOM      2  C   UNL     1       0.191  59.142  25.058  1.00  0.00     0.000 C 
BRANCH   2   3
ATOM      3  C   UNL     1       0.245  60.018  23.796  1.00  0.00     0.006 C 
BRANCH   3   4
ATOM      4  C   UNL     1       1.066  61.298  23.998  1.00  0.00     0.053 C 
BRANCH   4   5
ATOM      5  C   UNL     1       2.421  61.152  23.383  1.00  0.00     0.041 C 
ATOM      6  O   UNL     1       2.778  60.048  22.892  1.00  0.00    -0.550 OA
ATOM      7  O   UNL     1       3.271  62.247  23.306  1.00  0.00    -0.550 OA
ENDBRANCH   4   5
ENDBRANCH   3   4
ENDBRANCH   2   3
ENDBRANCH   1   2
BRANCH   1   8
ATOM      8  C   UNL     1       0.490  57.367  23.281  1.00  0.00     0.000 C 
BRANCH   8   9
ATOM      9  C   UNL     1       1.752  56.634  22.803  1.00  0.00     0.006 C 
BRANCH   9  10
ATOM     10  C   UNL     1       2.841  56.587  23.882  1.00  0.00     0.053 C 
BRANCH  10  11
ATOM     11  C   UNL     1       3.061  55.195  24.390  1.00  0.00     0.041 C 
ATOM     12  O   UNL     1       3.144  54.232  23.584  1.00  0.00    -0.550 OA
ATOM     13  O   UNL     1       3.142  54.957  25.757  1.00  0.00    -0.550 OA
ENDBRANCH  10  11
ENDBRANCH   9  10
ENDBRANCH   8   9
ENDBRANCH   1   8
TORSDOF 8
ENDMDL
MODEL 8
REMARK VINA RESULT:    -4.673     10.160     10.867
REMARK INTER + INTRA:          -7.288
REMARK INTER:                  -6.703
REMARK INTRA:                  -0.585
REMARK UNBOUND:                -0.430
REMARK SMILES O=C([O-])CCCCCCCC(=O)[O-]
REMARK SMILES IDX 7 1 6 2 5 3 4 4 2 5 1 6 3 7 8 8 9 9 10 10 11 11 12 12 13 13
REMARK H PARENT
REMARK Flexibility Score: inf
ROOT
ATOM      1  C   UNL     1       3.168  58.087  22.130  1.00  0.00     0.000 C 
ENDROOT
BRANCH   1   2
ATOM      2  C   UNL     1       2.870  58.695  23.510  1.00  0.00     0.000 C 
BRANCH   2   3
ATOM      3  C   UNL     1       2.140  60.045  23.416  1.00  0.00     0.006 C 
BRANCH   3   4
ATOM      4  C   UNL     1       0.615  59.900  23.496  1.00  0.00     0.053 C 
BRANCH   4   5
ATOM      5  C   UNL     1       0.164  59.910  24.922  1.00  0.00     0.041 C 
ATOM      6  O   UNL     1       0.003  58.827  25.543  1.00  0.00    -0.550 OA
ATOM      7  O   UNL     1      -0.032  61.117  25.580  1.00  0.00    -0.550 OA
ENDBRANCH   4   5
ENDBRANCH   3   4
ENDBRANCH   2   3
ENDBRANCH   1   2
BRANCH   1   8
ATOM      8  C   UNL     1       2.098  57.059  21.742  1.00  0.00     0.000 C 
BRANCH   8   9
ATOM      9  C   UNL     1       1.636  56.255  22.966  1.00  0.00     0.006 C 
BRANCH   9  10
ATOM     10  C   UNL     1       2.383  54.921  23.101  1.00  0.00     0.053 C 
BRANCH  10  11
ATOM     11  C   UNL     1       3.210  54.870  24.349  1.00  0.00     0.041 C 
ATOM     12  O   UNL     1       2.966  55.655  25.303  1.00  0.00    -0.550 OA
ATOM     13  O   UNL     1       4.271  53.979  24.446  1.00  0.00    -0.550 OA
ENDBRANCH  10  11
ENDBRANCH   9  10
ENDBRANCH   8   9
ENDBRANCH   1   8
TORSDOF 8
ENDMDL
MODEL 9
REMARK VINA RESULT:    -4.596     10.360     11.465
REMARK INTER + INTRA:          -7.176
REMARK INTER:                  -6.545
REMARK INTRA:                  -0.630
REMARK UNBOUND:                -0.430
REMARK SMILES O=C([O-])CCCCCCCC(=O)[O-]
REMARK SMILES IDX 7 1 6 2 5 3 4 4 2 5 1 6 3 7 8 8 9 9 10 10 11 11 12 12 13 13
REMARK H PARENT
REMARK Flexibility Score: inf
ROOT
ATOM      1  C   UNL     1       1.573  57.695  22.845  1.00  0.00     0.000 C 
ENDROOT
BRANCH   1   2
ATOM      2  C   UNL     1       2.778  58.240  23.628  1.00  0.00     0.000 C 
BRANCH   2   3
ATOM      3  C   UNL     1       3.762  57.134  24.046  1.00  0.00     0.006 C 
BRANCH   3   4
ATOM      4  C   UNL     1       3.083  56.003  24.828  1.00  0.00     0.053 C 
BRANCH   4   5
ATOM      5  C   UNL     1       3.349  54.684  24.175  1.00  0.00     0.041 C 
ATOM      6  O   UNL     1       2.641  54.303  23.206  1.00  0.00    -0.550 OA
ATOM      7  O   UNL     1       4.411  53.898  24.604  1.00  0.00    -0.550 OA
ENDBRANCH   4   5
ENDBRANCH   3   4
ENDBRANCH   2   3
ENDBRANCH   1   2
BRANCH   1   8
ATOM      8  C   UNL     1       0.255  58.110  23.509  1.00  0.00     0.000 C 
BRANCH   8   9
ATOM      9  C   UNL     1       0.499  58.662  24.922  1.00  0.00     0.006 C 
BRANCH   9  10
ATOM     10  C   UNL     1      -0.190  60.014  25.145  1.00  0.00     0.053 C 
BRANCH  10  11
ATOM     11  C   UNL     1       0.102  60.977  24.035  1.00  0.00     0.041 C 
ATOM     12  O   UNL     1      -0.824  61.372  23.279  1.00  0.00    -0.550 OA
ATOM     13  O   UNL     1       1.403  61.413  23.815  1.00  0.00    -0.550 OA
ENDBRANCH  10  11
ENDBRANCH   9  10
ENDBRANCH   8   9
ENDBRANCH   1   8
TORSDOF 8
ENDMDL
