MODEL 1
REMARK VINA RESULT:    -3.952      0.000      0.000
REMARK INTER + INTRA:          -4.215
REMARK INTER:                  -4.183
REMARK INTRA:                  -0.032
REMARK UNBOUND:                -0.032
REMARK SMILES COc1ccc2ccc(=O)oc2c1
REMARK SMILES IDX 3 1 13 2 12 3 6 4 5 5 4 6 7 7 8 8 9 9 10 10 11 11 2 12 1 13
REMARK H PARENT
REMARK Flexibility Score: inf
ROOT
ATOM      1  C   UNL     1      -6.553   9.654 -10.249  1.00  0.00     0.122 A 
ATOM      2  C   UNL     1      -6.397   9.155  -8.951  1.00  0.00     0.094 A 
ATOM      3  C   UNL     1      -7.499   8.674  -8.236  1.00  0.00     0.142 A 
ATOM      4  C   UNL     1      -8.781   8.694  -8.827  1.00  0.00     0.018 A 
ATOM      5  C   UNL     1      -8.943   9.193 -10.125  1.00  0.00     0.016 A 
ATOM      6  C   UNL     1      -7.836   9.672 -10.834  1.00  0.00     0.047 A 
ATOM      7  C   UNL     1      -9.864   8.207  -8.088  1.00  0.00     0.019 A 
ATOM      8  C   UNL     1      -9.649   7.721  -6.799  1.00  0.00     0.094 A 
ATOM      9  C   UNL     1      -8.351   7.732  -6.278  1.00  0.00     0.336 A 
ATOM     10  O   UNL     1      -8.136   7.298  -5.116  1.00  0.00    -0.246 OA
ATOM     11  O   UNL     1      -7.338   8.201  -7.002  1.00  0.00    -0.423 OA
ENDROOT
BRANCH   1  12
ATOM     12  O   UNL     1      -5.415  10.124 -10.923  1.00  0.00    -0.497 OA
ATOM     13  C   UNL     1      -5.061   9.762 -12.253  1.00  0.00     0.278 C 
ENDBRANCH   1  12
TORSDOF 1
ENDMDL
MODEL 2
REMARK VINA RESULT:    -3.777      0.945      4.796
REMARK INTER + INTRA:          -4.030
REMARK INTER:                  -3.995
REMARK INTRA:                  -0.034
REMARK UNBOUND:                -0.032
REMARK SMILES COc1ccc2ccc(=O)oc2c1
REMARK SMILES IDX 3 1 13 2 12 3 6 4 5 5 4 6 7 7 8 8 9 9 10 10 11 11 2 12 1 13
REMARK H PARENT
REMARK Flexibility Score: inf
ROOT
ATOM      1  C   UNL     1      -8.191   7.784  -6.660  1.00  0.00     0.122 A 
ATOM      2  C   UNL     1      -7.151   8.266  -7.464  1.00  0.00     0.094 A 
ATOM      3  C   UNL     1      -7.414   8.766  -8.744  1.00  0.00     0.142 A 
ATOM      4  C   UNL     1      -8.739   8.783  -9.231  1.00  0.00     0.018 A 
ATOM      5  C   UNL     1      -9.783   8.301  -8.431  1.00  0.00     0.016 A 
ATOM      6  C   UNL     1      -9.512   7.804  -7.152  1.00  0.00     0.047 A 
ATOM      7  C   UNL     1      -8.972   9.288 -10.514  1.00  0.00     0.019 A 
ATOM      8  C   UNL     1      -7.898   9.755 -11.270  1.00  0.00     0.094 A 
ATOM      9  C   UNL     1      -6.611   9.708 -10.722  1.00  0.00     0.336 A 
ATOM     10  O   UNL     1      -5.628  10.125 -11.389  1.00  0.00    -0.246 OA
ATOM     11  O   UNL     1      -6.418   9.222  -9.499  1.00  0.00    -0.423 OA
ENDROOT
BRANCH   1  12
ATOM     12  O   UNL     1      -7.872   7.294  -5.384  1.00  0.00    -0.497 OA
ATOM     13  C   UNL     1      -8.769   7.290  -4.278  1.00  0.00     0.278 C 
ENDBRANCH   1  12
TORSDOF 1
ENDMDL
MODEL 3
REMARK VINA RESULT:    -3.479     17.235     19.834
REMARK INTER + INTRA:          -3.714
REMARK INTER:                  -3.681
REMARK INTRA:                  -0.033
REMARK UNBOUND:                -0.032
REMARK SMILES COc1ccc2ccc(=O)oc2c1
REMARK SMILES IDX 3 1 13 2 12 3 6 4 5 5 4 6 7 7 8 8 9 9 10 10 11 11 2 12 1 13
REMARK H PARENT
REMARK Flexibility Score: inf
ROOT
ATOM      1  C   UNL     1      -9.754  -4.861   3.267  1.00  0.00     0.122 A 
ATOM      2  C   UNL     1      -9.000  -5.723   4.073  1.00  0.00     0.094 A 
ATOM      3  C   UNL     1      -8.613  -6.981   3.601  1.00  0.00     0.142 A 
ATOM      4  C   UNL     1      -8.987  -7.388   2.302  1.00  0.00     0.018 A 
ATOM      5  C   UNL     1      -9.741  -6.531   1.492  1.00  0.00     0.016 A 
ATOM      6  C   UNL     1     -10.124  -5.274   1.971  1.00  0.00     0.047 A 
ATOM      7  C   UNL     1      -8.586  -8.653   1.857  1.00  0.00     0.019 A 
ATOM      8  C   UNL     1      -7.835  -9.468   2.703  1.00  0.00     0.094 A 
ATOM      9  C   UNL     1      -7.502  -8.999   3.979  1.00  0.00     0.336 A 
ATOM     10  O   UNL     1      -6.825  -9.720   4.757  1.00  0.00    -0.246 OA
ATOM     11  O   UNL     1      -7.896  -7.792   4.376  1.00  0.00    -0.423 OA
ENDROOT
BRANCH   1  12
ATOM     12  O   UNL     1     -10.115  -3.609   3.788  1.00  0.00    -0.497 OA
ATOM     13  C   UNL     1     -10.125  -2.399   3.039  1.00  0.00     0.278 C 
ENDBRANCH   1  12
TORSDOF 1
ENDMDL
MODEL 4
REMARK VINA RESULT:    -3.252      2.124      5.105
REMARK INTER + INTRA:          -3.474
REMARK INTER:                  -3.438
REMARK INTRA:                  -0.036
REMARK UNBOUND:                -0.032
REMARK SMILES COc1ccc2ccc(=O)oc2c1
REMARK SMILES IDX 3 1 13 2 12 3 6 4 5 5 4 6 7 7 8 8 9 9 10 10 11 11 2 12 1 13
REMARK H PARENT
REMARK Flexibility Score: inf
ROOT
ATOM      1  C   UNL     1      -8.491   8.066  -7.358  1.00  0.00     0.122 A 
ATOM      2  C   UNL     1      -9.352   8.282  -8.441  1.00  0.00     0.094 A 
ATOM      3  C   UNL     1      -8.870   8.833  -9.633  1.00  0.00     0.142 A 
ATOM      4  C   UNL     1      -7.506   9.176  -9.746  1.00  0.00     0.018 A 
ATOM      5  C   UNL     1      -6.641   8.963  -8.666  1.00  0.00     0.016 A 
ATOM      6  C   UNL     1      -7.130   8.411  -7.477  1.00  0.00     0.047 A 
ATOM      7  C   UNL     1      -7.053   9.725 -10.951  1.00  0.00     0.019 A 
ATOM      8  C   UNL     1      -7.955   9.916 -11.996  1.00  0.00     0.094 A 
ATOM      9  C   UNL     1      -9.294   9.553 -11.813  1.00  0.00     0.336 A 
ATOM     10  O   UNL     1     -10.124   9.718 -12.744  1.00  0.00    -0.246 OA
ATOM     11  O   UNL     1      -9.698   9.032 -10.657  1.00  0.00    -0.423 OA
ENDROOT
BRANCH   1  12
ATOM     12  O   UNL     1      -9.026   7.511  -6.185  1.00  0.00    -0.497 OA
ATOM     13  C   UNL     1      -8.265   7.211  -5.019  1.00  0.00     0.278 C 
ENDBRANCH   1  12
TORSDOF 1
ENDMDL
MODEL 5
REMARK VINA RESULT:    -2.986     16.977     18.016
REMARK INTER + INTRA:          -3.192
REMARK INTER:                  -3.153
REMARK INTRA:                  -0.039
REMARK UNBOUND:                -0.032
REMARK SMILES COc1ccc2ccc(=O)oc2c1
REMARK SMILES IDX 3 1 13 2 12 3 6 4 5 5 4 6 7 7 8 8 9 9 10 10 11 11 2 12 1 13
REMARK H PARENT
REMARK Flexibility Score: inf
ROOT
ATOM      1  C   UNL     1      -7.911  -9.573  -8.979  1.00  0.00     0.122 A 
ATOM      2  C   UNL     1      -7.227  -8.999 -10.057  1.00  0.00     0.094 A 
ATOM      3  C   UNL     1      -7.930  -8.437 -11.128  1.00  0.00     0.142 A 
ATOM      4  C   UNL     1      -9.341  -8.448 -11.123  1.00  0.00     0.018 A 
ATOM      5  C   UNL     1     -10.031  -9.021 -10.048  1.00  0.00     0.016 A 
ATOM      6  C   UNL     1      -9.321  -9.582  -8.981  1.00  0.00     0.047 A 
ATOM      7  C   UNL     1     -10.017  -7.878 -12.207  1.00  0.00     0.019 A 
ATOM      8  C   UNL     1      -9.283  -7.320 -13.253  1.00  0.00     0.094 A 
ATOM      9  C   UNL     1      -7.885  -7.345 -13.191  1.00  0.00     0.336 A 
ATOM     10  O   UNL     1      -7.205  -6.847 -14.125  1.00  0.00    -0.246 OA
ATOM     11  O   UNL     1      -7.268  -7.893 -12.147  1.00  0.00    -0.423 OA
ENDROOT
BRANCH   1  12
ATOM     12  O   UNL     1      -7.158 -10.124  -7.931  1.00  0.00    -0.497 OA
ATOM     13  C   UNL     1      -6.000  -9.516  -7.368  1.00  0.00     0.278 C 
ENDBRANCH   1  12
TORSDOF 1
ENDMDL
MODEL 6
REMARK VINA RESULT:    -2.745     17.147     19.113
REMARK INTER + INTRA:          -2.937
REMARK INTER:                  -2.902
REMARK INTRA:                  -0.035
REMARK UNBOUND:                -0.032
REMARK SMILES COc1ccc2ccc(=O)oc2c1
REMARK SMILES IDX 3 1 13 2 12 3 6 4 5 5 4 6 7 7 8 8 9 9 10 10 11 11 2 12 1 13
REMARK H PARENT
REMARK Flexibility Score: inf
ROOT
ATOM      1  C   UNL     1      -9.401  -6.851   2.759  1.00  0.00     0.122 A 
ATOM      2  C   UNL     1      -9.797  -5.527   2.536  1.00  0.00     0.094 A 
ATOM      3  C   UNL     1      -9.559  -4.542   3.500  1.00  0.00     0.142 A 
ATOM      4  C   UNL     1      -8.916  -4.884   4.709  1.00  0.00     0.018 A 
ATOM      5  C   UNL     1      -8.519  -6.207   4.938  1.00  0.00     0.016 A 
ATOM      6  C   UNL     1      -8.760  -7.187   3.969  1.00  0.00     0.047 A 
ATOM      7  C   UNL     1      -8.692  -3.878   5.654  1.00  0.00     0.019 A 
ATOM      8  C   UNL     1      -9.108  -2.576   5.377  1.00  0.00     0.094 A 
ATOM      9  C   UNL     1      -9.739  -2.310   4.157  1.00  0.00     0.336 A 
ATOM     10  O   UNL     1     -10.122  -1.141   3.889  1.00  0.00    -0.246 OA
ATOM     11  O   UNL     1      -9.939  -3.286   3.276  1.00  0.00    -0.423 OA
ENDROOT
BRANCH   1  12
ATOM     12  O   UNL     1      -9.663  -7.801   1.759  1.00  0.00    -0.497 OA
ATOM     13  C   UNL     1      -9.714  -9.207   1.980  1.00  0.00     0.278 C 
ENDBRANCH   1  12
TORSDOF 1
ENDMDL
MODEL 7
REMARK VINA RESULT:    -2.741     15.731     15.966
REMARK INTER + INTRA:          -2.933
REMARK INTER:                  -2.890
REMARK INTRA:                  -0.043
REMARK UNBOUND:                -0.032
REMARK SMILES COc1ccc2ccc(=O)oc2c1
REMARK SMILES IDX 3 1 13 2 12 3 6 4 5 5 4 6 7 7 8 8 9 9 10 10 11 11 2 12 1 13
REMARK H PARENT
REMARK Flexibility Score: inf
ROOT
ATOM      1  C   UNL     1      -7.564  -4.643 -13.668  1.00  0.00     0.122 A 
ATOM      2  C   UNL     1      -7.036  -5.856 -13.209  1.00  0.00     0.094 A 
ATOM      3  C   UNL     1      -7.881  -6.869 -12.743  1.00  0.00     0.142 A 
ATOM      4  C   UNL     1      -9.278  -6.667 -12.734  1.00  0.00     0.018 A 
ATOM      5  C   UNL     1      -9.811  -5.457 -13.192  1.00  0.00     0.016 A 
ATOM      6  C   UNL     1      -8.960  -4.448 -13.656  1.00  0.00     0.047 A 
ATOM      7  C   UNL     1     -10.098  -7.698 -12.263  1.00  0.00     0.019 A 
ATOM      8  C   UNL     1      -9.516  -8.885 -11.818  1.00  0.00     0.094 A 
ATOM      9  C   UNL     1      -8.123  -9.014 -11.856  1.00  0.00     0.336 A 
ATOM     10  O   UNL     1      -7.580 -10.077 -11.459  1.00  0.00    -0.246 OA
ATOM     11  O   UNL     1      -7.367  -8.018 -12.310  1.00  0.00    -0.423 OA
ENDROOT
BRANCH   1  12
ATOM     12  O   UNL     1      -6.672  -3.661 -14.125  1.00  0.00    -0.497 OA
ATOM     13  C   UNL     1      -5.254  -3.795 -14.116  1.00  0.00     0.278 C 
ENDBRANCH   1  12
TORSDOF 1
ENDMDL
