MODEL 1
REMARK VINA RESULT:    -4.225      0.000      0.000
REMARK INTER + INTRA:          -7.516
REMARK INTER:                  -6.448
REMARK INTRA:                  -1.068
REMARK UNBOUND:                -1.068
REMARK SMILES OC[C@@H]1O[C@](CO)(O[C@H]2O[C@@H](CO)[C@@H](O)[C@H](O)[C@@H]2O)[C@@H](O)[C@@H]1O
REMARK SMILES IDX 8 1 9 2 11 3 14 4 10 5 16 6 18 7 12 8 13 9 15 11 17 13 19 15
REMARK SMILES IDX 5 17 20 18 4 19 22 20 3 21 6 22 7 23 21 25 23 27 2 29 1 30
REMARK H PARENT 13 10 15 12 17 14 19 16 7 24 21 26 23 28 1 31
REMARK Flexibility Score: inf
ROOT
ATOM      1  O   UNL     1       9.991  -4.723   3.184  1.00  0.00    -0.313 OA
ENDROOT
BRANCH   1   2
ATOM      2  C   UNL     1      11.281  -5.272   2.936  1.00  0.00     0.285 C 
ATOM      3  C   UNL     1      11.822  -3.849   1.083  1.00  0.00     0.178 C 
ATOM      4  C   UNL     1      12.886  -3.080   1.902  1.00  0.00     0.177 C 
ATOM      5  O   UNL     1      11.606  -5.177   1.553  1.00  0.00    -0.341 OA
ATOM      6  C   UNL     1      12.579  -3.136   3.403  1.00  0.00     0.179 C 
ATOM      7  C   UNL     1      12.331  -4.588   3.839  1.00  0.00     0.202 C 
BRANCH   3   8
ATOM      8  C   UNL     1      10.504  -3.069   0.868  1.00  0.00     0.191 C 
BRANCH   8   9
ATOM      9  O   UNL     1       9.863  -3.499  -0.301  1.00  0.00    -0.394 OA
ATOM     10  H   UNL     1       8.927  -3.718  -0.048  1.00  0.00     0.210 HD
ENDBRANCH   8   9
ENDBRANCH   3   8
BRANCH   4  11
ATOM     11  O   UNL     1      12.954  -1.744   1.469  1.00  0.00    -0.387 OA
ATOM     12  H   UNL     1      13.888  -1.579   1.178  1.00  0.00     0.211 HD
ENDBRANCH   4  11
BRANCH   6  13
ATOM     13  O   UNL     1      13.653  -2.590   4.125  1.00  0.00    -0.387 OA
ATOM     14  H   UNL     1      14.485  -2.936   3.708  1.00  0.00     0.211 HD
ENDBRANCH   6  13
BRANCH   7  15
ATOM     15  O   UNL     1      13.533  -5.324   3.882  1.00  0.00    -0.385 OA
ATOM     16  H   UNL     1      13.343  -6.209   4.286  1.00  0.00     0.211 HD
ENDBRANCH   7  15
ENDBRANCH   1   2
BRANCH   1  17
ATOM     17  C   UNL     1       8.923  -5.668   3.205  1.00  0.00     0.224 C 
ATOM     18  C   UNL     1       8.232  -5.772   1.822  1.00  0.00     0.208 C 
ATOM     19  O   UNL     1       7.966  -5.172   4.125  1.00  0.00    -0.337 OA
ATOM     20  C   UNL     1       6.770  -5.828   2.164  1.00  0.00     0.180 C 
ATOM     21  C   UNL     1       6.709  -5.067   3.488  1.00  0.00     0.179 C 
BRANCH  17  22
ATOM     22  C   UNL     1       9.410  -7.031   3.775  1.00  0.00     0.225 C 
BRANCH  22  23
ATOM     23  O   UNL     1       8.389  -7.993   3.730  1.00  0.00    -0.391 OA
ATOM     24  H   UNL     1       8.800  -8.840   3.419  1.00  0.00     0.210 HD
ENDBRANCH  22  23
ENDBRANCH  17  22
BRANCH  18  25
ATOM     25  O   UNL     1       8.626  -6.912   1.100  1.00  0.00    -0.385 OA
ATOM     26  H   UNL     1       8.600  -6.661   0.139  1.00  0.00     0.211 HD
ENDBRANCH  18  25
BRANCH  20  27
ATOM     27  O   UNL     1       5.993  -5.244   1.149  1.00  0.00    -0.387 OA
ATOM     28  H   UNL     1       6.431  -4.382   0.925  1.00  0.00     0.211 HD
ENDBRANCH  20  27
BRANCH  21  29
ATOM     29  C   UNL     1       6.344  -3.579   3.330  1.00  0.00     0.191 C 
BRANCH  29  30
ATOM     30  O   UNL     1       4.982  -3.438   3.029  1.00  0.00    -0.394 OA
ATOM     31  H   UNL     1       4.924  -2.813   2.260  1.00  0.00     0.210 HD
ENDBRANCH  29  30
ENDBRANCH  21  29
ENDBRANCH   1  17
TORSDOF 13
ENDMDL
MODEL 2
REMARK VINA RESULT:    -3.759      1.288      2.701
REMARK INTER + INTRA:          -6.805
REMARK INTER:                  -6.464
REMARK INTRA:                  -0.342
REMARK UNBOUND:                -1.068
REMARK SMILES OC[C@@H]1O[C@](CO)(O[C@H]2O[C@@H](CO)[C@@H](O)[C@H](O)[C@@H]2O)[C@@H](O)[C@@H]1O
REMARK SMILES IDX 8 1 9 2 11 3 14 4 10 5 16 6 18 7 12 8 13 9 15 11 17 13 19 15
REMARK SMILES IDX 5 17 20 18 4 19 22 20 3 21 6 22 7 23 21 25 23 27 2 29 1 30
REMARK H PARENT 13 10 15 12 17 14 19 16 7 24 21 26 23 28 1 31
REMARK Flexibility Score: inf
ROOT
ATOM      1  O   UNL     1      10.486  -5.379   3.615  1.00  0.00    -0.313 OA
ENDROOT
BRANCH   1   2
ATOM      2  C   UNL     1      10.222  -4.035   3.228  1.00  0.00     0.285 C 
ATOM      3  C   UNL     1      12.464  -3.233   3.513  1.00  0.00     0.178 C 
ATOM      4  C   UNL     1      12.670  -3.076   1.987  1.00  0.00     0.177 C 
ATOM      5  O   UNL     1      11.097  -3.139   3.905  1.00  0.00    -0.341 OA
ATOM      6  C   UNL     1      11.760  -4.029   1.203  1.00  0.00     0.179 C 
ATOM      7  C   UNL     1      10.309  -3.898   1.692  1.00  0.00     0.202 C 
BRANCH   3   8
ATOM      8  C   UNL     1      13.180  -4.459   4.125  1.00  0.00     0.191 C 
BRANCH   8   9
ATOM      9  O   UNL     1      14.568  -4.270   4.122  1.00  0.00    -0.394 OA
ATOM     10  H   UNL     1      14.907  -4.633   4.982  1.00  0.00     0.210 HD
ENDBRANCH   8   9
ENDBRANCH   3   8
BRANCH   4  11
ATOM     11  O   UNL     1      14.017  -3.308   1.657  1.00  0.00    -0.387 OA
ATOM     12  H   UNL     1      14.288  -4.148   2.112  1.00  0.00     0.211 HD
ENDBRANCH   4  11
BRANCH   6  13
ATOM     13  O   UNL     1      11.839  -3.735  -0.168  1.00  0.00    -0.387 OA
ATOM     14  H   UNL     1      12.145  -4.563  -0.621  1.00  0.00     0.211 HD
ENDBRANCH   6  13
BRANCH   7  15
ATOM     15  O   UNL     1       9.724  -2.696   1.246  1.00  0.00    -0.385 OA
ATOM     16  H   UNL     1      10.179  -1.941   1.701  1.00  0.00     0.211 HD
ENDBRANCH   7  15
ENDBRANCH   1   2
BRANCH   1  17
ATOM     17  C   UNL     1       9.416  -6.295   3.393  1.00  0.00     0.224 C 
ATOM     18  C   UNL     1       9.007  -6.335   1.898  1.00  0.00     0.208 C 
ATOM     19  O   UNL     1       8.307  -5.802   4.125  1.00  0.00    -0.337 OA
ATOM     20  C   UNL     1       7.505  -6.362   1.946  1.00  0.00     0.180 C 
ATOM     21  C   UNL     1       7.202  -5.642   3.259  1.00  0.00     0.179 C 
BRANCH  17  22
ATOM     22  C   UNL     1       9.753  -7.689   3.996  1.00  0.00     0.225 C 
BRANCH  22  23
ATOM     23  O   UNL     1      11.041  -8.103   3.624  1.00  0.00    -0.391 OA
ATOM     24  H   UNL     1      11.247  -8.919   4.148  1.00  0.00     0.210 HD
ENDBRANCH  22  23
ENDBRANCH  17  22
BRANCH  18  25
ATOM     25  O   UNL     1       9.511  -7.462   1.226  1.00  0.00    -0.385 OA
ATOM     26  H   UNL     1       9.791  -7.152   0.325  1.00  0.00     0.211 HD
ENDBRANCH  18  25
BRANCH  20  27
ATOM     27  O   UNL     1       6.956  -5.725   0.820  1.00  0.00    -0.387 OA
ATOM     28  H   UNL     1       5.979  -5.663   0.985  1.00  0.00     0.211 HD
ENDBRANCH  20  27
BRANCH  21  29
ATOM     29  C   UNL     1       6.907  -4.141   3.087  1.00  0.00     0.191 C 
BRANCH  29  30
ATOM     30  O   UNL     1       5.584  -3.946   2.664  1.00  0.00    -0.394 OA
ATOM     31  H   UNL     1       5.090  -3.570   3.438  1.00  0.00     0.210 HD
ENDBRANCH  29  30
ENDBRANCH  21  29
ENDBRANCH   1  17
TORSDOF 13
ENDMDL
MODEL 3
REMARK VINA RESULT:    -3.697      1.262      2.634
REMARK INTER + INTRA:          -6.711
REMARK INTER:                  -5.851
REMARK INTRA:                  -0.860
REMARK UNBOUND:                -1.068
REMARK SMILES OC[C@@H]1O[C@](CO)(O[C@H]2O[C@@H](CO)[C@@H](O)[C@H](O)[C@@H]2O)[C@@H](O)[C@@H]1O
REMARK SMILES IDX 8 1 9 2 11 3 14 4 10 5 16 6 18 7 12 8 13 9 15 11 17 13 19 15
REMARK SMILES IDX 5 17 20 18 4 19 22 20 3 21 6 22 7 23 21 25 23 27 2 29 1 30
REMARK H PARENT 13 10 15 12 17 14 19 16 7 24 21 26 23 28 1 31
REMARK Flexibility Score: inf
ROOT
ATOM      1  O   UNL     1       9.577  -5.025   2.836  1.00  0.00    -0.313 OA
ENDROOT
BRANCH   1   2
ATOM      2  C   UNL     1       9.496  -3.778   2.154  1.00  0.00     0.285 C 
ATOM      3  C   UNL     1      11.491  -2.835   3.093  1.00  0.00     0.178 C 
ATOM      4  C   UNL     1      12.246  -2.924   1.745  1.00  0.00     0.177 C 
ATOM      5  O   UNL     1      10.078  -2.742   2.939  1.00  0.00    -0.341 OA
ATOM      6  C   UNL     1      11.670  -4.036   0.860  1.00  0.00     0.179 C 
ATOM      7  C   UNL     1      10.143  -3.895   0.756  1.00  0.00     0.202 C 
BRANCH   3   8
ATOM      8  C   UNL     1      11.912  -3.907   4.125  1.00  0.00     0.191 C 
BRANCH   8   9
ATOM      9  O   UNL     1      12.309  -5.084   3.477  1.00  0.00    -0.394 OA
ATOM     10  H   UNL     1      13.225  -5.292   3.802  1.00  0.00     0.210 HD
ENDBRANCH   8   9
ENDBRANCH   3   8
BRANCH   4  11
ATOM     11  O   UNL     1      13.615  -3.144   1.973  1.00  0.00    -0.387 OA
ATOM     12  H   UNL     1      14.089  -2.932   1.126  1.00  0.00     0.211 HD
ENDBRANCH   4  11
BRANCH   6  13
ATOM     13  O   UNL     1      12.251  -3.971  -0.417  1.00  0.00    -0.387 OA
ATOM     14  H   UNL     1      11.983  -3.099  -0.809  1.00  0.00     0.211 HD
ENDBRANCH   6  13
BRANCH   7  15
ATOM     15  O   UNL     1       9.784  -2.813  -0.072  1.00  0.00    -0.385 OA
ATOM     16  H   UNL     1       9.994  -1.970   0.407  1.00  0.00     0.211 HD
ENDBRANCH   7  15
ENDBRANCH   1   2
BRANCH   1  17
ATOM     17  C   UNL     1       8.420  -5.851   2.726  1.00  0.00     0.224 C 
ATOM     18  C   UNL     1       7.498  -5.383   1.571  1.00  0.00     0.208 C 
ATOM     19  O   UNL     1       7.700  -5.696   3.937  1.00  0.00    -0.337 OA
ATOM     20  C   UNL     1       6.118  -5.492   2.158  1.00  0.00     0.180 C 
ATOM     21  C   UNL     1       6.376  -5.293   3.651  1.00  0.00     0.179 C 
BRANCH  17  22
ATOM     22  C   UNL     1       8.824  -7.352   2.647  1.00  0.00     0.225 C 
BRANCH  22  23
ATOM     23  O   UNL     1      10.081  -7.506   2.042  1.00  0.00    -0.391 OA
ATOM     24  H   UNL     1      10.763  -7.293   2.731  1.00  0.00     0.210 HD
ENDBRANCH  22  23
ENDBRANCH  17  22
BRANCH  18  25
ATOM     25  O   UNL     1       7.620  -6.179   0.420  1.00  0.00    -0.385 OA
ATOM     26  H   UNL     1       8.465  -6.692   0.519  1.00  0.00     0.211 HD
ENDBRANCH  18  25
BRANCH  20  27
ATOM     27  O   UNL     1       5.260  -4.526   1.606  1.00  0.00    -0.387 OA
ATOM     28  H   UNL     1       5.129  -3.836   2.308  1.00  0.00     0.211 HD
ENDBRANCH  20  27
BRANCH  21  29
ATOM     29  C   UNL     1       6.176  -3.841   4.125  1.00  0.00     0.191 C 
BRANCH  29  30
ATOM     30  O   UNL     1       4.817  -3.497   4.091  1.00  0.00    -0.394 OA
ATOM     31  H   UNL     1       4.642  -2.952   4.902  1.00  0.00     0.210 HD
ENDBRANCH  29  30
ENDBRANCH  21  29
ENDBRANCH   1  17
TORSDOF 13
ENDMDL
MODEL 4
REMARK VINA RESULT:    -3.579      1.606      5.911
REMARK INTER + INTRA:          -6.531
REMARK INTER:                  -5.752
REMARK INTRA:                  -0.779
REMARK UNBOUND:                -1.068
REMARK SMILES OC[C@@H]1O[C@](CO)(O[C@H]2O[C@@H](CO)[C@@H](O)[C@H](O)[C@@H]2O)[C@@H](O)[C@@H]1O
REMARK SMILES IDX 8 1 9 2 11 3 14 4 10 5 16 6 18 7 12 8 13 9 15 11 17 13 19 15
REMARK SMILES IDX 5 17 20 18 4 19 22 20 3 21 6 22 7 23 21 25 23 27 2 29 1 30
REMARK H PARENT 13 10 15 12 17 14 19 16 7 24 21 26 23 28 1 31
REMARK Flexibility Score: inf
ROOT
ATOM      1  O   UNL     1      10.343  -5.365   2.915  1.00  0.00    -0.313 OA
ENDROOT
BRANCH   1   2
ATOM      2  C   UNL     1       9.659  -5.962   1.818  1.00  0.00     0.285 C 
ATOM      3  C   UNL     1       9.409  -8.130   2.811  1.00  0.00     0.178 C 
ATOM      4  C   UNL     1       7.882  -7.947   2.982  1.00  0.00     0.177 C 
ATOM      5  O   UNL     1       9.951  -7.354   1.746  1.00  0.00    -0.341 OA
ATOM      6  C   UNL     1       7.509  -6.463   3.079  1.00  0.00     0.179 C 
ATOM      7  C   UNL     1       8.144  -5.680   1.920  1.00  0.00     0.202 C 
BRANCH   3   8
ATOM      8  C   UNL     1      10.214  -7.988   4.124  1.00  0.00     0.191 C 
BRANCH   8   9
ATOM      9  O   UNL     1      11.589  -7.945   3.857  1.00  0.00    -0.394 OA
ATOM     10  H   UNL     1      11.856  -8.864   3.593  1.00  0.00     0.210 HD
ENDBRANCH   8   9
ENDBRANCH   3   8
BRANCH   4  11
ATOM     11  O   UNL     1       7.439  -8.636   4.125  1.00  0.00    -0.387 OA
ATOM     12  H   UNL     1       8.124  -8.499   4.830  1.00  0.00     0.211 HD
ENDBRANCH   4  11
BRANCH   6  13
ATOM     13  O   UNL     1       6.112  -6.325   3.049  1.00  0.00    -0.387 OA
ATOM     14  H   UNL     1       5.913  -5.538   2.477  1.00  0.00     0.211 HD
ENDBRANCH   6  13
BRANCH   7  15
ATOM     15  O   UNL     1       7.486  -5.943   0.701  1.00  0.00    -0.385 OA
ATOM     16  H   UNL     1       6.602  -6.345   0.905  1.00  0.00     0.211 HD
ENDBRANCH   7  15
ENDBRANCH   1   2
BRANCH   1  17
ATOM     17  C   UNL     1      10.717  -4.002   2.725  1.00  0.00     0.224 C 
ATOM     18  C   UNL     1      11.493  -3.807   1.398  1.00  0.00     0.208 C 
ATOM     19  O   UNL     1      11.598  -3.677   3.787  1.00  0.00    -0.337 OA
ATOM     20  C   UNL     1      12.606  -2.871   1.776  1.00  0.00     0.180 C 
ATOM     21  C   UNL     1      12.812  -3.181   3.258  1.00  0.00     0.179 C 
BRANCH  17  22
ATOM     22  C   UNL     1       9.483  -3.068   2.882  1.00  0.00     0.225 C 
BRANCH  22  23
ATOM     23  O   UNL     1       8.857  -3.260   4.123  1.00  0.00    -0.391 OA
ATOM     24  H   UNL     1       9.433  -3.875   4.647  1.00  0.00     0.210 HD
ENDBRANCH  22  23
ENDBRANCH  17  22
BRANCH  18  25
ATOM     25  O   UNL     1      10.698  -3.259   0.377  1.00  0.00    -0.385 OA
ATOM     26  H   UNL     1       9.806  -3.081   0.778  1.00  0.00     0.211 HD
ENDBRANCH  18  25
BRANCH  20  27
ATOM     27  O   UNL     1      13.749  -3.106   0.993  1.00  0.00    -0.387 OA
ATOM     28  H   UNL     1      13.429  -3.211   0.059  1.00  0.00     0.211 HD
ENDBRANCH  20  27
BRANCH  21  29
ATOM     29  C   UNL     1      13.934  -4.201   3.526  1.00  0.00     0.191 C 
BRANCH  29  30
ATOM     30  O   UNL     1      13.392  -5.439   3.900  1.00  0.00    -0.394 OA
ATOM     31  H   UNL     1      12.701  -5.251   4.587  1.00  0.00     0.210 HD
ENDBRANCH  29  30
ENDBRANCH  21  29
ENDBRANCH   1  17
TORSDOF 13
ENDMDL
MODEL 5
REMARK VINA RESULT:    -3.423      1.742      3.899
REMARK INTER + INTRA:          -6.292
REMARK INTER:                  -5.265
REMARK INTRA:                  -1.027
REMARK UNBOUND:                -1.068
REMARK SMILES OC[C@@H]1O[C@](CO)(O[C@H]2O[C@@H](CO)[C@@H](O)[C@H](O)[C@@H]2O)[C@@H](O)[C@@H]1O
REMARK SMILES IDX 8 1 9 2 11 3 14 4 10 5 16 6 18 7 12 8 13 9 15 11 17 13 19 15
REMARK SMILES IDX 5 17 20 18 4 19 22 20 3 21 6 22 7 23 21 25 23 27 2 29 1 30
REMARK H PARENT 13 10 15 12 17 14 19 16 7 24 21 26 23 28 1 31
REMARK Flexibility Score: inf
ROOT
ATOM      1  O   UNL     1      11.388  -4.296   1.973  1.00  0.00    -0.313 OA
ENDROOT
BRANCH   1   2
ATOM      2  C   UNL     1      11.859  -3.231   2.792  1.00  0.00     0.285 C 
ATOM      3  C   UNL     1      13.345  -4.558   4.125  1.00  0.00     0.178 C 
ATOM      4  C   UNL     1      14.598  -3.917   3.482  1.00  0.00     0.177 C 
ATOM      5  O   UNL     1      12.201  -3.711   4.088  1.00  0.00    -0.341 OA
ATOM      6  C   UNL     1      14.293  -3.392   2.074  1.00  0.00     0.179 C 
ATOM      7  C   UNL     1      13.036  -2.509   2.099  1.00  0.00     0.202 C 
BRANCH   3   8
ATOM      8  C   UNL     1      13.045  -5.992   3.630  1.00  0.00     0.191 C 
BRANCH   8   9
ATOM      9  O   UNL     1      11.780  -6.409   4.067  1.00  0.00    -0.394 OA
ATOM     10  H   UNL     1      11.114  -5.928   3.509  1.00  0.00     0.210 HD
ENDBRANCH   8   9
ENDBRANCH   3   8
BRANCH   4  11
ATOM     11  O   UNL     1      15.648  -4.851   3.436  1.00  0.00    -0.387 OA
ATOM     12  H   UNL     1      15.234  -5.752   3.396  1.00  0.00     0.211 HD
ENDBRANCH   4  11
BRANCH   6  13
ATOM     13  O   UNL     1      15.391  -2.660   1.595  1.00  0.00    -0.387 OA
ATOM     14  H   UNL     1      15.732  -3.143   0.798  1.00  0.00     0.211 HD
ENDBRANCH   6  13
BRANCH   7  15
ATOM     15  O   UNL     1      13.299  -1.259   2.695  1.00  0.00    -0.385 OA
ATOM     16  H   UNL     1      12.817  -1.219   3.561  1.00  0.00     0.211 HD
ENDBRANCH   7  15
ENDBRANCH   1   2
BRANCH   1  17
ATOM     17  C   UNL     1      10.001  -4.242   1.646  1.00  0.00     0.224 C 
ATOM     18  C   UNL     1       9.126  -4.079   2.916  1.00  0.00     0.208 C 
ATOM     19  O   UNL     1       9.678  -5.492   1.063  1.00  0.00    -0.337 OA
ATOM     20  C   UNL     1       7.978  -5.017   2.673  1.00  0.00     0.180 C 
ATOM     21  C   UNL     1       8.602  -6.078   1.768  1.00  0.00     0.179 C 
BRANCH  17  22
ATOM     22  C   UNL     1       9.738  -3.168   0.552  1.00  0.00     0.225 C 
BRANCH  22  23
ATOM     23  O   UNL     1       9.733  -3.742  -0.729  1.00  0.00    -0.391 OA
ATOM     24  H   UNL     1       8.787  -3.921  -0.964  1.00  0.00     0.210 HD
ENDBRANCH  22  23
ENDBRANCH  17  22
BRANCH  18  25
ATOM     25  O   UNL     1       8.672  -2.762   3.098  1.00  0.00    -0.385 OA
ATOM     26  H   UNL     1       7.939  -2.806   3.767  1.00  0.00     0.211 HD
ENDBRANCH  18  25
BRANCH  20  27
ATOM     27  O   UNL     1       7.488  -5.535   3.884  1.00  0.00    -0.387 OA
ATOM     28  H   UNL     1       8.284  -5.795   4.418  1.00  0.00     0.211 HD
ENDBRANCH  20  27
BRANCH  21  29
ATOM     29  C   UNL     1       9.110  -7.318   2.527  1.00  0.00     0.191 C 
BRANCH  29  30
ATOM     30  O   UNL     1      10.150  -7.935   1.817  1.00  0.00    -0.394 OA
ATOM     31  H   UNL     1       9.723  -8.559   1.172  1.00  0.00     0.210 HD
ENDBRANCH  29  30
ENDBRANCH  21  29
ENDBRANCH   1  17
TORSDOF 13
ENDMDL
MODEL 6
REMARK VINA RESULT:    -3.250      1.350      5.869
REMARK INTER + INTRA:          -6.028
REMARK INTER:                  -6.108
REMARK INTRA:                   0.081
REMARK UNBOUND:                -1.068
REMARK SMILES OC[C@@H]1O[C@](CO)(O[C@H]2O[C@@H](CO)[C@@H](O)[C@H](O)[C@@H]2O)[C@@H](O)[C@@H]1O
REMARK SMILES IDX 8 1 9 2 11 3 14 4 10 5 16 6 18 7 12 8 13 9 15 11 17 13 19 15
REMARK SMILES IDX 5 17 20 18 4 19 22 20 3 21 6 22 7 23 21 25 23 27 2 29 1 30
REMARK H PARENT 13 10 15 12 17 14 19 16 7 24 21 26 23 28 1 31
REMARK Flexibility Score: inf
ROOT
ATOM      1  O   UNL     1       9.693  -3.583   2.700  1.00  0.00    -0.313 OA
ENDROOT
BRANCH   1   2
ATOM      2  C   UNL     1       9.313  -4.906   3.066  1.00  0.00     0.285 C 
ATOM      3  C   UNL     1       7.085  -4.357   3.761  1.00  0.00     0.178 C 
ATOM      4  C   UNL     1       6.458  -5.079   2.544  1.00  0.00     0.177 C 
ATOM      5  O   UNL     1       8.361  -4.876   4.124  1.00  0.00    -0.341 OA
ATOM      6  C   UNL     1       7.437  -5.129   1.365  1.00  0.00     0.179 C 
ATOM      7  C   UNL     1       8.798  -5.672   1.828  1.00  0.00     0.202 C 
BRANCH   3   8
ATOM      8  C   UNL     1       7.074  -2.814   3.655  1.00  0.00     0.191 C 
BRANCH   8   9
ATOM      9  O   UNL     1       5.802  -2.355   3.287  1.00  0.00    -0.394 OA
ATOM     10  H   UNL     1       5.922  -1.433   2.938  1.00  0.00     0.210 HD
ENDBRANCH   8   9
ENDBRANCH   3   8
BRANCH   4  11
ATOM     11  O   UNL     1       5.268  -4.435   2.161  1.00  0.00    -0.387 OA
ATOM     12  H   UNL     1       5.528  -3.620   1.657  1.00  0.00     0.211 HD
ENDBRANCH   4  11
BRANCH   6  13
ATOM     13  O   UNL     1       6.911  -5.944   0.349  1.00  0.00    -0.387 OA
ATOM     14  H   UNL     1       7.572  -6.668   0.190  1.00  0.00     0.211 HD
ENDBRANCH   6  13
BRANCH   7  15
ATOM     15  O   UNL     1       8.743  -7.060   2.065  1.00  0.00    -0.385 OA
ATOM     16  H   UNL     1       9.319  -7.514   1.396  1.00  0.00     0.211 HD
ENDBRANCH   7  15
ENDBRANCH   1   2
BRANCH   1  17
ATOM     17  C   UNL     1      10.957  -3.475   2.048  1.00  0.00     0.224 C 
ATOM     18  C   UNL     1      12.055  -4.262   2.808  1.00  0.00     0.208 C 
ATOM     19  O   UNL     1      11.311  -2.103   2.086  1.00  0.00    -0.337 OA
ATOM     20  C   UNL     1      13.239  -3.337   2.769  1.00  0.00     0.180 C 
ATOM     21  C   UNL     1      12.582  -1.959   2.687  1.00  0.00     0.179 C 
BRANCH  17  22
ATOM     22  C   UNL     1      10.831  -3.852   0.544  1.00  0.00     0.225 C 
BRANCH  22  23
ATOM     23  O   UNL     1      12.088  -3.866  -0.081  1.00  0.00    -0.391 OA
ATOM     24  H   UNL     1      11.935  -3.698  -1.047  1.00  0.00     0.210 HD
ENDBRANCH  22  23
ENDBRANCH  17  22
BRANCH  18  25
ATOM     25  O   UNL     1      12.358  -5.494   2.204  1.00  0.00    -0.385 OA
ATOM     26  H   UNL     1      13.205  -5.810   2.616  1.00  0.00     0.211 HD
ENDBRANCH  18  25
BRANCH  20  27
ATOM     27  O   UNL     1      14.044  -3.504   3.909  1.00  0.00    -0.387 OA
ATOM     28  H   UNL     1      14.569  -4.332   3.760  1.00  0.00     0.211 HD
ENDBRANCH  20  27
BRANCH  21  29
ATOM     29  C   UNL     1      12.420  -1.269   4.054  1.00  0.00     0.191 C 
BRANCH  29  30
ATOM     30  O   UNL     1      12.834   0.069   3.978  1.00  0.00    -0.394 OA
ATOM     31  H   UNL     1      12.295   0.494   3.261  1.00  0.00     0.210 HD
ENDBRANCH  29  30
ENDBRANCH  21  29
ENDBRANCH   1  17
TORSDOF 13
ENDMDL
MODEL 7
REMARK VINA RESULT:    -2.913      1.905      6.209
REMARK INTER + INTRA:          -5.513
REMARK INTER:                  -4.912
REMARK INTRA:                  -0.602
REMARK UNBOUND:                -1.068
REMARK SMILES OC[C@@H]1O[C@](CO)(O[C@H]2O[C@@H](CO)[C@@H](O)[C@H](O)[C@@H]2O)[C@@H](O)[C@@H]1O
REMARK SMILES IDX 8 1 9 2 11 3 14 4 10 5 16 6 18 7 12 8 13 9 15 11 17 13 19 15
REMARK SMILES IDX 5 17 20 18 4 19 22 20 3 21 6 22 7 23 21 25 23 27 2 29 1 30
REMARK H PARENT 13 10 15 12 17 14 19 16 7 24 21 26 23 28 1 31
REMARK Flexibility Score: inf
ROOT
ATOM      1  O   UNL     1      11.929  -4.612   2.556  1.00  0.00    -0.313 OA
ENDROOT
BRANCH   1   2
ATOM      2  C   UNL     1      11.484  -5.537   3.544  1.00  0.00     0.285 C 
ATOM      3  C   UNL     1       9.139  -5.130   3.248  1.00  0.00     0.178 C 
ATOM      4  C   UNL     1       8.914  -6.519   2.603  1.00  0.00     0.177 C 
ATOM      5  O   UNL     1      10.261  -5.096   4.125  1.00  0.00    -0.341 OA
ATOM      6  C   UNL     1      10.198  -7.041   1.947  1.00  0.00     0.179 C 
ATOM      7  C   UNL     1      11.372  -6.952   2.933  1.00  0.00     0.202 C 
BRANCH   3   8
ATOM      8  C   UNL     1       9.130  -3.957   2.241  1.00  0.00     0.191 C 
BRANCH   8   9
ATOM      9  O   UNL     1       8.121  -3.040   2.564  1.00  0.00    -0.394 OA
ATOM     10  H   UNL     1       7.912  -2.541   1.730  1.00  0.00     0.210 HD
ENDBRANCH   8   9
ENDBRANCH   3   8
BRANCH   4  11
ATOM     11  O   UNL     1       7.877  -6.448   1.656  1.00  0.00    -0.387 OA
ATOM     12  H   UNL     1       7.423  -5.575   1.786  1.00  0.00     0.211 HD
ENDBRANCH   4  11
BRANCH   6  13
ATOM     13  O   UNL     1      10.010  -8.370   1.535  1.00  0.00    -0.387 OA
ATOM     14  H   UNL     1      10.774  -8.597   0.942  1.00  0.00     0.211 HD
ENDBRANCH   6  13
BRANCH   7  15
ATOM     15  O   UNL     1      11.277  -7.940   3.934  1.00  0.00    -0.385 OA
ATOM     16  H   UNL     1      10.431  -8.440   3.800  1.00  0.00     0.211 HD
ENDBRANCH   7  15
ENDBRANCH   1   2
BRANCH   1  17
ATOM     17  C   UNL     1      12.729  -3.539   3.048  1.00  0.00     0.224 C 
ATOM     18  C   UNL     1      13.729  -3.041   1.974  1.00  0.00     0.208 C 
ATOM     19  O   UNL     1      13.485  -4.064   4.125  1.00  0.00    -0.337 OA
ATOM     20  C   UNL     1      15.000  -2.832   2.748  1.00  0.00     0.180 C 
ATOM     21  C   UNL     1      14.860  -3.836   3.892  1.00  0.00     0.179 C 
BRANCH  17  22
ATOM     22  C   UNL     1      11.832  -2.419   3.649  1.00  0.00     0.225 C 
BRANCH  22  23
ATOM     23  O   UNL     1      12.569  -1.245   3.871  1.00  0.00    -0.391 OA
ATOM     24  H   UNL     1      12.316  -0.908   4.768  1.00  0.00     0.210 HD
ENDBRANCH  22  23
ENDBRANCH  17  22
BRANCH  18  25
ATOM     25  O   UNL     1      13.314  -1.849   1.354  1.00  0.00    -0.385 OA
ATOM     26  H   UNL     1      13.824  -1.780   0.504  1.00  0.00     0.211 HD
ENDBRANCH  18  25
BRANCH  20  27
ATOM     27  O   UNL     1      16.125  -3.061   1.938  1.00  0.00    -0.387 OA
ATOM     28  H   UNL     1      16.907  -3.090   2.549  1.00  0.00     0.211 HD
ENDBRANCH  20  27
BRANCH  21  29
ATOM     29  C   UNL     1      15.557  -5.182   3.621  1.00  0.00     0.191 C 
BRANCH  29  30
ATOM     30  O   UNL     1      14.789  -6.242   4.125  1.00  0.00    -0.394 OA
ATOM     31  H   UNL     1      14.079  -6.422   3.454  1.00  0.00     0.210 HD
ENDBRANCH  29  30
ENDBRANCH  21  29
ENDBRANCH   1  17
TORSDOF 13
ENDMDL
MODEL 8
REMARK VINA RESULT:    -2.795      1.662      5.610
REMARK INTER + INTRA:          -5.334
REMARK INTER:                  -5.114
REMARK INTRA:                  -0.220
REMARK UNBOUND:                -1.068
REMARK SMILES OC[C@@H]1O[C@](CO)(O[C@H]2O[C@@H](CO)[C@@H](O)[C@H](O)[C@@H]2O)[C@@H](O)[C@@H]1O
REMARK SMILES IDX 8 1 9 2 11 3 14 4 10 5 16 6 18 7 12 8 13 9 15 11 17 13 19 15
REMARK SMILES IDX 5 17 20 18 4 19 22 20 3 21 6 22 7 23 21 25 23 27 2 29 1 30
REMARK H PARENT 13 10 15 12 17 14 19 16 7 24 21 26 23 28 1 31
REMARK Flexibility Score: inf
ROOT
ATOM      1  O   UNL     1      10.279  -4.856   1.979  1.00  0.00    -0.313 OA
ENDROOT
BRANCH   1   2
ATOM      2  C   UNL     1      10.757  -5.361   3.222  1.00  0.00     0.285 C 
ATOM      3  C   UNL     1       8.795  -6.628   3.764  1.00  0.00     0.178 C 
ATOM      4  C   UNL     1       9.522  -7.974   3.538  1.00  0.00     0.177 C 
ATOM      5  O   UNL     1       9.676  -5.568   4.125  1.00  0.00    -0.341 OA
ATOM      6  C   UNL     1      10.692  -7.815   2.560  1.00  0.00     0.179 C 
ATOM      7  C   UNL     1      11.587  -6.643   2.989  1.00  0.00     0.202 C 
BRANCH   3   8
ATOM      8  C   UNL     1       7.822  -6.236   2.627  1.00  0.00     0.191 C 
BRANCH   8   9
ATOM      9  O   UNL     1       6.495  -6.469   3.013  1.00  0.00    -0.394 OA
ATOM     10  H   UNL     1       5.987  -5.643   2.800  1.00  0.00     0.210 HD
ENDBRANCH   8   9
ENDBRANCH   3   8
BRANCH   4  11
ATOM     11  O   UNL     1       8.617  -8.938   3.061  1.00  0.00    -0.387 OA
ATOM     12  H   UNL     1       8.252  -8.595   2.204  1.00  0.00     0.211 HD
ENDBRANCH   4  11
BRANCH   6  13
ATOM     13  O   UNL     1      11.438  -9.005   2.518  1.00  0.00    -0.387 OA
ATOM     14  H   UNL     1      10.953  -9.666   3.077  1.00  0.00     0.211 HD
ENDBRANCH   6  13
BRANCH   7  15
ATOM     15  O   UNL     1      12.356  -6.973   4.123  1.00  0.00    -0.385 OA
ATOM     16  H   UNL     1      11.749  -7.026   4.907  1.00  0.00     0.211 HD
ENDBRANCH   7  15
ENDBRANCH   1   2
BRANCH   1  17
ATOM     17  C   UNL     1      10.877  -3.634   1.551  1.00  0.00     0.224 C 
ATOM     18  C   UNL     1      12.302  -3.869   0.988  1.00  0.00     0.208 C 
ATOM     19  O   UNL     1      11.003  -2.824   2.707  1.00  0.00    -0.337 OA
ATOM     20  C   UNL     1      13.098  -2.730   1.562  1.00  0.00     0.180 C 
ATOM     21  C   UNL     1      12.350  -2.423   2.859  1.00  0.00     0.179 C 
BRANCH  17  22
ATOM     22  C   UNL     1       9.929  -2.870   0.583  1.00  0.00     0.225 C 
BRANCH  22  23
ATOM     23  O   UNL     1       9.741  -3.586  -0.610  1.00  0.00    -0.391 OA
ATOM     24  H   UNL     1       9.259  -4.421  -0.375  1.00  0.00     0.210 HD
ENDBRANCH  22  23
ENDBRANCH  17  22
BRANCH  18  25
ATOM     25  O   UNL     1      12.342  -3.854  -0.417  1.00  0.00    -0.385 OA
ATOM     26  H   UNL     1      12.678  -2.957  -0.681  1.00  0.00     0.211 HD
ENDBRANCH  18  25
BRANCH  20  27
ATOM     27  O   UNL     1      14.436  -3.105   1.766  1.00  0.00    -0.387 OA
ATOM     28  H   UNL     1      14.632  -3.813   1.097  1.00  0.00     0.211 HD
ENDBRANCH  20  27
BRANCH  21  29
ATOM     29  C   UNL     1      12.947  -3.118   4.097  1.00  0.00     0.191 C 
BRANCH  29  30
ATOM     30  O   UNL     1      14.340  -2.956   4.125  1.00  0.00    -0.394 OA
ATOM     31  H   UNL     1      14.727  -3.749   3.669  1.00  0.00     0.210 HD
ENDBRANCH  29  30
ENDBRANCH  21  29
ENDBRANCH   1  17
TORSDOF 13
ENDMDL
MODEL 9
REMARK VINA RESULT:    -2.295      1.673      2.369
REMARK INTER + INTRA:          -4.571
REMARK INTER:                  -3.383
REMARK INTRA:                  -1.188
REMARK UNBOUND:                -1.068
REMARK SMILES OC[C@@H]1O[C@](CO)(O[C@H]2O[C@@H](CO)[C@@H](O)[C@H](O)[C@@H]2O)[C@@H](O)[C@@H]1O
REMARK SMILES IDX 8 1 9 2 11 3 14 4 10 5 16 6 18 7 12 8 13 9 15 11 17 13 19 15
REMARK SMILES IDX 5 17 20 18 4 19 22 20 3 21 6 22 7 23 21 25 23 27 2 29 1 30
REMARK H PARENT 13 10 15 12 17 14 19 16 7 24 21 26 23 28 1 31
REMARK Flexibility Score: inf
ROOT
ATOM      1  O   UNL     1      11.379  -4.776   2.977  1.00  0.00    -0.313 OA
ENDROOT
BRANCH   1   2
ATOM      2  C   UNL     1      11.528  -4.156   1.703  1.00  0.00     0.285 C 
ATOM      3  C   UNL     1      11.345  -1.897   2.486  1.00  0.00     0.178 C 
ATOM      4  C   UNL     1      12.842  -1.613   2.213  1.00  0.00     0.177 C 
ATOM      5  O   UNL     1      10.811  -2.927   1.660  1.00  0.00    -0.341 OA
ATOM      6  C   UNL     1      13.669  -2.903   2.262  1.00  0.00     0.179 C 
ATOM      7  C   UNL     1      13.027  -3.979   1.373  1.00  0.00     0.202 C 
BRANCH   3   8
ATOM      8  C   UNL     1      11.001  -2.091   3.982  1.00  0.00     0.191 C 
BRANCH   8   9
ATOM      9  O   UNL     1       9.718  -2.636   4.125  1.00  0.00    -0.394 OA
ATOM     10  H   UNL     1       9.112  -2.090   3.557  1.00  0.00     0.210 HD
ENDBRANCH   8   9
ENDBRANCH   3   8
BRANCH   4  11
ATOM     11  O   UNL     1      13.334  -0.684   3.147  1.00  0.00    -0.387 OA
ATOM     12  H   UNL     1      13.752  -1.204   3.882  1.00  0.00     0.211 HD
ENDBRANCH   4  11
BRANCH   6  13
ATOM     13  O   UNL     1      14.980  -2.639   1.833  1.00  0.00    -0.387 OA
ATOM     14  H   UNL     1      15.337  -1.926   2.425  1.00  0.00     0.211 HD
ENDBRANCH   6  13
BRANCH   7  15
ATOM     15  O   UNL     1      13.224  -3.699   0.005  1.00  0.00    -0.385 OA
ATOM     16  H   UNL     1      14.200  -3.671  -0.170  1.00  0.00     0.211 HD
ENDBRANCH   7  15
ENDBRANCH   1   2
BRANCH   1  17
ATOM     17  C   UNL     1      10.407  -5.818   3.033  1.00  0.00     0.224 C 
ATOM     18  C   UNL     1       9.824  -6.124   1.630  1.00  0.00     0.208 C 
ATOM     19  O   UNL     1       9.347  -5.334   3.840  1.00  0.00    -0.337 OA
ATOM     20  C   UNL     1       8.354  -6.295   1.891  1.00  0.00     0.180 C 
ATOM     21  C   UNL     1       8.131  -5.419   3.124  1.00  0.00     0.179 C 
BRANCH  17  22
ATOM     22  C   UNL     1      10.981  -7.063   3.768  1.00  0.00     0.225 C 
BRANCH  22  23
ATOM     23  O   UNL     1      12.286  -7.349   3.335  1.00  0.00    -0.391 OA
ATOM     24  H   UNL     1      12.253  -8.223   2.868  1.00  0.00     0.210 HD
ENDBRANCH  22  23
ENDBRANCH  17  22
BRANCH  18  25
ATOM     25  O   UNL     1      10.371  -7.283   1.054  1.00  0.00    -0.385 OA
ATOM     26  H   UNL     1       9.939  -8.055   1.505  1.00  0.00     0.211 HD
ENDBRANCH  18  25
BRANCH  20  27
ATOM     27  O   UNL     1       7.596  -5.893   0.778  1.00  0.00    -0.387 OA
ATOM     28  H   UNL     1       6.661  -6.173   0.962  1.00  0.00     0.211 HD
ENDBRANCH  20  27
BRANCH  21  29
ATOM     29  C   UNL     1       7.639  -3.998   2.793  1.00  0.00     0.191 C 
BRANCH  29  30
ATOM     30  O   UNL     1       6.244  -3.984   2.651  1.00  0.00    -0.394 OA
ATOM     31  H   UNL     1       5.949  -3.054   2.835  1.00  0.00     0.210 HD
ENDBRANCH  29  30
ENDBRANCH  21  29
ENDBRANCH   1  17
TORSDOF 13
ENDMDL
