MODEL 1
REMARK VINA RESULT:    -4.637      0.000      0.000
REMARK INTER + INTRA:          -7.520
REMARK INTER:                  -7.076
REMARK INTRA:                  -0.443
REMARK UNBOUND:                -0.443
REMARK SMILES O=C([O-])CCCCCCCCC(=O)[O-]
REMARK SMILES IDX 7 1 6 2 5 3 4 4 2 5 1 6 3 7 8 8 9 9 10 10 11 11 12 12 13 13
REMARK SMILES IDX 14 14
REMARK H PARENT
REMARK Flexibility Score: inf
ROOT
ATOM      1  C   UNL     1       3.525 -37.617  19.507  1.00  0.00     0.000 C 
ENDROOT
BRANCH   1   2
ATOM      2  C   UNL     1       2.120 -37.659  18.878  1.00  0.00     0.000 C 
BRANCH   2   3
ATOM      3  C   UNL     1       2.034 -37.148  17.426  1.00  0.00     0.006 C 
BRANCH   3   4
ATOM      4  C   UNL     1       3.379 -37.165  16.677  1.00  0.00     0.053 C 
BRANCH   4   5
ATOM      5  C   UNL     1       3.219 -37.378  15.204  1.00  0.00     0.041 C 
ATOM      6  O   UNL     1       3.954 -38.202  14.598  1.00  0.00    -0.550 OA
ATOM      7  O   UNL     1       2.233 -36.694  14.504  1.00  0.00    -0.550 OA
ENDBRANCH   4   5
ENDBRANCH   3   4
ENDBRANCH   2   3
ENDBRANCH   1   2
BRANCH   1   8
ATOM      8  C   UNL     1       3.879 -36.310  20.245  1.00  0.00     0.000 C 
BRANCH   8   9
ATOM      9  C   UNL     1       5.276 -35.743  19.935  1.00  0.00     0.000 C 
BRANCH   9  10
ATOM     10  C   UNL     1       6.114 -35.499  21.202  1.00  0.00     0.006 C 
BRANCH  10  11
ATOM     11  C   UNL     1       5.635 -36.350  22.386  1.00  0.00     0.053 C 
BRANCH  11  12
ATOM     12  C   UNL     1       5.732 -35.606  23.682  1.00  0.00     0.041 C 
ATOM     13  O   UNL     1       5.743 -36.231  24.774  1.00  0.00    -0.550 OA
ATOM     14  O   UNL     1       5.836 -34.220  23.681  1.00  0.00    -0.550 OA
ENDBRANCH  11  12
ENDBRANCH  10  11
ENDBRANCH   9  10
ENDBRANCH   8   9
ENDBRANCH   1   8
TORSDOF 9
ENDMDL
MODEL 2
REMARK VINA RESULT:    -4.596      0.598      7.532
REMARK INTER + INTRA:          -7.457
REMARK INTER:                  -7.091
REMARK INTRA:                  -0.366
REMARK UNBOUND:                -0.443
REMARK SMILES O=C([O-])CCCCCCCCC(=O)[O-]
REMARK SMILES IDX 7 1 6 2 5 3 4 4 2 5 1 6 3 7 8 8 9 9 10 10 11 11 12 12 13 13
REMARK SMILES IDX 14 14
REMARK H PARENT
REMARK Flexibility Score: inf
ROOT
ATOM      1  C   UNL     1       4.676 -37.259  19.786  1.00  0.00     0.000 C 
ENDROOT
BRANCH   1   2
ATOM      2  C   UNL     1       5.104 -35.794  19.992  1.00  0.00     0.000 C 
BRANCH   2   3
ATOM      3  C   UNL     1       6.061 -35.548  21.175  1.00  0.00     0.006 C 
BRANCH   3   4
ATOM      4  C   UNL     1       5.749 -36.402  22.418  1.00  0.00     0.053 C 
BRANCH   4   5
ATOM      5  C   UNL     1       5.747 -35.602  23.684  1.00  0.00     0.041 C 
ATOM      6  O   UNL     1       5.924 -34.356  23.648  1.00  0.00    -0.550 OA
ATOM      7  O   UNL     1       5.512 -36.226  24.902  1.00  0.00    -0.550 OA
ENDBRANCH   4   5
ENDBRANCH   3   4
ENDBRANCH   2   3
ENDBRANCH   1   2
BRANCH   1   8
ATOM      8  C   UNL     1       3.159 -37.522  19.870  1.00  0.00     0.000 C 
BRANCH   8   9
ATOM      9  C   UNL     1       2.414 -37.481  18.524  1.00  0.00     0.000 C 
BRANCH   9  10
ATOM     10  C   UNL     1       3.365 -37.386  17.319  1.00  0.00     0.006 C 
BRANCH  10  11
ATOM     11  C   UNL     1       2.820 -36.459  16.224  1.00  0.00     0.053 C 
BRANCH  11  12
ATOM     12  C   UNL     1       2.952 -37.068  14.862  1.00  0.00     0.041 C 
ATOM     13  O   UNL     1       2.232 -36.663  13.912  1.00  0.00    -0.550 OA
ATOM     14  O   UNL     1       3.890 -38.067  14.636  1.00  0.00    -0.550 OA
ENDBRANCH  11  12
ENDBRANCH  10  11
ENDBRANCH   9  10
ENDBRANCH   8   9
ENDBRANCH   1   8
TORSDOF 9
ENDMDL
MODEL 3
REMARK VINA RESULT:    -4.278      1.186      1.536
REMARK INTER + INTRA:          -6.972
REMARK INTER:                  -6.613
REMARK INTRA:                  -0.359
REMARK UNBOUND:                -0.443
REMARK SMILES O=C([O-])CCCCCCCCC(=O)[O-]
REMARK SMILES IDX 7 1 6 2 5 3 4 4 2 5 1 6 3 7 8 8 9 9 10 10 11 11 12 12 13 13
REMARK SMILES IDX 14 14
REMARK H PARENT
REMARK Flexibility Score: inf
ROOT
ATOM      1  C   UNL     1       4.492 -37.522  19.250  1.00  0.00     0.000 C 
ENDROOT
BRANCH   1   2
ATOM      2  C   UNL     1       2.973 -37.389  19.473  1.00  0.00     0.000 C 
BRANCH   2   3
ATOM      3  C   UNL     1       2.110 -37.502  18.200  1.00  0.00     0.006 C 
BRANCH   3   4
ATOM      4  C   UNL     1       2.917 -37.441  16.891  1.00  0.00     0.053 C 
BRANCH   4   5
ATOM      5  C   UNL     1       2.226 -36.653  15.822  1.00  0.00     0.041 C 
ATOM      6  O   UNL     1       1.276 -35.881  16.115  1.00  0.00    -0.550 OA
ATOM      7  O   UNL     1       2.654 -36.743  14.503  1.00  0.00    -0.550 OA
ENDBRANCH   4   5
ENDBRANCH   3   4
ENDBRANCH   2   3
ENDBRANCH   1   2
BRANCH   1   8
ATOM      8  C   UNL     1       5.374 -37.070  20.431  1.00  0.00     0.000 C 
BRANCH   8   9
ATOM      9  C   UNL     1       4.925 -35.772  21.124  1.00  0.00     0.000 C 
BRANCH   9  10
ATOM     10  C   UNL     1       5.787 -35.420  22.349  1.00  0.00     0.006 C 
BRANCH  10  11
ATOM     11  C   UNL     1       6.024 -36.634  23.257  1.00  0.00     0.053 C 
BRANCH  11  12
ATOM     12  C   UNL     1       5.803 -36.301  24.701  1.00  0.00     0.041 C 
ATOM     13  O   UNL     1       5.348 -37.170  25.490  1.00  0.00    -0.550 OA
ATOM     14  O   UNL     1       6.125 -35.038  25.179  1.00  0.00    -0.550 OA
ENDBRANCH  11  12
ENDBRANCH  10  11
ENDBRANCH   9  10
ENDBRANCH   8   9
ENDBRANCH   1   8
TORSDOF 9
ENDMDL
MODEL 4
REMARK VINA RESULT:    -3.484      1.350      7.637
REMARK INTER + INTRA:          -5.760
REMARK INTER:                  -5.408
REMARK INTRA:                  -0.353
REMARK UNBOUND:                -0.443
REMARK SMILES O=C([O-])CCCCCCCCC(=O)[O-]
REMARK SMILES IDX 7 1 6 2 5 3 4 4 2 5 1 6 3 7 8 8 9 9 10 10 11 11 12 12 13 13
REMARK SMILES IDX 14 14
REMARK H PARENT
REMARK Flexibility Score: inf
ROOT
ATOM      1  C   UNL     1       5.270 -36.043  20.580  1.00  0.00     0.000 C 
ENDROOT
BRANCH   1   2
ATOM      2  C   UNL     1       4.229 -35.644  21.641  1.00  0.00     0.000 C 
BRANCH   2   3
ATOM      3  C   UNL     1       4.787 -34.869  22.851  1.00  0.00     0.006 C 
BRANCH   3   4
ATOM      4  C   UNL     1       6.125 -35.417  23.381  1.00  0.00     0.053 C 
BRANCH   4   5
ATOM      5  C   UNL     1       5.948 -36.378  24.515  1.00  0.00     0.041 C 
ATOM      6  O   UNL     1       5.670 -37.585  24.288  1.00  0.00    -0.550 OA
ATOM      7  O   UNL     1       6.125 -35.950  25.825  1.00  0.00    -0.550 OA
ENDBRANCH   4   5
ENDBRANCH   3   4
ENDBRANCH   2   3
ENDBRANCH   1   2
BRANCH   1   8
ATOM      8  C   UNL     1       4.772 -37.027  19.502  1.00  0.00     0.000 C 
BRANCH   8   9
ATOM      9  C   UNL     1       3.916 -36.398  18.388  1.00  0.00     0.000 C 
BRANCH   9  10
ATOM     10  C   UNL     1       2.853 -37.363  17.836  1.00  0.00     0.006 C 
BRANCH  10  11
ATOM     11  C   UNL     1       3.124 -37.748  16.375  1.00  0.00     0.053 C 
BRANCH  11  12
ATOM     12  C   UNL     1       2.529 -36.759  15.420  1.00  0.00     0.041 C 
ATOM     13  O   UNL     1       3.098 -36.514  14.323  1.00  0.00    -0.550 OA
ATOM     14  O   UNL     1       1.331 -36.128  15.729  1.00  0.00    -0.550 OA
ENDBRANCH  11  12
ENDBRANCH  10  11
ENDBRANCH   9  10
ENDBRANCH   8   9
ENDBRANCH   1   8
TORSDOF 9
ENDMDL
MODEL 5
REMARK VINA RESULT:    -3.087      2.380      6.435
REMARK INTER + INTRA:          -5.154
REMARK INTER:                  -4.698
REMARK INTRA:                  -0.456
REMARK UNBOUND:                -0.443
REMARK SMILES O=C([O-])CCCCCCCCC(=O)[O-]
REMARK SMILES IDX 7 1 6 2 5 3 4 4 2 5 1 6 3 7 8 8 9 9 10 10 11 11 12 12 13 13
REMARK SMILES IDX 14 14
REMARK H PARENT
REMARK Flexibility Score: inf
ROOT
ATOM      1  C   UNL     1       4.442 -34.835  18.363  1.00  0.00     0.000 C 
ENDROOT
BRANCH   1   2
ATOM      2  C   UNL     1       5.846 -34.726  18.988  1.00  0.00     0.000 C 
BRANCH   2   3
ATOM      3  C   UNL     1       6.125 -35.701  20.149  1.00  0.00     0.006 C 
BRANCH   3   4
ATOM      4  C   UNL     1       5.098 -35.620  21.293  1.00  0.00     0.053 C 
BRANCH   4   5
ATOM      5  C   UNL     1       5.739 -35.613  22.646  1.00  0.00     0.041 C 
ATOM      6  O   UNL     1       6.051 -34.524  23.196  1.00  0.00    -0.550 OA
ATOM      7  O   UNL     1       5.961 -36.809  23.319  1.00  0.00    -0.550 OA
ENDBRANCH   4   5
ENDBRANCH   3   4
ENDBRANCH   2   3
ENDBRANCH   1   2
BRANCH   1   8
ATOM      8  C   UNL     1       4.225 -36.045  17.432  1.00  0.00     0.000 C 
BRANCH   8   9
ATOM      9  C   UNL     1       3.078 -35.892  16.418  1.00  0.00     0.000 C 
BRANCH   9  10
ATOM     10  C   UNL     1       1.860 -36.767  16.760  1.00  0.00     0.006 C 
BRANCH  10  11
ATOM     11  C   UNL     1       2.230 -37.940  17.679  1.00  0.00     0.053 C 
BRANCH  11  12
ATOM     12  C   UNL     1       1.582 -37.818  19.024  1.00  0.00     0.041 C 
ATOM     13  O   UNL     1       2.286 -37.793  20.068  1.00  0.00    -0.550 OA
ATOM     14  O   UNL     1       0.201 -37.705  19.123  1.00  0.00    -0.550 OA
ENDBRANCH  11  12
ENDBRANCH  10  11
ENDBRANCH   9  10
ENDBRANCH   8   9
ENDBRANCH   1   8
TORSDOF 9
ENDMDL
MODEL 6
REMARK VINA RESULT:    -3.083      2.770      3.293
REMARK INTER + INTRA:          -5.149
REMARK INTER:                  -4.641
REMARK INTRA:                  -0.508
REMARK UNBOUND:                -0.443
REMARK SMILES O=C([O-])CCCCCCCCC(=O)[O-]
REMARK SMILES IDX 7 1 6 2 5 3 4 4 2 5 1 6 3 7 8 8 9 9 10 10 11 11 12 12 13 13
REMARK SMILES IDX 14 14
REMARK H PARENT
REMARK Flexibility Score: inf
ROOT
ATOM      1  C   UNL     1       2.543 -37.472  19.878  1.00  0.00     0.000 C 
ENDROOT
BRANCH   1   2
ATOM      2  C   UNL     1       2.057 -37.760  18.445  1.00  0.00     0.000 C 
BRANCH   2   3
ATOM      3  C   UNL     1       2.917 -37.145  17.323  1.00  0.00     0.006 C 
BRANCH   3   4
ATOM      4  C   UNL     1       2.197 -37.049  15.966  1.00  0.00     0.053 C 
BRANCH   4   5
ATOM      5  C   UNL     1       3.120 -37.261  14.806  1.00  0.00     0.041 C 
ATOM      6  O   UNL     1       3.274 -36.357  13.943  1.00  0.00    -0.550 OA
ATOM      7  O   UNL     1       3.839 -38.445  14.694  1.00  0.00    -0.550 OA
ENDBRANCH   4   5
ENDBRANCH   3   4
ENDBRANCH   2   3
ENDBRANCH   1   2
BRANCH   1   8
ATOM      8  C   UNL     1       3.538 -36.302  20.015  1.00  0.00     0.000 C 
BRANCH   8   9
ATOM      9  C   UNL     1       4.843 -36.637  20.758  1.00  0.00     0.000 C 
BRANCH   9  10
ATOM     10  C   UNL     1       5.367 -38.047  20.435  1.00  0.00     0.006 C 
BRANCH  10  11
ATOM     11  C   UNL     1       5.513 -38.913  21.693  1.00  0.00     0.053 C 
BRANCH  11  12
ATOM     12  C   UNL     1       5.780 -40.347  21.354  1.00  0.00     0.041 C 
ATOM     13  O   UNL     1       6.120 -40.671  20.186  1.00  0.00    -0.550 OA
ATOM     14  O   UNL     1       5.680 -41.324  22.337  1.00  0.00    -0.550 OA
ENDBRANCH  11  12
ENDBRANCH  10  11
ENDBRANCH   9  10
ENDBRANCH   8   9
ENDBRANCH   1   8
TORSDOF 9
ENDMDL
MODEL 7
REMARK VINA RESULT:    -2.944      2.960      5.722
REMARK INTER + INTRA:          -4.936
REMARK INTER:                  -4.288
REMARK INTRA:                  -0.648
REMARK UNBOUND:                -0.443
REMARK SMILES O=C([O-])CCCCCCCCC(=O)[O-]
REMARK SMILES IDX 7 1 6 2 5 3 4 4 2 5 1 6 3 7 8 8 9 9 10 10 11 11 12 12 13 13
REMARK SMILES IDX 14 14
REMARK H PARENT
REMARK Flexibility Score: inf
ROOT
ATOM      1  C   UNL     1       4.639 -34.666  18.039  1.00  0.00     0.000 C 
ENDROOT
BRANCH   1   2
ATOM      2  C   UNL     1       5.377 -34.920  19.366  1.00  0.00     0.000 C 
BRANCH   2   3
ATOM      3  C   UNL     1       4.576 -35.706  20.424  1.00  0.00     0.006 C 
BRANCH   3   4
ATOM      4  C   UNL     1       5.428 -36.683  21.253  1.00  0.00     0.053 C 
BRANCH   4   5
ATOM      5  C   UNL     1       5.350 -38.091  20.747  1.00  0.00     0.041 C 
ATOM      6  O   UNL     1       5.206 -38.316  19.517  1.00  0.00    -0.550 OA
ATOM      7  O   UNL     1       5.473 -39.156  21.630  1.00  0.00    -0.550 OA
ENDBRANCH   4   5
ENDBRANCH   3   4
ENDBRANCH   2   3
ENDBRANCH   1   2
BRANCH   1   8
ATOM      8  C   UNL     1       4.144 -35.930  17.306  1.00  0.00     0.000 C 
BRANCH   8   9
ATOM      9  C   UNL     1       2.870 -35.740  16.464  1.00  0.00     0.000 C 
BRANCH   9  10
ATOM     10  C   UNL     1       1.851 -36.876  16.661  1.00  0.00     0.006 C 
BRANCH  10  11
ATOM     11  C   UNL     1       2.282 -37.856  17.760  1.00  0.00     0.053 C 
BRANCH  11  12
ATOM     12  C   UNL     1       1.393 -37.769  18.963  1.00  0.00     0.041 C 
ATOM     13  O   UNL     1       0.141 -37.809  18.832  1.00  0.00    -0.550 OA
ATOM     14  O   UNL     1       1.949 -37.672  20.232  1.00  0.00    -0.550 OA
ENDBRANCH  11  12
ENDBRANCH  10  11
ENDBRANCH   9  10
ENDBRANCH   8   9
ENDBRANCH   1   8
TORSDOF 9
ENDMDL
MODEL 8
REMARK VINA RESULT:    -2.912      2.240      6.670
REMARK INTER + INTRA:          -4.887
REMARK INTER:                  -4.304
REMARK INTRA:                  -0.583
REMARK UNBOUND:                -0.443
REMARK SMILES O=C([O-])CCCCCCCCC(=O)[O-]
REMARK SMILES IDX 7 1 6 2 5 3 4 4 2 5 1 6 3 7 8 8 9 9 10 10 11 11 12 12 13 13
REMARK SMILES IDX 14 14
REMARK H PARENT
REMARK Flexibility Score: inf
ROOT
ATOM      1  C   UNL     1       2.706 -36.564  20.621  1.00  0.00     0.000 C 
ENDROOT
BRANCH   1   2
ATOM      2  C   UNL     1       3.979 -35.742  20.341  1.00  0.00     0.000 C 
BRANCH   2   3
ATOM      3  C   UNL     1       5.288 -36.556  20.288  1.00  0.00     0.006 C 
BRANCH   3   4
ATOM      4  C   UNL     1       5.532 -37.428  21.532  1.00  0.00     0.053 C 
BRANCH   4   5
ATOM      5  C   UNL     1       5.623 -38.887  21.207  1.00  0.00     0.041 C 
ATOM      6  O   UNL     1       5.400 -39.751  22.096  1.00  0.00    -0.550 OA
ATOM      7  O   UNL     1       5.918 -39.296  19.912  1.00  0.00    -0.550 OA
ENDBRANCH   4   5
ENDBRANCH   3   4
ENDBRANCH   2   3
ENDBRANCH   1   2
BRANCH   1   8
ATOM      8  C   UNL     1       2.500 -37.792  19.711  1.00  0.00     0.000 C 
BRANCH   8   9
ATOM      9  C   UNL     1       2.063 -37.472  18.271  1.00  0.00     0.000 C 
BRANCH   9  10
ATOM     10  C   UNL     1       3.242 -37.444  17.283  1.00  0.00     0.006 C 
BRANCH  10  11
ATOM     11  C   UNL     1       3.045 -36.399  16.176  1.00  0.00     0.053 C 
BRANCH  11  12
ATOM     12  C   UNL     1       3.028 -37.026  14.816  1.00  0.00     0.041 C 
ATOM     13  O   UNL     1       3.901 -37.875  14.497  1.00  0.00    -0.550 OA
ATOM     14  O   UNL     1       2.030 -36.691  13.909  1.00  0.00    -0.550 OA
ENDBRANCH  11  12
ENDBRANCH  10  11
ENDBRANCH   9  10
ENDBRANCH   8   9
ENDBRANCH   1   8
TORSDOF 9
ENDMDL
