MODEL 1
REMARK VINA RESULT:    24.560      0.000      0.000
REMARK INTER + INTRA:          63.138
REMARK INTER:                  64.761
REMARK INTRA:                  -1.623
REMARK UNBOUND:                -1.623
REMARK SMILES CCCCCCCCCCCCCCCCCCCCCCCCCCCCCC(=O)[O-]
REMARK SMILES IDX 16 1 17 2 18 3 19 4 20 5 21 6 22 7 23 8 24 9 25 10 26 11
REMARK SMILES IDX 27 12 28 13 29 14 30 15 31 16 32 17 15 18 14 19 13 20 12 21
REMARK SMILES IDX 11 22 10 23 9 24 8 25 7 26 6 27 5 28 4 29 3 30 2 31 1 32
REMARK H PARENT
REMARK Flexibility Score: inf
ROOT
ATOM      1  C   UNL     1      18.477  17.209  20.096  1.00  0.00     0.000 C 
ENDROOT
BRANCH   1   2
ATOM      2  C   UNL     1      17.284  18.188  20.168  1.00  0.00     0.000 C 
BRANCH   2   3
ATOM      3  C   UNL     1      16.110  17.895  19.212  1.00  0.00     0.000 C 
BRANCH   3   4
ATOM      4  C   UNL     1      15.740  16.408  19.038  1.00  0.00     0.000 C 
BRANCH   4   5
ATOM      5  C   UNL     1      15.218  15.770  20.332  1.00  0.00     0.000 C 
BRANCH   5   6
ATOM      6  C   UNL     1      15.528  14.264  20.369  1.00  0.00     0.000 C 
BRANCH   6   7
ATOM      7  C   UNL     1      14.285  13.414  20.672  1.00  0.00     0.000 C 
BRANCH   7   8
ATOM      8  C   UNL     1      14.101  12.251  19.678  1.00  0.00     0.000 C 
BRANCH   8   9
ATOM      9  C   UNL     1      15.339  11.344  19.579  1.00  0.00     0.000 C 
BRANCH   9  10
ATOM     10  C   UNL     1      15.156   9.941  20.188  1.00  0.00     0.000 C 
BRANCH  10  11
ATOM     11  C   UNL     1      16.487   9.190  20.366  1.00  0.00     0.000 C 
BRANCH  11  12
ATOM     12  C   UNL     1      17.273   9.166  19.051  1.00  0.00     0.000 C 
BRANCH  12  13
ATOM     13  C   UNL     1      18.780   9.017  19.309  1.00  0.00     0.006 C 
BRANCH  13  14
ATOM     14  C   UNL     1      19.238   9.759  20.574  1.00  0.00     0.053 C 
BRANCH  14  15
ATOM     15  C   UNL     1      20.123  10.925  20.255  1.00  0.00     0.041 C 
ATOM     16  O   UNL     1      19.987  12.014  20.872  1.00  0.00    -0.550 OA
ATOM     17  O   UNL     1      21.114  10.803  19.288  1.00  0.00    -0.550 OA
ENDBRANCH  14  15
ENDBRANCH  13  14
ENDBRANCH  12  13
ENDBRANCH  11  12
ENDBRANCH  10  11
ENDBRANCH   9  10
ENDBRANCH   8   9
ENDBRANCH   7   8
ENDBRANCH   6   7
ENDBRANCH   5   6
ENDBRANCH   4   5
ENDBRANCH   3   4
ENDBRANCH   2   3
ENDBRANCH   1   2
BRANCH   1  18
ATOM     18  C   UNL     1      19.863  17.871  20.233  1.00  0.00     0.000 C 
BRANCH  18  19
ATOM     19  C   UNL     1      19.877  19.014  21.258  1.00  0.00     0.000 C 
BRANCH  19  20
ATOM     20  C   UNL     1      19.808  18.508  22.713  1.00  0.00     0.000 C 
BRANCH  20  21
ATOM     21  C   UNL     1      21.009  18.945  23.581  1.00  0.00     0.000 C 
BRANCH  21  22
ATOM     22  C   UNL     1      20.648  20.031  24.605  1.00  0.00     0.000 C 
BRANCH  22  23
ATOM     23  C   UNL     1      21.588  21.238  24.465  1.00  0.00     0.000 C 
BRANCH  23  24
ATOM     24  C   UNL     1      23.030  20.925  24.887  1.00  0.00    -0.000 C 
BRANCH  24  25
ATOM     25  C   UNL     1      24.060  21.366  23.834  1.00  0.00    -0.000 C 
BRANCH  25  26
ATOM     26  C   UNL     1      24.840  20.182  23.236  1.00  0.00    -0.000 C 
BRANCH  26  27
ATOM     27  C   UNL     1      25.338  20.385  21.792  1.00  0.00    -0.000 C 
BRANCH  27  28
ATOM     28  C   UNL     1      25.484  19.066  21.012  1.00  0.00    -0.000 C 
BRANCH  28  29
ATOM     29  C   UNL     1      24.252  18.151  21.144  1.00  0.00    -0.000 C 
BRANCH  29  30
ATOM     30  C   UNL     1      24.255  17.225  22.379  1.00  0.00    -0.000 C 
BRANCH  30  31
ATOM     31  C   UNL     1      25.664  16.937  22.918  1.00  0.00    -0.003 C 
ATOM     32  C   UNL     1      25.792  17.369  24.378  1.00  0.00     0.004 C 
ENDBRANCH  30  31
ENDBRANCH  29  30
ENDBRANCH  28  29
ENDBRANCH  27  28
ENDBRANCH  26  27
ENDBRANCH  25  26
ENDBRANCH  24  25
ENDBRANCH  23  24
ENDBRANCH  22  23
ENDBRANCH  21  22
ENDBRANCH  20  21
ENDBRANCH  19  20
ENDBRANCH  18  19
ENDBRANCH   1  18
TORSDOF 28
ENDMDL
MODEL 2
REMARK VINA RESULT:    24.734      0.771      1.628
REMARK INTER + INTRA:          63.599
REMARK INTER:                  64.750
REMARK INTRA:                  -1.151
REMARK UNBOUND:                -1.623
REMARK SMILES CCCCCCCCCCCCCCCCCCCCCCCCCCCCCC(=O)[O-]
REMARK SMILES IDX 16 1 17 2 18 3 19 4 20 5 21 6 22 7 23 8 24 9 25 10 26 11
REMARK SMILES IDX 27 12 28 13 29 14 30 15 31 16 32 17 15 18 14 19 13 20 12 21
REMARK SMILES IDX 11 22 10 23 9 24 8 25 7 26 6 27 5 28 4 29 3 30 2 31 1 32
REMARK H PARENT
REMARK Flexibility Score: inf
ROOT
ATOM      1  C   UNL     1      17.334  18.236  20.128  1.00  0.00     0.000 C 
ENDROOT
BRANCH   1   2
ATOM      2  C   UNL     1      16.242  18.163  19.037  1.00  0.00     0.000 C 
BRANCH   2   3
ATOM      3  C   UNL     1      15.596  16.780  18.818  1.00  0.00     0.000 C 
BRANCH   3   4
ATOM      4  C   UNL     1      16.046  15.668  19.787  1.00  0.00     0.000 C 
BRANCH   4   5
ATOM      5  C   UNL     1      14.906  15.158  20.678  1.00  0.00     0.000 C 
BRANCH   5   6
ATOM      6  C   UNL     1      15.029  13.645  20.919  1.00  0.00     0.000 C 
BRANCH   6   7
ATOM      7  C   UNL     1      13.781  12.873  20.464  1.00  0.00     0.000 C 
BRANCH   7   8
ATOM      8  C   UNL     1      13.969  12.186  19.099  1.00  0.00     0.000 C 
BRANCH   8   9
ATOM      9  C   UNL     1      14.757  10.868  19.191  1.00  0.00     0.000 C 
BRANCH   9  10
ATOM     10  C   UNL     1      15.619  10.724  20.459  1.00  0.00     0.000 C 
BRANCH  10  11
ATOM     11  C   UNL     1      16.401   9.401  20.501  1.00  0.00     0.000 C 
BRANCH  11  12
ATOM     12  C   UNL     1      17.010   9.089  19.131  1.00  0.00     0.000 C 
BRANCH  12  13
ATOM     13  C   UNL     1      18.542   9.012  19.208  1.00  0.00     0.006 C 
BRANCH  13  14
ATOM     14  C   UNL     1      19.097   9.624  20.504  1.00  0.00     0.053 C 
BRANCH  14  15
ATOM     15  C   UNL     1      20.059  10.739  20.234  1.00  0.00     0.041 C 
ATOM     16  O   UNL     1      20.975  10.597  19.383  1.00  0.00    -0.550 OA
ATOM     17  O   UNL     1      19.931  11.948  20.910  1.00  0.00    -0.550 OA
ENDBRANCH  14  15
ENDBRANCH  13  14
ENDBRANCH  12  13
ENDBRANCH  11  12
ENDBRANCH  10  11
ENDBRANCH   9  10
ENDBRANCH   8   9
ENDBRANCH   7   8
ENDBRANCH   6   7
ENDBRANCH   5   6
ENDBRANCH   4   5
ENDBRANCH   3   4
ENDBRANCH   2   3
ENDBRANCH   1   2
BRANCH   1  18
ATOM     18  C   UNL     1      18.570  17.354  19.861  1.00  0.00     0.000 C 
BRANCH  18  19
ATOM     19  C   UNL     1      19.891  18.066  20.187  1.00  0.00     0.000 C 
BRANCH  19  20
ATOM     20  C   UNL     1      19.815  18.894  21.486  1.00  0.00     0.000 C 
BRANCH  20  21
ATOM     21  C   UNL     1      19.540  18.046  22.748  1.00  0.00     0.000 C 
BRANCH  21  22
ATOM     22  C   UNL     1      20.183  18.628  24.015  1.00  0.00     0.000 C 
BRANCH  22  23
ATOM     23  C   UNL     1      21.307  19.610  23.648  1.00  0.00     0.000 C 
BRANCH  23  24
ATOM     24  C   UNL     1      21.356  20.835  24.571  1.00  0.00    -0.000 C 
BRANCH  24  25
ATOM     25  C   UNL     1      22.794  21.265  24.902  1.00  0.00    -0.000 C 
BRANCH  25  26
ATOM     26  C   UNL     1      23.843  20.246  24.423  1.00  0.00    -0.000 C 
BRANCH  26  27
ATOM     27  C   UNL     1      24.421  20.508  23.019  1.00  0.00    -0.000 C 
BRANCH  27  28
ATOM     28  C   UNL     1      25.703  19.703  22.733  1.00  0.00    -0.000 C 
BRANCH  28  29
ATOM     29  C   UNL     1      25.614  18.243  23.217  1.00  0.00    -0.000 C 
BRANCH  29  30
ATOM     30  C   UNL     1      24.418  17.442  22.661  1.00  0.00    -0.000 C 
BRANCH  30  31
ATOM     31  C   UNL     1      24.446  17.290  21.133  1.00  0.00    -0.003 C 
ATOM     32  C   UNL     1      23.250  17.988  20.489  1.00  0.00     0.004 C 
ENDBRANCH  30  31
ENDBRANCH  29  30
ENDBRANCH  28  29
ENDBRANCH  27  28
ENDBRANCH  26  27
ENDBRANCH  25  26
ENDBRANCH  24  25
ENDBRANCH  23  24
ENDBRANCH  22  23
ENDBRANCH  21  22
ENDBRANCH  20  21
ENDBRANCH  19  20
ENDBRANCH  18  19
ENDBRANCH   1  18
TORSDOF 28
ENDMDL
MODEL 3
REMARK VINA RESULT:    25.084      2.178     10.066
REMARK INTER + INTRA:          64.520
REMARK INTER:                  65.238
REMARK INTRA:                  -0.719
REMARK UNBOUND:                -1.623
REMARK SMILES CCCCCCCCCCCCCCCCCCCCCCCCCCCCCC(=O)[O-]
REMARK SMILES IDX 16 1 17 2 18 3 19 4 20 5 21 6 22 7 23 8 24 9 25 10 26 11
REMARK SMILES IDX 27 12 28 13 29 14 30 15 31 16 32 17 15 18 14 19 13 20 12 21
REMARK SMILES IDX 11 22 10 23 9 24 8 25 7 26 6 27 5 28 4 29 3 30 2 31 1 32
REMARK H PARENT
REMARK Flexibility Score: inf
ROOT
ATOM      1  C   UNL     1      17.975  17.005  20.394  1.00  0.00     0.000 C 
ENDROOT
BRANCH   1   2
ATOM      2  C   UNL     1      19.345  17.184  19.703  1.00  0.00     0.000 C 
BRANCH   2   3
ATOM      3  C   UNL     1      20.245  18.303  20.265  1.00  0.00     0.000 C 
BRANCH   3   4
ATOM      4  C   UNL     1      19.681  19.074  21.475  1.00  0.00     0.000 C 
BRANCH   4   5
ATOM      5  C   UNL     1      19.607  18.216  22.745  1.00  0.00     0.000 C 
BRANCH   5   6
ATOM      6  C   UNL     1      20.533  18.772  23.840  1.00  0.00     0.000 C 
BRANCH   6   7
ATOM      7  C   UNL     1      20.905  20.244  23.605  1.00  0.00     0.000 C 
BRANCH   7   8
ATOM      8  C   UNL     1      21.666  20.863  24.792  1.00  0.00     0.000 C 
BRANCH   8   9
ATOM      9  C   UNL     1      23.104  21.277  24.435  1.00  0.00     0.000 C 
BRANCH   9  10
ATOM     10  C   UNL     1      24.000  20.125  23.945  1.00  0.00     0.000 C 
BRANCH  10  11
ATOM     11  C   UNL     1      24.937  20.543  22.799  1.00  0.00     0.000 C 
BRANCH  11  12
ATOM     12  C   UNL     1      25.310  19.332  21.938  1.00  0.00     0.000 C 
BRANCH  12  13
ATOM     13  C   UNL     1      24.076  18.472  21.627  1.00  0.00     0.006 C 
BRANCH  13  14
ATOM     14  C   UNL     1      24.253  17.009  22.065  1.00  0.00     0.053 C 
BRANCH  14  15
ATOM     15  C   UNL     1      25.502  16.807  22.867  1.00  0.00     0.041 C 
ATOM     16  O   UNL     1      26.326  15.911  22.546  1.00  0.00    -0.550 OA
ATOM     17  O   UNL     1      25.768  17.624  23.960  1.00  0.00    -0.550 OA
ENDBRANCH  14  15
ENDBRANCH  13  14
ENDBRANCH  12  13
ENDBRANCH  11  12
ENDBRANCH  10  11
ENDBRANCH   9  10
ENDBRANCH   8   9
ENDBRANCH   7   8
ENDBRANCH   6   7
ENDBRANCH   5   6
ENDBRANCH   4   5
ENDBRANCH   3   4
ENDBRANCH   2   3
ENDBRANCH   1   2
BRANCH   1  18
ATOM     18  C   UNL     1      16.786  17.630  19.638  1.00  0.00     0.000 C 
BRANCH  18  19
ATOM     19  C   UNL     1      15.701  16.604  19.281  1.00  0.00     0.000 C 
BRANCH  19  20
ATOM     20  C   UNL     1      15.854  15.282  20.059  1.00  0.00     0.000 C 
BRANCH  20  21
ATOM     21  C   UNL     1      14.659  14.964  20.985  1.00  0.00     0.000 C 
BRANCH  21  22
ATOM     22  C   UNL     1      14.165  13.515  20.853  1.00  0.00     0.000 C 
BRANCH  22  23
ATOM     23  C   UNL     1      14.792  12.842  19.622  1.00  0.00     0.000 C 
BRANCH  23  24
ATOM     24  C   UNL     1      14.418  11.359  19.496  1.00  0.00    -0.000 C 
BRANCH  24  25
ATOM     25  C   UNL     1      15.247  10.461  20.429  1.00  0.00    -0.000 C 
BRANCH  25  26
ATOM     26  C   UNL     1      15.940   9.309  19.681  1.00  0.00    -0.000 C 
BRANCH  26  27
ATOM     27  C   UNL     1      17.443   9.141  19.980  1.00  0.00    -0.000 C 
BRANCH  27  28
ATOM     28  C   UNL     1      18.285   8.880  18.717  1.00  0.00    -0.000 C 
BRANCH  28  29
ATOM     29  C   UNL     1      19.801   8.936  18.985  1.00  0.00    -0.000 C 
BRANCH  29  30
ATOM     30  C   UNL     1      20.357  10.341  19.301  1.00  0.00    -0.000 C 
BRANCH  30  31
ATOM     31  C   UNL     1      20.018  10.824  20.719  1.00  0.00    -0.003 C 
ATOM     32  C   UNL     1      20.210  12.334  20.846  1.00  0.00     0.004 C 
ENDBRANCH  30  31
ENDBRANCH  29  30
ENDBRANCH  28  29
ENDBRANCH  27  28
ENDBRANCH  26  27
ENDBRANCH  25  26
ENDBRANCH  24  25
ENDBRANCH  23  24
ENDBRANCH  22  23
ENDBRANCH  21  22
ENDBRANCH  20  21
ENDBRANCH  19  20
ENDBRANCH  18  19
ENDBRANCH   1  18
TORSDOF 28
ENDMDL
MODEL 4
REMARK VINA RESULT:    25.084      1.143      3.133
REMARK INTER + INTRA:          64.520
REMARK INTER:                  64.781
REMARK INTRA:                  -0.261
REMARK UNBOUND:                -1.623
REMARK SMILES CCCCCCCCCCCCCCCCCCCCCCCCCCCCCC(=O)[O-]
REMARK SMILES IDX 16 1 17 2 18 3 19 4 20 5 21 6 22 7 23 8 24 9 25 10 26 11
REMARK SMILES IDX 27 12 28 13 29 14 30 15 31 16 32 17 15 18 14 19 13 20 12 21
REMARK SMILES IDX 11 22 10 23 9 24 8 25 7 26 6 27 5 28 4 29 3 30 2 31 1 32
REMARK H PARENT
REMARK Flexibility Score: inf
ROOT
ATOM      1  C   UNL     1      18.055  16.832  19.874  1.00  0.00     0.000 C 
ENDROOT
BRANCH   1   2
ATOM      2  C   UNL     1      16.864  17.476  19.129  1.00  0.00     0.000 C 
BRANCH   2   3
ATOM      3  C   UNL     1      15.534  16.697  19.178  1.00  0.00     0.000 C 
BRANCH   3   4
ATOM      4  C   UNL     1      15.321  15.811  20.422  1.00  0.00     0.000 C 
BRANCH   4   5
ATOM      5  C   UNL     1      15.529  14.318  20.132  1.00  0.00     0.000 C 
BRANCH   5   6
ATOM      6  C   UNL     1      14.393  13.476  20.734  1.00  0.00     0.000 C 
BRANCH   6   7
ATOM      7  C   UNL     1      13.726  12.560  19.695  1.00  0.00     0.000 C 
BRANCH   7   8
ATOM      8  C   UNL     1      14.694  11.510  19.117  1.00  0.00     0.000 C 
BRANCH   8   9
ATOM      9  C   UNL     1      15.416  10.695  20.203  1.00  0.00     0.000 C 
BRANCH   9  10
ATOM     10  C   UNL     1      15.495   9.183  19.923  1.00  0.00     0.000 C 
BRANCH  10  11
ATOM     11  C   UNL     1      16.807   8.772  19.233  1.00  0.00     0.000 C 
BRANCH  11  12
ATOM     12  C   UNL     1      17.978   9.611  19.756  1.00  0.00     0.000 C 
BRANCH  12  13
ATOM     13  C   UNL     1      19.316   9.107  19.196  1.00  0.00     0.006 C 
BRANCH  13  14
ATOM     14  C   UNL     1      20.457  10.116  19.398  1.00  0.00     0.053 C 
BRANCH  14  15
ATOM     15  C   UNL     1      20.179  11.064  20.523  1.00  0.00     0.041 C 
ATOM     16  O   UNL     1      19.933  10.627  21.678  1.00  0.00    -0.550 OA
ATOM     17  O   UNL     1      20.210  12.436  20.301  1.00  0.00    -0.550 OA
ENDBRANCH  14  15
ENDBRANCH  13  14
ENDBRANCH  12  13
ENDBRANCH  11  12
ENDBRANCH  10  11
ENDBRANCH   9  10
ENDBRANCH   8   9
ENDBRANCH   7   8
ENDBRANCH   6   7
ENDBRANCH   5   6
ENDBRANCH   4   5
ENDBRANCH   3   4
ENDBRANCH   2   3
ENDBRANCH   1   2
BRANCH   1  18
ATOM     18  C   UNL     1      18.737  17.748  20.910  1.00  0.00     0.000 C 
BRANCH  18  19
ATOM     19  C   UNL     1      19.956  18.486  20.341  1.00  0.00     0.000 C 
BRANCH  19  20
ATOM     20  C   UNL     1      21.247  17.647  20.413  1.00  0.00     0.000 C 
BRANCH  20  21
ATOM     21  C   UNL     1      22.391  18.188  19.527  1.00  0.00     0.000 C 
BRANCH  21  22
ATOM     22  C   UNL     1      23.769  18.087  20.196  1.00  0.00     0.000 C 
BRANCH  22  23
ATOM     23  C   UNL     1      23.631  17.590  21.644  1.00  0.00     0.000 C 
BRANCH  23  24
ATOM     24  C   UNL     1      24.842  16.774  22.114  1.00  0.00    -0.000 C 
BRANCH  24  25
ATOM     25  C   UNL     1      25.292  17.153  23.534  1.00  0.00    -0.000 C 
BRANCH  25  26
ATOM     26  C   UNL     1      25.689  18.635  23.655  1.00  0.00    -0.000 C 
BRANCH  26  27
ATOM     27  C   UNL     1      25.060  19.572  22.606  1.00  0.00    -0.000 C 
BRANCH  27  28
ATOM     28  C   UNL     1      24.292  20.751  23.232  1.00  0.00    -0.000 C 
BRANCH  28  29
ATOM     29  C   UNL     1      23.648  20.396  24.586  1.00  0.00    -0.000 C 
BRANCH  29  30
ATOM     30  C   UNL     1      22.292  21.077  24.862  1.00  0.00    -0.000 C 
BRANCH  30  31
ATOM     31  C   UNL     1      21.593  21.578  23.590  1.00  0.00    -0.003 C 
ATOM     32  C   UNL     1      20.877  22.904  23.842  1.00  0.00     0.004 C 
ENDBRANCH  30  31
ENDBRANCH  29  30
ENDBRANCH  28  29
ENDBRANCH  27  28
ENDBRANCH  26  27
ENDBRANCH  25  26
ENDBRANCH  24  25
ENDBRANCH  23  24
ENDBRANCH  22  23
ENDBRANCH  21  22
ENDBRANCH  20  21
ENDBRANCH  19  20
ENDBRANCH  18  19
ENDBRANCH   1  18
TORSDOF 28
ENDMDL
MODEL 5
REMARK VINA RESULT:    25.124      3.101     10.791
REMARK INTER + INTRA:          64.627
REMARK INTER:                  66.474
REMARK INTRA:                  -1.847
REMARK UNBOUND:                -1.623
REMARK SMILES CCCCCCCCCCCCCCCCCCCCCCCCCCCCCC(=O)[O-]
REMARK SMILES IDX 16 1 17 2 18 3 19 4 20 5 21 6 22 7 23 8 24 9 25 10 26 11
REMARK SMILES IDX 27 12 28 13 29 14 30 15 31 16 32 17 15 18 14 19 13 20 12 21
REMARK SMILES IDX 11 22 10 23 9 24 8 25 7 26 6 27 5 28 4 29 3 30 2 31 1 32
REMARK H PARENT
REMARK Flexibility Score: inf
ROOT
ATOM      1  C   UNL     1      18.056  17.216  19.792  1.00  0.00     0.000 C 
ENDROOT
BRANCH   1   2
ATOM      2  C   UNL     1      18.583  18.029  20.996  1.00  0.00     0.000 C 
BRANCH   2   3
ATOM      3  C   UNL     1      20.073  18.425  20.944  1.00  0.00     0.000 C 
BRANCH   3   4
ATOM      4  C   UNL     1      20.905  17.763  19.827  1.00  0.00     0.000 C 
BRANCH   4   5
ATOM      5  C   UNL     1      22.386  18.163  19.872  1.00  0.00     0.000 C 
BRANCH   5   6
ATOM      6  C   UNL     1      23.101  17.499  21.061  1.00  0.00     0.000 C 
BRANCH   6   7
ATOM      7  C   UNL     1      24.532  18.022  21.253  1.00  0.00     0.000 C 
BRANCH   7   8
ATOM      8  C   UNL     1      25.070  17.780  22.676  1.00  0.00     0.000 C 
BRANCH   8   9
ATOM      9  C   UNL     1      25.169  19.068  23.509  1.00  0.00     0.000 C 
BRANCH   9  10
ATOM     10  C   UNL     1      24.584  20.319  22.828  1.00  0.00     0.000 C 
BRANCH  10  11
ATOM     11  C   UNL     1      24.128  21.389  23.835  1.00  0.00     0.000 C 
BRANCH  11  12
ATOM     12  C   UNL     1      23.222  20.771  24.905  1.00  0.00     0.000 C 
BRANCH  12  13
ATOM     13  C   UNL     1      21.787  20.598  24.385  1.00  0.00     0.006 C 
BRANCH  13  14
ATOM     14  C   UNL     1      20.816  21.628  24.982  1.00  0.00     0.053 C 
BRANCH  14  15
ATOM     15  C   UNL     1      20.678  22.842  24.117  1.00  0.00     0.041 C 
ATOM     16  O   UNL     1      20.104  23.873  24.554  1.00  0.00    -0.550 OA
ATOM     17  O   UNL     1      21.203  22.843  22.829  1.00  0.00    -0.550 OA
ENDBRANCH  14  15
ENDBRANCH  13  14
ENDBRANCH  12  13
ENDBRANCH  11  12
ENDBRANCH  10  11
ENDBRANCH   9  10
ENDBRANCH   8   9
ENDBRANCH   7   8
ENDBRANCH   6   7
ENDBRANCH   5   6
ENDBRANCH   4   5
ENDBRANCH   3   4
ENDBRANCH   2   3
ENDBRANCH   1   2
BRANCH   1  18
ATOM     18  C   UNL     1      16.700  17.696  19.237  1.00  0.00     0.000 C 
BRANCH  18  19
ATOM     19  C   UNL     1      15.703  16.547  19.026  1.00  0.00     0.000 C 
BRANCH  19  20
ATOM     20  C   UNL     1      15.251  15.902  20.352  1.00  0.00     0.000 C 
BRANCH  20  21
ATOM     21  C   UNL     1      15.682  14.426  20.502  1.00  0.00     0.000 C 
BRANCH  21  22
ATOM     22  C   UNL     1      14.516  13.495  20.869  1.00  0.00     0.000 C 
BRANCH  22  23
ATOM     23  C   UNL     1      13.810  12.989  19.601  1.00  0.00     0.000 C 
BRANCH  23  24
ATOM     24  C   UNL     1      14.207  11.555  19.226  1.00  0.00    -0.000 C 
BRANCH  24  25
ATOM     25  C   UNL     1      15.575  11.154  19.801  1.00  0.00    -0.000 C 
BRANCH  25  26
ATOM     26  C   UNL     1      15.702   9.637  20.023  1.00  0.00    -0.000 C 
BRANCH  26  27
ATOM     27  C   UNL     1      17.107   9.146  20.424  1.00  0.00    -0.000 C 
BRANCH  27  28
ATOM     28  C   UNL     1      17.949   8.678  19.222  1.00  0.00    -0.000 C 
BRANCH  28  29
ATOM     29  C   UNL     1      19.109   9.637  18.892  1.00  0.00    -0.000 C 
BRANCH  29  30
ATOM     30  C   UNL     1      20.195   9.747  19.984  1.00  0.00    -0.000 C 
BRANCH  30  31
ATOM     31  C   UNL     1      19.946  10.892  20.976  1.00  0.00    -0.003 C 
ATOM     32  C   UNL     1      20.321  12.241  20.364  1.00  0.00     0.004 C 
ENDBRANCH  30  31
ENDBRANCH  29  30
ENDBRANCH  28  29
ENDBRANCH  27  28
ENDBRANCH  26  27
ENDBRANCH  25  26
ENDBRANCH  24  25
ENDBRANCH  23  24
ENDBRANCH  22  23
ENDBRANCH  21  22
ENDBRANCH  20  21
ENDBRANCH  19  20
ENDBRANCH  18  19
ENDBRANCH   1  18
TORSDOF 28
ENDMDL
MODEL 6
REMARK VINA RESULT:    25.346      1.011      3.008
REMARK INTER + INTRA:          65.211
REMARK INTER:                  67.359
REMARK INTRA:                  -2.148
REMARK UNBOUND:                -1.623
REMARK SMILES CCCCCCCCCCCCCCCCCCCCCCCCCCCCCC(=O)[O-]
REMARK SMILES IDX 16 1 17 2 18 3 19 4 20 5 21 6 22 7 23 8 24 9 25 10 26 11
REMARK SMILES IDX 27 12 28 13 29 14 30 15 31 16 32 17 15 18 14 19 13 20 12 21
REMARK SMILES IDX 11 22 10 23 9 24 8 25 7 26 6 27 5 28 4 29 3 30 2 31 1 32
REMARK H PARENT
REMARK Flexibility Score: inf
ROOT
ATOM      1  C   UNL     1      18.202  16.977  19.758  1.00  0.00     0.000 C 
ENDROOT
BRANCH   1   2
ATOM      2  C   UNL     1      16.922  17.362  18.983  1.00  0.00     0.000 C 
BRANCH   2   3
ATOM      3  C   UNL     1      15.594  16.847  19.572  1.00  0.00     0.000 C 
BRANCH   3   4
ATOM      4  C   UNL     1      15.367  15.324  19.487  1.00  0.00     0.000 C 
BRANCH   4   5
ATOM      5  C   UNL     1      15.300  14.655  20.867  1.00  0.00     0.000 C 
BRANCH   5   6
ATOM      6  C   UNL     1      14.332  13.461  20.853  1.00  0.00     0.000 C 
BRANCH   6   7
ATOM      7  C   UNL     1      14.133  12.880  19.445  1.00  0.00     0.000 C 
BRANCH   7   8
ATOM      8  C   UNL     1      14.670  11.442  19.311  1.00  0.00     0.000 C 
BRANCH   8   9
ATOM      9  C   UNL     1      15.607  11.040  20.463  1.00  0.00     0.000 C 
BRANCH   9  10
ATOM     10  C   UNL     1      16.109   9.586  20.404  1.00  0.00     0.000 C 
BRANCH  10  11
ATOM     11  C   UNL     1      16.328   9.088  18.965  1.00  0.00     0.000 C 
BRANCH  11  12
ATOM     12  C   UNL     1      17.816   8.836  18.701  1.00  0.00     0.000 C 
BRANCH  12  13
ATOM     13  C   UNL     1      18.667   9.214  19.923  1.00  0.00     0.006 C 
BRANCH  13  14
ATOM     14  C   UNL     1      19.950   9.967  19.537  1.00  0.00     0.053 C 
BRANCH  14  15
ATOM     15  C   UNL     1      20.188  11.159  20.411  1.00  0.00     0.041 C 
ATOM     16  O   UNL     1      20.607  12.238  19.915  1.00  0.00    -0.550 OA
ATOM     17  O   UNL     1      19.929  11.086  21.775  1.00  0.00    -0.550 OA
ENDBRANCH  14  15
ENDBRANCH  13  14
ENDBRANCH  12  13
ENDBRANCH  11  12
ENDBRANCH  10  11
ENDBRANCH   9  10
ENDBRANCH   8   9
ENDBRANCH   7   8
ENDBRANCH   6   7
ENDBRANCH   5   6
ENDBRANCH   4   5
ENDBRANCH   3   4
ENDBRANCH   2   3
ENDBRANCH   1   2
BRANCH   1  18
ATOM     18  C   UNL     1      18.512  17.872  20.974  1.00  0.00     0.000 C 
BRANCH  18  19
ATOM     19  C   UNL     1      19.896  18.530  20.892  1.00  0.00     0.000 C 
BRANCH  19  20
ATOM     20  C   UNL     1      20.745  17.986  19.726  1.00  0.00     0.000 C 
BRANCH  20  21
ATOM     21  C   UNL     1      22.267  18.041  19.986  1.00  0.00     0.000 C 
BRANCH  21  22
ATOM     22  C   UNL     1      22.696  17.229  21.216  1.00  0.00     0.000 C 
BRANCH  22  23
ATOM     23  C   UNL     1      24.229  17.150  21.303  1.00  0.00     0.000 C 
BRANCH  23  24
ATOM     24  C   UNL     1      24.920  18.452  20.879  1.00  0.00    -0.000 C 
BRANCH  24  25
ATOM     25  C   UNL     1      25.019  19.467  22.029  1.00  0.00    -0.000 C 
BRANCH  25  26
ATOM     26  C   UNL     1      25.157  18.793  23.405  1.00  0.00    -0.000 C 
BRANCH  26  27
ATOM     27  C   UNL     1      24.451  19.519  24.567  1.00  0.00    -0.000 C 
BRANCH  27  28
ATOM     28  C   UNL     1      23.732  20.808  24.128  1.00  0.00    -0.000 C 
BRANCH  28  29
ATOM     29  C   UNL     1      22.602  21.222  25.089  1.00  0.00    -0.000 C 
BRANCH  29  30
ATOM     30  C   UNL     1      21.180  20.837  24.629  1.00  0.00    -0.000 C 
BRANCH  30  31
ATOM     31  C   UNL     1      21.166  19.772  23.524  1.00  0.00    -0.003 C 
ATOM     32  C   UNL     1      20.308  18.574  23.926  1.00  0.00     0.004 C 
ENDBRANCH  30  31
ENDBRANCH  29  30
ENDBRANCH  28  29
ENDBRANCH  27  28
ENDBRANCH  26  27
ENDBRANCH  25  26
ENDBRANCH  24  25
ENDBRANCH  23  24
ENDBRANCH  22  23
ENDBRANCH  21  22
ENDBRANCH  20  21
ENDBRANCH  19  20
ENDBRANCH  18  19
ENDBRANCH   1  18
TORSDOF 28
ENDMDL
MODEL 7
REMARK VINA RESULT:    25.541      2.729     10.213
REMARK INTER + INTRA:          65.725
REMARK INTER:                  66.147
REMARK INTRA:                  -0.422
REMARK UNBOUND:                -1.623
REMARK SMILES CCCCCCCCCCCCCCCCCCCCCCCCCCCCCC(=O)[O-]
REMARK SMILES IDX 16 1 17 2 18 3 19 4 20 5 21 6 22 7 23 8 24 9 25 10 26 11
REMARK SMILES IDX 27 12 28 13 29 14 30 15 31 16 32 17 15 18 14 19 13 20 12 21
REMARK SMILES IDX 11 22 10 23 9 24 8 25 7 26 6 27 5 28 4 29 3 30 2 31 1 32
REMARK H PARENT
REMARK Flexibility Score: inf
ROOT
ATOM      1  C   UNL     1      16.729  17.576  18.738  1.00  0.00     0.000 C 
ENDROOT
BRANCH   1   2
ATOM      2  C   UNL     1      17.011  18.299  20.074  1.00  0.00     0.000 C 
BRANCH   2   3
ATOM      3  C   UNL     1      18.090  17.662  20.973  1.00  0.00     0.000 C 
BRANCH   3   4
ATOM      4  C   UNL     1      19.519  18.216  20.803  1.00  0.00     0.000 C 
BRANCH   4   5
ATOM      5  C   UNL     1      20.291  17.531  19.667  1.00  0.00     0.000 C 
BRANCH   5   6
ATOM      6  C   UNL     1      21.722  18.083  19.561  1.00  0.00     0.000 C 
BRANCH   6   7
ATOM      7  C   UNL     1      22.546  17.829  20.833  1.00  0.00     0.000 C 
BRANCH   7   8
ATOM      8  C   UNL     1      24.052  18.075  20.626  1.00  0.00     0.000 C 
BRANCH   8   9
ATOM      9  C   UNL     1      24.789  18.431  21.928  1.00  0.00     0.000 C 
BRANCH   9  10
ATOM     10  C   UNL     1      25.062  17.235  22.858  1.00  0.00     0.000 C 
BRANCH  10  11
ATOM     11  C   UNL     1      25.971  17.597  24.045  1.00  0.00     0.000 C 
BRANCH  11  12
ATOM     12  C   UNL     1      25.273  18.592  24.976  1.00  0.00     0.000 C 
BRANCH  12  13
ATOM     13  C   UNL     1      24.109  19.296  24.263  1.00  0.00     0.006 C 
BRANCH  13  14
ATOM     14  C   UNL     1      23.501  20.430  25.105  1.00  0.00     0.053 C 
BRANCH  14  15
ATOM     15  C   UNL     1      22.242  20.968  24.500  1.00  0.00     0.041 C 
ATOM     16  O   UNL     1      21.188  20.279  24.506  1.00  0.00    -0.550 OA
ATOM     17  O   UNL     1      22.224  22.244  23.947  1.00  0.00    -0.550 OA
ENDBRANCH  14  15
ENDBRANCH  13  14
ENDBRANCH  12  13
ENDBRANCH  11  12
ENDBRANCH  10  11
ENDBRANCH   9  10
ENDBRANCH   8   9
ENDBRANCH   7   8
ENDBRANCH   6   7
ENDBRANCH   5   6
ENDBRANCH   4   5
ENDBRANCH   3   4
ENDBRANCH   2   3
ENDBRANCH   1   2
BRANCH   1  18
ATOM     18  C   UNL     1      15.644  16.484  18.814  1.00  0.00     0.000 C 
BRANCH  18  19
ATOM     19  C   UNL     1      15.344  16.042  20.253  1.00  0.00     0.000 C 
BRANCH  19  20
ATOM     20  C   UNL     1      15.811  14.601  20.542  1.00  0.00     0.000 C 
BRANCH  20  21
ATOM     21  C   UNL     1      14.651  13.601  20.746  1.00  0.00     0.000 C 
BRANCH  21  22
ATOM     22  C   UNL     1      14.144  12.993  19.429  1.00  0.00     0.000 C 
BRANCH  22  23
ATOM     23  C   UNL     1      14.221  11.459  19.478  1.00  0.00     0.000 C 
BRANCH  23  24
ATOM     24  C   UNL     1      15.426  10.946  20.276  1.00  0.00    -0.000 C 
BRANCH  24  25
ATOM     25  C   UNL     1      15.657   9.438  20.089  1.00  0.00    -0.000 C 
BRANCH  25  26
ATOM     26  C   UNL     1      16.854   9.130  19.173  1.00  0.00    -0.000 C 
BRANCH  26  27
ATOM     27  C   UNL     1      18.237   9.201  19.851  1.00  0.00    -0.000 C 
BRANCH  27  28
ATOM     28  C   UNL     1      19.405   9.164  18.848  1.00  0.00    -0.000 C 
BRANCH  28  29
ATOM     29  C   UNL     1      20.698   9.787  19.410  1.00  0.00    -0.000 C 
BRANCH  29  30
ATOM     30  C   UNL     1      20.808  11.317  19.250  1.00  0.00    -0.000 C 
BRANCH  30  31
ATOM     31  C   UNL     1      20.170  12.098  20.409  1.00  0.00    -0.003 C 
ATOM     32  C   UNL     1      20.178  11.275  21.695  1.00  0.00     0.004 C 
ENDBRANCH  30  31
ENDBRANCH  29  30
ENDBRANCH  28  29
ENDBRANCH  27  28
ENDBRANCH  26  27
ENDBRANCH  25  26
ENDBRANCH  24  25
ENDBRANCH  23  24
ENDBRANCH  22  23
ENDBRANCH  21  22
ENDBRANCH  20  21
ENDBRANCH  19  20
ENDBRANCH  18  19
ENDBRANCH   1  18
TORSDOF 28
ENDMDL
MODEL 8
REMARK VINA RESULT:    25.688      1.944     10.062
REMARK INTER + INTRA:          66.113
REMARK INTER:                  67.362
REMARK INTRA:                  -1.250
REMARK UNBOUND:                -1.623
REMARK SMILES CCCCCCCCCCCCCCCCCCCCCCCCCCCCCC(=O)[O-]
REMARK SMILES IDX 16 1 17 2 18 3 19 4 20 5 21 6 22 7 23 8 24 9 25 10 26 11
REMARK SMILES IDX 27 12 28 13 29 14 30 15 31 16 32 17 15 18 14 19 13 20 12 21
REMARK SMILES IDX 11 22 10 23 9 24 8 25 7 26 6 27 5 28 4 29 3 30 2 31 1 32
REMARK H PARENT
REMARK Flexibility Score: inf
ROOT
ATOM      1  C   UNL     1      17.003  17.542  18.786  1.00  0.00     0.000 C 
ENDROOT
BRANCH   1   2
ATOM      2  C   UNL     1      18.022  17.356  19.933  1.00  0.00     0.000 C 
BRANCH   2   3
ATOM      3  C   UNL     1      19.498  17.623  19.577  1.00  0.00     0.000 C 
BRANCH   3   4
ATOM      4  C   UNL     1      20.332  18.337  20.660  1.00  0.00     0.000 C 
BRANCH   4   5
ATOM      5  C   UNL     1      19.480  18.830  21.838  1.00  0.00     0.000 C 
BRANCH   5   6
ATOM      6  C   UNL     1      19.895  18.137  23.146  1.00  0.00     0.000 C 
BRANCH   6   7
ATOM      7  C   UNL     1      20.829  19.006  24.002  1.00  0.00     0.000 C 
BRANCH   7   8
ATOM      8  C   UNL     1      20.432  20.495  23.993  1.00  0.00     0.000 C 
BRANCH   8   9
ATOM      9  C   UNL     1      21.557  21.420  24.488  1.00  0.00     0.000 C 
BRANCH   9  10
ATOM     10  C   UNL     1      22.835  20.691  24.940  1.00  0.00     0.000 C 
BRANCH  10  11
ATOM     11  C   UNL     1      24.048  21.004  24.049  1.00  0.00     0.000 C 
BRANCH  11  12
ATOM     12  C   UNL     1      24.596  19.723  23.412  1.00  0.00     0.000 C 
BRANCH  12  13
ATOM     13  C   UNL     1      25.473  20.040  22.193  1.00  0.00     0.006 C 
BRANCH  13  14
ATOM     14  C   UNL     1      25.285  19.027  21.052  1.00  0.00     0.053 C 
BRANCH  14  15
ATOM     15  C   UNL     1      24.429  17.869  21.462  1.00  0.00     0.041 C 
ATOM     16  O   UNL     1      24.838  17.050  22.326  1.00  0.00    -0.550 OA
ATOM     17  O   UNL     1      23.166  17.704  20.903  1.00  0.00    -0.550 OA
ENDBRANCH  14  15
ENDBRANCH  13  14
ENDBRANCH  12  13
ENDBRANCH  11  12
ENDBRANCH  10  11
ENDBRANCH   9  10
ENDBRANCH   8   9
ENDBRANCH   7   8
ENDBRANCH   6   7
ENDBRANCH   5   6
ENDBRANCH   4   5
ENDBRANCH   3   4
ENDBRANCH   2   3
ENDBRANCH   1   2
BRANCH   1  18
ATOM     18  C   UNL     1      15.621  16.911  19.044  1.00  0.00     0.000 C 
BRANCH  18  19
ATOM     19  C   UNL     1      15.586  16.052  20.317  1.00  0.00     0.000 C 
BRANCH  19  20
ATOM     20  C   UNL     1      15.529  14.542  20.013  1.00  0.00     0.000 C 
BRANCH  20  21
ATOM     21  C   UNL     1      14.584  13.755  20.949  1.00  0.00     0.000 C 
BRANCH  21  22
ATOM     22  C   UNL     1      13.585  12.870  20.189  1.00  0.00     0.000 C 
BRANCH  22  23
ATOM     23  C   UNL     1      14.327  11.848  19.314  1.00  0.00     0.000 C 
BRANCH  23  24
ATOM     24  C   UNL     1      15.516  11.197  20.033  1.00  0.00    -0.000 C 
BRANCH  24  25
ATOM     25  C   UNL     1      15.394   9.666  20.105  1.00  0.00    -0.000 C 
BRANCH  25  26
ATOM     26  C   UNL     1      16.753   8.956  19.979  1.00  0.00    -0.000 C 
BRANCH  26  27
ATOM     27  C   UNL     1      17.547   9.279  18.697  1.00  0.00    -0.000 C 
BRANCH  27  28
ATOM     28  C   UNL     1      19.030   8.872  18.786  1.00  0.00    -0.000 C 
BRANCH  28  29
ATOM     29  C   UNL     1      19.781   9.587  19.925  1.00  0.00    -0.000 C 
BRANCH  29  30
ATOM     30  C   UNL     1      20.645  10.787  19.484  1.00  0.00    -0.000 C 
BRANCH  30  31
ATOM     31  C   UNL     1      20.391  12.056  20.310  1.00  0.00    -0.003 C 
ATOM     32  C   UNL     1      20.235  11.725  21.793  1.00  0.00     0.004 C 
ENDBRANCH  30  31
ENDBRANCH  29  30
ENDBRANCH  28  29
ENDBRANCH  27  28
ENDBRANCH  26  27
ENDBRANCH  25  26
ENDBRANCH  24  25
ENDBRANCH  23  24
ENDBRANCH  22  23
ENDBRANCH  21  22
ENDBRANCH  20  21
ENDBRANCH  19  20
ENDBRANCH  18  19
ENDBRANCH   1  18
TORSDOF 28
ENDMDL
MODEL 9
REMARK VINA RESULT:    25.873      1.048      3.265
REMARK INTER + INTRA:          66.601
REMARK INTER:                  67.521
REMARK INTRA:                  -0.920
REMARK UNBOUND:                -1.623
REMARK SMILES CCCCCCCCCCCCCCCCCCCCCCCCCCCCCC(=O)[O-]
REMARK SMILES IDX 16 1 17 2 18 3 19 4 20 5 21 6 22 7 23 8 24 9 25 10 26 11
REMARK SMILES IDX 27 12 28 13 29 14 30 15 31 16 32 17 15 18 14 19 13 20 12 21
REMARK SMILES IDX 11 22 10 23 9 24 8 25 7 26 6 27 5 28 4 29 3 30 2 31 1 32
REMARK H PARENT
REMARK Flexibility Score: inf
ROOT
ATOM      1  C   UNL     1      17.902  17.165  20.589  1.00  0.00     0.000 C 
ENDROOT
BRANCH   1   2
ATOM      2  C   UNL     1      16.871  18.305  20.437  1.00  0.00     0.000 C 
BRANCH   2   3
ATOM      3  C   UNL     1      16.040  18.297  19.138  1.00  0.00     0.000 C 
BRANCH   3   4
ATOM      4  C   UNL     1      15.551  16.914  18.663  1.00  0.00     0.000 C 
BRANCH   4   5
ATOM      5  C   UNL     1      16.065  15.767  19.542  1.00  0.00     0.000 C 
BRANCH   5   6
ATOM      6  C   UNL     1      14.934  15.183  20.404  1.00  0.00     0.000 C 
BRANCH   6   7
ATOM      7  C   UNL     1      15.080  13.669  20.619  1.00  0.00     0.000 C 
BRANCH   7   8
ATOM      8  C   UNL     1      13.789  12.893  20.294  1.00  0.00     0.000 C 
BRANCH   8   9
ATOM      9  C   UNL     1      14.043  11.623  19.465  1.00  0.00     0.000 C 
BRANCH   9  10
ATOM     10  C   UNL     1      15.461  11.039  19.604  1.00  0.00     0.000 C 
BRANCH  10  11
ATOM     11  C   UNL     1      15.468   9.630  20.221  1.00  0.00     0.000 C 
BRANCH  11  12
ATOM     12  C   UNL     1      16.497   8.739  19.518  1.00  0.00     0.000 C 
BRANCH  12  13
ATOM     13  C   UNL     1      17.809   9.497  19.268  1.00  0.00     0.006 C 
BRANCH  13  14
ATOM     14  C   UNL     1      18.708   9.546  20.513  1.00  0.00     0.053 C 
BRANCH  14  15
ATOM     15  C   UNL     1      19.897  10.434  20.315  1.00  0.00     0.041 C 
ATOM     16  O   UNL     1      20.625  10.305  19.296  1.00  0.00    -0.550 OA
ATOM     17  O   UNL     1      20.193  11.422  21.248  1.00  0.00    -0.550 OA
ENDBRANCH  14  15
ENDBRANCH  13  14
ENDBRANCH  12  13
ENDBRANCH  11  12
ENDBRANCH  10  11
ENDBRANCH   9  10
ENDBRANCH   8   9
ENDBRANCH   7   8
ENDBRANCH   6   7
ENDBRANCH   5   6
ENDBRANCH   4   5
ENDBRANCH   3   4
ENDBRANCH   2   3
ENDBRANCH   1   2
BRANCH   1  18
ATOM     18  C   UNL     1      19.361  17.574  20.302  1.00  0.00     0.000 C 
BRANCH  18  19
ATOM     19  C   UNL     1      19.850  18.710  21.212  1.00  0.00     0.000 C 
BRANCH  19  20
ATOM     20  C   UNL     1      21.387  18.762  21.325  1.00  0.00     0.000 C 
BRANCH  20  21
ATOM     21  C   UNL     1      22.119  18.062  20.158  1.00  0.00     0.000 C 
BRANCH  21  22
ATOM     22  C   UNL     1      23.332  17.240  20.617  1.00  0.00     0.000 C 
BRANCH  22  23
ATOM     23  C   UNL     1      24.427  18.160  21.179  1.00  0.00     0.000 C 
BRANCH  23  24
ATOM     24  C   UNL     1      24.973  17.683  22.531  1.00  0.00    -0.000 C 
BRANCH  24  25
ATOM     25  C   UNL     1      25.151  18.834  23.534  1.00  0.00    -0.000 C 
BRANCH  25  26
ATOM     26  C   UNL     1      24.761  20.200  22.943  1.00  0.00    -0.000 C 
BRANCH  26  27
ATOM     27  C   UNL     1      24.034  21.153  23.912  1.00  0.00    -0.000 C 
BRANCH  27  28
ATOM     28  C   UNL     1      23.078  20.423  24.873  1.00  0.00    -0.000 C 
BRANCH  28  29
ATOM     29  C   UNL     1      21.601  20.530  24.446  1.00  0.00    -0.000 C 
BRANCH  29  30
ATOM     30  C   UNL     1      20.982  21.936  24.584  1.00  0.00    -0.000 C 
BRANCH  30  31
ATOM     31  C   UNL     1      21.418  22.905  23.474  1.00  0.00    -0.003 C 
ATOM     32  C   UNL     1      20.291  23.131  22.468  1.00  0.00     0.004 C 
ENDBRANCH  30  31
ENDBRANCH  29  30
ENDBRANCH  28  29
ENDBRANCH  27  28
ENDBRANCH  26  27
ENDBRANCH  25  26
ENDBRANCH  24  25
ENDBRANCH  23  24
ENDBRANCH  22  23
ENDBRANCH  21  22
ENDBRANCH  20  21
ENDBRANCH  19  20
ENDBRANCH  18  19
ENDBRANCH   1  18
TORSDOF 28
ENDMDL
