MODEL 1
REMARK VINA RESULT:    -7.264      0.000      0.000
REMARK INTER + INTRA:          -8.194
REMARK INTER:                  -8.114
REMARK INTRA:                  -0.080
REMARK UNBOUND:                -0.080
REMARK SMILES CC1(C)CC[C@@]2(CO)CC=C3[C@@](C)(CC[C@H]4[C@]5(C)CC[C@H](O)C(C)(C)[C@H]5CC[C@]34C)[C@H]2C1
REMARK SMILES IDX 1 1 2 2 4 3 5 4 6 5 9 6 10 7 11 8 29 9 28 10 27 11 26 12
REMARK SMILES IDX 23 13 21 14 20 15 19 16 17 17 16 18 15 19 14 20 12 21 31 22
REMARK SMILES IDX 32 23 13 24 18 25 24 26 25 27 30 28 3 29 7 30 8 31 22 33
REMARK H PARENT 8 32 22 34
REMARK Flexibility Score: inf
ROOT
ATOM      1  C   UNL     1     138.125 142.448 148.142  1.00  0.00     0.011 C 
ATOM      2  C   UNL     1     139.573 141.975 147.852  1.00  0.00    -0.035 C 
ATOM      3  C   UNL     1     140.261 142.812 146.771  1.00  0.00     0.007 C 
ATOM      4  C   UNL     1     139.490 142.738 145.471  1.00  0.00     0.010 C 
ATOM      5  C   UNL     1     139.376 141.300 144.852  1.00  0.00     0.001 C 
ATOM      6  C   UNL     1     140.687 141.008 144.043  1.00  0.00     0.037 C 
ATOM      7  C   UNL     1     141.629 140.016 144.677  1.00  0.00    -0.026 C 
ATOM      8  C   UNL     1     141.217 138.898 145.333  1.00  0.00    -0.062 C 
ATOM      9  C   UNL     1     142.242 137.772 145.668  1.00  0.00    -0.008 C 
ATOM     10  C   UNL     1     143.626 138.366 146.079  1.00  0.00     0.012 C 
ATOM     11  C   UNL     1     144.615 137.331 146.635  1.00  0.00     0.006 C 
ATOM     12  C   UNL     1     144.044 136.581 147.860  1.00  0.00     0.003 C 
ATOM     13  C   UNL     1     145.116 135.710 148.649  1.00  0.00    -0.006 C 
ATOM     14  C   UNL     1     144.407 134.641 149.557  1.00  0.00     0.120 C 
ATOM     15  C   UNL     1     143.036 135.127 150.049  1.00  0.00     0.033 C 
ATOM     16  C   UNL     1     142.047 135.357 148.888  1.00  0.00     0.010 C 
ATOM     17  C   UNL     1     142.680 135.863 147.533  1.00  0.00    -0.025 C 
ATOM     18  C   UNL     1     141.705 136.938 146.890  1.00  0.00     0.005 C 
ATOM     19  C   UNL     1     140.267 136.434 146.630  1.00  0.00     0.006 C 
ATOM     20  C   UNL     1     139.320 137.630 146.606  1.00  0.00     0.012 C 
ATOM     21  C   UNL     1     139.692 138.720 145.530  1.00  0.00    -0.008 C 
ATOM     22  C   UNL     1     139.087 140.151 145.942  1.00  0.00     0.008 C 
ATOM     23  C   UNL     1     139.579 140.503 147.403  1.00  0.00     0.011 C 
ATOM     24  C   UNL     1     139.089 138.180 144.206  1.00  0.00     0.016 C 
ATOM     25  C   UNL     1     142.861 134.639 146.585  1.00  0.00     0.012 C 
ATOM     26  C   UNL     1     145.972 136.665 149.531  1.00  0.00     0.014 C 
ATOM     27  C   UNL     1     146.097 134.965 147.707  1.00  0.00     0.014 C 
ATOM     28  C   UNL     1     142.419 136.958 144.355  1.00  0.00     0.016 C 
ATOM     29  C   UNL     1     140.386 142.111 149.159  1.00  0.00     0.011 C 
ENDROOT
BRANCH   5  30
ATOM     30  C   UNL     1     138.162 141.461 143.862  1.00  0.00     0.163 C 
BRANCH  30  31
ATOM     31  O   UNL     1     137.486 142.677 143.978  1.00  0.00    -0.396 OA
ATOM     32  H   UNL     1     137.983 143.213 144.651  1.00  0.00     0.210 HD
ENDBRANCH  30  31
ENDBRANCH   5  30
BRANCH  14  33
ATOM     33  O   UNL     1     145.219 134.228 150.633  1.00  0.00    -0.393 OA
ATOM     34  H   UNL     1     145.602 133.338 150.416  1.00  0.00     0.210 HD
ENDBRANCH  14  33
TORSDOF 3
ENDMDL
MODEL 2
REMARK VINA RESULT:    -6.344      3.284      8.339
REMARK INTER + INTRA:          -7.166
REMARK INTER:                  -7.026
REMARK INTRA:                  -0.139
REMARK UNBOUND:                -0.080
REMARK SMILES CC1(C)CC[C@@]2(CO)CC=C3[C@@](C)(CC[C@H]4[C@]5(C)CC[C@H](O)C(C)(C)[C@H]5CC[C@]34C)[C@H]2C1
REMARK SMILES IDX 1 1 2 2 4 3 5 4 6 5 9 6 10 7 11 8 29 9 28 10 27 11 26 12
REMARK SMILES IDX 23 13 21 14 20 15 19 16 17 17 16 18 15 19 14 20 12 21 31 22
REMARK SMILES IDX 32 23 13 24 18 25 24 26 25 27 30 28 3 29 7 30 8 31 22 33
REMARK H PARENT 8 32 22 34
REMARK Flexibility Score: inf
ROOT
ATOM      1  C   UNL     1     135.115 135.095 147.900  1.00  0.00     0.011 C 
ATOM      2  C   UNL     1     135.380 135.694 146.495  1.00  0.00    -0.035 C 
ATOM      3  C   UNL     1     135.612 134.619 145.431  1.00  0.00     0.007 C 
ATOM      4  C   UNL     1     136.807 133.763 145.792  1.00  0.00     0.010 C 
ATOM      5  C   UNL     1     138.170 134.538 145.885  1.00  0.00     0.001 C 
ATOM      6  C   UNL     1     138.758 134.673 144.437  1.00  0.00     0.037 C 
ATOM      7  C   UNL     1     138.692 136.056 143.840  1.00  0.00    -0.026 C 
ATOM      8  C   UNL     1     138.912 137.195 144.551  1.00  0.00    -0.062 C 
ATOM      9  C   UNL     1     139.148 138.544 143.805  1.00  0.00    -0.008 C 
ATOM     10  C   UNL     1     138.236 138.661 142.542  1.00  0.00     0.012 C 
ATOM     11  C   UNL     1     138.249 140.048 141.884  1.00  0.00     0.006 C 
ATOM     12  C   UNL     1     137.832 141.164 142.869  1.00  0.00     0.003 C 
ATOM     13  C   UNL     1     137.551 142.570 142.180  1.00  0.00    -0.006 C 
ATOM     14  C   UNL     1     137.595 143.728 143.241  1.00  0.00     0.120 C 
ATOM     15  C   UNL     1     137.152 143.249 144.631  1.00  0.00     0.033 C 
ATOM     16  C   UNL     1     138.093 142.172 145.206  1.00  0.00     0.010 C 
ATOM     17  C   UNL     1     138.747 141.195 144.151  1.00  0.00    -0.025 C 
ATOM     18  C   UNL     1     138.776 139.732 144.767  1.00  0.00     0.005 C 
ATOM     19  C   UNL     1     139.524 139.612 146.114  1.00  0.00     0.006 C 
ATOM     20  C   UNL     1     138.991 138.398 146.870  1.00  0.00     0.012 C 
ATOM     21  C   UNL     1     139.122 137.042 146.077  1.00  0.00    -0.008 C 
ATOM     22  C   UNL     1     138.048 135.971 146.609  1.00  0.00     0.008 C 
ATOM     23  C   UNL     1     136.608 136.619 146.527  1.00  0.00     0.011 C 
ATOM     24  C   UNL     1     140.585 136.589 146.326  1.00  0.00     0.016 C 
ATOM     25  C   UNL     1     140.191 141.698 143.843  1.00  0.00     0.012 C 
ATOM     26  C   UNL     1     136.144 142.518 141.516  1.00  0.00     0.014 C 
ATOM     27  C   UNL     1     138.568 142.905 141.060  1.00  0.00     0.014 C 
ATOM     28  C   UNL     1     140.633 138.519 143.347  1.00  0.00     0.016 C 
ATOM     29  C   UNL     1     134.135 136.515 146.088  1.00  0.00     0.011 C 
ENDROOT
BRANCH   5  30
ATOM     30  C   UNL     1     139.056 133.548 146.730  1.00  0.00     0.163 C 
BRANCH  30  31
ATOM     31  O   UNL     1     139.044 133.800 148.103  1.00  0.00    -0.396 OA
ATOM     32  H   UNL     1     138.779 134.751 148.213  1.00  0.00     0.210 HD
ENDBRANCH  30  31
ENDBRANCH   5  30
BRANCH  14  33
ATOM     33  O   UNL     1     136.859 144.859 142.831  1.00  0.00    -0.393 OA
ATOM     34  H   UNL     1     136.450 144.666 141.948  1.00  0.00     0.210 HD
ENDBRANCH  14  33
TORSDOF 3
ENDMDL
MODEL 3
REMARK VINA RESULT:    -6.170      8.620     12.114
REMARK INTER + INTRA:          -6.971
REMARK INTER:                  -6.855
REMARK INTRA:                  -0.116
REMARK UNBOUND:                -0.080
REMARK SMILES CC1(C)CC[C@@]2(CO)CC=C3[C@@](C)(CC[C@H]4[C@]5(C)CC[C@H](O)C(C)(C)[C@H]5CC[C@]34C)[C@H]2C1
REMARK SMILES IDX 1 1 2 2 4 3 5 4 6 5 9 6 10 7 11 8 29 9 28 10 27 11 26 12
REMARK SMILES IDX 23 13 21 14 20 15 19 16 17 17 16 18 15 19 14 20 12 21 31 22
REMARK SMILES IDX 32 23 13 24 18 25 24 26 25 27 30 28 3 29 7 30 8 31 22 33
REMARK H PARENT 8 32 22 34
REMARK Flexibility Score: inf
ROOT
ATOM      1  C   UNL     1     145.410 139.631 144.454  1.00  0.00     0.011 C 
ATOM      2  C   UNL     1     145.992 139.309 143.053  1.00  0.00    -0.035 C 
ATOM      3  C   UNL     1     147.037 138.192 143.092  1.00  0.00     0.007 C 
ATOM      4  C   UNL     1     148.195 138.580 143.987  1.00  0.00     0.010 C 
ATOM      5  C   UNL     1     148.987 139.854 143.526  1.00  0.00     0.001 C 
ATOM      6  C   UNL     1     150.028 139.420 142.437  1.00  0.00     0.037 C 
ATOM      7  C   UNL     1     149.701 139.840 141.027  1.00  0.00    -0.026 C 
ATOM      8  C   UNL     1     149.153 141.044 140.706  1.00  0.00    -0.062 C 
ATOM      9  C   UNL     1     149.150 141.527 139.224  1.00  0.00    -0.008 C 
ATOM     10  C   UNL     1     148.884 140.343 138.241  1.00  0.00     0.012 C 
ATOM     11  C   UNL     1     148.646 140.774 136.787  1.00  0.00     0.006 C 
ATOM     12  C   UNL     1     147.466 141.764 136.659  1.00  0.00     0.003 C 
ATOM     13  C   UNL     1     146.991 142.023 135.163  1.00  0.00    -0.006 C 
ATOM     14  C   UNL     1     146.144 143.343 135.069  1.00  0.00     0.120 C 
ATOM     15  C   UNL     1     145.376 143.625 136.368  1.00  0.00     0.033 C 
ATOM     16  C   UNL     1     146.319 143.865 137.564  1.00  0.00     0.010 C 
ATOM     17  C   UNL     1     147.671 143.049 137.549  1.00  0.00    -0.025 C 
ATOM     18  C   UNL     1     147.990 142.572 139.029  1.00  0.00     0.005 C 
ATOM     19  C   UNL     1     148.088 143.711 140.069  1.00  0.00     0.006 C 
ATOM     20  C   UNL     1     147.789 143.144 141.454  1.00  0.00     0.012 C 
ATOM     21  C   UNL     1     148.744 141.965 141.881  1.00  0.00    -0.008 C 
ATOM     22  C   UNL     1     148.040 141.044 142.996  1.00  0.00     0.008 C 
ATOM     23  C   UNL     1     146.641 140.562 142.439  1.00  0.00     0.011 C 
ATOM     24  C   UNL     1     150.018 142.672 142.415  1.00  0.00     0.016 C 
ATOM     25  C   UNL     1     148.801 143.977 137.008  1.00  0.00     0.012 C 
ATOM     26  C   UNL     1     146.129 140.810 134.706  1.00  0.00     0.014 C 
ATOM     27  C   UNL     1     148.174 142.138 134.168  1.00  0.00     0.014 C 
ATOM     28  C   UNL     1     150.578 142.084 138.959  1.00  0.00     0.016 C 
ATOM     29  C   UNL     1     144.825 138.847 142.151  1.00  0.00     0.011 C 
ENDROOT
BRANCH   5  30
ATOM     30  C   UNL     1     149.738 140.272 144.846  1.00  0.00     0.163 C 
BRANCH  30  31
ATOM     31  O   UNL     1     148.895 140.706 145.871  1.00  0.00    -0.396 OA
ATOM     32  H   UNL     1     148.763 141.681 145.733  1.00  0.00     0.210 HD
ENDBRANCH  30  31
ENDBRANCH   5  30
BRANCH  14  33
ATOM     33  O   UNL     1     145.281 143.347 133.953  1.00  0.00    -0.393 OA
ATOM     34  H   UNL     1     145.726 143.834 133.211  1.00  0.00     0.210 HD
ENDBRANCH  14  33
TORSDOF 3
ENDMDL
MODEL 4
REMARK VINA RESULT:    -6.164      3.412      7.581
REMARK INTER + INTRA:          -6.964
REMARK INTER:                  -6.827
REMARK INTRA:                  -0.137
REMARK UNBOUND:                -0.080
REMARK SMILES CC1(C)CC[C@@]2(CO)CC=C3[C@@](C)(CC[C@H]4[C@]5(C)CC[C@H](O)C(C)(C)[C@H]5CC[C@]34C)[C@H]2C1
REMARK SMILES IDX 1 1 2 2 4 3 5 4 6 5 9 6 10 7 11 8 29 9 28 10 27 11 26 12
REMARK SMILES IDX 23 13 21 14 20 15 19 16 17 17 16 18 15 19 14 20 12 21 31 22
REMARK SMILES IDX 32 23 13 24 18 25 24 26 25 27 30 28 3 29 7 30 8 31 22 33
REMARK H PARENT 8 32 22 34
REMARK Flexibility Score: inf
ROOT
ATOM      1  C   UNL     1     135.126 133.863 148.679  1.00  0.00     0.011 C 
ATOM      2  C   UNL     1     135.343 134.785 147.452  1.00  0.00    -0.035 C 
ATOM      3  C   UNL     1     134.934 134.120 146.135  1.00  0.00     0.007 C 
ATOM      4  C   UNL     1     135.740 132.859 145.904  1.00  0.00     0.010 C 
ATOM      5  C   UNL     1     137.289 133.080 145.778  1.00  0.00     0.001 C 
ATOM      6  C   UNL     1     137.607 133.504 144.302  1.00  0.00     0.037 C 
ATOM      7  C   UNL     1     137.983 134.952 144.113  1.00  0.00    -0.026 C 
ATOM      8  C   UNL     1     138.760 135.649 144.985  1.00  0.00    -0.062 C 
ATOM      9  C   UNL     1     139.367 137.021 144.560  1.00  0.00    -0.008 C 
ATOM     10  C   UNL     1     138.361 137.843 143.693  1.00  0.00     0.012 C 
ATOM     11  C   UNL     1     138.798 139.290 143.424  1.00  0.00     0.006 C 
ATOM     12  C   UNL     1     139.042 140.077 144.732  1.00  0.00     0.003 C 
ATOM     13  C   UNL     1     139.217 141.644 144.527  1.00  0.00    -0.006 C 
ATOM     14  C   UNL     1     139.907 142.296 145.779  1.00  0.00     0.120 C 
ATOM     15  C   UNL     1     139.573 141.542 147.075  1.00  0.00     0.033 C 
ATOM     16  C   UNL     1     140.102 140.094 147.061  1.00  0.00     0.010 C 
ATOM     17  C   UNL     1     140.114 139.379 145.653  1.00  0.00    -0.025 C 
ATOM     18  C   UNL     1     139.676 137.866 145.851  1.00  0.00     0.005 C 
ATOM     19  C   UNL     1     140.549 137.064 146.843  1.00  0.00     0.006 C 
ATOM     20  C   UNL     1     139.729 135.904 147.399  1.00  0.00     0.012 C 
ATOM     21  C   UNL     1     139.168 134.930 146.293  1.00  0.00    -0.008 C 
ATOM     22  C   UNL     1     137.877 134.143 146.836  1.00  0.00     0.008 C 
ATOM     23  C   UNL     1     136.820 135.203 147.347  1.00  0.00     0.011 C 
ATOM     24  C   UNL     1     140.354 133.978 145.978  1.00  0.00     0.016 C 
ATOM     25  C   UNL     1     141.555 139.469 145.066  1.00  0.00     0.012 C 
ATOM     26  C   UNL     1     137.807 142.271 144.317  1.00  0.00     0.014 C 
ATOM     27  C   UNL     1     140.060 141.997 143.276  1.00  0.00     0.014 C 
ATOM     28  C   UNL     1     140.611 136.682 143.692  1.00  0.00     0.016 C 
ATOM     29  C   UNL     1     134.470 136.046 147.647  1.00  0.00     0.011 C 
ENDROOT
BRANCH   5  30
ATOM     30  C   UNL     1     137.853 131.636 146.052  1.00  0.00     0.163 C 
BRANCH  30  31
ATOM     31  O   UNL     1     138.082 131.357 147.401  1.00  0.00    -0.396 OA
ATOM     32  H   UNL     1     138.538 130.475 147.433  1.00  0.00     0.210 HD
ENDBRANCH  30  31
ENDBRANCH   5  30
BRANCH  14  33
ATOM     33  O   UNL     1     139.614 143.671 145.898  1.00  0.00    -0.393 OA
ATOM     34  H   UNL     1     140.163 144.169 145.237  1.00  0.00     0.210 HD
ENDBRANCH  14  33
TORSDOF 3
ENDMDL
MODEL 5
REMARK VINA RESULT:    -6.134      1.870      2.508
REMARK INTER + INTRA:          -6.932
REMARK INTER:                  -6.863
REMARK INTRA:                  -0.069
REMARK UNBOUND:                -0.080
REMARK SMILES CC1(C)CC[C@@]2(CO)CC=C3[C@@](C)(CC[C@H]4[C@]5(C)CC[C@H](O)C(C)(C)[C@H]5CC[C@]34C)[C@H]2C1
REMARK SMILES IDX 1 1 2 2 4 3 5 4 6 5 9 6 10 7 11 8 29 9 28 10 27 11 26 12
REMARK SMILES IDX 23 13 21 14 20 15 19 16 17 17 16 18 15 19 14 20 12 21 31 22
REMARK SMILES IDX 32 23 13 24 18 25 24 26 25 27 30 28 3 29 7 30 8 31 22 33
REMARK H PARENT 8 32 22 34
REMARK Flexibility Score: inf
ROOT
ATOM      1  C   UNL     1     138.431 142.167 145.719  1.00  0.00     0.011 C 
ATOM      2  C   UNL     1     139.852 141.757 145.257  1.00  0.00    -0.035 C 
ATOM      3  C   UNL     1     140.044 141.900 143.745  1.00  0.00     0.007 C 
ATOM      4  C   UNL     1     139.055 141.030 143.000  1.00  0.00     0.010 C 
ATOM      5  C   UNL     1     139.191 139.491 143.277  1.00  0.00     0.001 C 
ATOM      6  C   UNL     1     140.323 138.921 142.354  1.00  0.00     0.037 C 
ATOM      7  C   UNL     1     141.608 138.559 143.056  1.00  0.00    -0.026 C 
ATOM      8  C   UNL     1     141.657 137.974 144.283  1.00  0.00    -0.062 C 
ATOM      9  C   UNL     1     142.988 137.340 144.789  1.00  0.00    -0.008 C 
ATOM     10  C   UNL     1     144.223 138.195 144.361  1.00  0.00     0.012 C 
ATOM     11  C   UNL     1     145.545 137.758 145.008  1.00  0.00     0.006 C 
ATOM     12  C   UNL     1     145.473 137.779 146.552  1.00  0.00     0.003 C 
ATOM     13  C   UNL     1     146.881 137.615 147.273  1.00  0.00    -0.006 C 
ATOM     14  C   UNL     1     146.691 137.183 148.772  1.00  0.00     0.120 C 
ATOM     15  C   UNL     1     145.382 137.725 149.364  1.00  0.00     0.033 C 
ATOM     16  C   UNL     1     144.140 137.161 148.647  1.00  0.00     0.010 C 
ATOM     17  C   UNL     1     144.307 136.873 147.103  1.00  0.00    -0.025 C 
ATOM     18  C   UNL     1     142.968 137.295 146.362  1.00  0.00     0.005 C 
ATOM     19  C   UNL     1     141.692 136.594 146.881  1.00  0.00     0.006 C 
ATOM     20  C   UNL     1     140.483 137.468 146.562  1.00  0.00     0.012 C 
ATOM     21  C   UNL     1     140.313 137.790 145.029  1.00  0.00    -0.008 C 
ATOM     22  C   UNL     1     139.458 139.136 144.825  1.00  0.00     0.008 C 
ATOM     23  C   UNL     1     140.146 140.298 145.648  1.00  0.00     0.011 C 
ATOM     24  C   UNL     1     139.598 136.541 144.448  1.00  0.00     0.016 C 
ATOM     25  C   UNL     1     144.591 135.352 146.913  1.00  0.00     0.012 C 
ATOM     26  C   UNL     1     147.626 138.980 147.209  1.00  0.00     0.014 C 
ATOM     27  C   UNL     1     147.792 136.569 146.583  1.00  0.00     0.014 C 
ATOM     28  C   UNL     1     143.082 135.949 144.101  1.00  0.00     0.016 C 
ATOM     29  C   UNL     1     140.867 142.686 145.962  1.00  0.00     0.011 C 
ENDROOT
BRANCH   5  30
ATOM     30  C   UNL     1     137.791 138.944 142.804  1.00  0.00     0.163 C 
BRANCH  30  31
ATOM     31  O   UNL     1     137.053 139.849 142.039  1.00  0.00    -0.396 OA
ATOM     32  H   UNL     1     137.303 140.756 142.357  1.00  0.00     0.210 HD
ENDBRANCH  30  31
ENDBRANCH   5  30
BRANCH  14  33
ATOM     33  O   UNL     1     147.798 137.532 149.575  1.00  0.00    -0.393 OA
ATOM     34  H   UNL     1     148.509 137.901 148.988  1.00  0.00     0.210 HD
ENDBRANCH  14  33
TORSDOF 3
ENDMDL
MODEL 6
REMARK VINA RESULT:    -6.028      3.171      7.737
REMARK INTER + INTRA:          -6.813
REMARK INTER:                  -6.696
REMARK INTRA:                  -0.117
REMARK UNBOUND:                -0.080
REMARK SMILES CC1(C)CC[C@@]2(CO)CC=C3[C@@](C)(CC[C@H]4[C@]5(C)CC[C@H](O)C(C)(C)[C@H]5CC[C@]34C)[C@H]2C1
REMARK SMILES IDX 1 1 2 2 4 3 5 4 6 5 9 6 10 7 11 8 29 9 28 10 27 11 26 12
REMARK SMILES IDX 23 13 21 14 20 15 19 16 17 17 16 18 15 19 14 20 12 21 31 22
REMARK SMILES IDX 32 23 13 24 18 25 24 26 25 27 30 28 3 29 7 30 8 31 22 33
REMARK H PARENT 8 32 22 34
REMARK Flexibility Score: inf
ROOT
ATOM      1  C   UNL     1     148.258 134.713 148.478  1.00  0.00     0.011 C 
ATOM      2  C   UNL     1     147.455 135.861 147.814  1.00  0.00    -0.035 C 
ATOM      3  C   UNL     1     147.358 137.103 148.703  1.00  0.00     0.007 C 
ATOM      4  C   UNL     1     146.674 136.768 150.011  1.00  0.00     0.010 C 
ATOM      5  C   UNL     1     145.196 136.259 149.871  1.00  0.00     0.001 C 
ATOM      6  C   UNL     1     144.255 137.507 149.747  1.00  0.00     0.037 C 
ATOM      7  C   UNL     1     143.677 137.746 148.376  1.00  0.00    -0.026 C 
ATOM      8  C   UNL     1     143.254 136.750 147.552  1.00  0.00    -0.062 C 
ATOM      9  C   UNL     1     142.378 137.088 146.307  1.00  0.00    -0.008 C 
ATOM     10  C   UNL     1     142.841 138.419 145.632  1.00  0.00     0.012 C 
ATOM     11  C   UNL     1     142.174 138.701 144.278  1.00  0.00     0.006 C 
ATOM     12  C   UNL     1     142.404 137.557 143.265  1.00  0.00     0.003 C 
ATOM     13  C   UNL     1     141.987 137.913 141.772  1.00  0.00    -0.006 C 
ATOM     14  C   UNL     1     141.804 136.607 140.918  1.00  0.00     0.120 C 
ATOM     15  C   UNL     1     142.722 135.474 141.400  1.00  0.00     0.033 C 
ATOM     16  C   UNL     1     142.398 135.033 142.841  1.00  0.00     0.010 C 
ATOM     17  C   UNL     1     141.889 136.171 143.811  1.00  0.00    -0.025 C 
ATOM     18  C   UNL     1     142.534 135.940 145.243  1.00  0.00     0.005 C 
ATOM     19  C   UNL     1     142.240 134.558 145.870  1.00  0.00     0.006 C 
ATOM     20  C   UNL     1     143.339 134.226 146.876  1.00  0.00     0.012 C 
ATOM     21  C   UNL     1     143.501 135.296 148.022  1.00  0.00    -0.008 C 
ATOM     22  C   UNL     1     144.980 135.234 148.647  1.00  0.00     0.008 C 
ATOM     23  C   UNL     1     146.029 135.394 147.474  1.00  0.00     0.011 C 
ATOM     24  C   UNL     1     142.405 134.923 149.056  1.00  0.00     0.016 C 
ATOM     25  C   UNL     1     140.333 136.097 143.884  1.00  0.00     0.012 C 
ATOM     26  C   UNL     1     143.107 138.798 141.149  1.00  0.00     0.014 C 
ATOM     27  C   UNL     1     140.672 138.728 141.693  1.00  0.00     0.014 C 
ATOM     28  C   UNL     1     140.933 137.282 146.848  1.00  0.00     0.016 C 
ATOM     29  C   UNL     1     148.185 136.256 146.510  1.00  0.00     0.011 C 
ENDROOT
BRANCH   5  30
ATOM     30  C   UNL     1     144.958 135.547 151.255  1.00  0.00     0.163 C 
BRANCH  30  31
ATOM     31  O   UNL     1     143.953 136.126 152.031  1.00  0.00    -0.396 OA
ATOM     32  H   UNL     1     144.410 136.663 152.730  1.00  0.00     0.210 HD
ENDBRANCH  30  31
ENDBRANCH   5  30
BRANCH  14  33
ATOM     33  O   UNL     1     141.965 136.843 139.537  1.00  0.00    -0.393 OA
ATOM     34  H   UNL     1     141.809 135.992 139.051  1.00  0.00     0.210 HD
ENDBRANCH  14  33
TORSDOF 3
ENDMDL
MODEL 7
REMARK VINA RESULT:    -5.942     10.083     12.563
REMARK INTER + INTRA:          -6.717
REMARK INTER:                  -6.602
REMARK INTRA:                  -0.114
REMARK UNBOUND:                -0.080
REMARK SMILES CC1(C)CC[C@@]2(CO)CC=C3[C@@](C)(CC[C@H]4[C@]5(C)CC[C@H](O)C(C)(C)[C@H]5CC[C@]34C)[C@H]2C1
REMARK SMILES IDX 1 1 2 2 4 3 5 4 6 5 9 6 10 7 11 8 29 9 28 10 27 11 26 12
REMARK SMILES IDX 23 13 21 14 20 15 19 16 17 17 16 18 15 19 14 20 12 21 31 22
REMARK SMILES IDX 32 23 13 24 18 25 24 26 25 27 30 28 3 29 7 30 8 31 22 33
REMARK H PARENT 8 32 22 34
REMARK Flexibility Score: inf
ROOT
ATOM      1  C   UNL     1     138.661 149.267 141.001  1.00  0.00     0.011 C 
ATOM      2  C   UNL     1     137.459 148.684 140.216  1.00  0.00    -0.035 C 
ATOM      3  C   UNL     1     136.202 149.550 140.335  1.00  0.00     0.007 C 
ATOM      4  C   UNL     1     135.779 149.676 141.783  1.00  0.00     0.010 C 
ATOM      5  C   UNL     1     135.402 148.322 142.481  1.00  0.00     0.001 C 
ATOM      6  C   UNL     1     133.914 147.980 142.120  1.00  0.00     0.037 C 
ATOM      7  C   UNL     1     133.730 146.846 141.145  1.00  0.00    -0.026 C 
ATOM      8  C   UNL     1     134.488 145.716 141.151  1.00  0.00    -0.062 C 
ATOM      9  C   UNL     1     134.029 144.467 140.338  1.00  0.00    -0.008 C 
ATOM     10  C   UNL     1     133.384 144.882 138.977  1.00  0.00     0.012 C 
ATOM     11  C   UNL     1     133.112 143.707 138.027  1.00  0.00     0.006 C 
ATOM     12  C   UNL     1     134.394 142.902 137.713  1.00  0.00     0.003 C 
ATOM     13  C   UNL     1     134.234 141.859 136.523  1.00  0.00    -0.006 C 
ATOM     14  C   UNL     1     135.379 140.784 136.568  1.00  0.00     0.120 C 
ATOM     15  C   UNL     1     136.677 141.353 137.160  1.00  0.00     0.033 C 
ATOM     16  C   UNL     1     136.507 141.787 138.629  1.00  0.00     0.010 C 
ATOM     17  C   UNL     1     135.086 142.356 139.019  1.00  0.00    -0.025 C 
ATOM     18  C   UNL     1     135.286 143.578 140.013  1.00  0.00     0.005 C 
ATOM     19  C   UNL     1     136.077 143.244 141.298  1.00  0.00     0.006 C 
ATOM     20  C   UNL     1     136.711 144.524 141.836  1.00  0.00     0.012 C 
ATOM     21  C   UNL     1     135.674 145.670 142.145  1.00  0.00    -0.008 C 
ATOM     22  C   UNL     1     136.392 147.107 142.109  1.00  0.00     0.008 C 
ATOM     23  C   UNL     1     137.123 147.269 140.716  1.00  0.00     0.011 C 
ATOM     24  C   UNL     1     135.118 145.320 143.552  1.00  0.00     0.016 C 
ATOM     25  C   UNL     1     134.267 141.216 139.697  1.00  0.00     0.012 C 
ATOM     26  C   UNL     1     134.296 142.638 135.176  1.00  0.00     0.014 C 
ATOM     27  C   UNL     1     132.875 141.116 136.553  1.00  0.00     0.014 C 
ATOM     28  C   UNL     1     132.947 143.769 141.209  1.00  0.00     0.016 C 
ATOM     29  C   UNL     1     137.857 148.615 138.724  1.00  0.00     0.011 C 
ENDROOT
BRANCH   5  30
ATOM     30  C   UNL     1     135.509 148.694 144.007  1.00  0.00     0.163 C 
BRANCH  30  31
ATOM     31  O   UNL     1     136.799 149.028 144.425  1.00  0.00    -0.396 OA
ATOM     32  H   UNL     1     136.708 149.423 145.332  1.00  0.00     0.210 HD
ENDBRANCH  30  31
ENDBRANCH   5  30
BRANCH  14  33
ATOM     33  O   UNL     1     135.609 140.192 135.308  1.00  0.00    -0.393 OA
ATOM     34  H   UNL     1     135.734 140.915 134.638  1.00  0.00     0.210 HD
ENDBRANCH  14  33
TORSDOF 3
ENDMDL
MODEL 8
REMARK VINA RESULT:    -5.811      4.206      5.960
REMARK INTER + INTRA:          -6.570
REMARK INTER:                  -6.493
REMARK INTRA:                  -0.077
REMARK UNBOUND:                -0.080
REMARK SMILES CC1(C)CC[C@@]2(CO)CC=C3[C@@](C)(CC[C@H]4[C@]5(C)CC[C@H](O)C(C)(C)[C@H]5CC[C@]34C)[C@H]2C1
REMARK SMILES IDX 1 1 2 2 4 3 5 4 6 5 9 6 10 7 11 8 29 9 28 10 27 11 26 12
REMARK SMILES IDX 23 13 21 14 20 15 19 16 17 17 16 18 15 19 14 20 12 21 31 22
REMARK SMILES IDX 32 23 13 24 18 25 24 26 25 27 30 28 3 29 7 30 8 31 22 33
REMARK H PARENT 8 32 22 34
REMARK Flexibility Score: inf
ROOT
ATOM      1  C   UNL     1     139.371 140.603 146.747  1.00  0.00     0.011 C 
ATOM      2  C   UNL     1     140.196 140.746 145.443  1.00  0.00    -0.035 C 
ATOM      3  C   UNL     1     139.366 140.471 144.187  1.00  0.00     0.007 C 
ATOM      4  C   UNL     1     138.805 139.066 144.217  1.00  0.00     0.010 C 
ATOM      5  C   UNL     1     139.884 137.926 144.242  1.00  0.00     0.001 C 
ATOM      6  C   UNL     1     140.354 137.661 142.770  1.00  0.00     0.037 C 
ATOM      7  C   UNL     1     141.740 138.152 142.436  1.00  0.00    -0.026 C 
ATOM      8  C   UNL     1     142.794 138.073 143.293  1.00  0.00    -0.062 C 
ATOM      9  C   UNL     1     144.244 138.296 142.764  1.00  0.00    -0.008 C 
ATOM     10  C   UNL     1     144.288 139.426 141.687  1.00  0.00     0.012 C 
ATOM     11  C   UNL     1     145.706 139.854 141.283  1.00  0.00     0.006 C 
ATOM     12  C   UNL     1     146.539 140.330 142.495  1.00  0.00     0.003 C 
ATOM     13  C   UNL     1     147.904 141.049 142.108  1.00  0.00    -0.006 C 
ATOM     14  C   UNL     1     148.885 141.078 143.335  1.00  0.00     0.120 C 
ATOM     15  C   UNL     1     148.131 141.137 144.671  1.00  0.00     0.033 C 
ATOM     16  C   UNL     1     147.265 139.883 144.908  1.00  0.00     0.010 C 
ATOM     17  C   UNL     1     146.635 139.227 143.617  1.00  0.00    -0.025 C 
ATOM     18  C   UNL     1     145.161 138.749 143.960  1.00  0.00     0.005 C 
ATOM     19  C   UNL     1     145.061 137.758 145.143  1.00  0.00     0.006 C 
ATOM     20  C   UNL     1     143.663 137.850 145.748  1.00  0.00     0.012 C 
ATOM     21  C   UNL     1     142.502 137.557 144.723  1.00  0.00    -0.008 C 
ATOM     22  C   UNL     1     141.131 138.239 145.212  1.00  0.00     0.008 C 
ATOM     23  C   UNL     1     141.394 139.779 145.455  1.00  0.00     0.011 C 
ATOM     24  C   UNL     1     142.409 136.009 144.674  1.00  0.00     0.016 C 
ATOM     25  C   UNL     1     147.527 138.020 143.193  1.00  0.00     0.012 C 
ATOM     26  C   UNL     1     147.581 142.503 141.657  1.00  0.00     0.014 C 
ATOM     27  C   UNL     1     148.632 140.360 140.926  1.00  0.00     0.014 C 
ATOM     28  C   UNL     1     144.661 136.955 142.097  1.00  0.00     0.016 C 
ATOM     29  C   UNL     1     140.717 142.199 145.369  1.00  0.00     0.011 C 
ENDROOT
BRANCH   5  30
ATOM     30  C   UNL     1     139.053 136.695 144.766  1.00  0.00     0.163 C 
BRANCH  30  31
ATOM     31  O   UNL     1     137.734 136.999 145.109  1.00  0.00    -0.396 OA
ATOM     32  H   UNL     1     137.205 136.173 144.953  1.00  0.00     0.210 HD
ENDBRANCH  30  31
ENDBRANCH   5  30
BRANCH  14  33
ATOM     33  O   UNL     1     149.834 142.118 143.238  1.00  0.00    -0.393 OA
ATOM     34  H   UNL     1     149.356 142.987 143.289  1.00  0.00     0.210 HD
ENDBRANCH  14  33
TORSDOF 3
ENDMDL
MODEL 9
REMARK VINA RESULT:    -5.788      3.049      5.339
REMARK INTER + INTRA:          -6.545
REMARK INTER:                  -6.405
REMARK INTRA:                  -0.139
REMARK UNBOUND:                -0.080
REMARK SMILES CC1(C)CC[C@@]2(CO)CC=C3[C@@](C)(CC[C@H]4[C@]5(C)CC[C@H](O)C(C)(C)[C@H]5CC[C@]34C)[C@H]2C1
REMARK SMILES IDX 1 1 2 2 4 3 5 4 6 5 9 6 10 7 11 8 29 9 28 10 27 11 26 12
REMARK SMILES IDX 23 13 21 14 20 15 19 16 17 17 16 18 15 19 14 20 12 21 31 22
REMARK SMILES IDX 32 23 13 24 18 25 24 26 25 27 30 28 3 29 7 30 8 31 22 33
REMARK H PARENT 8 32 22 34
REMARK Flexibility Score: inf
ROOT
ATOM      1  C   UNL     1     140.428 136.743 141.090  1.00  0.00     0.011 C 
ATOM      2  C   UNL     1     141.177 135.810 142.077  1.00  0.00    -0.035 C 
ATOM      3  C   UNL     1     140.423 134.505 142.341  1.00  0.00     0.007 C 
ATOM      4  C   UNL     1     139.059 134.790 142.932  1.00  0.00     0.010 C 
ATOM      5  C   UNL     1     139.081 135.527 144.317  1.00  0.00     0.001 C 
ATOM      6  C   UNL     1     139.299 134.456 145.442  1.00  0.00     0.037 C 
ATOM      7  C   UNL     1     140.663 134.462 146.085  1.00  0.00    -0.026 C 
ATOM      8  C   UNL     1     141.356 135.597 146.370  1.00  0.00    -0.062 C 
ATOM      9  C   UNL     1     142.592 135.536 147.318  1.00  0.00    -0.008 C 
ATOM     10  C   UNL     1     143.425 134.235 147.082  1.00  0.00     0.012 C 
ATOM     11  C   UNL     1     144.772 134.210 147.819  1.00  0.00     0.006 C 
ATOM     12  C   UNL     1     145.665 135.414 147.442  1.00  0.00     0.003 C 
ATOM     13  C   UNL     1     147.169 135.293 147.945  1.00  0.00    -0.006 C 
ATOM     14  C   UNL     1     147.870 136.700 147.947  1.00  0.00     0.120 C 
ATOM     15  C   UNL     1     147.309 137.621 146.854  1.00  0.00     0.033 C 
ATOM     16  C   UNL     1     145.816 137.941 147.069  1.00  0.00     0.010 C 
ATOM     17  C   UNL     1     144.953 136.791 147.723  1.00  0.00    -0.025 C 
ATOM     18  C   UNL     1     143.532 136.760 147.014  1.00  0.00     0.005 C 
ATOM     19  C   UNL     1     142.749 138.091 147.077  1.00  0.00     0.006 C 
ATOM     20  C   UNL     1     141.761 138.139 145.915  1.00  0.00     0.012 C 
ATOM     21  C   UNL     1     140.743 136.935 145.890  1.00  0.00    -0.008 C 
ATOM     22  C   UNL     1     140.178 136.703 144.404  1.00  0.00     0.008 C 
ATOM     23  C   UNL     1     141.405 136.520 143.422  1.00  0.00     0.011 C 
ATOM     24  C   UNL     1     139.630 137.349 146.890  1.00  0.00     0.016 C 
ATOM     25  C   UNL     1     144.807 137.088 149.247  1.00  0.00     0.012 C 
ATOM     26  C   UNL     1     147.930 134.327 146.991  1.00  0.00     0.014 C 
ATOM     27  C   UNL     1     147.280 134.699 149.372  1.00  0.00     0.014 C 
ATOM     28  C   UNL     1     142.015 135.502 148.762  1.00  0.00     0.016 C 
ATOM     29  C   UNL     1     142.545 135.459 141.449  1.00  0.00     0.011 C 
ENDROOT
BRANCH   5  30
ATOM     30  C   UNL     1     137.620 136.107 144.408  1.00  0.00     0.163 C 
BRANCH  30  31
ATOM     31  O   UNL     1     137.496 137.421 143.954  1.00  0.00    -0.396 OA
ATOM     32  H   UNL     1     136.813 137.855 144.529  1.00  0.00     0.210 HD
ENDBRANCH  30  31
ENDBRANCH   5  30
BRANCH  14  33
ATOM     33  O   UNL     1     149.274 136.599 147.859  1.00  0.00    -0.393 OA
ATOM     34  H   UNL     1     149.564 135.788 148.354  1.00  0.00     0.210 HD
ENDBRANCH  14  33
TORSDOF 3
ENDMDL
