MODEL 1
REMARK VINA RESULT:    -3.592      0.000      0.000
REMARK INTER + INTRA:          -6.351
REMARK INTER:                  -5.482
REMARK INTRA:                  -0.869
REMARK UNBOUND:                -0.869
REMARK SMILES O=C([O-])CCCCCCCCC(=O)[O-]
REMARK SMILES IDX 7 1 6 2 5 3 4 4 2 5 1 6 3 7 8 8 9 9 10 10 11 11 12 12 13 13
REMARK SMILES IDX 14 14
REMARK H PARENT
REMARK Flexibility Score: inf
ROOT
ATOM      1  C   UNL     1       5.615   0.211  49.349  1.00  0.00     0.000 C 
ENDROOT
BRANCH   1   2
ATOM      2  C   UNL     1       6.764   1.191  49.063  1.00  0.00     0.000 C 
BRANCH   2   3
ATOM      3  C   UNL     1       6.608   1.914  47.717  1.00  0.00     0.006 C 
BRANCH   3   4
ATOM      4  C   UNL     1       5.627   3.084  47.834  1.00  0.00     0.053 C 
BRANCH   4   5
ATOM      5  C   UNL     1       6.211   4.177  48.672  1.00  0.00     0.041 C 
ATOM      6  O   UNL     1       5.807   4.356  49.850  1.00  0.00    -0.550 OA
ATOM      7  O   UNL     1       7.167   5.030  48.135  1.00  0.00    -0.550 OA
ENDBRANCH   4   5
ENDBRANCH   3   4
ENDBRANCH   2   3
ENDBRANCH   1   2
BRANCH   1   8
ATOM      8  C   UNL     1       5.081   0.331  50.787  1.00  0.00     0.000 C 
BRANCH   8   9
ATOM      9  C   UNL     1       4.102   1.504  50.957  1.00  0.00     0.000 C 
BRANCH   9  10
ATOM     10  C   UNL     1       2.994   1.514  49.889  1.00  0.00     0.006 C 
BRANCH  10  11
ATOM     11  C   UNL     1       1.757   0.721  50.331  1.00  0.00     0.053 C 
BRANCH  11  12
ATOM     12  C   UNL     1       1.495  -0.449  49.431  1.00  0.00     0.041 C 
ATOM     13  O   UNL     1       2.157  -1.512  49.565  1.00  0.00    -0.550 OA
ATOM     14  O   UNL     1       0.541  -0.353  48.426  1.00  0.00    -0.550 OA
ENDBRANCH  11  12
ENDBRANCH  10  11
ENDBRANCH   9  10
ENDBRANCH   8   9
ENDBRANCH   1   8
TORSDOF 9
ENDMDL
MODEL 2
REMARK VINA RESULT:    -3.586      3.484      4.797
REMARK INTER + INTRA:          -6.342
REMARK INTER:                  -5.521
REMARK INTRA:                  -0.821
REMARK UNBOUND:                -0.869
REMARK SMILES O=C([O-])CCCCCCCCC(=O)[O-]
REMARK SMILES IDX 7 1 6 2 5 3 4 4 2 5 1 6 3 7 8 8 9 9 10 10 11 11 12 12 13 13
REMARK SMILES IDX 14 14
REMARK H PARENT
REMARK Flexibility Score: inf
ROOT
ATOM      1  C   UNL     1       7.257   5.189  51.837  1.00  0.00     0.000 C 
ENDROOT
BRANCH   1   2
ATOM      2  C   UNL     1       7.603   6.196  50.728  1.00  0.00     0.000 C 
BRANCH   2   3
ATOM      3  C   UNL     1       6.700   6.055  49.493  1.00  0.00     0.006 C 
BRANCH   3   4
ATOM      4  C   UNL     1       7.535   5.974  48.211  1.00  0.00     0.053 C 
BRANCH   4   5
ATOM      5  C   UNL     1       8.105   7.314  47.872  1.00  0.00     0.041 C 
ATOM      6  O   UNL     1       7.344   8.302  47.701  1.00  0.00    -0.550 OA
ATOM      7  O   UNL     1       9.475   7.462  47.693  1.00  0.00    -0.550 OA
ENDBRANCH   4   5
ENDBRANCH   3   4
ENDBRANCH   2   3
ENDBRANCH   1   2
BRANCH   1   8
ATOM      8  C   UNL     1       7.972   3.840  51.655  1.00  0.00     0.000 C 
BRANCH   8   9
ATOM      9  C   UNL     1       6.996   2.653  51.623  1.00  0.00     0.000 C 
BRANCH   9  10
ATOM     10  C   UNL     1       6.087   2.663  50.382  1.00  0.00     0.006 C 
BRANCH  10  11
ATOM     11  C   UNL     1       6.668   1.831  49.232  1.00  0.00     0.053 C 
BRANCH  11  12
ATOM     12  C   UNL     1       6.254   2.366  47.894  1.00  0.00     0.041 C 
ATOM     13  O   UNL     1       6.885   2.032  46.856  1.00  0.00    -0.550 OA
ATOM     14  O   UNL     1       5.191   3.254  47.798  1.00  0.00    -0.550 OA
ENDBRANCH  11  12
ENDBRANCH  10  11
ENDBRANCH   9  10
ENDBRANCH   8   9
ENDBRANCH   1   8
TORSDOF 9
ENDMDL
MODEL 3
REMARK VINA RESULT:    -3.583      1.717      5.544
REMARK INTER + INTRA:          -6.337
REMARK INTER:                  -5.405
REMARK INTRA:                  -0.932
REMARK UNBOUND:                -0.869
REMARK SMILES O=C([O-])CCCCCCCCC(=O)[O-]
REMARK SMILES IDX 7 1 6 2 5 3 4 4 2 5 1 6 3 7 8 8 9 9 10 10 11 11 12 12 13 13
REMARK SMILES IDX 14 14
REMARK H PARENT
REMARK Flexibility Score: inf
ROOT
ATOM      1  C   UNL     1       6.388   0.798  48.646  1.00  0.00     0.000 C 
ENDROOT
BRANCH   1   2
ATOM      2  C   UNL     1       6.711   1.185  50.099  1.00  0.00     0.000 C 
BRANCH   2   3
ATOM      3  C   UNL     1       5.451   1.378  50.956  1.00  0.00     0.006 C 
BRANCH   3   4
ATOM      4  C   UNL     1       4.276   0.574  50.392  1.00  0.00     0.053 C 
BRANCH   4   5
ATOM      5  C   UNL     1       3.106   1.467  50.131  1.00  0.00     0.041 C 
ATOM      6  O   UNL     1       2.000   0.977  49.781  1.00  0.00    -0.550 OA
ATOM      7  O   UNL     1       3.248   2.846  50.224  1.00  0.00    -0.550 OA
ENDBRANCH   4   5
ENDBRANCH   3   4
ENDBRANCH   2   3
ENDBRANCH   1   2
BRANCH   1   8
ATOM      8  C   UNL     1       6.735   1.915  47.646  1.00  0.00     0.000 C 
BRANCH   8   9
ATOM      9  C   UNL     1       5.846   3.158  47.819  1.00  0.00     0.000 C 
BRANCH   9  10
ATOM     10  C   UNL     1       6.632   4.390  48.300  1.00  0.00     0.006 C 
BRANCH  10  11
ATOM     11  C   UNL     1       6.141   4.893  49.663  1.00  0.00     0.053 C 
BRANCH  11  12
ATOM     12  C   UNL     1       7.282   5.209  50.584  1.00  0.00     0.041 C 
ATOM     13  O   UNL     1       7.792   4.304  51.295  1.00  0.00    -0.550 OA
ATOM     14  O   UNL     1       7.762   6.509  50.675  1.00  0.00    -0.550 OA
ENDBRANCH  11  12
ENDBRANCH  10  11
ENDBRANCH   9  10
ENDBRANCH   8   9
ENDBRANCH   1   8
TORSDOF 9
ENDMDL
MODEL 4
REMARK VINA RESULT:    -3.571      3.565      4.832
REMARK INTER + INTRA:          -6.319
REMARK INTER:                  -5.538
REMARK INTRA:                  -0.782
REMARK UNBOUND:                -0.869
REMARK SMILES O=C([O-])CCCCCCCCC(=O)[O-]
REMARK SMILES IDX 7 1 6 2 5 3 4 4 2 5 1 6 3 7 8 8 9 9 10 10 11 11 12 12 13 13
REMARK SMILES IDX 14 14
REMARK H PARENT
REMARK Flexibility Score: inf
ROOT
ATOM      1  C   UNL     1       5.857   3.369  48.158  1.00  0.00     0.000 C 
ENDROOT
BRANCH   1   2
ATOM      2  C   UNL     1       6.805   4.574  48.273  1.00  0.00     0.000 C 
BRANCH   2   3
ATOM      3  C   UNL     1       6.462   5.489  49.458  1.00  0.00     0.006 C 
BRANCH   3   4
ATOM      4  C   UNL     1       7.573   6.516  49.696  1.00  0.00     0.053 C 
BRANCH   4   5
ATOM      5  C   UNL     1       7.797   7.340  48.468  1.00  0.00     0.041 C 
ATOM      6  O   UNL     1       6.862   8.036  47.993  1.00  0.00    -0.550 OA
ATOM      7  O   UNL     1       9.024   7.301  47.818  1.00  0.00    -0.550 OA
ENDBRANCH   4   5
ENDBRANCH   3   4
ENDBRANCH   2   3
ENDBRANCH   1   2
BRANCH   1   8
ATOM      8  C   UNL     1       6.559   2.116  47.607  1.00  0.00     0.000 C 
BRANCH   8   9
ATOM      9  C   UNL     1       6.759   1.032  48.678  1.00  0.00     0.000 C 
BRANCH   9  10
ATOM     10  C   UNL     1       5.923   1.286  49.945  1.00  0.00     0.006 C 
BRANCH  10  11
ATOM     11  C   UNL     1       6.788   1.328  51.210  1.00  0.00     0.053 C 
BRANCH  11  12
ATOM     12  C   UNL     1       6.982   2.729  51.705  1.00  0.00     0.041 C 
ATOM     13  O   UNL     1       8.116   3.274  51.637  1.00  0.00    -0.550 OA
ATOM     14  O   UNL     1       5.918   3.423  52.266  1.00  0.00    -0.550 OA
ENDBRANCH  11  12
ENDBRANCH  10  11
ENDBRANCH   9  10
ENDBRANCH   8   9
ENDBRANCH   1   8
TORSDOF 9
ENDMDL
MODEL 5
REMARK VINA RESULT:    -3.502      3.294      4.778
REMARK INTER + INTRA:          -6.214
REMARK INTER:                  -5.711
REMARK INTRA:                  -0.503
REMARK UNBOUND:                -0.869
REMARK SMILES O=C([O-])CCCCCCCCC(=O)[O-]
REMARK SMILES IDX 7 1 6 2 5 3 4 4 2 5 1 6 3 7 8 8 9 9 10 10 11 11 12 12 13 13
REMARK SMILES IDX 14 14
REMARK H PARENT
REMARK Flexibility Score: inf
ROOT
ATOM      1  C   UNL     1       5.924   4.325  49.039  1.00  0.00     0.000 C 
ENDROOT
BRANCH   1   2
ATOM      2  C   UNL     1       7.084   5.020  48.307  1.00  0.00     0.000 C 
BRANCH   2   3
ATOM      3  C   UNL     1       7.432   6.390  48.909  1.00  0.00     0.006 C 
BRANCH   3   4
ATOM      4  C   UNL     1       7.545   7.456  47.815  1.00  0.00     0.053 C 
BRANCH   4   5
ATOM      5  C   UNL     1       6.938   8.744  48.272  1.00  0.00     0.041 C 
ATOM      6  O   UNL     1       7.445   9.375  49.237  1.00  0.00    -0.550 OA
ATOM      7  O   UNL     1       5.784   9.223  47.667  1.00  0.00    -0.550 OA
ENDBRANCH   4   5
ENDBRANCH   3   4
ENDBRANCH   2   3
ENDBRANCH   1   2
BRANCH   1   8
ATOM      8  C   UNL     1       5.314   3.175  48.219  1.00  0.00     0.000 C 
BRANCH   8   9
ATOM      9  C   UNL     1       6.377   2.349  47.479  1.00  0.00     0.000 C 
BRANCH   9  10
ATOM     10  C   UNL     1       7.006   1.258  48.364  1.00  0.00     0.006 C 
BRANCH  10  11
ATOM     11  C   UNL     1       5.967   0.565  49.254  1.00  0.00     0.053 C 
BRANCH  11  12
ATOM     12  C   UNL     1       6.371   0.581  50.698  1.00  0.00     0.041 C 
ATOM     13  O   UNL     1       6.901   1.610  51.196  1.00  0.00    -0.550 OA
ATOM     14  O   UNL     1       6.188  -0.548  51.485  1.00  0.00    -0.550 OA
ENDBRANCH  11  12
ENDBRANCH  10  11
ENDBRANCH   9  10
ENDBRANCH   8   9
ENDBRANCH   1   8
TORSDOF 9
ENDMDL
MODEL 6
REMARK VINA RESULT:    -3.496      1.765      3.128
REMARK INTER + INTRA:          -6.205
REMARK INTER:                  -5.599
REMARK INTRA:                  -0.606
REMARK UNBOUND:                -0.869
REMARK SMILES O=C([O-])CCCCCCCCC(=O)[O-]
REMARK SMILES IDX 7 1 6 2 5 3 4 4 2 5 1 6 3 7 8 8 9 9 10 10 11 11 12 12 13 13
REMARK SMILES IDX 14 14
REMARK H PARENT
REMARK Flexibility Score: inf
ROOT
ATOM      1  C   UNL     1       5.709   3.076  47.876  1.00  0.00     0.000 C 
ENDROOT
BRANCH   1   2
ATOM      2  C   UNL     1       5.724   3.646  49.304  1.00  0.00     0.000 C 
BRANCH   2   3
ATOM      3  C   UNL     1       6.861   4.654  49.530  1.00  0.00     0.006 C 
BRANCH   3   4
ATOM      4  C   UNL     1       7.199   5.397  48.234  1.00  0.00     0.053 C 
BRANCH   4   5
ATOM      5  C   UNL     1       7.644   6.793  48.530  1.00  0.00     0.041 C 
ATOM      6  O   UNL     1       7.686   7.653  47.612  1.00  0.00    -0.550 OA
ATOM      7  O   UNL     1       8.062   7.133  49.810  1.00  0.00    -0.550 OA
ENDBRANCH   4   5
ENDBRANCH   3   4
ENDBRANCH   2   3
ENDBRANCH   1   2
BRANCH   1   8
ATOM      8  C   UNL     1       6.636   1.859  47.716  1.00  0.00     0.000 C 
BRANCH   8   9
ATOM      9  C   UNL     1       6.816   1.077  49.026  1.00  0.00     0.000 C 
BRANCH   9  10
ATOM     10  C   UNL     1       5.739  -0.005  49.226  1.00  0.00     0.006 C 
BRANCH  10  11
ATOM     11  C   UNL     1       4.865   0.268  50.456  1.00  0.00     0.053 C 
BRANCH  11  12
ATOM     12  C   UNL     1       3.426   0.465  50.084  1.00  0.00     0.041 C 
ATOM     13  O   UNL     1       2.669  -0.530  49.933  1.00  0.00    -0.550 OA
ATOM     14  O   UNL     1       2.931   1.745  49.876  1.00  0.00    -0.550 OA
ENDBRANCH  11  12
ENDBRANCH  10  11
ENDBRANCH   9  10
ENDBRANCH   8   9
ENDBRANCH   1   8
TORSDOF 9
ENDMDL
MODEL 7
REMARK VINA RESULT:    -3.442      2.917      6.269
REMARK INTER + INTRA:          -6.122
REMARK INTER:                  -5.346
REMARK INTRA:                  -0.776
REMARK UNBOUND:                -0.869
REMARK SMILES O=C([O-])CCCCCCCCC(=O)[O-]
REMARK SMILES IDX 7 1 6 2 5 3 4 4 2 5 1 6 3 7 8 8 9 9 10 10 11 11 12 12 13 13
REMARK SMILES IDX 14 14
REMARK H PARENT
REMARK Flexibility Score: inf
ROOT
ATOM      1  C   UNL     1       4.978   3.618  48.990  1.00  0.00     0.000 C 
ENDROOT
BRANCH   1   2
ATOM      2  C   UNL     1       6.150   3.427  48.013  1.00  0.00     0.000 C 
BRANCH   2   3
ATOM      3  C   UNL     1       6.361   1.957  47.619  1.00  0.00     0.006 C 
BRANCH   3   4
ATOM      4  C   UNL     1       7.070   1.187  48.737  1.00  0.00     0.053 C 
BRANCH   4   5
ATOM      5  C   UNL     1       6.097   0.328  49.480  1.00  0.00     0.041 C 
ATOM      6  O   UNL     1       5.806   0.589  50.677  1.00  0.00    -0.550 OA
ATOM      7  O   UNL     1       5.548  -0.792  48.869  1.00  0.00    -0.550 OA
ENDBRANCH   4   5
ENDBRANCH   3   4
ENDBRANCH   2   3
ENDBRANCH   1   2
BRANCH   1   8
ATOM      8  C   UNL     1       5.356   4.485  50.203  1.00  0.00     0.000 C 
BRANCH   8   9
ATOM      9  C   UNL     1       6.867   4.479  50.485  1.00  0.00     0.000 C 
BRANCH   9  10
ATOM     10  C   UNL     1       7.486   5.887  50.445  1.00  0.00     0.006 C 
BRANCH  10  11
ATOM     11  C   UNL     1       6.577   6.899  49.737  1.00  0.00     0.053 C 
BRANCH  11  12
ATOM     12  C   UNL     1       7.154   7.343  48.426  1.00  0.00     0.041 C 
ATOM     13  O   UNL     1       6.712   8.376  47.856  1.00  0.00    -0.550 OA
ATOM     14  O   UNL     1       8.158   6.599  47.820  1.00  0.00    -0.550 OA
ENDBRANCH  11  12
ENDBRANCH  10  11
ENDBRANCH   9  10
ENDBRANCH   8   9
ENDBRANCH   1   8
TORSDOF 9
ENDMDL
MODEL 8
REMARK VINA RESULT:    -3.435      1.966      3.422
REMARK INTER + INTRA:          -6.111
REMARK INTER:                  -5.204
REMARK INTRA:                  -0.907
REMARK UNBOUND:                -0.869
REMARK SMILES O=C([O-])CCCCCCCCC(=O)[O-]
REMARK SMILES IDX 7 1 6 2 5 3 4 4 2 5 1 6 3 7 8 8 9 9 10 10 11 11 12 12 13 13
REMARK SMILES IDX 14 14
REMARK H PARENT
REMARK Flexibility Score: inf
ROOT
ATOM      1  C   UNL     1       5.775   3.333  48.013  1.00  0.00     0.000 C 
ENDROOT
BRANCH   1   2
ATOM      2  C   UNL     1       6.751   4.480  48.324  1.00  0.00     0.000 C 
BRANCH   2   3
ATOM      3  C   UNL     1       6.405   5.221  49.624  1.00  0.00     0.006 C 
BRANCH   3   4
ATOM      4  C   UNL     1       6.105   4.231  50.754  1.00  0.00     0.053 C 
BRANCH   4   5
ATOM      5  C   UNL     1       7.311   4.039  51.617  1.00  0.00     0.041 C 
ATOM      6  O   UNL     1       7.937   2.947  51.597  1.00  0.00    -0.550 OA
ATOM      7  O   UNL     1       7.716   5.048  52.482  1.00  0.00    -0.550 OA
ENDBRANCH   4   5
ENDBRANCH   3   4
ENDBRANCH   2   3
ENDBRANCH   1   2
BRANCH   1   8
ATOM      8  C   UNL     1       6.495   2.048  47.572  1.00  0.00     0.000 C 
BRANCH   8   9
ATOM      9  C   UNL     1       6.950   1.188  48.762  1.00  0.00     0.000 C 
BRANCH   9  10
ATOM     10  C   UNL     1       5.880   0.174  49.207  1.00  0.00     0.006 C 
BRANCH  10  11
ATOM     11  C   UNL     1       5.093   0.663  50.430  1.00  0.00     0.053 C 
BRANCH  11  12
ATOM     12  C   UNL     1       3.630   0.800  50.131  1.00  0.00     0.041 C 
ATOM     13  O   UNL     1       3.130   1.937  49.922  1.00  0.00    -0.550 OA
ATOM     14  O   UNL     1       2.816  -0.324  50.111  1.00  0.00    -0.550 OA
ENDBRANCH  11  12
ENDBRANCH  10  11
ENDBRANCH   9  10
ENDBRANCH   8   9
ENDBRANCH   1   8
TORSDOF 9
ENDMDL
MODEL 9
REMARK VINA RESULT:    -3.417      3.351      7.093
REMARK INTER + INTRA:          -6.083
REMARK INTER:                  -5.426
REMARK INTRA:                  -0.658
REMARK UNBOUND:                -0.869
REMARK SMILES O=C([O-])CCCCCCCCC(=O)[O-]
REMARK SMILES IDX 7 1 6 2 5 3 4 4 2 5 1 6 3 7 8 8 9 9 10 10 11 11 12 12 13 13
REMARK SMILES IDX 14 14
REMARK H PARENT
REMARK Flexibility Score: inf
ROOT
ATOM      1  C   UNL     1       6.643   3.666  50.833  1.00  0.00     0.000 C 
ENDROOT
BRANCH   1   2
ATOM      2  C   UNL     1       5.190   3.857  50.371  1.00  0.00     0.000 C 
BRANCH   2   3
ATOM      3  C   UNL     1       4.770   2.843  49.296  1.00  0.00     0.006 C 
BRANCH   3   4
ATOM      4  C   UNL     1       5.497   3.113  47.975  1.00  0.00     0.053 C 
BRANCH   4   5
ATOM      5  C   UNL     1       6.461   2.010  47.673  1.00  0.00     0.041 C 
ATOM      6  O   UNL     1       7.121   2.021  46.601  1.00  0.00    -0.550 OA
ATOM      7  O   UNL     1       6.594   0.941  48.551  1.00  0.00    -0.550 OA
ENDBRANCH   4   5
ENDBRANCH   3   4
ENDBRANCH   2   3
ENDBRANCH   1   2
BRANCH   1   8
ATOM      8  C   UNL     1       7.453   4.973  50.792  1.00  0.00     0.000 C 
BRANCH   8   9
ATOM      9  C   UNL     1       6.803   6.042  49.899  1.00  0.00     0.000 C 
BRANCH   9  10
ATOM     10  C   UNL     1       7.486   6.167  48.526  1.00  0.00     0.006 C 
BRANCH  10  11
ATOM     11  C   UNL     1       7.545   7.620  48.038  1.00  0.00     0.053 C 
BRANCH  11  12
ATOM     12  C   UNL     1       8.957   8.098  47.883  1.00  0.00     0.041 C 
ATOM     13  O   UNL     1       9.861   7.298  47.525  1.00  0.00    -0.550 OA
ATOM     14  O   UNL     1       9.278   9.420  48.161  1.00  0.00    -0.550 OA
ENDBRANCH  11  12
ENDBRANCH  10  11
ENDBRANCH   9  10
ENDBRANCH   8   9
ENDBRANCH   1   8
TORSDOF 9
ENDMDL
