MODEL 1
REMARK VINA RESULT:    -4.975      0.000      0.000
REMARK INTER + INTRA:         -11.231
REMARK INTER:                  -8.756
REMARK INTRA:                  -2.475
REMARK UNBOUND:                -2.475
REMARK SMILES CCCCCCC=CCCCCCCCC(=O)[O-]
REMARK SMILES IDX 10 1 11 2 12 3 13 4 14 5 15 6 16 7 17 8 18 9 9 10 8 11 7 12
REMARK SMILES IDX 6 13 5 14 4 15 3 16 2 17 1 18
REMARK H PARENT
REMARK Flexibility Score: inf
ROOT
ATOM      1  C   UNL     1     149.818 168.701 149.046  1.00  0.00     0.004 C 
ENDROOT
BRANCH   1   2
ATOM      2  C   UNL     1     151.019 168.690 150.015  1.00  0.00     0.000 C 
BRANCH   2   3
ATOM      3  C   UNL     1     150.834 169.512 151.303  1.00  0.00     0.000 C 
BRANCH   3   4
ATOM      4  C   UNL     1     151.469 168.843 152.534  1.00  0.00     0.000 C 
BRANCH   4   5
ATOM      5  C   UNL     1     152.637 169.659 153.119  1.00  0.00     0.006 C 
BRANCH   5   6
ATOM      6  C   UNL     1     153.977 168.908 153.166  1.00  0.00     0.053 C 
BRANCH   6   7
ATOM      7  C   UNL     1     154.761 169.075 151.901  1.00  0.00     0.041 C 
ATOM      8  O   UNL     1     155.536 170.058 151.760  1.00  0.00    -0.550 OA
ATOM      9  O   UNL     1     154.664 168.127 150.891  1.00  0.00    -0.550 OA
ENDBRANCH   6   7
ENDBRANCH   5   6
ENDBRANCH   4   5
ENDBRANCH   3   4
ENDBRANCH   2   3
ENDBRANCH   1   2
BRANCH   1  10
ATOM     10  C   UNL     1     148.744 169.760 149.351  1.00  0.00     0.027 C 
BRANCH  10  11
ATOM     11  C   UNL     1     147.391 169.136 149.605  1.00  0.00    -0.031 C 
ATOM     12  C   UNL     1     146.753 169.110 150.790  1.00  0.00    -0.031 C 
BRANCH  12  13
ATOM     13  C   UNL     1     147.265 169.721 152.074  1.00  0.00     0.027 C 
BRANCH  13  14
ATOM     14  C   UNL     1     147.479 168.685 153.188  1.00  0.00     0.004 C 
BRANCH  14  15
ATOM     15  C   UNL     1     147.363 167.240 152.674  1.00  0.00     0.000 C 
BRANCH  15  16
ATOM     16  C   UNL     1     148.722 166.518 152.610  1.00  0.00    -0.000 C 
BRANCH  16  17
ATOM     17  C   UNL     1     149.028 165.832 151.267  1.00  0.00    -0.003 C 
ATOM     18  C   UNL     1     147.770 165.485 150.472  1.00  0.00     0.004 C 
ENDBRANCH  16  17
ENDBRANCH  15  16
ENDBRANCH  14  15
ENDBRANCH  13  14
ENDBRANCH  12  13
ENDBRANCH  10  11
ENDBRANCH   1  10
TORSDOF 13
ENDMDL
MODEL 2
REMARK VINA RESULT:    -4.937      1.590      2.605
REMARK INTER + INTRA:         -11.165
REMARK INTER:                  -8.767
REMARK INTRA:                  -2.398
REMARK UNBOUND:                -2.475
REMARK SMILES CCCCCCC=CCCCCCCCC(=O)[O-]
REMARK SMILES IDX 10 1 11 2 12 3 13 4 14 5 15 6 16 7 17 8 18 9 9 10 8 11 7 12
REMARK SMILES IDX 6 13 5 14 4 15 3 16 2 17 1 18
REMARK H PARENT
REMARK Flexibility Score: inf
ROOT
ATOM      1  C   UNL     1     149.111 171.994 151.236  1.00  0.00     0.004 C 
ENDROOT
BRANCH   1   2
ATOM      2  C   UNL     1     150.232 171.931 152.294  1.00  0.00     0.000 C 
BRANCH   2   3
ATOM      3  C   UNL     1     149.999 170.934 153.443  1.00  0.00     0.000 C 
BRANCH   3   4
ATOM      4  C   UNL     1     151.155 169.934 153.611  1.00  0.00     0.000 C 
BRANCH   4   5
ATOM      5  C   UNL     1     152.517 170.526 153.200  1.00  0.00     0.006 C 
BRANCH   5   6
ATOM      6  C   UNL     1     153.330 169.644 152.240  1.00  0.00     0.053 C 
BRANCH   6   7
ATOM      7  C   UNL     1     154.788 169.627 152.588  1.00  0.00     0.041 C 
ATOM      8  O   UNL     1     155.167 169.191 153.707  1.00  0.00    -0.550 OA
ATOM      9  O   UNL     1     155.729 170.061 151.663  1.00  0.00    -0.550 OA
ENDBRANCH   6   7
ENDBRANCH   5   6
ENDBRANCH   4   5
ENDBRANCH   3   4
ENDBRANCH   2   3
ENDBRANCH   1   2
BRANCH   1  10
ATOM     10  C   UNL     1     148.415 170.654 150.942  1.00  0.00     0.027 C 
BRANCH  10  11
ATOM     11  C   UNL     1     148.726 170.147 149.554  1.00  0.00    -0.031 C 
ATOM     12  C   UNL     1     149.581 169.149 149.260  1.00  0.00    -0.031 C 
BRANCH  12  13
ATOM     13  C   UNL     1     150.366 168.343 150.267  1.00  0.00     0.027 C 
BRANCH  13  14
ATOM     14  C   UNL     1     149.619 167.088 150.745  1.00  0.00     0.004 C 
BRANCH  14  15
ATOM     15  C   UNL     1     149.202 167.183 152.223  1.00  0.00     0.000 C 
BRANCH  15  16
ATOM     16  C   UNL     1     147.678 167.312 152.405  1.00  0.00    -0.000 C 
BRANCH  16  17
ATOM     17  C   UNL     1     146.846 166.981 151.154  1.00  0.00    -0.003 C 
ATOM     18  C   UNL     1     145.822 168.063 150.813  1.00  0.00     0.004 C 
ENDBRANCH  16  17
ENDBRANCH  15  16
ENDBRANCH  14  15
ENDBRANCH  13  14
ENDBRANCH  12  13
ENDBRANCH  10  11
ENDBRANCH   1  10
TORSDOF 13
ENDMDL
MODEL 3
REMARK VINA RESULT:    -4.878      1.687      3.039
REMARK INTER + INTRA:         -11.061
REMARK INTER:                  -9.024
REMARK INTRA:                  -2.037
REMARK UNBOUND:                -2.475
REMARK SMILES CCCCCCC=CCCCCCCCC(=O)[O-]
REMARK SMILES IDX 10 1 11 2 12 3 13 4 14 5 15 6 16 7 17 8 18 9 9 10 8 11 7 12
REMARK SMILES IDX 6 13 5 14 4 15 3 16 2 17 1 18
REMARK H PARENT
REMARK Flexibility Score: inf
ROOT
ATOM      1  C   UNL     1     149.211 171.509 151.597  1.00  0.00     0.004 C 
ENDROOT
BRANCH   1   2
ATOM      2  C   UNL     1     150.039 171.076 152.825  1.00  0.00     0.000 C 
BRANCH   2   3
ATOM      3  C   UNL     1     151.384 171.803 153.004  1.00  0.00     0.000 C 
BRANCH   3   4
ATOM      4  C   UNL     1     152.502 170.875 153.507  1.00  0.00     0.000 C 
BRANCH   4   5
ATOM      5  C   UNL     1     152.602 169.569 152.696  1.00  0.00     0.006 C 
BRANCH   5   6
ATOM      6  C   UNL     1     153.365 168.438 153.402  1.00  0.00     0.053 C 
BRANCH   6   7
ATOM      7  C   UNL     1     154.786 168.342 152.938  1.00  0.00     0.041 C 
ATOM      8  O   UNL     1     155.048 167.914 151.783  1.00  0.00    -0.550 OA
ATOM      9  O   UNL     1     155.819 168.760 153.767  1.00  0.00    -0.550 OA
ENDBRANCH   6   7
ENDBRANCH   5   6
ENDBRANCH   4   5
ENDBRANCH   3   4
ENDBRANCH   2   3
ENDBRANCH   1   2
BRANCH   1  10
ATOM     10  C   UNL     1     148.272 170.431 151.031  1.00  0.00     0.027 C 
BRANCH  10  11
ATOM     11  C   UNL     1     148.619 170.071 149.605  1.00  0.00    -0.031 C 
ATOM     12  C   UNL     1     149.531 169.155 149.230  1.00  0.00    -0.031 C 
BRANCH  12  13
ATOM     13  C   UNL     1     150.355 168.305 150.167  1.00  0.00     0.027 C 
BRANCH  13  14
ATOM     14  C   UNL     1     149.534 167.209 150.865  1.00  0.00     0.004 C 
BRANCH  14  15
ATOM     15  C   UNL     1     149.891 167.071 152.355  1.00  0.00     0.000 C 
BRANCH  15  16
ATOM     16  C   UNL     1     148.810 167.654 153.284  1.00  0.00    -0.000 C 
BRANCH  16  17
ATOM     17  C   UNL     1     149.184 167.677 154.777  1.00  0.00    -0.003 C 
ATOM     18  C   UNL     1     148.684 168.928 155.499  1.00  0.00     0.004 C 
ENDBRANCH  16  17
ENDBRANCH  15  16
ENDBRANCH  14  15
ENDBRANCH  13  14
ENDBRANCH  12  13
ENDBRANCH  10  11
ENDBRANCH   1  10
TORSDOF 13
ENDMDL
MODEL 4
REMARK VINA RESULT:    -4.877      1.405      2.539
REMARK INTER + INTRA:         -11.059
REMARK INTER:                  -9.189
REMARK INTRA:                  -1.870
REMARK UNBOUND:                -2.475
REMARK SMILES CCCCCCC=CCCCCCCCC(=O)[O-]
REMARK SMILES IDX 10 1 11 2 12 3 13 4 14 5 15 6 16 7 17 8 18 9 9 10 8 11 7 12
REMARK SMILES IDX 6 13 5 14 4 15 3 16 2 17 1 18
REMARK H PARENT
REMARK Flexibility Score: inf
ROOT
ATOM      1  C   UNL     1     151.437 168.702 150.494  1.00  0.00     0.004 C 
ENDROOT
BRANCH   1   2
ATOM      2  C   UNL     1     151.140 168.955 151.987  1.00  0.00     0.000 C 
BRANCH   2   3
ATOM      3  C   UNL     1     151.022 170.435 152.395  1.00  0.00     0.000 C 
BRANCH   3   4
ATOM      4  C   UNL     1     152.236 170.932 153.198  1.00  0.00     0.000 C 
BRANCH   4   5
ATOM      5  C   UNL     1     153.274 169.823 153.455  1.00  0.00     0.006 C 
BRANCH   5   6
ATOM      6  C   UNL     1     154.569 169.962 152.639  1.00  0.00     0.053 C 
BRANCH   6   7
ATOM      7  C   UNL     1     155.017 168.652 152.066  1.00  0.00     0.041 C 
ATOM      8  O   UNL     1     154.945 168.444 150.827  1.00  0.00    -0.550 OA
ATOM      9  O   UNL     1     155.547 167.674 152.898  1.00  0.00    -0.550 OA
ENDBRANCH   6   7
ENDBRANCH   5   6
ENDBRANCH   4   5
ENDBRANCH   3   4
ENDBRANCH   2   3
ENDBRANCH   1   2
BRANCH   1  10
ATOM     10  C   UNL     1     150.351 167.918 149.738  1.00  0.00     0.027 C 
BRANCH  10  11
ATOM     11  C   UNL     1     149.672 168.764 148.686  1.00  0.00    -0.031 C 
ATOM     12  C   UNL     1     148.636 169.597 148.901  1.00  0.00    -0.031 C 
BRANCH  12  13
ATOM     13  C   UNL     1     147.982 169.852 150.239  1.00  0.00     0.027 C 
BRANCH  13  14
ATOM     14  C   UNL     1     146.706 169.023 150.452  1.00  0.00     0.004 C 
BRANCH  14  15
ATOM     15  C   UNL     1     146.811 168.092 151.672  1.00  0.00     0.000 C 
BRANCH  15  16
ATOM     16  C   UNL     1     147.165 168.845 152.968  1.00  0.00    -0.000 C 
BRANCH  16  17
ATOM     17  C   UNL     1     148.176 168.127 153.878  1.00  0.00    -0.003 C 
ATOM     18  C   UNL     1     148.688 169.009 155.016  1.00  0.00     0.004 C 
ENDBRANCH  16  17
ENDBRANCH  15  16
ENDBRANCH  14  15
ENDBRANCH  13  14
ENDBRANCH  12  13
ENDBRANCH  10  11
ENDBRANCH   1  10
TORSDOF 13
ENDMDL
MODEL 5
REMARK VINA RESULT:    -4.847      0.874      1.839
REMARK INTER + INTRA:         -11.006
REMARK INTER:                  -8.917
REMARK INTRA:                  -2.089
REMARK UNBOUND:                -2.475
REMARK SMILES CCCCCCC=CCCCCCCCC(=O)[O-]
REMARK SMILES IDX 10 1 11 2 12 3 13 4 14 5 15 6 16 7 17 8 18 9 9 10 8 11 7 12
REMARK SMILES IDX 6 13 5 14 4 15 3 16 2 17 1 18
REMARK H PARENT
REMARK Flexibility Score: inf
ROOT
ATOM      1  C   UNL     1     151.444 168.717 150.434  1.00  0.00     0.004 C 
ENDROOT
BRANCH   1   2
ATOM      2  C   UNL     1     151.147 168.890 151.938  1.00  0.00     0.000 C 
BRANCH   2   3
ATOM      3  C   UNL     1     151.348 170.313 152.491  1.00  0.00     0.000 C 
BRANCH   3   4
ATOM      4  C   UNL     1     152.633 170.452 153.326  1.00  0.00     0.000 C 
BRANCH   4   5
ATOM      5  C   UNL     1     153.295 169.094 153.630  1.00  0.00     0.006 C 
BRANCH   5   6
ATOM      6  C   UNL     1     154.815 169.064 153.408  1.00  0.00     0.053 C 
BRANCH   6   7
ATOM      7  C   UNL     1     155.177 169.222 151.963  1.00  0.00     0.041 C 
ATOM      8  O   UNL     1     154.860 168.333 151.129  1.00  0.00    -0.550 OA
ATOM      9  O   UNL     1     155.832 170.368 151.531  1.00  0.00    -0.550 OA
ENDBRANCH   6   7
ENDBRANCH   5   6
ENDBRANCH   4   5
ENDBRANCH   3   4
ENDBRANCH   2   3
ENDBRANCH   1   2
BRANCH   1  10
ATOM     10  C   UNL     1     150.321 168.054 149.619  1.00  0.00     0.027 C 
BRANCH  10  11
ATOM     11  C   UNL     1     149.521 169.065 148.832  1.00  0.00    -0.031 C 
ATOM     12  C   UNL     1     148.381 169.652 149.243  1.00  0.00    -0.031 C 
BRANCH  12  13
ATOM     13  C   UNL     1     147.710 169.422 150.577  1.00  0.00     0.027 C 
BRANCH  13  14
ATOM     14  C   UNL     1     146.475 168.512 150.480  1.00  0.00     0.004 C 
BRANCH  14  15
ATOM     15  C   UNL     1     146.655 167.199 151.260  1.00  0.00     0.000 C 
BRANCH  15  16
ATOM     16  C   UNL     1     147.820 167.256 152.265  1.00  0.00    -0.000 C 
BRANCH  16  17
ATOM     17  C   UNL     1     148.738 166.021 152.262  1.00  0.00    -0.003 C 
ATOM     18  C   UNL     1     148.642 165.208 150.971  1.00  0.00     0.004 C 
ENDBRANCH  16  17
ENDBRANCH  15  16
ENDBRANCH  14  15
ENDBRANCH  13  14
ENDBRANCH  12  13
ENDBRANCH  10  11
ENDBRANCH   1  10
TORSDOF 13
ENDMDL
MODEL 6
REMARK VINA RESULT:    -4.795      2.760      5.660
REMARK INTER + INTRA:         -10.914
REMARK INTER:                  -8.726
REMARK INTRA:                  -2.187
REMARK UNBOUND:                -2.475
REMARK SMILES CCCCCCC=CCCCCCCCC(=O)[O-]
REMARK SMILES IDX 10 1 11 2 12 3 13 4 14 5 15 6 16 7 17 8 18 9 9 10 8 11 7 12
REMARK SMILES IDX 6 13 5 14 4 15 3 16 2 17 1 18
REMARK H PARENT
REMARK Flexibility Score: inf
ROOT
ATOM      1  C   UNL     1     149.824 168.699 149.046  1.00  0.00     0.004 C 
ENDROOT
BRANCH   1   2
ATOM      2  C   UNL     1     148.687 169.718 149.273  1.00  0.00     0.000 C 
BRANCH   2   3
ATOM      3  C   UNL     1     147.308 169.108 149.581  1.00  0.00     0.000 C 
BRANCH   3   4
ATOM      4  C   UNL     1     146.871 169.326 151.040  1.00  0.00     0.000 C 
BRANCH   4   5
ATOM      5  C   UNL     1     146.493 168.012 151.750  1.00  0.00     0.006 C 
BRANCH   5   6
ATOM      6  C   UNL     1     147.242 166.772 151.236  1.00  0.00     0.053 C 
BRANCH   6   7
ATOM      7  C   UNL     1     147.724 165.902 152.357  1.00  0.00     0.041 C 
ATOM      8  O   UNL     1     148.285 166.414 153.361  1.00  0.00    -0.550 OA
ATOM      9  O   UNL     1     147.523 164.529 152.307  1.00  0.00    -0.550 OA
ENDBRANCH   6   7
ENDBRANCH   5   6
ENDBRANCH   4   5
ENDBRANCH   3   4
ENDBRANCH   2   3
ENDBRANCH   1   2
BRANCH   1  10
ATOM     10  C   UNL     1     150.977 168.772 150.063  1.00  0.00     0.027 C 
BRANCH  10  11
ATOM     11  C   UNL     1     150.514 168.459 151.466  1.00  0.00    -0.031 C 
ATOM     12  C   UNL     1     150.283 169.366 152.434  1.00  0.00    -0.031 C 
BRANCH  12  13
ATOM     13  C   UNL     1     150.424 170.863 152.283  1.00  0.00     0.027 C 
BRANCH  13  14
ATOM     14  C   UNL     1     151.670 171.424 152.986  1.00  0.00     0.004 C 
BRANCH  14  15
ATOM     15  C   UNL     1     152.518 170.320 153.640  1.00  0.00     0.000 C 
BRANCH  15  16
ATOM     16  C   UNL     1     153.870 170.109 152.933  1.00  0.00    -0.000 C 
BRANCH  16  17
ATOM     17  C   UNL     1     154.204 168.644 152.600  1.00  0.00    -0.003 C 
ATOM     18  C   UNL     1     154.575 168.433 151.133  1.00  0.00     0.004 C 
ENDBRANCH  16  17
ENDBRANCH  15  16
ENDBRANCH  14  15
ENDBRANCH  13  14
ENDBRANCH  12  13
ENDBRANCH  10  11
ENDBRANCH   1  10
TORSDOF 13
ENDMDL
MODEL 7
REMARK VINA RESULT:    -4.761      1.526      1.947
REMARK INTER + INTRA:         -10.854
REMARK INTER:                  -8.423
REMARK INTRA:                  -2.431
REMARK UNBOUND:                -2.475
REMARK SMILES CCCCCCC=CCCCCCCCC(=O)[O-]
REMARK SMILES IDX 10 1 11 2 12 3 13 4 14 5 15 6 16 7 17 8 18 9 9 10 8 11 7 12
REMARK SMILES IDX 6 13 5 14 4 15 3 16 2 17 1 18
REMARK H PARENT
REMARK Flexibility Score: inf
ROOT
ATOM      1  C   UNL     1     149.556 168.169 150.000  1.00  0.00     0.004 C 
ENDROOT
BRANCH   1   2
ATOM      2  C   UNL     1     150.966 168.785 150.116  1.00  0.00     0.000 C 
BRANCH   2   3
ATOM      3  C   UNL     1     151.613 168.695 151.509  1.00  0.00     0.000 C 
BRANCH   3   4
ATOM      4  C   UNL     1     151.600 170.036 152.261  1.00  0.00     0.000 C 
BRANCH   4   5
ATOM      5  C   UNL     1     152.667 170.107 153.370  1.00  0.00     0.006 C 
BRANCH   5   6
ATOM      6  C   UNL     1     154.105 169.856 152.888  1.00  0.00     0.053 C 
BRANCH   6   7
ATOM      7  C   UNL     1     154.735 168.686 153.579  1.00  0.00     0.041 C 
ATOM      8  O   UNL     1     154.018 167.750 154.021  1.00  0.00    -0.550 OA
ATOM      9  O   UNL     1     156.116 168.613 153.704  1.00  0.00    -0.550 OA
ENDBRANCH   6   7
ENDBRANCH   5   6
ENDBRANCH   4   5
ENDBRANCH   3   4
ENDBRANCH   2   3
ENDBRANCH   1   2
BRANCH   1  10
ATOM     10  C   UNL     1     148.440 169.160 149.627  1.00  0.00     0.027 C 
BRANCH  10  11
ATOM     11  C   UNL     1     148.753 170.564 150.088  1.00  0.00    -0.031 C 
ATOM     12  C   UNL     1     148.318 171.126 151.232  1.00  0.00    -0.031 C 
BRANCH  12  13
ATOM     13  C   UNL     1     147.459 170.445 152.271  1.00  0.00     0.027 C 
BRANCH  13  14
ATOM     14  C   UNL     1     148.206 170.173 153.586  1.00  0.00     0.004 C 
BRANCH  14  15
ATOM     15  C   UNL     1     148.462 168.673 153.813  1.00  0.00     0.000 C 
BRANCH  15  16
ATOM     16  C   UNL     1     147.517 167.776 152.992  1.00  0.00    -0.000 C 
BRANCH  16  17
ATOM     17  C   UNL     1     147.955 166.305 152.882  1.00  0.00    -0.003 C 
ATOM     18  C   UNL     1     149.449 166.105 153.137  1.00  0.00     0.004 C 
ENDBRANCH  16  17
ENDBRANCH  15  16
ENDBRANCH  14  15
ENDBRANCH  13  14
ENDBRANCH  12  13
ENDBRANCH  10  11
ENDBRANCH   1  10
TORSDOF 13
ENDMDL
MODEL 8
REMARK VINA RESULT:    -4.729      3.241      6.030
REMARK INTER + INTRA:         -10.798
REMARK INTER:                  -9.067
REMARK INTRA:                  -1.730
REMARK UNBOUND:                -2.475
REMARK SMILES CCCCCCC=CCCCCCCCC(=O)[O-]
REMARK SMILES IDX 10 1 11 2 12 3 13 4 14 5 15 6 16 7 17 8 18 9 9 10 8 11 7 12
REMARK SMILES IDX 6 13 5 14 4 15 3 16 2 17 1 18
REMARK H PARENT
REMARK Flexibility Score: inf
ROOT
ATOM      1  C   UNL     1     150.100 168.762 149.525  1.00  0.00     0.004 C 
ENDROOT
BRANCH   1   2
ATOM      2  C   UNL     1     148.777 169.436 149.105  1.00  0.00     0.000 C 
BRANCH   2   3
ATOM      3  C   UNL     1     147.512 168.579 149.292  1.00  0.00     0.000 C 
BRANCH   3   4
ATOM      4  C   UNL     1     146.636 169.055 150.463  1.00  0.00     0.000 C 
BRANCH   4   5
ATOM      5  C   UNL     1     146.558 168.024 151.605  1.00  0.00     0.006 C 
BRANCH   5   6
ATOM      6  C   UNL     1     147.402 168.376 152.839  1.00  0.00     0.053 C 
BRANCH   6   7
ATOM      7  C   UNL     1     146.636 169.200 153.829  1.00  0.00     0.041 C 
ATOM      8  O   UNL     1     145.451 168.893 154.126  1.00  0.00    -0.550 OA
ATOM      9  O   UNL     1     147.242 170.284 154.449  1.00  0.00    -0.550 OA
ENDBRANCH   6   7
ENDBRANCH   5   6
ENDBRANCH   4   5
ENDBRANCH   3   4
ENDBRANCH   2   3
ENDBRANCH   1   2
BRANCH   1  10
ATOM     10  C   UNL     1     150.634 169.177 150.907  1.00  0.00     0.027 C 
BRANCH  10  11
ATOM     11  C   UNL     1     149.973 170.438 151.413  1.00  0.00    -0.031 C 
ATOM     12  C   UNL     1     150.187 171.004 152.615  1.00  0.00    -0.031 C 
BRANCH  12  13
ATOM     13  C   UNL     1     151.144 170.493 153.666  1.00  0.00     0.027 C 
BRANCH  13  14
ATOM     14  C   UNL     1     152.516 171.183 153.616  1.00  0.00     0.004 C 
BRANCH  14  15
ATOM     15  C   UNL     1     153.525 170.417 152.743  1.00  0.00     0.000 C 
BRANCH  15  16
ATOM     16  C   UNL     1     153.947 169.071 153.361  1.00  0.00    -0.000 C 
BRANCH  16  17
ATOM     17  C   UNL     1     154.989 168.284 152.548  1.00  0.00    -0.003 C 
ATOM     18  C   UNL     1     154.673 168.240 151.053  1.00  0.00     0.004 C 
ENDBRANCH  16  17
ENDBRANCH  15  16
ENDBRANCH  14  15
ENDBRANCH  13  14
ENDBRANCH  12  13
ENDBRANCH  10  11
ENDBRANCH   1  10
TORSDOF 13
ENDMDL
MODEL 9
REMARK VINA RESULT:    -4.634      2.858      5.698
REMARK INTER + INTRA:         -10.632
REMARK INTER:                  -8.299
REMARK INTRA:                  -2.333
REMARK UNBOUND:                -2.475
REMARK SMILES CCCCCCC=CCCCCCCCC(=O)[O-]
REMARK SMILES IDX 10 1 11 2 12 3 13 4 14 5 15 6 16 7 17 8 18 9 9 10 8 11 7 12
REMARK SMILES IDX 6 13 5 14 4 15 3 16 2 17 1 18
REMARK H PARENT
REMARK Flexibility Score: inf
ROOT
ATOM      1  C   UNL     1     147.922 170.820 151.705  1.00  0.00     0.004 C 
ENDROOT
BRANCH   1   2
ATOM      2  C   UNL     1     147.052 169.546 151.651  1.00  0.00     0.000 C 
BRANCH   2   3
ATOM      3  C   UNL     1     147.068 168.682 152.925  1.00  0.00     0.000 C 
BRANCH   3   4
ATOM      4  C   UNL     1     146.499 167.272 152.697  1.00  0.00     0.000 C 
BRANCH   4   5
ATOM      5  C   UNL     1     146.732 166.762 151.262  1.00  0.00     0.006 C 
BRANCH   5   6
ATOM      6  C   UNL     1     147.914 165.790 151.116  1.00  0.00     0.053 C 
BRANCH   6   7
ATOM      7  C   UNL     1     148.052 164.890 152.306  1.00  0.00     0.041 C 
ATOM      8  O   UNL     1     147.269 163.916 152.459  1.00  0.00    -0.550 OA
ATOM      9  O   UNL     1     149.069 165.106 153.227  1.00  0.00    -0.550 OA
ENDBRANCH   6   7
ENDBRANCH   5   6
ENDBRANCH   4   5
ENDBRANCH   3   4
ENDBRANCH   2   3
ENDBRANCH   1   2
BRANCH   1  10
ATOM     10  C   UNL     1     148.785 171.073 150.457  1.00  0.00     0.027 C 
BRANCH  10  11
ATOM     11  C   UNL     1     148.740 169.910 149.493  1.00  0.00    -0.031 C 
ATOM     12  C   UNL     1     149.647 168.918 149.423  1.00  0.00    -0.031 C 
BRANCH  12  13
ATOM     13  C   UNL     1     150.860 168.776 150.311  1.00  0.00     0.027 C 
BRANCH  13  14
ATOM     14  C   UNL     1     150.542 168.122 151.665  1.00  0.00     0.004 C 
BRANCH  14  15
ATOM     15  C   UNL     1     151.225 168.846 152.838  1.00  0.00     0.000 C 
BRANCH  15  16
ATOM     16  C   UNL     1     152.171 169.969 152.376  1.00  0.00    -0.000 C 
BRANCH  16  17
ATOM     17  C   UNL     1     152.315 171.140 153.364  1.00  0.00    -0.003 C 
ATOM     18  C   UNL     1     151.147 172.124 153.300  1.00  0.00     0.004 C 
ENDBRANCH  16  17
ENDBRANCH  15  16
ENDBRANCH  14  15
ENDBRANCH  13  14
ENDBRANCH  12  13
ENDBRANCH  10  11
ENDBRANCH   1  10
TORSDOF 13
ENDMDL
