MODEL 1
REMARK VINA RESULT:    -6.086      0.000      0.000
REMARK INTER + INTRA:          -8.950
REMARK INTER:                  -8.398
REMARK INTRA:                  -0.552
REMARK UNBOUND:                -0.552
REMARK SMILES CCCCc1cccc(O)c1CCCC
REMARK SMILES IDX 5 1 11 2 9 3 8 4 7 5 6 6 4 7 3 8 2 9 1 10 12 11 13 12 14 13
REMARK SMILES IDX 15 14 10 15
REMARK H PARENT 10 16
REMARK Flexibility Score: inf
ROOT
ATOM      1  C   UNL     1     -10.344   6.368   7.062  1.00  0.00    -0.041 A 
ATOM      2  C   UNL     1     -10.952   5.283   6.368  1.00  0.00    -0.003 A 
ATOM      3  C   UNL     1     -11.132   4.053   7.039  1.00  0.00     0.119 A 
ATOM      4  C   UNL     1     -10.744   3.914   8.376  1.00  0.00     0.046 A 
ATOM      5  C   UNL     1     -10.163   4.981   9.055  1.00  0.00     0.004 A 
ATOM      6  C   UNL     1      -9.962   6.196   8.405  1.00  0.00     0.004 A 
ENDROOT
BRANCH   1   7
ATOM      7  C   UNL     1     -10.114   7.724   6.425  1.00  0.00     0.036 C 
BRANCH   7   8
ATOM      8  C   UNL     1      -8.622   8.088   6.347  1.00  0.00     0.004 C 
BRANCH   8   9
ATOM      9  C   UNL     1      -8.270   8.846   5.059  1.00  0.00    -0.003 C 
ATOM     10  C   UNL     1      -7.188   9.892   5.315  1.00  0.00     0.004 C 
ENDBRANCH   8   9
ENDBRANCH   7   8
ENDBRANCH   1   7
BRANCH   2  11
ATOM     11  C   UNL     1     -11.341   5.382   4.905  1.00  0.00     0.040 C 
BRANCH  11  12
ATOM     12  C   UNL     1     -12.767   5.927   4.759  1.00  0.00     0.005 C 
BRANCH  12  13
ATOM     13  C   UNL     1     -13.447   5.362   3.508  1.00  0.00    -0.003 C 
ATOM     14  C   UNL     1     -13.905   6.480   2.577  1.00  0.00     0.004 C 
ENDBRANCH  12  13
ENDBRANCH  11  12
ENDBRANCH   2  11
BRANCH   3  15
ATOM     15  O   UNL     1     -11.695   2.964   6.371  1.00  0.00    -0.508 OA
ATOM     16  H   UNL     1     -12.605   2.597   6.622  1.00  0.00     0.293 HD
ENDBRANCH   3  15
TORSDOF 7
ENDMDL
MODEL 2
REMARK VINA RESULT:    -5.953     14.748     17.316
REMARK INTER + INTRA:          -8.766
REMARK INTER:                  -8.204
REMARK INTRA:                  -0.562
REMARK UNBOUND:                -0.552
REMARK SMILES CCCCc1cccc(O)c1CCCC
REMARK SMILES IDX 5 1 11 2 9 3 8 4 7 5 6 6 4 7 3 8 2 9 1 10 12 11 13 12 14 13
REMARK SMILES IDX 15 14 10 15
REMARK H PARENT 10 16
REMARK Flexibility Score: inf
ROOT
ATOM      1  C   UNL     1     -12.428   0.804  -9.661  1.00  0.00    -0.041 A 
ATOM      2  C   UNL     1     -11.927  -0.453 -10.107  1.00  0.00    -0.003 A 
ATOM      3  C   UNL     1     -12.837  -1.434 -10.559  1.00  0.00     0.119 A 
ATOM      4  C   UNL     1     -14.209  -1.162 -10.595  1.00  0.00     0.046 A 
ATOM      5  C   UNL     1     -14.693   0.073 -10.172  1.00  0.00     0.004 A 
ATOM      6  C   UNL     1     -13.813   1.046  -9.708  1.00  0.00     0.004 A 
ENDROOT
BRANCH   1   7
ATOM      7  C   UNL     1     -11.527   1.917  -9.164  1.00  0.00     0.036 C 
BRANCH   7   8
ATOM      8  C   UNL     1     -12.056   3.310  -9.540  1.00  0.00     0.004 C 
BRANCH   8   9
ATOM      9  C   UNL     1     -12.008   4.293  -8.362  1.00  0.00    -0.003 C 
ATOM     10  C   UNL     1     -13.355   4.365  -7.649  1.00  0.00     0.004 C 
ENDBRANCH   8   9
ENDBRANCH   7   8
ENDBRANCH   1   7
BRANCH   2  11
ATOM     11  C   UNL     1     -10.452  -0.801 -10.038  1.00  0.00     0.040 C 
BRANCH  11  12
ATOM     12  C   UNL     1     -10.162  -1.690  -8.823  1.00  0.00     0.005 C 
BRANCH  12  13
ATOM     13  C   UNL     1      -9.437  -2.973  -9.241  1.00  0.00    -0.003 C 
ATOM     14  C   UNL     1      -8.443  -3.418  -8.172  1.00  0.00     0.004 C 
ENDBRANCH  12  13
ENDBRANCH  11  12
ENDBRANCH   2  11
BRANCH   3  15
ATOM     15  O   UNL     1     -12.375  -2.686 -10.970  1.00  0.00    -0.508 OA
ATOM     16  H   UNL     1     -12.948  -3.309 -11.527  1.00  0.00     0.293 HD
ENDBRANCH   3  15
TORSDOF 7
ENDMDL
MODEL 3
REMARK VINA RESULT:    -5.863     16.255     18.222
REMARK INTER + INTRA:          -8.643
REMARK INTER:                  -7.603
REMARK INTRA:                  -1.040
REMARK UNBOUND:                -0.552
REMARK SMILES CCCCc1cccc(O)c1CCCC
REMARK SMILES IDX 5 1 11 2 9 3 8 4 7 5 6 6 4 7 3 8 2 9 1 10 12 11 13 12 14 13
REMARK SMILES IDX 15 14 10 15
REMARK H PARENT 10 16
REMARK Flexibility Score: inf
ROOT
ATOM      1  C   UNL     1     -13.183  -0.420 -10.445  1.00  0.00    -0.041 A 
ATOM      2  C   UNL     1     -11.957   0.105  -9.943  1.00  0.00    -0.003 A 
ATOM      3  C   UNL     1     -11.957   1.373  -9.319  1.00  0.00     0.119 A 
ATOM      4  C   UNL     1     -13.151   2.087  -9.170  1.00  0.00     0.046 A 
ATOM      5  C   UNL     1     -14.349   1.563  -9.649  1.00  0.00     0.004 A 
ATOM      6  C   UNL     1     -14.365   0.323 -10.282  1.00  0.00     0.004 A 
ENDROOT
BRANCH   1   7
ATOM      7  C   UNL     1     -13.279  -1.771 -11.125  1.00  0.00     0.036 C 
BRANCH   7   8
ATOM      8  C   UNL     1     -14.694  -2.365 -11.048  1.00  0.00     0.004 C 
BRANCH   8   9
ATOM      9  C   UNL     1     -14.857  -3.343  -9.876  1.00  0.00    -0.003 C 
ATOM     10  C   UNL     1     -13.556  -4.092  -9.599  1.00  0.00     0.004 C 
ENDBRANCH   8   9
ENDBRANCH   7   8
ENDBRANCH   1   7
BRANCH   2  11
ATOM     11  C   UNL     1     -10.637  -0.618 -10.128  1.00  0.00     0.040 C 
BRANCH  11  12
ATOM     12  C   UNL     1     -10.308  -1.469  -8.896  1.00  0.00     0.005 C 
BRANCH  12  13
ATOM     13  C   UNL     1     -10.069  -2.932  -9.285  1.00  0.00    -0.003 C 
ATOM     14  C   UNL     1     -10.112  -3.842  -8.061  1.00  0.00     0.004 C 
ENDBRANCH  12  13
ENDBRANCH  11  12
ENDBRANCH   2  11
BRANCH   3  15
ATOM     15  O   UNL     1     -10.764   1.925  -8.848  1.00  0.00    -0.508 OA
ATOM     16  H   UNL     1     -10.462   1.802  -7.889  1.00  0.00     0.293 HD
ENDBRANCH   3  15
TORSDOF 7
ENDMDL
MODEL 4
REMARK VINA RESULT:    -5.792      1.572      4.617
REMARK INTER + INTRA:          -8.545
REMARK INTER:                  -7.852
REMARK INTRA:                  -0.693
REMARK UNBOUND:                -0.552
REMARK SMILES CCCCc1cccc(O)c1CCCC
REMARK SMILES IDX 5 1 11 2 9 3 8 4 7 5 6 6 4 7 3 8 2 9 1 10 12 11 13 12 14 13
REMARK SMILES IDX 15 14 10 15
REMARK H PARENT 10 16
REMARK Flexibility Score: inf
ROOT
ATOM      1  C   UNL     1     -11.669   5.233   6.451  1.00  0.00    -0.041 A 
ATOM      2  C   UNL     1     -10.706   6.154   6.955  1.00  0.00    -0.003 A 
ATOM      3  C   UNL     1     -10.148   5.934   8.235  1.00  0.00     0.119 A 
ATOM      4  C   UNL     1     -10.517   4.809   8.981  1.00  0.00     0.046 A 
ATOM      5  C   UNL     1     -11.447   3.904   8.479  1.00  0.00     0.004 A 
ATOM      6  C   UNL     1     -12.020   4.114   7.227  1.00  0.00     0.004 A 
ENDROOT
BRANCH   1   7
ATOM      7  C   UNL     1     -12.317   5.388   5.090  1.00  0.00     0.036 C 
BRANCH   7   8
ATOM      8  C   UNL     1     -13.672   6.110   5.166  1.00  0.00     0.004 C 
BRANCH   8   9
ATOM      9  C   UNL     1     -13.937   6.991   3.937  1.00  0.00    -0.003 C 
ATOM     10  C   UNL     1     -14.125   6.144   2.682  1.00  0.00     0.004 C 
ENDBRANCH   8   9
ENDBRANCH   7   8
ENDBRANCH   1   7
BRANCH   2  11
ATOM     11  C   UNL     1     -10.318   7.409   6.195  1.00  0.00     0.040 C 
BRANCH  11  12
ATOM     12  C   UNL     1      -9.064   7.162   5.348  1.00  0.00     0.005 C 
BRANCH  12  13
ATOM     13  C   UNL     1      -8.297   8.467   5.108  1.00  0.00    -0.003 C 
ATOM     14  C   UNL     1      -7.869   9.105   6.426  1.00  0.00     0.004 C 
ENDBRANCH  12  13
ENDBRANCH  11  12
ENDBRANCH   2  11
BRANCH   3  15
ATOM     15  O   UNL     1      -9.227   6.839   8.766  1.00  0.00    -0.508 OA
ATOM     16  H   UNL     1      -8.331   6.536   9.128  1.00  0.00     0.293 HD
ENDBRANCH   3  15
TORSDOF 7
ENDMDL
MODEL 5
REMARK VINA RESULT:    -5.548     16.772     18.287
REMARK INTER + INTRA:          -8.208
REMARK INTER:                  -6.953
REMARK INTRA:                  -1.255
REMARK UNBOUND:                -0.552
REMARK SMILES CCCCc1cccc(O)c1CCCC
REMARK SMILES IDX 5 1 11 2 9 3 8 4 7 5 6 6 4 7 3 8 2 9 1 10 12 11 13 12 14 13
REMARK SMILES IDX 15 14 10 15
REMARK H PARENT 10 16
REMARK Flexibility Score: inf
ROOT
ATOM      1  C   UNL     1     -10.314  -4.408  -7.761  1.00  0.00    -0.041 A 
ATOM      2  C   UNL     1     -11.144  -4.277  -8.911  1.00  0.00    -0.003 A 
ATOM      3  C   UNL     1     -11.163  -3.047  -9.608  1.00  0.00     0.119 A 
ATOM      4  C   UNL     1     -10.353  -1.986  -9.189  1.00  0.00     0.046 A 
ATOM      5  C   UNL     1      -9.532  -2.124  -8.073  1.00  0.00     0.004 A 
ATOM      6  C   UNL     1      -9.514  -3.322  -7.364  1.00  0.00     0.004 A 
ENDROOT
BRANCH   1   7
ATOM      7  C   UNL     1     -10.228  -5.689  -6.954  1.00  0.00     0.036 C 
BRANCH   7   8
ATOM      8  C   UNL     1     -10.997  -5.596  -5.626  1.00  0.00     0.004 C 
BRANCH   8   9
ATOM      9  C   UNL     1     -11.482  -6.965  -5.133  1.00  0.00    -0.003 C 
ATOM     10  C   UNL     1     -10.843  -8.097  -5.932  1.00  0.00     0.004 C 
ENDBRANCH   8   9
ENDBRANCH   7   8
ENDBRANCH   1   7
BRANCH   2  11
ATOM     11  C   UNL     1     -12.071  -5.389  -9.366  1.00  0.00     0.040 C 
BRANCH  11  12
ATOM     12  C   UNL     1     -13.442  -5.260  -8.692  1.00  0.00     0.005 C 
BRANCH  12  13
ATOM     13  C   UNL     1     -13.830  -6.561  -7.982  1.00  0.00    -0.003 C 
ATOM     14  C   UNL     1     -14.705  -6.282  -6.762  1.00  0.00     0.004 C 
ENDBRANCH  12  13
ENDBRANCH  11  12
ENDBRANCH   2  11
BRANCH   3  15
ATOM     15  O   UNL     1     -11.993  -2.881 -10.718  1.00  0.00    -0.508 OA
ATOM     16  H   UNL     1     -12.001  -2.021 -11.253  1.00  0.00     0.293 HD
ENDBRANCH   3  15
TORSDOF 7
ENDMDL
MODEL 6
REMARK VINA RESULT:    -5.548      2.158      4.291
REMARK INTER + INTRA:          -8.207
REMARK INTER:                  -7.307
REMARK INTRA:                  -0.900
REMARK UNBOUND:                -0.552
REMARK SMILES CCCCc1cccc(O)c1CCCC
REMARK SMILES IDX 5 1 11 2 9 3 8 4 7 5 6 6 4 7 3 8 2 9 1 10 12 11 13 12 14 13
REMARK SMILES IDX 15 14 10 15
REMARK H PARENT 10 16
REMARK Flexibility Score: inf
ROOT
ATOM      1  C   UNL     1     -12.185   5.567   6.739  1.00  0.00    -0.041 A 
ATOM      2  C   UNL     1     -11.074   6.427   6.974  1.00  0.00    -0.003 A 
ATOM      3  C   UNL     1     -10.147   6.090   7.986  1.00  0.00     0.119 A 
ATOM      4  C   UNL     1     -10.304   4.912   8.724  1.00  0.00     0.046 A 
ATOM      5  C   UNL     1     -11.382   4.067   8.480  1.00  0.00     0.004 A 
ATOM      6  C   UNL     1     -12.316   4.391   7.499  1.00  0.00     0.004 A 
ENDROOT
BRANCH   1   7
ATOM      7  C   UNL     1     -13.226   5.846   5.674  1.00  0.00     0.036 C 
BRANCH   7   8
ATOM      8  C   UNL     1     -12.745   5.452   4.268  1.00  0.00     0.004 C 
BRANCH   8   9
ATOM      9  C   UNL     1     -13.791   5.748   3.185  1.00  0.00    -0.003 C 
ATOM     10  C   UNL     1     -15.015   6.443   3.776  1.00  0.00     0.004 C 
ENDBRANCH   8   9
ENDBRANCH   7   8
ENDBRANCH   1   7
BRANCH   2  11
ATOM     11  C   UNL     1     -10.897   7.736   6.228  1.00  0.00     0.040 C 
BRANCH  11  12
ATOM     12  C   UNL     1     -11.809   8.821   6.815  1.00  0.00     0.005 C 
BRANCH  12  13
ATOM     13  C   UNL     1     -12.164   9.871   5.758  1.00  0.00    -0.003 C 
ATOM     14  C   UNL     1     -13.451   9.502   5.026  1.00  0.00     0.004 C 
ENDBRANCH  12  13
ENDBRANCH  11  12
ENDBRANCH   2  11
BRANCH   3  15
ATOM     15  O   UNL     1      -9.068   6.933   8.261  1.00  0.00    -0.508 OA
ATOM     16  H   UNL     1      -8.790   7.151   9.210  1.00  0.00     0.293 HD
ENDBRANCH   3  15
TORSDOF 7
ENDMDL
MODEL 7
REMARK VINA RESULT:    -5.540     16.516     18.777
REMARK INTER + INTRA:          -8.197
REMARK INTER:                  -7.163
REMARK INTRA:                  -1.033
REMARK UNBOUND:                -0.552
REMARK SMILES CCCCc1cccc(O)c1CCCC
REMARK SMILES IDX 5 1 11 2 9 3 8 4 7 5 6 6 4 7 3 8 2 9 1 10 12 11 13 12 14 13
REMARK SMILES IDX 15 14 10 15
REMARK H PARENT 10 16
REMARK Flexibility Score: inf
ROOT
ATOM      1  C   UNL     1     -10.124  -4.848  -7.150  1.00  0.00    -0.041 A 
ATOM      2  C   UNL     1     -10.212  -5.009  -8.563  1.00  0.00    -0.003 A 
ATOM      3  C   UNL     1     -10.078  -3.873  -9.393  1.00  0.00     0.119 A 
ATOM      4  C   UNL     1      -9.832  -2.614  -8.834  1.00  0.00     0.046 A 
ATOM      5  C   UNL     1      -9.732  -2.464  -7.454  1.00  0.00     0.004 A 
ATOM      6  C   UNL     1      -9.879  -3.569  -6.619  1.00  0.00     0.004 A 
ENDROOT
BRANCH   1   7
ATOM      7  C   UNL     1     -10.252  -6.008  -6.184  1.00  0.00     0.036 C 
BRANCH   7   8
ATOM      8  C   UNL     1     -11.543  -5.936  -5.352  1.00  0.00     0.004 C 
BRANCH   8   9
ATOM      9  C   UNL     1     -12.484  -7.117  -5.625  1.00  0.00    -0.003 C 
ATOM     10  C   UNL     1     -13.874  -6.632  -6.027  1.00  0.00     0.004 C 
ENDBRANCH   8   9
ENDBRANCH   7   8
ENDBRANCH   1   7
BRANCH   2  11
ATOM     11  C   UNL     1     -10.525  -6.348  -9.203  1.00  0.00     0.040 C 
BRANCH  11  12
ATOM     12  C   UNL     1     -12.039  -6.538  -9.348  1.00  0.00     0.005 C 
BRANCH  12  13
ATOM     13  C   UNL     1     -12.384  -8.001  -9.644  1.00  0.00    -0.003 C 
ATOM     14  C   UNL     1     -13.203  -8.125 -10.926  1.00  0.00     0.004 C 
ENDBRANCH  12  13
ENDBRANCH  11  12
ENDBRANCH   2  11
BRANCH   3  15
ATOM     15  O   UNL     1     -10.193  -3.997 -10.779  1.00  0.00    -0.508 OA
ATOM     16  H   UNL     1     -11.068  -3.821 -11.259  1.00  0.00     0.293 HD
ENDBRANCH   3  15
TORSDOF 7
ENDMDL
MODEL 8
REMARK VINA RESULT:    -5.422     17.173     18.344
REMARK INTER + INTRA:          -8.034
REMARK INTER:                  -7.345
REMARK INTRA:                  -0.689
REMARK UNBOUND:                -0.552
REMARK SMILES CCCCc1cccc(O)c1CCCC
REMARK SMILES IDX 5 1 11 2 9 3 8 4 7 5 6 6 4 7 3 8 2 9 1 10 12 11 13 12 14 13
REMARK SMILES IDX 15 14 10 15
REMARK H PARENT 10 16
REMARK Flexibility Score: inf
ROOT
ATOM      1  C   UNL     1     -11.129  -3.375  -9.381  1.00  0.00    -0.041 A 
ATOM      2  C   UNL     1     -11.022  -4.745  -9.005  1.00  0.00    -0.003 A 
ATOM      3  C   UNL     1      -9.813  -5.210  -8.440  1.00  0.00     0.119 A 
ATOM      4  C   UNL     1      -8.748  -4.328  -8.226  1.00  0.00     0.046 A 
ATOM      5  C   UNL     1      -8.863  -2.987  -8.581  1.00  0.00     0.004 A 
ATOM      6  C   UNL     1     -10.040  -2.515  -9.156  1.00  0.00     0.004 A 
ENDROOT
BRANCH   1   7
ATOM      7  C   UNL     1     -12.386  -2.788  -9.990  1.00  0.00     0.036 C 
BRANCH   7   8
ATOM      8  C   UNL     1     -12.228  -1.298 -10.335  1.00  0.00     0.004 C 
BRANCH   8   9
ATOM      9  C   UNL     1     -13.570  -0.625 -10.655  1.00  0.00    -0.003 C 
ATOM     10  C   UNL     1     -13.731   0.678  -9.877  1.00  0.00     0.004 C 
ENDBRANCH   8   9
ENDBRANCH   7   8
ENDBRANCH   1   7
BRANCH   2  11
ATOM     11  C   UNL     1     -12.137  -5.740  -9.265  1.00  0.00     0.040 C 
BRANCH  11  12
ATOM     12  C   UNL     1     -13.183  -5.686  -8.145  1.00  0.00     0.005 C 
BRANCH  12  13
ATOM     13  C   UNL     1     -12.914  -6.762  -7.088  1.00  0.00    -0.003 C 
ATOM     14  C   UNL     1     -12.400  -6.143  -5.792  1.00  0.00     0.004 C 
ENDBRANCH  12  13
ENDBRANCH  11  12
ENDBRANCH   2  11
BRANCH   3  15
ATOM     15  O   UNL     1      -9.670  -6.555  -8.094  1.00  0.00    -0.508 OA
ATOM     16  H   UNL     1      -8.838  -7.081  -8.332  1.00  0.00     0.293 HD
ENDBRANCH   3  15
TORSDOF 7
ENDMDL
MODEL 9
REMARK VINA RESULT:    -5.374     16.781     18.275
REMARK INTER + INTRA:          -7.968
REMARK INTER:                  -7.043
REMARK INTRA:                  -0.925
REMARK UNBOUND:                -0.552
REMARK SMILES CCCCc1cccc(O)c1CCCC
REMARK SMILES IDX 5 1 11 2 9 3 8 4 7 5 6 6 4 7 3 8 2 9 1 10 12 11 13 12 14 13
REMARK SMILES IDX 15 14 10 15
REMARK H PARENT 10 16
REMARK Flexibility Score: inf
ROOT
ATOM      1  C   UNL     1     -12.401  -5.743  -7.860  1.00  0.00    -0.041 A 
ATOM      2  C   UNL     1     -11.136  -5.112  -8.031  1.00  0.00    -0.003 A 
ATOM      3  C   UNL     1     -10.279  -4.978  -6.915  1.00  0.00     0.119 A 
ATOM      4  C   UNL     1     -10.658  -5.485  -5.668  1.00  0.00     0.046 A 
ATOM      5  C   UNL     1     -11.890  -6.115  -5.509  1.00  0.00     0.004 A 
ATOM      6  C   UNL     1     -12.755  -6.240  -6.593  1.00  0.00     0.004 A 
ENDROOT
BRANCH   1   7
ATOM      7  C   UNL     1     -13.383  -5.934  -8.999  1.00  0.00     0.036 C 
BRANCH   7   8
ATOM      8  C   UNL     1     -14.610  -5.016  -8.873  1.00  0.00     0.004 C 
BRANCH   8   9
ATOM      9  C   UNL     1     -14.768  -4.078 -10.077  1.00  0.00    -0.003 C 
ATOM     10  C   UNL     1     -15.029  -2.643  -9.628  1.00  0.00     0.004 C 
ENDBRANCH   8   9
ENDBRANCH   7   8
ENDBRANCH   1   7
BRANCH   2  11
ATOM     11  C   UNL     1     -10.711  -4.508  -9.356  1.00  0.00     0.040 C 
BRANCH  11  12
ATOM     12  C   UNL     1     -11.300  -3.102  -9.523  1.00  0.00     0.005 C 
BRANCH  12  13
ATOM     13  C   UNL     1     -10.198  -2.038  -9.509  1.00  0.00    -0.003 C 
ATOM     14  C   UNL     1     -10.768  -0.651  -9.794  1.00  0.00     0.004 C 
ENDBRANCH  12  13
ENDBRANCH  11  12
ENDBRANCH   2  11
BRANCH   3  15
ATOM     15  O   UNL     1      -9.047  -4.334  -7.048  1.00  0.00    -0.508 OA
ATOM     16  H   UNL     1      -8.191  -4.743  -6.694  1.00  0.00     0.293 HD
ENDBRANCH   3  15
TORSDOF 7
ENDMDL
