MODEL 1
REMARK VINA RESULT:     1.774      0.000      0.000
REMARK INTER + INTRA:           4.839
REMARK INTER:                   2.500
REMARK INTRA:                   2.340
REMARK UNBOUND:                 2.340
REMARK SMILES OCC1=C[C@@H](O)[C@H]2C=CO[C@H](O[C@@H]3O[C@H](CO)[C@H](O)[C@H](O)[C@H]3O)[C@@H]12
REMARK SMILES IDX 12 1 11 2 8 3 9 4 7 5 10 6 24 7 5 8 3 9 4 10 6 11 2 13 1 14
REMARK SMILES IDX 13 16 22 17 14 18 20 19 15 20 18 21 23 22 21 24 16 26 17 27
REMARK SMILES IDX 19 29
REMARK H PARENT 6 12 1 15 23 23 21 25 17 28 19 30
REMARK Flexibility Score: inf
ROOT
ATOM      1  O   UNL     1      10.916  22.895  -0.306  1.00  0.00    -0.310 OA
ENDROOT
BRANCH   1   2
ATOM      2  C   UNL     1      11.481  21.767  -0.974  1.00  0.00     0.316 C 
ATOM      3  C   UNL     1       9.520  20.299  -2.507  1.00  0.00     0.018 C 
ATOM      4  C   UNL     1       9.898  19.875  -1.302  1.00  0.00     0.186 C 
ATOM      5  C   UNL     1      10.191  21.454  -3.224  1.00  0.00     0.061 C 
ATOM      6  O   UNL     1      10.921  20.506  -0.594  1.00  0.00    -0.472 OA
ATOM      7  C   UNL     1      11.465  21.974  -2.508  1.00  0.00     0.096 C 
ATOM      8  C   UNL     1      10.708  21.027  -4.619  1.00  0.00     0.145 C 
ATOM      9  C   UNL     1      12.576  21.271  -3.240  1.00  0.00    -0.036 C 
ATOM     10  C   UNL     1      12.156  20.769  -4.395  1.00  0.00     0.007 C 
BRANCH   8  11
ATOM     11  O   UNL     1      10.083  19.876  -5.125  1.00  0.00    -0.388 OA
ATOM     12  H   UNL     1      10.376  19.792  -6.070  1.00  0.00     0.211 HD
ENDBRANCH   8  11
BRANCH   9  13
ATOM     13  C   UNL     1      14.035  21.317  -2.855  1.00  0.00     0.187 C 
BRANCH  13  14
ATOM     14  O   UNL     1      14.307  22.480  -2.122  1.00  0.00    -0.392 OA
ATOM     15  H   UNL     1      13.780  23.209  -2.542  1.00  0.00     0.211 HD
ENDBRANCH  13  14
ENDBRANCH   9  13
ENDBRANCH   1   2
BRANCH   1  16
ATOM     16  C   UNL     1      11.172  24.154  -0.903  1.00  0.00     0.286 C 
ATOM     17  C   UNL     1      12.063  24.979   0.081  1.00  0.00     0.202 C 
ATOM     18  O   UNL     1      11.807  23.951  -2.159  1.00  0.00    -0.341 OA
ATOM     19  C   UNL     1      13.520  25.029  -0.410  1.00  0.00     0.179 C 
ATOM     20  C   UNL     1      12.323  25.165  -2.667  1.00  0.00     0.178 C 
ATOM     21  C   UNL     1      13.589  25.575  -1.861  1.00  0.00     0.177 C 
BRANCH  17  22
ATOM     22  O   UNL     1      11.576  26.292   0.200  1.00  0.00    -0.385 OA
ATOM     23  H   UNL     1      11.283  26.403   1.143  1.00  0.00     0.211 HD
ENDBRANCH  17  22
BRANCH  19  24
ATOM     24  O   UNL     1      14.062  23.732  -0.343  1.00  0.00    -0.387 OA
ATOM     25  H   UNL     1      14.998  23.790  -0.669  1.00  0.00     0.211 HD
ENDBRANCH  19  24
BRANCH  20  26
ATOM     26  C   UNL     1      12.578  25.007  -4.171  1.00  0.00     0.191 C 
BRANCH  26  27
ATOM     27  O   UNL     1      11.548  25.613  -4.902  1.00  0.00    -0.394 OA
ATOM     28  H   UNL     1      11.488  25.115  -5.759  1.00  0.00     0.210 HD
ENDBRANCH  26  27
ENDBRANCH  20  26
BRANCH  21  29
ATOM     29  O   UNL     1      14.762  25.118  -2.488  1.00  0.00    -0.387 OA
ATOM     30  H   UNL     1      14.481  24.653  -3.319  1.00  0.00     0.211 HD
ENDBRANCH  21  29
ENDBRANCH   1  16
TORSDOF 10
ENDMDL
MODEL 2
REMARK VINA RESULT:     3.803      1.790      4.105
REMARK INTER + INTRA:           7.699
REMARK INTER:                   3.817
REMARK INTRA:                   3.882
REMARK UNBOUND:                 2.340
REMARK SMILES OCC1=C[C@@H](O)[C@H]2C=CO[C@H](O[C@@H]3O[C@H](CO)[C@H](O)[C@H](O)[C@H]3O)[C@@H]12
REMARK SMILES IDX 12 1 11 2 8 3 9 4 7 5 10 6 24 7 5 8 3 9 4 10 6 11 2 13 1 14
REMARK SMILES IDX 13 16 22 17 14 18 20 19 15 20 18 21 23 22 21 24 16 26 17 27
REMARK SMILES IDX 19 29
REMARK H PARENT 6 12 1 15 23 23 21 25 17 28 19 30
REMARK Flexibility Score: inf
ROOT
ATOM      1  O   UNL     1      11.355  22.236  -3.481  1.00  0.00    -0.310 OA
ENDROOT
BRANCH   1   2
ATOM      2  C   UNL     1      10.615  22.181  -2.261  1.00  0.00     0.316 C 
ATOM      3  C   UNL     1      11.304  19.875  -0.660  1.00  0.00     0.018 C 
ATOM      4  C   UNL     1      10.207  19.875  -1.416  1.00  0.00     0.186 C 
ATOM      5  C   UNL     1      12.162  21.108  -0.449  1.00  0.00     0.061 C 
ATOM      6  O   UNL     1       9.798  21.015  -2.109  1.00  0.00    -0.472 OA
ATOM      7  C   UNL     1      11.548  22.402  -1.045  1.00  0.00     0.096 C 
ATOM      8  C   UNL     1      12.313  21.439   1.056  1.00  0.00     0.145 C 
ATOM      9  C   UNL     1      10.877  23.037   0.143  1.00  0.00    -0.036 C 
ATOM     10  C   UNL     1      11.311  22.514   1.283  1.00  0.00     0.007 C 
BRANCH   8  11
ATOM     11  O   UNL     1      12.055  20.348   1.902  1.00  0.00    -0.388 OA
ATOM     12  H   UNL     1      12.873  19.787   1.891  1.00  0.00     0.211 HD
ENDBRANCH   8  11
BRANCH   9  13
ATOM     13  C   UNL     1      10.004  24.268   0.091  1.00  0.00     0.187 C 
BRANCH  13  14
ATOM     14  O   UNL     1       8.826  23.998  -0.617  1.00  0.00    -0.392 OA
ATOM     15  H   UNL     1       8.277  24.825  -0.577  1.00  0.00     0.211 HD
ENDBRANCH  13  14
ENDBRANCH   9  13
ENDBRANCH   1   2
BRANCH   1  16
ATOM     16  C   UNL     1      12.547  23.000  -3.443  1.00  0.00     0.286 C 
ATOM     17  C   UNL     1      12.242  24.396  -4.075  1.00  0.00     0.202 C 
ATOM     18  O   UNL     1      12.986  23.106  -2.094  1.00  0.00    -0.341 OA
ATOM     19  C   UNL     1      12.127  25.477  -2.987  1.00  0.00     0.179 C 
ATOM     20  C   UNL     1      14.010  24.074  -1.971  1.00  0.00     0.178 C 
ATOM     21  C   UNL     1      13.401  25.500  -2.101  1.00  0.00     0.177 C 
BRANCH  17  22
ATOM     22  O   UNL     1      13.260  24.760  -4.974  1.00  0.00    -0.385 OA
ATOM     23  H   UNL     1      13.992  25.156  -4.431  1.00  0.00     0.211 HD
ENDBRANCH  17  22
BRANCH  19  24
ATOM     24  O   UNL     1      10.987  25.209  -2.206  1.00  0.00    -0.387 OA
ATOM     25  H   UNL     1      11.213  24.447  -1.611  1.00  0.00     0.211 HD
ENDBRANCH  19  24
BRANCH  20  26
ATOM     26  C   UNL     1      14.755  23.844  -0.650  1.00  0.00     0.191 C 
BRANCH  26  27
ATOM     27  O   UNL     1      15.123  22.497  -0.532  1.00  0.00    -0.394 OA
ATOM     28  H   UNL     1      15.570  22.409   0.350  1.00  0.00     0.210 HD
ENDBRANCH  26  27
ENDBRANCH  20  26
BRANCH  21  29
ATOM     29  O   UNL     1      13.098  26.042  -0.840  1.00  0.00    -0.387 OA
ATOM     30  H   UNL     1      13.878  26.593  -0.569  1.00  0.00     0.211 HD
ENDBRANCH  21  29
ENDBRANCH   1  16
TORSDOF 10
ENDMDL
