MODEL 1
REMARK VINA RESULT:    -2.978      0.000      0.000
REMARK INTER + INTRA:          -3.932
REMARK INTER:                  -3.848
REMARK INTRA:                  -0.085
REMARK UNBOUND:                -0.085
REMARK SMILES CCCCCC(=O)OC
REMARK SMILES IDX 4 1 3 2 2 3 1 4 5 5 6 6 7 7 8 8 9 9
REMARK H PARENT
REMARK Flexibility Score: inf
ROOT
ATOM      1  C   UNL     1     202.837 200.347 217.372  1.00  0.00     0.012 C 
ENDROOT
BRANCH   1   2
ATOM      2  C   UNL     1     201.318 200.533 217.549  1.00  0.00     0.000 C 
BRANCH   2   3
ATOM      3  C   UNL     1     200.762 200.058 218.903  1.00  0.00    -0.003 C 
ATOM      4  C   UNL     1     199.236 200.073 218.961  1.00  0.00     0.004 C 
ENDBRANCH   2   3
ENDBRANCH   1   2
BRANCH   1   5
ATOM      5  C   UNL     1     203.241 198.877 217.196  1.00  0.00     0.123 C 
BRANCH   5   6
ATOM      6  C   UNL     1     204.726 198.732 217.292  1.00  0.00     0.305 C 
ATOM      7  O   UNL     1     205.408 199.627 217.864  1.00  0.00    -0.252 OA
BRANCH   6   8
ATOM      8  O   UNL     1     205.348 197.625 216.708  1.00  0.00    -0.469 OA
ATOM      9  C   UNL     1     206.469 196.976 217.297  1.00  0.00     0.282 C 
ENDBRANCH   6   8
ENDBRANCH   5   6
ENDBRANCH   1   5
TORSDOF 5
ENDMDL
MODEL 2
REMARK VINA RESULT:    -2.971      1.159      1.955
REMARK INTER + INTRA:          -3.924
REMARK INTER:                  -3.804
REMARK INTRA:                  -0.121
REMARK UNBOUND:                -0.085
REMARK SMILES CCCCCC(=O)OC
REMARK SMILES IDX 4 1 3 2 2 3 1 4 5 5 6 6 7 7 8 8 9 9
REMARK H PARENT
REMARK Flexibility Score: inf
ROOT
ATOM      1  C   UNL     1     201.159 200.269 217.581  1.00  0.00     0.012 C 
ENDROOT
BRANCH   1   2
ATOM      2  C   UNL     1     200.523 200.021 218.961  1.00  0.00     0.000 C 
BRANCH   2   3
ATOM      3  C   UNL     1     198.986 200.096 218.987  1.00  0.00    -0.003 C 
ATOM      4  C   UNL     1     198.393 200.650 217.693  1.00  0.00     0.004 C 
ENDBRANCH   2   3
ENDBRANCH   1   2
BRANCH   1   5
ATOM      5  C   UNL     1     202.635 200.680 217.669  1.00  0.00     0.123 C 
BRANCH   5   6
ATOM      6  C   UNL     1     203.517 199.530 217.302  1.00  0.00     0.305 C 
ATOM      7  O   UNL     1     203.008 198.400 217.064  1.00  0.00    -0.252 OA
BRANCH   6   8
ATOM      8  O   UNL     1     204.903 199.709 217.272  1.00  0.00    -0.469 OA
ATOM      9  C   UNL     1     205.806 198.798 217.888  1.00  0.00     0.282 C 
ENDBRANCH   6   8
ENDBRANCH   5   6
ENDBRANCH   1   5
TORSDOF 5
ENDMDL
MODEL 3
REMARK VINA RESULT:    -2.938      1.452      1.816
REMARK INTER + INTRA:          -3.882
REMARK INTER:                  -3.744
REMARK INTRA:                  -0.138
REMARK UNBOUND:                -0.085
REMARK SMILES CCCCCC(=O)OC
REMARK SMILES IDX 4 1 3 2 2 3 1 4 5 5 6 6 7 7 8 8 9 9
REMARK H PARENT
REMARK Flexibility Score: inf
ROOT
ATOM      1  C   UNL     1     203.447 199.952 216.749  1.00  0.00     0.012 C 
ENDROOT
BRANCH   1   2
ATOM      2  C   UNL     1     202.557 200.676 217.777  1.00  0.00     0.000 C 
BRANCH   2   3
ATOM      3  C   UNL     1     201.051 200.390 217.642  1.00  0.00    -0.003 C 
ATOM      4  C   UNL     1     200.395 200.006 218.967  1.00  0.00     0.004 C 
ENDBRANCH   2   3
ENDBRANCH   1   2
BRANCH   1   5
ATOM      5  C   UNL     1     204.175 198.738 217.340  1.00  0.00     0.123 C 
BRANCH   5   6
ATOM      6  C   UNL     1     205.652 198.972 217.352  1.00  0.00     0.305 C 
ATOM      7  O   UNL     1     206.356 198.491 218.283  1.00  0.00    -0.252 OA
BRANCH   6   8
ATOM      8  O   UNL     1     206.232 199.762 216.355  1.00  0.00    -0.469 OA
ATOM      9  C   UNL     1     207.362 200.592 216.596  1.00  0.00     0.282 C 
ENDBRANCH   6   8
ENDBRANCH   5   6
ENDBRANCH   1   5
TORSDOF 5
ENDMDL
MODEL 4
REMARK VINA RESULT:    -2.858      2.546      5.226
REMARK INTER + INTRA:          -3.778
REMARK INTER:                  -3.661
REMARK INTRA:                  -0.117
REMARK UNBOUND:                -0.085
REMARK SMILES CCCCCC(=O)OC
REMARK SMILES IDX 4 1 3 2 2 3 1 4 5 5 6 6 7 7 8 8 9 9
REMARK H PARENT
REMARK Flexibility Score: inf
ROOT
ATOM      1  C   UNL     1     202.888 199.730 216.809  1.00  0.00     0.012 C 
ENDROOT
BRANCH   1   2
ATOM      2  C   UNL     1     204.371 199.694 217.225  1.00  0.00     0.000 C 
BRANCH   2   3
ATOM      3  C   UNL     1     204.942 198.284 217.457  1.00  0.00    -0.003 C 
ATOM      4  C   UNL     1     206.414 198.296 217.866  1.00  0.00     0.004 C 
ENDBRANCH   2   3
ENDBRANCH   1   2
BRANCH   1   5
ATOM      5  C   UNL     1     202.003 200.469 217.821  1.00  0.00     0.123 C 
BRANCH   5   6
ATOM      6  C   UNL     1     200.979 199.539 218.391  1.00  0.00     0.305 C 
ATOM      7  O   UNL     1     201.009 198.314 218.091  1.00  0.00    -0.252 OA
BRANCH   6   8
ATOM      8  O   UNL     1     199.973 200.048 219.217  1.00  0.00    -0.469 OA
ATOM      9  C   UNL     1     198.608 200.101 218.817  1.00  0.00     0.282 C 
ENDBRANCH   6   8
ENDBRANCH   5   6
ENDBRANCH   1   5
TORSDOF 5
ENDMDL
MODEL 5
REMARK VINA RESULT:    -2.840      1.982      3.120
REMARK INTER + INTRA:          -3.755
REMARK INTER:                  -3.668
REMARK INTRA:                  -0.087
REMARK UNBOUND:                -0.085
REMARK SMILES CCCCCC(=O)OC
REMARK SMILES IDX 4 1 3 2 2 3 1 4 5 5 6 6 7 7 8 8 9 9
REMARK H PARENT
REMARK Flexibility Score: inf
ROOT
ATOM      1  C   UNL     1     200.281 200.016 219.033  1.00  0.00     0.012 C 
ENDROOT
BRANCH   1   2
ATOM      2  C   UNL     1     198.843 200.135 218.493  1.00  0.00     0.000 C 
BRANCH   2   3
ATOM      3  C   UNL     1     197.750 200.198 219.574  1.00  0.00    -0.003 C 
ATOM      4  C   UNL     1     196.583 201.106 219.192  1.00  0.00     0.004 C 
ENDBRANCH   2   3
ENDBRANCH   1   2
BRANCH   1   5
ATOM      5  C   UNL     1     201.344 200.318 217.969  1.00  0.00     0.123 C 
BRANCH   5   6
ATOM      6  C   UNL     1     202.118 199.080 217.642  1.00  0.00     0.305 C 
ATOM      7  O   UNL     1     201.552 197.953 217.697  1.00  0.00    -0.252 OA
BRANCH   6   8
ATOM      8  O   UNL     1     203.476 199.181 217.323  1.00  0.00    -0.469 OA
ATOM      9  C   UNL     1     203.941 199.862 216.164  1.00  0.00     0.282 C 
ENDBRANCH   6   8
ENDBRANCH   5   6
ENDBRANCH   1   5
TORSDOF 5
ENDMDL
MODEL 6
REMARK VINA RESULT:    -2.806      9.252     10.599
REMARK INTER + INTRA:          -3.710
REMARK INTER:                  -3.591
REMARK INTRA:                  -0.119
REMARK UNBOUND:                -0.085
REMARK SMILES CCCCCC(=O)OC
REMARK SMILES IDX 4 1 3 2 2 3 1 4 5 5 6 6 7 7 8 8 9 9
REMARK H PARENT
REMARK Flexibility Score: inf
ROOT
ATOM      1  C   UNL     1     198.144 206.239 216.291  1.00  0.00     0.012 C 
ENDROOT
BRANCH   1   2
ATOM      2  C   UNL     1     197.051 205.442 217.027  1.00  0.00     0.000 C 
BRANCH   2   3
ATOM      3  C   UNL     1     196.924 205.755 218.529  1.00  0.00    -0.003 C 
ATOM      4  C   UNL     1     195.788 206.725 218.843  1.00  0.00     0.004 C 
ENDBRANCH   2   3
ENDBRANCH   1   2
BRANCH   1   5
ATOM      5  C   UNL     1     197.586 207.110 215.157  1.00  0.00     0.123 C 
BRANCH   5   6
ATOM      6  C   UNL     1     198.583 208.155 214.767  1.00  0.00     0.305 C 
ATOM      7  O   UNL     1     199.816 207.889 214.800  1.00  0.00    -0.252 OA
BRANCH   6   8
ATOM      8  O   UNL     1     198.137 209.431 214.412  1.00  0.00    -0.469 OA
ATOM      9  C   UNL     1     197.135 210.125 215.147  1.00  0.00     0.282 C 
ENDBRANCH   6   8
ENDBRANCH   5   6
ENDBRANCH   1   5
TORSDOF 5
ENDMDL
MODEL 7
REMARK VINA RESULT:    -2.800     10.294     11.826
REMARK INTER + INTRA:          -3.704
REMARK INTER:                  -3.583
REMARK INTRA:                  -0.121
REMARK UNBOUND:                -0.085
REMARK SMILES CCCCCC(=O)OC
REMARK SMILES IDX 4 1 3 2 2 3 1 4 5 5 6 6 7 7 8 8 9 9
REMARK H PARENT
REMARK Flexibility Score: inf
ROOT
ATOM      1  C   UNL     1     196.418 206.976 216.180  1.00  0.00     0.012 C 
ENDROOT
BRANCH   1   2
ATOM      2  C   UNL     1     197.193 205.884 216.941  1.00  0.00     0.000 C 
BRANCH   2   3
ATOM      3  C   UNL     1     197.029 205.924 218.471  1.00  0.00    -0.003 C 
ATOM      4  C   UNL     1     195.799 206.710 218.920  1.00  0.00     0.004 C 
ENDBRANCH   2   3
ENDBRANCH   1   2
BRANCH   1   5
ATOM      5  C   UNL     1     197.299 207.751 215.191  1.00  0.00     0.123 C 
BRANCH   5   6
ATOM      6  C   UNL     1     196.787 209.147 215.023  1.00  0.00     0.305 C 
ATOM      7  O   UNL     1     197.568 210.125 215.186  1.00  0.00    -0.252 OA
BRANCH   6   8
ATOM      8  O   UNL     1     195.435 209.353 214.733  1.00  0.00    -0.469 OA
ATOM      9  C   UNL     1     194.973 209.675 213.426  1.00  0.00     0.282 C 
ENDBRANCH   6   8
ENDBRANCH   5   6
ENDBRANCH   1   5
TORSDOF 5
ENDMDL
MODEL 8
REMARK VINA RESULT:    -2.718      1.816      2.666
REMARK INTER + INTRA:          -3.598
REMARK INTER:                  -3.372
REMARK INTRA:                  -0.226
REMARK UNBOUND:                -0.085
REMARK SMILES CCCCCC(=O)OC
REMARK SMILES IDX 4 1 3 2 2 3 1 4 5 5 6 6 7 7 8 8 9 9
REMARK H PARENT
REMARK Flexibility Score: inf
ROOT
ATOM      1  C   UNL     1     204.789 198.398 217.362  1.00  0.00     0.012 C 
ENDROOT
BRANCH   1   2
ATOM      2  C   UNL     1     203.327 198.778 217.064  1.00  0.00     0.000 C 
BRANCH   2   3
ATOM      3  C   UNL     1     202.949 200.226 217.425  1.00  0.00    -0.003 C 
ATOM      4  C   UNL     1     201.589 200.336 218.112  1.00  0.00     0.004 C 
ENDBRANCH   2   3
ENDBRANCH   1   2
BRANCH   1   5
ATOM      5  C   UNL     1     205.640 199.598 217.799  1.00  0.00     0.123 C 
BRANCH   5   6
ATOM      6  C   UNL     1     206.619 199.960 216.728  1.00  0.00     0.305 C 
ATOM      7  O   UNL     1     206.215 200.531 215.677  1.00  0.00    -0.252 OA
BRANCH   6   8
ATOM      8  O   UNL     1     207.966 199.620 216.883  1.00  0.00    -0.469 OA
ATOM      9  C   UNL     1     208.480 198.344 216.522  1.00  0.00     0.282 C 
ENDBRANCH   6   8
ENDBRANCH   5   6
ENDBRANCH   1   5
TORSDOF 5
ENDMDL
