MODEL 1
REMARK VINA RESULT:    -4.155      0.000      0.000
REMARK INTER + INTRA:          -4.818
REMARK INTER:                  -4.520
REMARK INTRA:                  -0.299
REMARK UNBOUND:                -0.299
REMARK SMILES CC(=O)c1cc(C)ccc1O
REMARK SMILES IDX 7 1 6 2 5 3 4 4 10 5 9 6 8 7 2 8 3 9 1 10 11 11
REMARK H PARENT 11 12
REMARK Flexibility Score: inf
ROOT
ATOM      1  C   UNL     1       1.468  -8.380 -44.027  1.00  0.00     0.044 C 
ATOM      2  C   UNL     1       1.337  -9.577 -43.132  1.00  0.00    -0.050 A 
ATOM      3  C   UNL     1       0.589  -9.495 -41.950  1.00  0.00     0.019 A 
ATOM      4  C   UNL     1       0.479 -10.602 -41.086  1.00  0.00     0.059 A 
ATOM      5  C   UNL     1       1.173 -11.795 -41.409  1.00  0.00     0.126 A 
ATOM      6  C   UNL     1       1.917 -11.867 -42.591  1.00  0.00     0.047 A 
ATOM      7  C   UNL     1       2.007 -10.766 -43.444  1.00  0.00     0.007 A 
ENDROOT
BRANCH   4   8
ATOM      8  C   UNL     1      -0.383 -10.496 -39.886  1.00  0.00     0.163 C 
ATOM      9  O   UNL     1      -1.018 -11.506 -39.476  1.00  0.00    -0.294 OA
ATOM     10  C   UNL     1      -0.596  -9.183 -39.199  1.00  0.00     0.093 C 
ENDBRANCH   4   8
BRANCH   5  11
ATOM     11  O   UNL     1       1.174 -12.910 -40.568  1.00  0.00    -0.507 OA
ATOM     12  H   UNL     1       1.768 -12.994 -39.754  1.00  0.00     0.293 HD
ENDBRANCH   5  11
TORSDOF 2
ENDMDL
MODEL 2
REMARK VINA RESULT:    -4.117     13.435     14.990
REMARK INTER + INTRA:          -4.777
REMARK INTER:                  -4.470
REMARK INTRA:                  -0.307
REMARK UNBOUND:                -0.299
REMARK SMILES CC(=O)c1cc(C)ccc1O
REMARK SMILES IDX 7 1 6 2 5 3 4 4 10 5 9 6 8 7 2 8 3 9 1 10 11 11
REMARK H PARENT 11 12
REMARK Flexibility Score: inf
ROOT
ATOM      1  C   UNL     1      -2.236 -26.072 -47.275  1.00  0.00     0.044 C 
ATOM      2  C   UNL     1      -0.841 -25.731 -46.839  1.00  0.00    -0.050 A 
ATOM      3  C   UNL     1      -0.619 -24.672 -45.949  1.00  0.00     0.019 A 
ATOM      4  C   UNL     1       0.686 -24.322 -45.552  1.00  0.00     0.059 A 
ATOM      5  C   UNL     1       1.783 -25.034 -46.100  1.00  0.00     0.126 A 
ATOM      6  C   UNL     1       1.551 -26.089 -46.988  1.00  0.00     0.047 A 
ATOM      7  C   UNL     1       0.252 -26.432 -47.363  1.00  0.00     0.007 A 
ENDROOT
BRANCH   4   8
ATOM      8  C   UNL     1       0.871 -23.246 -44.551  1.00  0.00     0.163 C 
ATOM      9  O   UNL     1       1.682 -23.405 -43.599  1.00  0.00    -0.294 OA
ATOM     10  C   UNL     1       0.039 -22.002 -44.589  1.00  0.00     0.093 C 
ENDBRANCH   4   8
BRANCH   5  11
ATOM     11  O   UNL     1       3.109 -24.700 -45.814  1.00  0.00    -0.507 OA
ATOM     12  H   UNL     1       3.452 -23.749 -45.790  1.00  0.00     0.293 HD
ENDBRANCH   5  11
TORSDOF 2
ENDMDL
MODEL 3
REMARK VINA RESULT:    -4.106      2.530      4.247
REMARK INTER + INTRA:          -4.765
REMARK INTER:                  -4.455
REMARK INTRA:                  -0.309
REMARK UNBOUND:                -0.299
REMARK SMILES CC(=O)c1cc(C)ccc1O
REMARK SMILES IDX 7 1 6 2 5 3 4 4 10 5 9 6 8 7 2 8 3 9 1 10 11 11
REMARK H PARENT 11 12
REMARK Flexibility Score: inf
ROOT
ATOM      1  C   UNL     1      -3.862  -8.460 -43.286  1.00  0.00     0.044 C 
ATOM      2  C   UNL     1      -2.842  -8.556 -42.189  1.00  0.00    -0.050 A 
ATOM      3  C   UNL     1      -1.618  -9.198 -42.419  1.00  0.00     0.019 A 
ATOM      4  C   UNL     1      -0.662  -9.321 -41.392  1.00  0.00     0.059 A 
ATOM      5  C   UNL     1      -0.973  -8.819 -40.103  1.00  0.00     0.126 A 
ATOM      6  C   UNL     1      -2.198  -8.180 -39.884  1.00  0.00     0.047 A 
ATOM      7  C   UNL     1      -3.130  -8.055 -40.914  1.00  0.00     0.007 A 
ENDROOT
BRANCH   4   8
ATOM      8  C   UNL     1       0.649  -9.939 -41.698  1.00  0.00     0.163 C 
ATOM      9  O   UNL     1       1.073 -10.896 -40.995  1.00  0.00    -0.294 OA
ATOM     10  C   UNL     1       1.533  -9.386 -42.772  1.00  0.00     0.093 C 
ENDBRANCH   4   8
BRANCH   5  11
ATOM     11  O   UNL     1      -0.109  -8.967 -39.015  1.00  0.00    -0.507 OA
ATOM     12  H   UNL     1       0.279  -8.186 -38.502  1.00  0.00     0.293 HD
ENDBRANCH   5  11
TORSDOF 2
ENDMDL
MODEL 4
REMARK VINA RESULT:    -4.091      2.710      3.777
REMARK INTER + INTRA:          -4.748
REMARK INTER:                  -4.468
REMARK INTRA:                  -0.280
REMARK UNBOUND:                -0.299
REMARK SMILES CC(=O)c1cc(C)ccc1O
REMARK SMILES IDX 7 1 6 2 5 3 4 4 10 5 9 6 8 7 2 8 3 9 1 10 11 11
REMARK H PARENT 11 12
REMARK Flexibility Score: inf
ROOT
ATOM      1  C   UNL     1      -4.344  -7.761 -42.128  1.00  0.00     0.044 C 
ATOM      2  C   UNL     1      -2.999  -8.297 -41.733  1.00  0.00    -0.050 A 
ATOM      3  C   UNL     1      -2.518  -8.105 -40.431  1.00  0.00     0.019 A 
ATOM      4  C   UNL     1      -1.247  -8.577 -40.052  1.00  0.00     0.059 A 
ATOM      5  C   UNL     1      -0.437  -9.219 -41.023  1.00  0.00     0.126 A 
ATOM      6  C   UNL     1      -0.926  -9.405 -42.320  1.00  0.00     0.047 A 
ATOM      7  C   UNL     1      -2.192  -8.942 -42.678  1.00  0.00     0.007 A 
ENDROOT
BRANCH   4   8
ATOM      8  C   UNL     1      -0.809  -8.420 -38.646  1.00  0.00     0.163 C 
ATOM      9  O   UNL     1      -0.522  -9.438 -37.959  1.00  0.00    -0.294 OA
ATOM     10  C   UNL     1      -0.791  -7.077 -37.986  1.00  0.00     0.093 C 
ENDBRANCH   4   8
BRANCH   5  11
ATOM     11  O   UNL     1       0.863  -9.650 -40.747  1.00  0.00    -0.507 OA
ATOM     12  H   UNL     1       1.551  -9.078 -40.276  1.00  0.00     0.293 HD
ENDBRANCH   5  11
TORSDOF 2
ENDMDL
MODEL 5
REMARK VINA RESULT:    -4.056     14.660     16.134
REMARK INTER + INTRA:          -4.711
REMARK INTER:                  -4.436
REMARK INTRA:                  -0.275
REMARK UNBOUND:                -0.299
REMARK SMILES CC(=O)c1cc(C)ccc1O
REMARK SMILES IDX 7 1 6 2 5 3 4 4 10 5 9 6 8 7 2 8 3 9 1 10 11 11
REMARK H PARENT 11 12
REMARK Flexibility Score: inf
ROOT
ATOM      1  C   UNL     1      -4.912 -25.648 -45.034  1.00  0.00     0.044 C 
ATOM      2  C   UNL     1      -3.630 -25.818 -45.796  1.00  0.00    -0.050 A 
ATOM      3  C   UNL     1      -2.517 -25.024 -45.490  1.00  0.00     0.019 A 
ATOM      4  C   UNL     1      -1.316 -25.152 -46.213  1.00  0.00     0.059 A 
ATOM      5  C   UNL     1      -1.259 -26.074 -47.289  1.00  0.00     0.126 A 
ATOM      6  C   UNL     1      -2.376 -26.863 -47.587  1.00  0.00     0.047 A 
ATOM      7  C   UNL     1      -3.556 -26.733 -46.853  1.00  0.00     0.007 A 
ENDROOT
BRANCH   4   8
ATOM      8  C   UNL     1      -0.141 -24.347 -45.808  1.00  0.00     0.163 C 
ATOM      9  O   UNL     1       1.019 -24.717 -46.136  1.00  0.00    -0.294 OA
ATOM     10  C   UNL     1      -0.292 -23.145 -44.928  1.00  0.00     0.093 C 
ENDBRANCH   4   8
BRANCH   5  11
ATOM     11  O   UNL     1      -0.131 -26.208 -48.101  1.00  0.00    -0.507 OA
ATOM     12  H   UNL     1       0.292 -25.436 -48.599  1.00  0.00     0.293 HD
ENDBRANCH   5  11
TORSDOF 2
ENDMDL
MODEL 6
REMARK VINA RESULT:    -4.036     14.115     15.583
REMARK INTER + INTRA:          -4.689
REMARK INTER:                  -4.395
REMARK INTRA:                  -0.294
REMARK UNBOUND:                -0.299
REMARK SMILES CC(=O)c1cc(C)ccc1O
REMARK SMILES IDX 7 1 6 2 5 3 4 4 10 5 9 6 8 7 2 8 3 9 1 10 11 11
REMARK H PARENT 11 12
REMARK Flexibility Score: inf
ROOT
ATOM      1  C   UNL     1       0.009 -22.265 -44.542  1.00  0.00     0.044 C 
ATOM      2  C   UNL     1       0.128 -23.501 -45.386  1.00  0.00    -0.050 A 
ATOM      3  C   UNL     1      -1.017 -24.231 -45.732  1.00  0.00     0.019 A 
ATOM      4  C   UNL     1      -0.918 -25.407 -46.501  1.00  0.00     0.059 A 
ATOM      5  C   UNL     1       0.365 -25.868 -46.888  1.00  0.00     0.126 A 
ATOM      6  C   UNL     1       1.502 -25.132 -46.537  1.00  0.00     0.047 A 
ATOM      7  C   UNL     1       1.388 -23.961 -45.785  1.00  0.00     0.007 A 
ENDROOT
BRANCH   4   8
ATOM      8  C   UNL     1      -2.159 -26.107 -46.908  1.00  0.00     0.163 C 
ATOM      9  O   UNL     1      -2.198 -26.732 -48.003  1.00  0.00    -0.294 OA
ATOM     10  C   UNL     1      -3.408 -26.008 -46.090  1.00  0.00     0.093 C 
ENDBRANCH   4   8
BRANCH   5  11
ATOM     11  O   UNL     1       0.551 -27.063 -47.587  1.00  0.00    -0.507 OA
ATOM     12  H   UNL     1       0.018 -27.318 -48.407  1.00  0.00     0.293 HD
ENDBRANCH   5  11
TORSDOF 2
ENDMDL
MODEL 7
REMARK VINA RESULT:    -3.917      1.667      3.492
REMARK INTER + INTRA:          -4.559
REMARK INTER:                  -4.293
REMARK INTRA:                  -0.266
REMARK UNBOUND:                -0.299
REMARK SMILES CC(=O)c1cc(C)ccc1O
REMARK SMILES IDX 7 1 6 2 5 3 4 4 10 5 9 6 8 7 2 8 3 9 1 10 11 11
REMARK H PARENT 11 12
REMARK Flexibility Score: inf
ROOT
ATOM      1  C   UNL     1      -1.918  -8.761 -42.309  1.00  0.00     0.044 C 
ATOM      2  C   UNL     1      -0.976  -9.830 -41.835  1.00  0.00    -0.050 A 
ATOM      3  C   UNL     1       0.299  -9.949 -42.404  1.00  0.00     0.019 A 
ATOM      4  C   UNL     1       1.184 -10.962 -41.990  1.00  0.00     0.059 A 
ATOM      5  C   UNL     1       0.751 -11.893 -41.012  1.00  0.00     0.126 A 
ATOM      6  C   UNL     1      -0.524 -11.766 -40.450  1.00  0.00     0.047 A 
ATOM      7  C   UNL     1      -1.385 -10.748 -40.862  1.00  0.00     0.007 A 
ENDROOT
BRANCH   4   8
ATOM      8  C   UNL     1       2.550 -11.006 -42.563  1.00  0.00     0.163 C 
ATOM      9  O   UNL     1       3.552 -10.844 -41.815  1.00  0.00    -0.294 OA
ATOM     10  C   UNL     1       2.766 -11.142 -44.038  1.00  0.00     0.093 C 
ENDBRANCH   4   8
BRANCH   5  11
ATOM     11  O   UNL     1       1.541 -12.969 -40.602  1.00  0.00    -0.507 OA
ATOM     12  H   UNL     1       2.494 -13.111 -40.911  1.00  0.00     0.293 HD
ENDBRANCH   5  11
TORSDOF 2
ENDMDL
MODEL 8
REMARK VINA RESULT:    -3.904      3.156      3.978
REMARK INTER + INTRA:          -4.545
REMARK INTER:                  -4.276
REMARK INTRA:                  -0.269
REMARK UNBOUND:                -0.299
REMARK SMILES CC(=O)c1cc(C)ccc1O
REMARK SMILES IDX 7 1 6 2 5 3 4 4 10 5 9 6 8 7 2 8 3 9 1 10 11 11
REMARK H PARENT 11 12
REMARK Flexibility Score: inf
ROOT
ATOM      1  C   UNL     1      -4.099  -7.774 -43.403  1.00  0.00     0.044 C 
ATOM      2  C   UNL     1      -3.300  -8.953 -42.929  1.00  0.00    -0.050 A 
ATOM      3  C   UNL     1      -1.925  -8.822 -42.690  1.00  0.00     0.019 A 
ATOM      4  C   UNL     1      -1.156  -9.925 -42.270  1.00  0.00     0.059 A 
ATOM      5  C   UNL     1      -1.787 -11.187 -42.131  1.00  0.00     0.126 A 
ATOM      6  C   UNL     1      -3.160 -11.307 -42.372  1.00  0.00     0.047 A 
ATOM      7  C   UNL     1      -3.911 -10.203 -42.775  1.00  0.00     0.007 A 
ENDROOT
BRANCH   4   8
ATOM      8  C   UNL     1       0.278  -9.726 -41.956  1.00  0.00     0.163 C 
ATOM      9  O   UNL     1       0.702  -9.939 -40.788  1.00  0.00    -0.294 OA
ATOM     10  C   UNL     1       1.226  -9.180 -42.978  1.00  0.00     0.093 C 
ENDBRANCH   4   8
BRANCH   5  11
ATOM     11  O   UNL     1      -1.080 -12.343 -41.790  1.00  0.00    -0.507 OA
ATOM     12  H   UNL     1      -0.110 -12.494 -42.032  1.00  0.00     0.293 HD
ENDBRANCH   5  11
TORSDOF 2
ENDMDL
MODEL 9
REMARK VINA RESULT:    -3.898      1.526      3.979
REMARK INTER + INTRA:          -4.538
REMARK INTER:                  -4.231
REMARK INTRA:                  -0.307
REMARK UNBOUND:                -0.299
REMARK SMILES CC(=O)c1cc(C)ccc1O
REMARK SMILES IDX 7 1 6 2 5 3 4 4 10 5 9 6 8 7 2 8 3 9 1 10 11 11
REMARK H PARENT 11 12
REMARK Flexibility Score: inf
ROOT
ATOM      1  C   UNL     1      -1.112  -7.581 -38.407  1.00  0.00     0.044 C 
ATOM      2  C   UNL     1      -0.944  -8.963 -38.966  1.00  0.00    -0.050 A 
ATOM      3  C   UNL     1      -0.304  -9.152 -40.199  1.00  0.00     0.019 A 
ATOM      4  C   UNL     1      -0.163 -10.440 -40.750  1.00  0.00     0.059 A 
ATOM      5  C   UNL     1      -0.716 -11.546 -40.058  1.00  0.00     0.126 A 
ATOM      6  C   UNL     1      -1.352 -11.348 -38.828  1.00  0.00     0.047 A 
ATOM      7  C   UNL     1      -1.474 -10.067 -38.288  1.00  0.00     0.007 A 
ENDROOT
BRANCH   4   8
ATOM      8  C   UNL     1       0.586 -10.603 -42.018  1.00  0.00     0.163 C 
ATOM      9  O   UNL     1       0.169 -11.404 -42.897  1.00  0.00    -0.294 OA
ATOM     10  C   UNL     1       1.891  -9.903 -42.241  1.00  0.00     0.093 C 
ENDBRANCH   4   8
BRANCH   5  11
ATOM     11  O   UNL     1      -0.682 -12.844 -40.573  1.00  0.00    -0.507 OA
ATOM     12  H   UNL     1      -0.201 -13.092 -41.428  1.00  0.00     0.293 HD
ENDBRANCH   5  11
TORSDOF 2
ENDMDL
