MODEL 1
REMARK VINA RESULT:    -4.025      0.000      0.000
REMARK INTER + INTRA:          -8.962
REMARK INTER:                  -7.085
REMARK INTRA:                  -1.877
REMARK UNBOUND:                -1.877
REMARK SMILES CCCCCCCCCCCCCCC(=O)[O-]
REMARK SMILES IDX 9 1 10 2 11 3 12 4 13 5 14 6 15 7 16 8 17 9 8 10 7 11 6 12
REMARK SMILES IDX 5 13 4 14 3 15 2 16 1 17
REMARK H PARENT
REMARK Flexibility Score: inf
ROOT
ATOM      1  C   UNL     1       6.352  76.886  39.591  1.00  0.00     0.000 C 
ENDROOT
BRANCH   1   2
ATOM      2  C   UNL     1       5.006  76.374  39.047  1.00  0.00     0.000 C 
BRANCH   2   3
ATOM      3  C   UNL     1       5.155  75.642  37.704  1.00  0.00     0.000 C 
BRANCH   3   4
ATOM      4  C   UNL     1       6.626  75.394  37.328  1.00  0.00     0.000 C 
BRANCH   4   5
ATOM      5  C   UNL     1       7.005  73.902  37.359  1.00  0.00     0.006 C 
BRANCH   5   6
ATOM      6  C   UNL     1       5.892  72.979  37.882  1.00  0.00     0.053 C 
BRANCH   6   7
ATOM      7  C   UNL     1       6.207  72.436  39.242  1.00  0.00     0.041 C 
ATOM      8  O   UNL     1       5.283  72.004  39.980  1.00  0.00    -0.550 OA
ATOM      9  O   UNL     1       7.523  72.377  39.681  1.00  0.00    -0.550 OA
ENDBRANCH   6   7
ENDBRANCH   5   6
ENDBRANCH   4   5
ENDBRANCH   3   4
ENDBRANCH   2   3
ENDBRANCH   1   2
BRANCH   1  10
ATOM     10  C   UNL     1       6.312  78.378  39.955  1.00  0.00     0.000 C 
BRANCH  10  11
ATOM     11  C   UNL     1       5.222  79.145  39.190  1.00  0.00    -0.000 C 
BRANCH  11  12
ATOM     12  C   UNL     1       5.832  79.971  38.048  1.00  0.00    -0.000 C 
BRANCH  12  13
ATOM     13  C   UNL     1       6.019  79.161  36.751  1.00  0.00    -0.000 C 
BRANCH  13  14
ATOM     14  C   UNL     1       7.414  79.269  36.109  1.00  0.00    -0.000 C 
BRANCH  14  15
ATOM     15  C   UNL     1       8.507  78.562  36.927  1.00  0.00    -0.000 C 
BRANCH  15  16
ATOM     16  C   UNL     1       9.611  77.965  36.040  1.00  0.00    -0.003 C 
ATOM     17  C   UNL     1      10.192  76.670  36.607  1.00  0.00     0.004 C 
ENDBRANCH  15  16
ENDBRANCH  14  15
ENDBRANCH  13  14
ENDBRANCH  12  13
ENDBRANCH  11  12
ENDBRANCH  10  11
ENDBRANCH   1  10
TORSDOF 13
ENDMDL
MODEL 2
REMARK VINA RESULT:    -4.024      1.264      2.021
REMARK INTER + INTRA:          -8.959
REMARK INTER:                  -7.110
REMARK INTRA:                  -1.849
REMARK UNBOUND:                -1.877
REMARK SMILES CCCCCCCCCCCCCCC(=O)[O-]
REMARK SMILES IDX 9 1 10 2 11 3 12 4 13 5 14 6 15 7 16 8 17 9 8 10 7 11 6 12
REMARK SMILES IDX 5 13 4 14 3 15 2 16 1 17
REMARK H PARENT
REMARK Flexibility Score: inf
ROOT
ATOM      1  C   UNL     1       6.008  78.970  39.940  1.00  0.00     0.000 C 
ENDROOT
BRANCH   1   2
ATOM      2  C   UNL     1       6.105  77.456  39.680  1.00  0.00     0.000 C 
BRANCH   2   3
ATOM      3  C   UNL     1       4.797  76.870  39.126  1.00  0.00     0.000 C 
BRANCH   3   4
ATOM      4  C   UNL     1       4.970  75.434  38.603  1.00  0.00     0.000 C 
BRANCH   4   5
ATOM      5  C   UNL     1       6.447  75.010  38.505  1.00  0.00     0.006 C 
BRANCH   5   6
ATOM      6  C   UNL     1       6.679  73.495  38.623  1.00  0.00     0.053 C 
BRANCH   6   7
ATOM      7  C   UNL     1       6.164  72.948  39.919  1.00  0.00     0.041 C 
ATOM      8  O   UNL     1       5.255  72.078  39.923  1.00  0.00    -0.550 OA
ATOM      9  O   UNL     1       6.714  73.375  41.122  1.00  0.00    -0.550 OA
ENDBRANCH   6   7
ENDBRANCH   5   6
ENDBRANCH   4   5
ENDBRANCH   3   4
ENDBRANCH   2   3
ENDBRANCH   1   2
BRANCH   1  10
ATOM     10  C   UNL     1       5.297  79.720  38.803  1.00  0.00     0.000 C 
BRANCH  10  11
ATOM     11  C   UNL     1       6.276  80.270  37.755  1.00  0.00    -0.000 C 
BRANCH  11  12
ATOM     12  C   UNL     1       6.303  79.376  36.506  1.00  0.00    -0.000 C 
BRANCH  12  13
ATOM     13  C   UNL     1       7.730  79.003  36.063  1.00  0.00    -0.000 C 
BRANCH  13  14
ATOM     14  C   UNL     1       8.359  77.817  36.817  1.00  0.00    -0.000 C 
BRANCH  14  15
ATOM     15  C   UNL     1       9.748  78.141  37.392  1.00  0.00    -0.000 C 
BRANCH  15  16
ATOM     16  C   UNL     1       9.673  79.034  38.640  1.00  0.00    -0.003 C 
ATOM     17  C   UNL     1      10.491  80.318  38.501  1.00  0.00     0.004 C 
ENDBRANCH  15  16
ENDBRANCH  14  15
ENDBRANCH  13  14
ENDBRANCH  12  13
ENDBRANCH  11  12
ENDBRANCH  10  11
ENDBRANCH   1  10
TORSDOF 13
ENDMDL
MODEL 3
REMARK VINA RESULT:    -4.022      4.468      6.728
REMARK INTER + INTRA:          -8.957
REMARK INTER:                  -6.951
REMARK INTRA:                  -2.005
REMARK UNBOUND:                -1.877
REMARK SMILES CCCCCCCCCCCCCCC(=O)[O-]
REMARK SMILES IDX 9 1 10 2 11 3 12 4 13 5 14 6 15 7 16 8 17 9 8 10 7 11 6 12
REMARK SMILES IDX 5 13 4 14 3 15 2 16 1 17
REMARK H PARENT
REMARK Flexibility Score: inf
ROOT
ATOM      1  C   UNL     1       9.533  77.998  37.332  1.00  0.00     0.000 C 
ENDROOT
BRANCH   1   2
ATOM      2  C   UNL     1       9.755  79.311  38.105  1.00  0.00     0.000 C 
BRANCH   2   3
ATOM      3  C   UNL     1       9.588  79.135  39.622  1.00  0.00     0.000 C 
BRANCH   3   4
ATOM      4  C   UNL     1       9.227  80.451  40.332  1.00  0.00     0.000 C 
BRANCH   4   5
ATOM      5  C   UNL     1      10.438  81.386  40.503  1.00  0.00     0.006 C 
BRANCH   5   6
ATOM      6  C   UNL     1      11.737  80.668  40.903  1.00  0.00     0.053 C 
BRANCH   6   7
ATOM      7  C   UNL     1      12.012  80.781  42.371  1.00  0.00     0.041 C 
ATOM      8  O   UNL     1      12.913  81.555  42.789  1.00  0.00    -0.550 OA
ATOM      9  O   UNL     1      11.249  80.059  43.280  1.00  0.00    -0.550 OA
ENDBRANCH   6   7
ENDBRANCH   5   6
ENDBRANCH   4   5
ENDBRANCH   3   4
ENDBRANCH   2   3
ENDBRANCH   1   2
BRANCH   1  10
ATOM     10  C   UNL     1       8.192  77.972  36.584  1.00  0.00     0.000 C 
BRANCH  10  11
ATOM     11  C   UNL     1       7.532  79.358  36.505  1.00  0.00    -0.000 C 
BRANCH  11  12
ATOM     12  C   UNL     1       6.039  79.276  36.854  1.00  0.00    -0.000 C 
BRANCH  12  13
ATOM     13  C   UNL     1       5.655  80.151  38.062  1.00  0.00    -0.000 C 
BRANCH  13  14
ATOM     14  C   UNL     1       5.725  79.445  39.429  1.00  0.00    -0.000 C 
BRANCH  14  15
ATOM     15  C   UNL     1       5.342  77.957  39.356  1.00  0.00    -0.000 C 
BRANCH  15  16
ATOM     16  C   UNL     1       6.503  77.031  39.753  1.00  0.00    -0.003 C 
ATOM     17  C   UNL     1       6.460  75.684  39.032  1.00  0.00     0.004 C 
ENDBRANCH  15  16
ENDBRANCH  14  15
ENDBRANCH  13  14
ENDBRANCH  12  13
ENDBRANCH  11  12
ENDBRANCH  10  11
ENDBRANCH   1  10
TORSDOF 13
ENDMDL
MODEL 4
REMARK VINA RESULT:    -4.020      3.686      6.172
REMARK INTER + INTRA:          -8.953
REMARK INTER:                  -7.064
REMARK INTRA:                  -1.889
REMARK UNBOUND:                -1.877
REMARK SMILES CCCCCCCCCCCCCCC(=O)[O-]
REMARK SMILES IDX 9 1 10 2 11 3 12 4 13 5 14 6 15 7 16 8 17 9 8 10 7 11 6 12
REMARK SMILES IDX 5 13 4 14 3 15 2 16 1 17
REMARK H PARENT
REMARK Flexibility Score: inf
ROOT
ATOM      1  C   UNL     1       7.207  78.302  36.464  1.00  0.00     0.000 C 
ENDROOT
BRANCH   1   2
ATOM      2  C   UNL     1       8.715  78.552  36.282  1.00  0.00     0.000 C 
BRANCH   2   3
ATOM      3  C   UNL     1       9.551  77.970  37.433  1.00  0.00     0.000 C 
BRANCH   3   4
ATOM      4  C   UNL     1       9.457  78.814  38.715  1.00  0.00     0.000 C 
BRANCH   4   5
ATOM      5  C   UNL     1       9.857  80.284  38.489  1.00  0.00     0.006 C 
BRANCH   5   6
ATOM      6  C   UNL     1      11.164  80.697  39.185  1.00  0.00     0.053 C 
BRANCH   6   7
ATOM      7  C   UNL     1      11.072  80.568  40.674  1.00  0.00     0.041 C 
ATOM      8  O   UNL     1      11.982  79.983  41.317  1.00  0.00    -0.550 OA
ATOM      9  O   UNL     1       9.997  81.124  41.356  1.00  0.00    -0.550 OA
ENDBRANCH   6   7
ENDBRANCH   5   6
ENDBRANCH   4   5
ENDBRANCH   3   4
ENDBRANCH   2   3
ENDBRANCH   1   2
BRANCH   1  10
ATOM     10  C   UNL     1       6.362  79.549  36.162  1.00  0.00     0.000 C 
BRANCH  10  11
ATOM     11  C   UNL     1       6.341  80.546  37.331  1.00  0.00    -0.000 C 
BRANCH  11  12
ATOM     12  C   UNL     1       5.273  80.158  38.364  1.00  0.00    -0.000 C 
BRANCH  12  13
ATOM     13  C   UNL     1       5.868  79.512  39.630  1.00  0.00    -0.000 C 
BRANCH  13  14
ATOM     14  C   UNL     1       5.349  78.098  39.947  1.00  0.00    -0.000 C 
BRANCH  14  15
ATOM     15  C   UNL     1       6.413  77.007  39.738  1.00  0.00    -0.000 C 
BRANCH  15  16
ATOM     16  C   UNL     1       5.838  75.746  39.074  1.00  0.00    -0.003 C 
ATOM     17  C   UNL     1       4.313  75.769  38.979  1.00  0.00     0.004 C 
ENDBRANCH  15  16
ENDBRANCH  14  15
ENDBRANCH  13  14
ENDBRANCH  12  13
ENDBRANCH  11  12
ENDBRANCH  10  11
ENDBRANCH   1  10
TORSDOF 13
ENDMDL
MODEL 5
REMARK VINA RESULT:    -4.007      4.862      7.087
REMARK INTER + INTRA:          -8.930
REMARK INTER:                  -7.284
REMARK INTRA:                  -1.646
REMARK UNBOUND:                -1.877
REMARK SMILES CCCCCCCCCCCCCCC(=O)[O-]
REMARK SMILES IDX 9 1 10 2 11 3 12 4 13 5 14 6 15 7 16 8 17 9 8 10 7 11 6 12
REMARK SMILES IDX 5 13 4 14 3 15 2 16 1 17
REMARK H PARENT
REMARK Flexibility Score: inf
ROOT
ATOM      1  C   UNL     1       9.295  78.426  38.901  1.00  0.00     0.000 C 
ENDROOT
BRANCH   1   2
ATOM      2  C   UNL     1       9.568  79.774  39.593  1.00  0.00     0.000 C 
BRANCH   2   3
ATOM      3  C   UNL     1      10.792  80.497  39.008  1.00  0.00     0.000 C 
BRANCH   3   4
ATOM      4  C   UNL     1      11.652  81.169  40.090  1.00  0.00     0.000 C 
BRANCH   4   5
ATOM      5  C   UNL     1      11.820  80.293  41.346  1.00  0.00     0.006 C 
BRANCH   5   6
ATOM      6  C   UNL     1      12.204  81.074  42.613  1.00  0.00     0.053 C 
BRANCH   6   7
ATOM      7  C   UNL     1      11.035  81.262  43.531  1.00  0.00     0.041 C 
ATOM      8  O   UNL     1      11.160  81.056  44.767  1.00  0.00    -0.550 OA
ATOM      9  O   UNL     1       9.816  81.697  43.027  1.00  0.00    -0.550 OA
ENDBRANCH   6   7
ENDBRANCH   5   6
ENDBRANCH   4   5
ENDBRANCH   3   4
ENDBRANCH   2   3
ENDBRANCH   1   2
BRANCH   1  10
ATOM     10  C   UNL     1       9.647  78.447  37.406  1.00  0.00     0.000 C 
BRANCH  10  11
ATOM     11  C   UNL     1       8.432  78.168  36.508  1.00  0.00    -0.000 C 
BRANCH  11  12
ATOM     12  C   UNL     1       7.496  79.384  36.457  1.00  0.00    -0.000 C 
BRANCH  12  13
ATOM     13  C   UNL     1       6.083  79.078  36.989  1.00  0.00    -0.000 C 
BRANCH  13  14
ATOM     14  C   UNL     1       5.711  79.792  38.302  1.00  0.00    -0.000 C 
BRANCH  14  15
ATOM     15  C   UNL     1       5.626  78.833  39.502  1.00  0.00    -0.000 C 
BRANCH  15  16
ATOM     16  C   UNL     1       5.332  77.386  39.077  1.00  0.00    -0.003 C 
ATOM     17  C   UNL     1       6.366  76.392  39.606  1.00  0.00     0.004 C 
ENDBRANCH  15  16
ENDBRANCH  14  15
ENDBRANCH  13  14
ENDBRANCH  12  13
ENDBRANCH  11  12
ENDBRANCH  10  11
ENDBRANCH   1  10
TORSDOF 13
ENDMDL
MODEL 6
REMARK VINA RESULT:    -3.973      5.883      7.815
REMARK INTER + INTRA:          -8.870
REMARK INTER:                  -8.038
REMARK INTRA:                  -0.832
REMARK UNBOUND:                -1.877
REMARK SMILES CCCCCCCCCCCCCCC(=O)[O-]
REMARK SMILES IDX 9 1 10 2 11 3 12 4 13 5 14 6 15 7 16 8 17 9 8 10 7 11 6 12
REMARK SMILES IDX 5 13 4 14 3 15 2 16 1 17
REMARK H PARENT
REMARK Flexibility Score: inf
ROOT
ATOM      1  C   UNL     1      10.989  80.436  43.441  1.00  0.00     0.000 C 
ENDROOT
BRANCH   1   2
ATOM      2  C   UNL     1      10.309  81.311  44.509  1.00  0.00     0.000 C 
BRANCH   2   3
ATOM      3  C   UNL     1       9.398  82.386  43.895  1.00  0.00     0.000 C 
BRANCH   3   4
ATOM      4  C   UNL     1       7.956  82.308  44.423  1.00  0.00     0.000 C 
BRANCH   4   5
ATOM      5  C   UNL     1       7.589  80.906  44.946  1.00  0.00     0.006 C 
BRANCH   5   6
ATOM      6  C   UNL     1       7.157  80.876  46.421  1.00  0.00     0.053 C 
BRANCH   6   7
ATOM      7  C   UNL     1       7.019  79.476  46.936  1.00  0.00     0.041 C 
ATOM      8  O   UNL     1       8.044  78.781  47.163  1.00  0.00    -0.550 OA
ATOM      9  O   UNL     1       5.760  78.951  47.197  1.00  0.00    -0.550 OA
ENDBRANCH   6   7
ENDBRANCH   5   6
ENDBRANCH   4   5
ENDBRANCH   3   4
ENDBRANCH   2   3
ENDBRANCH   1   2
BRANCH   1  10
ATOM     10  C   UNL     1      10.439  80.693  42.029  1.00  0.00     0.000 C 
BRANCH  10  11
ATOM     11  C   UNL     1      11.397  80.217  40.926  1.00  0.00    -0.000 C 
BRANCH  11  12
ATOM     12  C   UNL     1      11.339  81.150  39.708  1.00  0.00    -0.000 C 
BRANCH  12  13
ATOM     13  C   UNL     1      10.863  80.440  38.427  1.00  0.00    -0.000 C 
BRANCH  13  14
ATOM     14  C   UNL     1       9.389  79.993  38.437  1.00  0.00    -0.000 C 
BRANCH  14  15
ATOM     15  C   UNL     1       9.212  78.503  38.098  1.00  0.00    -0.000 C 
BRANCH  15  16
ATOM     16  C   UNL     1       9.205  78.243  36.583  1.00  0.00    -0.003 C 
ATOM     17  C   UNL     1      10.293  77.262  36.146  1.00  0.00     0.004 C 
ENDBRANCH  15  16
ENDBRANCH  14  15
ENDBRANCH  13  14
ENDBRANCH  12  13
ENDBRANCH  11  12
ENDBRANCH  10  11
ENDBRANCH   1  10
TORSDOF 13
ENDMDL
MODEL 7
REMARK VINA RESULT:    -3.906      4.562      6.475
REMARK INTER + INTRA:          -8.751
REMARK INTER:                  -7.070
REMARK INTRA:                  -1.681
REMARK UNBOUND:                -1.877
REMARK SMILES CCCCCCCCCCCCCCC(=O)[O-]
REMARK SMILES IDX 9 1 10 2 11 3 12 4 13 5 14 6 15 7 16 8 17 9 8 10 7 11 6 12
REMARK SMILES IDX 5 13 4 14 3 15 2 16 1 17
REMARK H PARENT
REMARK Flexibility Score: inf
ROOT
ATOM      1  C   UNL     1       8.094  79.741  39.701  1.00  0.00     0.000 C 
ENDROOT
BRANCH   1   2
ATOM      2  C   UNL     1       9.583  79.357  39.630  1.00  0.00     0.000 C 
BRANCH   2   3
ATOM      3  C   UNL     1      10.392  80.304  38.730  1.00  0.00     0.000 C 
BRANCH   3   4
ATOM      4  C   UNL     1      11.546  80.989  39.482  1.00  0.00     0.000 C 
BRANCH   4   5
ATOM      5  C   UNL     1      11.079  81.701  40.766  1.00  0.00     0.006 C 
BRANCH   5   6
ATOM      6  C   UNL     1      12.034  81.538  41.960  1.00  0.00     0.053 C 
BRANCH   6   7
ATOM      7  C   UNL     1      11.601  80.437  42.878  1.00  0.00     0.041 C 
ATOM      8  O   UNL     1      11.649  79.238  42.497  1.00  0.00    -0.550 OA
ATOM      9  O   UNL     1      11.177  80.731  44.168  1.00  0.00    -0.550 OA
ENDBRANCH   6   7
ENDBRANCH   5   6
ENDBRANCH   4   5
ENDBRANCH   3   4
ENDBRANCH   2   3
ENDBRANCH   1   2
BRANCH   1  10
ATOM     10  C   UNL     1       7.544  80.224  38.351  1.00  0.00     0.000 C 
BRANCH  10  11
ATOM     11  C   UNL     1       6.043  79.940  38.188  1.00  0.00    -0.000 C 
BRANCH  11  12
ATOM     12  C   UNL     1       5.686  78.549  38.733  1.00  0.00    -0.000 C 
BRANCH  12  13
ATOM     13  C   UNL     1       5.986  77.416  37.734  1.00  0.00    -0.000 C 
BRANCH  13  14
ATOM     14  C   UNL     1       7.135  76.475  38.141  1.00  0.00    -0.000 C 
BRANCH  14  15
ATOM     15  C   UNL     1       8.112  76.189  36.988  1.00  0.00    -0.000 C 
BRANCH  15  16
ATOM     16  C   UNL     1       8.910  77.435  36.571  1.00  0.00    -0.003 C 
ATOM     17  C   UNL     1      10.380  77.129  36.283  1.00  0.00     0.004 C 
ENDBRANCH  15  16
ENDBRANCH  14  15
ENDBRANCH  13  14
ENDBRANCH  12  13
ENDBRANCH  11  12
ENDBRANCH  10  11
ENDBRANCH   1  10
TORSDOF 13
ENDMDL
MODEL 8
REMARK VINA RESULT:    -3.843      3.251      5.328
REMARK INTER + INTRA:          -8.641
REMARK INTER:                  -6.609
REMARK INTRA:                  -2.032
REMARK UNBOUND:                -1.877
REMARK SMILES CCCCCCCCCCCCCCC(=O)[O-]
REMARK SMILES IDX 9 1 10 2 11 3 12 4 13 5 14 6 15 7 16 8 17 9 8 10 7 11 6 12
REMARK SMILES IDX 5 13 4 14 3 15 2 16 1 17
REMARK H PARENT
REMARK Flexibility Score: inf
ROOT
ATOM      1  C   UNL     1       6.053  79.193  36.849  1.00  0.00     0.000 C 
ENDROOT
BRANCH   1   2
ATOM      2  C   UNL     1       7.449  79.145  36.202  1.00  0.00     0.000 C 
BRANCH   2   3
ATOM      3  C   UNL     1       8.256  77.912  36.638  1.00  0.00     0.000 C 
BRANCH   3   4
ATOM      4  C   UNL     1       9.717  78.254  36.976  1.00  0.00     0.000 C 
BRANCH   4   5
ATOM      5  C   UNL     1       9.838  79.307  38.093  1.00  0.00     0.006 C 
BRANCH   5   6
ATOM      6  C   UNL     1       9.422  78.803  39.484  1.00  0.00     0.053 C 
BRANCH   6   7
ATOM      7  C   UNL     1       9.479  79.888  40.515  1.00  0.00     0.041 C 
ATOM      8  O   UNL     1       8.550  80.734  40.596  1.00  0.00    -0.550 OA
ATOM      9  O   UNL     1      10.541  79.945  41.408  1.00  0.00    -0.550 OA
ENDBRANCH   6   7
ENDBRANCH   5   6
ENDBRANCH   4   5
ENDBRANCH   3   4
ENDBRANCH   2   3
ENDBRANCH   1   2
BRANCH   1  10
ATOM     10  C   UNL     1       6.016  80.072  38.109  1.00  0.00     0.000 C 
BRANCH  10  11
ATOM     11  C   UNL     1       5.190  79.445  39.243  1.00  0.00    -0.000 C 
BRANCH  11  12
ATOM     12  C   UNL     1       5.852  78.158  39.757  1.00  0.00    -0.000 C 
BRANCH  12  13
ATOM     13  C   UNL     1       5.042  76.890  39.424  1.00  0.00    -0.000 C 
BRANCH  13  14
ATOM     14  C   UNL     1       5.829  75.787  38.694  1.00  0.00    -0.000 C 
BRANCH  14  15
ATOM     15  C   UNL     1       5.325  75.538  37.262  1.00  0.00    -0.000 C 
BRANCH  15  16
ATOM     16  C   UNL     1       6.239  74.586  36.475  1.00  0.00    -0.003 C 
ATOM     17  C   UNL     1       7.531  74.253  37.221  1.00  0.00     0.004 C 
ENDBRANCH  15  16
ENDBRANCH  14  15
ENDBRANCH  13  14
ENDBRANCH  12  13
ENDBRANCH  11  12
ENDBRANCH  10  11
ENDBRANCH   1  10
TORSDOF 13
ENDMDL
MODEL 9
REMARK VINA RESULT:    -3.802      4.496      6.516
REMARK INTER + INTRA:          -8.569
REMARK INTER:                  -6.852
REMARK INTRA:                  -1.717
REMARK UNBOUND:                -1.877
REMARK SMILES CCCCCCCCCCCCCCC(=O)[O-]
REMARK SMILES IDX 9 1 10 2 11 3 12 4 13 5 14 6 15 7 16 8 17 9 8 10 7 11 6 12
REMARK SMILES IDX 5 13 4 14 3 15 2 16 1 17
REMARK H PARENT
REMARK Flexibility Score: inf
ROOT
ATOM      1  C   UNL     1      10.523  80.180  38.470  1.00  0.00     0.000 C 
ENDROOT
BRANCH   1   2
ATOM      2  C   UNL     1       9.516  79.026  38.312  1.00  0.00     0.000 C 
BRANCH   2   3
ATOM      3  C   UNL     1       8.304  79.417  37.452  1.00  0.00     0.000 C 
BRANCH   3   4
ATOM      4  C   UNL     1       7.227  80.166  38.256  1.00  0.00     0.000 C 
BRANCH   4   5
ATOM      5  C   UNL     1       7.028  79.585  39.668  1.00  0.00     0.006 C 
BRANCH   5   6
ATOM      6  C   UNL     1       5.697  78.842  39.863  1.00  0.00     0.053 C 
BRANCH   6   7
ATOM      7  C   UNL     1       5.833  77.372  39.610  1.00  0.00     0.041 C 
ATOM      8  O   UNL     1       6.959  76.816  39.694  1.00  0.00    -0.550 OA
ATOM      9  O   UNL     1       4.709  76.609  39.316  1.00  0.00    -0.550 OA
ENDBRANCH   6   7
ENDBRANCH   5   6
ENDBRANCH   4   5
ENDBRANCH   3   4
ENDBRANCH   2   3
ENDBRANCH   1   2
BRANCH   1  10
ATOM     10  C   UNL     1      10.652  80.656  39.925  1.00  0.00     0.000 C 
BRANCH  10  11
ATOM     11  C   UNL     1      10.596  79.497  40.933  1.00  0.00    -0.000 C 
BRANCH  11  12
ATOM     12  C   UNL     1      11.742  79.599  41.951  1.00  0.00    -0.000 C 
BRANCH  12  13
ATOM     13  C   UNL     1      12.165  81.052  42.238  1.00  0.00    -0.000 C 
BRANCH  13  14
ATOM     14  C   UNL     1      11.978  81.510  43.696  1.00  0.00    -0.000 C 
BRANCH  14  15
ATOM     15  C   UNL     1      10.499  81.632  44.101  1.00  0.00    -0.000 C 
BRANCH  15  16
ATOM     16  C   UNL     1       9.686  82.478  43.109  1.00  0.00    -0.003 C 
ATOM     17  C   UNL     1       8.363  81.821  42.715  1.00  0.00     0.004 C 
ENDBRANCH  15  16
ENDBRANCH  14  15
ENDBRANCH  13  14
ENDBRANCH  12  13
ENDBRANCH  11  12
ENDBRANCH  10  11
ENDBRANCH   1  10
TORSDOF 13
ENDMDL
