MODEL 1
REMARK VINA RESULT:    -6.730      0.000      0.000
REMARK INTER + INTRA:          -9.988
REMARK INTER:                  -8.894
REMARK INTRA:                  -1.093
REMARK UNBOUND:                -1.093
REMARK SMILES CC(C)=CCC[C@@H](C(=O)[O-])[C@H]1CC[C@@]2(C)C3=C(CC[C@@]12C)[C@]1(C)CC[C@H](O)C(C)(C)[C@@H]1CC3
REMARK SMILES IDX 6 1 7 2 8 3 9 4 10 5 11 6 12 7 20 8 13 9 14 10 19 11 21 12
REMARK SMILES IDX 15 13 16 14 18 15 17 16 33 17 22 18 32 19 31 20 24 21 23 22
REMARK SMILES IDX 28 23 25 24 26 25 29 26 30 27 27 28 5 30 4 31 2 32 1 33 3 34
REMARK H PARENT 27 29
REMARK Flexibility Score: inf
ROOT
ATOM      1  C   UNL     1     170.361 178.543 187.629  1.00  0.00     0.014 C 
ENDROOT
BRANCH   1   2
ATOM      2  C   UNL     1     170.493 177.264 186.744  1.00  0.00     0.039 C 
BRANCH   2   3
ATOM      3  C   UNL     1     171.727 176.466 187.127  1.00  0.00     0.045 C 
ATOM      4  O   UNL     1     172.131 176.463 188.320  1.00  0.00    -0.550 OA
ATOM      5  O   UNL     1     172.424 175.737 186.163  1.00  0.00    -0.550 OA
ENDBRANCH   2   3
BRANCH   2   6
ATOM      6  C   UNL     1     169.264 176.278 186.687  1.00  0.00     0.004 C 
ATOM      7  C   UNL     1     168.588 175.920 188.007  1.00  0.00     0.006 C 
ATOM      8  C   UNL     1     168.090 176.431 185.661  1.00  0.00    -0.020 C 
ATOM      9  C   UNL     1     167.369 175.070 187.620  1.00  0.00     0.012 C 
ATOM     10  C   UNL     1     167.142 175.220 186.079  1.00  0.00    -0.006 C 
ATOM     11  C   UNL     1     167.330 177.805 185.758  1.00  0.00     0.012 C 
ATOM     12  C   UNL     1     168.639 176.317 184.210  1.00  0.00     0.012 C 
ATOM     13  C   UNL     1     167.598 173.884 185.395  1.00  0.00     0.017 C 
ATOM     14  C   UNL     1     165.636 175.505 185.798  1.00  0.00    -0.064 C 
ATOM     15  C   UNL     1     166.060 177.786 186.597  1.00  0.00     0.032 C 
ATOM     16  C   UNL     1     165.106 176.735 186.066  1.00  0.00    -0.064 C 
ATOM     17  C   UNL     1     164.752 174.453 185.162  1.00  0.00     0.032 C 
ATOM     18  C   UNL     1     163.645 177.141 185.689  1.00  0.00    -0.008 C 
ATOM     19  C   UNL     1     163.322 174.565 185.652  1.00  0.00     0.009 C 
ATOM     20  C   UNL     1     162.719 175.918 185.228  1.00  0.00     0.007 C 
ATOM     21  C   UNL     1     162.994 177.897 186.900  1.00  0.00     0.014 C 
ATOM     22  C   UNL     1     163.782 178.118 184.490  1.00  0.00     0.016 C 
ATOM     23  C   UNL     1     161.186 176.035 185.643  1.00  0.00    -0.006 C 
ATOM     24  C   UNL     1     162.249 176.962 187.845  1.00  0.00     0.033 C 
ATOM     25  C   UNL     1     161.019 176.303 187.189  1.00  0.00     0.120 C 
ATOM     26  C   UNL     1     160.501 177.177 184.838  1.00  0.00     0.014 C 
ATOM     27  C   UNL     1     160.397 174.756 185.218  1.00  0.00     0.014 C 
BRANCH  25  28
ATOM     28  O   UNL     1     160.754 175.114 187.900  1.00  0.00    -0.393 OA
ATOM     29  H   UNL     1     160.467 174.427 187.240  1.00  0.00     0.210 HD
ENDBRANCH  25  28
ENDBRANCH   2   6
ENDBRANCH   1   2
BRANCH   1  30
ATOM     30  C   UNL     1     171.114 179.774 187.075  1.00  0.00     0.028 C 
BRANCH  30  31
ATOM     31  C   UNL     1     172.444 179.970 187.763  1.00  0.00    -0.028 C 
ATOM     32  C   UNL     1     173.626 179.745 187.150  1.00  0.00    -0.080 C 
ATOM     33  C   UNL     1     174.896 179.925 187.940  1.00  0.00     0.039 C 
ATOM     34  C   UNL     1     173.696 179.312 185.702  1.00  0.00     0.039 C 
ENDBRANCH  30  31
ENDBRANCH   1  30
TORSDOF 6
ENDMDL
MODEL 2
REMARK VINA RESULT:    -6.722      7.839     11.108
REMARK INTER + INTRA:          -9.976
REMARK INTER:                  -8.146
REMARK INTRA:                  -1.830
REMARK UNBOUND:                -1.093
REMARK SMILES CC(C)=CCC[C@@H](C(=O)[O-])[C@H]1CC[C@@]2(C)C3=C(CC[C@@]12C)[C@]1(C)CC[C@H](O)C(C)(C)[C@@H]1CC3
REMARK SMILES IDX 6 1 7 2 8 3 9 4 10 5 11 6 12 7 20 8 13 9 14 10 19 11 21 12
REMARK SMILES IDX 15 13 16 14 18 15 17 16 33 17 22 18 32 19 31 20 24 21 23 22
REMARK SMILES IDX 28 23 25 24 26 25 29 26 30 27 27 28 5 30 4 31 2 32 1 33 3 34
REMARK H PARENT 27 29
REMARK Flexibility Score: inf
ROOT
ATOM      1  C   UNL     1     179.042 170.373 187.088  1.00  0.00     0.014 C 
ENDROOT
BRANCH   1   2
ATOM      2  C   UNL     1     177.523 170.078 186.882  1.00  0.00     0.039 C 
BRANCH   2   3
ATOM      3  C   UNL     1     177.142 168.745 187.501  1.00  0.00     0.045 C 
ATOM      4  O   UNL     1     175.938 168.501 187.783  1.00  0.00    -0.550 OA
ATOM      5  O   UNL     1     178.119 167.785 187.767  1.00  0.00    -0.550 OA
ENDBRANCH   2   3
BRANCH   2   6
ATOM      6  C   UNL     1     176.489 171.164 187.370  1.00  0.00     0.004 C 
ATOM      7  C   UNL     1     176.864 171.991 188.595  1.00  0.00     0.006 C 
ATOM      8  C   UNL     1     175.786 172.174 186.401  1.00  0.00    -0.020 C 
ATOM      9  C   UNL     1     175.744 173.032 188.739  1.00  0.00     0.012 C 
ATOM     10  C   UNL     1     174.908 173.032 187.417  1.00  0.00    -0.006 C 
ATOM     11  C   UNL     1     176.782 173.090 185.599  1.00  0.00     0.012 C 
ATOM     12  C   UNL     1     174.939 171.398 185.352  1.00  0.00     0.012 C 
ATOM     13  C   UNL     1     173.539 172.327 187.714  1.00  0.00     0.017 C 
ATOM     14  C   UNL     1     174.689 174.499 186.938  1.00  0.00    -0.064 C 
ATOM     15  C   UNL     1     177.030 174.465 186.204  1.00  0.00     0.032 C 
ATOM     16  C   UNL     1     175.715 175.200 186.372  1.00  0.00    -0.064 C 
ATOM     17  C   UNL     1     173.324 175.149 187.028  1.00  0.00     0.032 C 
ATOM     18  C   UNL     1     175.542 176.621 185.746  1.00  0.00    -0.008 C 
ATOM     19  C   UNL     1     173.439 176.640 187.268  1.00  0.00     0.009 C 
ATOM     20  C   UNL     1     174.139 177.319 186.075  1.00  0.00     0.007 C 
ATOM     21  C   UNL     1     176.732 177.533 186.209  1.00  0.00     0.014 C 
ATOM     22  C   UNL     1     175.625 176.411 184.211  1.00  0.00     0.016 C 
ATOM     23  C   UNL     1     174.195 178.902 186.248  1.00  0.00    -0.006 C 
ATOM     24  C   UNL     1     176.419 178.305 187.485  1.00  0.00     0.033 C 
ATOM     25  C   UNL     1     175.288 179.336 187.299  1.00  0.00     0.120 C 
ATOM     26  C   UNL     1     174.489 179.579 184.879  1.00  0.00     0.014 C 
ATOM     27  C   UNL     1     172.794 179.465 186.648  1.00  0.00     0.014 C 
BRANCH  25  28
ATOM     28  O   UNL     1     174.726 179.572 188.572  1.00  0.00    -0.393 OA
ATOM     29  H   UNL     1     173.892 179.033 188.636  1.00  0.00     0.210 HD
ENDBRANCH  25  28
ENDBRANCH   2   6
ENDBRANCH   1   2
BRANCH   1  30
ATOM     30  C   UNL     1     179.859 170.420 185.777  1.00  0.00     0.028 C 
BRANCH  30  31
ATOM     31  C   UNL     1     178.997 170.126 184.572  1.00  0.00    -0.028 C 
ATOM     32  C   UNL     1     178.844 170.997 183.552  1.00  0.00    -0.080 C 
ATOM     33  C   UNL     1     177.924 170.628 182.417  1.00  0.00     0.039 C 
ATOM     34  C   UNL     1     179.566 172.327 183.532  1.00  0.00     0.039 C 
ENDBRANCH  30  31
ENDBRANCH   1  30
TORSDOF 6
ENDMDL
MODEL 3
REMARK VINA RESULT:    -6.611      1.676      2.490
REMARK INTER + INTRA:          -9.829
REMARK INTER:                  -8.014
REMARK INTRA:                  -1.815
REMARK UNBOUND:                -1.093
REMARK SMILES CC(C)=CCC[C@@H](C(=O)[O-])[C@H]1CC[C@@]2(C)C3=C(CC[C@@]12C)[C@]1(C)CC[C@H](O)C(C)(C)[C@@H]1CC3
REMARK SMILES IDX 6 1 7 2 8 3 9 4 10 5 11 6 12 7 20 8 13 9 14 10 19 11 21 12
REMARK SMILES IDX 15 13 16 14 18 15 17 16 33 17 22 18 32 19 31 20 24 21 23 22
REMARK SMILES IDX 28 23 25 24 26 25 29 26 30 27 27 28 5 30 4 31 2 32 1 33 3 34
REMARK H PARENT 27 29
REMARK Flexibility Score: inf
ROOT
ATOM      1  C   UNL     1     171.473 178.801 186.479  1.00  0.00     0.014 C 
ENDROOT
BRANCH   1   2
ATOM      2  C   UNL     1     171.387 177.247 186.586  1.00  0.00     0.039 C 
BRANCH   2   3
ATOM      3  C   UNL     1     172.559 176.693 187.377  1.00  0.00     0.045 C 
ATOM      4  O   UNL     1     172.681 175.449 187.537  1.00  0.00    -0.550 OA
ATOM      5  O   UNL     1     173.504 177.554 187.936  1.00  0.00    -0.550 OA
ENDBRANCH   2   3
BRANCH   2   6
ATOM      6  C   UNL     1     170.060 176.621 187.166  1.00  0.00     0.004 C 
ATOM      7  C   UNL     1     169.421 177.314 188.365  1.00  0.00     0.006 C 
ATOM      8  C   UNL     1     168.856 176.183 186.265  1.00  0.00    -0.020 C 
ATOM      9  C   UNL     1     168.101 176.568 188.608  1.00  0.00     0.012 C 
ATOM     10  C   UNL     1     167.810 175.677 187.355  1.00  0.00    -0.006 C 
ATOM     11  C   UNL     1     168.250 177.345 185.396  1.00  0.00     0.012 C 
ATOM     12  C   UNL     1     169.311 175.069 185.279  1.00  0.00     0.012 C 
ATOM     13  C   UNL     1     168.087 174.186 187.754  1.00  0.00     0.017 C 
ATOM     14  C   UNL     1     166.329 175.870 186.910  1.00  0.00    -0.064 C 
ATOM     15  C   UNL     1     167.031 178.035 185.992  1.00  0.00     0.032 C 
ATOM     16  C   UNL     1     165.945 177.015 186.271  1.00  0.00    -0.064 C 
ATOM     17  C   UNL     1     165.307 174.771 187.114  1.00  0.00     0.032 C 
ATOM     18  C   UNL     1     164.517 177.228 185.675  1.00  0.00    -0.008 C 
ATOM     19  C   UNL     1     163.925 175.342 187.359  1.00  0.00     0.009 C 
ATOM     20  C   UNL     1     163.445 176.125 186.120  1.00  0.00     0.007 C 
ATOM     21  C   UNL     1     164.014 178.666 186.050  1.00  0.00     0.014 C 
ATOM     22  C   UNL     1     164.692 177.132 184.135  1.00  0.00     0.016 C 
ATOM     23  C   UNL     1     161.957 176.661 186.304  1.00  0.00    -0.006 C 
ATOM     24  C   UNL     1     163.226 178.691 187.354  1.00  0.00     0.033 C 
ATOM     25  C   UNL     1     161.901 177.908 187.269  1.00  0.00     0.120 C 
ATOM     26  C   UNL     1     161.353 177.043 184.922  1.00  0.00     0.014 C 
ATOM     27  C   UNL     1     161.017 175.525 186.819  1.00  0.00     0.014 C 
BRANCH  25  28
ATOM     28  O   UNL     1     161.551 177.536 188.584  1.00  0.00    -0.393 OA
ATOM     29  H   UNL     1     160.830 178.151 188.888  1.00  0.00     0.210 HD
ENDBRANCH  25  28
ENDBRANCH   2   6
ENDBRANCH   1   2
BRANCH   1  30
ATOM     30  C   UNL     1     171.973 179.312 185.109  1.00  0.00     0.028 C 
BRANCH  30  31
ATOM     31  C   UNL     1     171.669 178.330 184.002  1.00  0.00    -0.028 C 
ATOM     32  C   UNL     1     170.706 178.541 183.080  1.00  0.00    -0.080 C 
ATOM     33  C   UNL     1     170.450 177.476 182.045  1.00  0.00     0.039 C 
ATOM     34  C   UNL     1     169.884 179.811 183.072  1.00  0.00     0.039 C 
ENDBRANCH  30  31
ENDBRANCH   1  30
TORSDOF 6
ENDMDL
MODEL 4
REMARK VINA RESULT:    -6.550      6.311      8.885
REMARK INTER + INTRA:          -9.750
REMARK INTER:                  -7.921
REMARK INTRA:                  -1.828
REMARK UNBOUND:                -1.093
REMARK SMILES CC(C)=CCC[C@@H](C(=O)[O-])[C@H]1CC[C@@]2(C)C3=C(CC[C@@]12C)[C@]1(C)CC[C@H](O)C(C)(C)[C@@H]1CC3
REMARK SMILES IDX 6 1 7 2 8 3 9 4 10 5 11 6 12 7 20 8 13 9 14 10 19 11 21 12
REMARK SMILES IDX 15 13 16 14 18 15 17 16 33 17 22 18 32 19 31 20 24 21 23 22
REMARK SMILES IDX 28 23 25 24 26 25 29 26 30 27 27 28 5 30 4 31 2 32 1 33 3 34
REMARK H PARENT 27 29
REMARK Flexibility Score: inf
ROOT
ATOM      1  C   UNL     1     160.658 176.083 180.038  1.00  0.00     0.014 C 
ENDROOT
BRANCH   1   2
ATOM      2  C   UNL     1     161.722 176.833 180.899  1.00  0.00     0.039 C 
BRANCH   2   3
ATOM      3  C   UNL     1     161.692 178.324 180.618  1.00  0.00     0.045 C 
ATOM      4  O   UNL     1     162.143 179.137 181.470  1.00  0.00    -0.550 OA
ATOM      5  O   UNL     1     161.161 178.807 179.422  1.00  0.00    -0.550 OA
ENDBRANCH   2   3
BRANCH   2   6
ATOM      6  C   UNL     1     161.686 176.623 182.462  1.00  0.00     0.004 C 
ATOM      7  C   UNL     1     160.338 176.297 183.096  1.00  0.00     0.006 C 
ATOM      8  C   UNL     1     162.720 175.731 183.230  1.00  0.00    -0.020 C 
ATOM      9  C   UNL     1     160.643 176.021 184.576  1.00  0.00     0.012 C 
ATOM     10  C   UNL     1     162.191 175.850 184.728  1.00  0.00    -0.006 C 
ATOM     11  C   UNL     1     162.748 174.231 182.756  1.00  0.00     0.012 C 
ATOM     12  C   UNL     1     164.155 176.297 183.032  1.00  0.00     0.012 C 
ATOM     13  C   UNL     1     162.750 177.139 185.424  1.00  0.00     0.017 C 
ATOM     14  C   UNL     1     162.494 174.580 185.580  1.00  0.00    -0.064 C 
ATOM     15  C   UNL     1     161.909 173.272 183.588  1.00  0.00     0.032 C 
ATOM     16  C   UNL     1     162.340 173.335 185.040  1.00  0.00    -0.064 C 
ATOM     17  C   UNL     1     163.029 174.701 186.991  1.00  0.00     0.032 C 
ATOM     18  C   UNL     1     162.750 172.021 185.780  1.00  0.00    -0.008 C 
ATOM     19  C   UNL     1     162.549 173.558 187.863  1.00  0.00     0.009 C 
ATOM     20  C   UNL     1     163.095 172.218 187.331  1.00  0.00     0.007 C 
ATOM     21  C   UNL     1     161.612 170.956 185.601  1.00  0.00     0.014 C 
ATOM     22  C   UNL     1     164.034 171.525 185.062  1.00  0.00     0.016 C 
ATOM     23  C   UNL     1     162.690 171.002 188.275  1.00  0.00    -0.006 C 
ATOM     24  C   UNL     1     160.584 170.999 186.725  1.00  0.00     0.033 C 
ATOM     25  C   UNL     1     161.175 170.600 188.093  1.00  0.00     0.120 C 
ATOM     26  C   UNL     1     163.595 169.771 187.978  1.00  0.00     0.014 C 
ATOM     27  C   UNL     1     162.994 171.335 189.770  1.00  0.00     0.014 C 
BRANCH  25  28
ATOM     28  O   UNL     1     160.357 171.181 189.085  1.00  0.00    -0.393 OA
ATOM     29  H   UNL     1     160.550 170.716 189.943  1.00  0.00     0.210 HD
ENDBRANCH  25  28
ENDBRANCH   2   6
ENDBRANCH   1   2
BRANCH   1  30
ATOM     30  C   UNL     1     161.259 175.168 178.948  1.00  0.00     0.028 C 
BRANCH  30  31
ATOM     31  C   UNL     1     162.750 174.998 179.122  1.00  0.00    -0.028 C 
ATOM     32  C   UNL     1     163.330 173.800 179.345  1.00  0.00    -0.080 C 
ATOM     33  C   UNL     1     164.821 173.745 179.551  1.00  0.00     0.039 C 
ATOM     34  C   UNL     1     162.516 172.525 179.398  1.00  0.00     0.039 C 
ENDBRANCH  30  31
ENDBRANCH   1  30
TORSDOF 6
ENDMDL
MODEL 5
REMARK VINA RESULT:    -6.525      2.077      8.923
REMARK INTER + INTRA:          -9.717
REMARK INTER:                  -8.168
REMARK INTRA:                  -1.549
REMARK UNBOUND:                -1.093
REMARK SMILES CC(C)=CCC[C@@H](C(=O)[O-])[C@H]1CC[C@@]2(C)C3=C(CC[C@@]12C)[C@]1(C)CC[C@H](O)C(C)(C)[C@@H]1CC3
REMARK SMILES IDX 6 1 7 2 8 3 9 4 10 5 11 6 12 7 20 8 13 9 14 10 19 11 21 12
REMARK SMILES IDX 15 13 16 14 18 15 17 16 33 17 22 18 32 19 31 20 24 21 23 22
REMARK SMILES IDX 28 23 25 24 26 25 29 26 30 27 27 28 5 30 4 31 2 32 1 33 3 34
REMARK H PARENT 27 29
REMARK Flexibility Score: inf
ROOT
ATOM      1  C   UNL     1     161.103 176.642 186.745  1.00  0.00     0.014 C 
ENDROOT
BRANCH   1   2
ATOM      2  C   UNL     1     161.337 176.254 185.252  1.00  0.00     0.039 C 
BRANCH   2   3
ATOM      3  C   UNL     1     160.329 176.944 184.349  1.00  0.00     0.045 C 
ATOM      4  O   UNL     1     159.881 176.349 183.332  1.00  0.00    -0.550 OA
ATOM      5  O   UNL     1     159.896 178.239 184.635  1.00  0.00    -0.550 OA
ENDBRANCH   2   3
BRANCH   2   6
ATOM      6  C   UNL     1     162.777 176.482 184.649  1.00  0.00     0.004 C 
ATOM      7  C   UNL     1     163.279 177.918 184.549  1.00  0.00     0.006 C 
ATOM      8  C   UNL     1     164.028 175.646 185.084  1.00  0.00    -0.020 C 
ATOM      9  C   UNL     1     164.731 177.807 184.062  1.00  0.00     0.012 C 
ATOM     10  C   UNL     1     165.178 176.314 184.207  1.00  0.00    -0.006 C 
ATOM     11  C   UNL     1     164.360 175.741 186.619  1.00  0.00     0.012 C 
ATOM     12  C   UNL     1     163.798 174.142 184.762  1.00  0.00     0.012 C 
ATOM     13  C   UNL     1     165.229 175.687 182.770  1.00  0.00     0.017 C 
ATOM     14  C   UNL     1     166.577 176.253 184.893  1.00  0.00    -0.064 C 
ATOM     15  C   UNL     1     165.417 176.770 186.993  1.00  0.00     0.032 C 
ATOM     16  C   UNL     1     166.699 176.493 186.231  1.00  0.00    -0.064 C 
ATOM     17  C   UNL     1     167.810 175.862 184.107  1.00  0.00     0.032 C 
ATOM     18  C   UNL     1     168.038 176.319 187.016  1.00  0.00    -0.008 C 
ATOM     19  C   UNL     1     169.046 176.561 184.636  1.00  0.00     0.009 C 
ATOM     20  C   UNL     1     169.326 176.121 186.086  1.00  0.00     0.007 C 
ATOM     21  C   UNL     1     168.235 177.547 187.973  1.00  0.00     0.014 C 
ATOM     22  C   UNL     1     167.858 175.033 187.866  1.00  0.00     0.016 C 
ATOM     23  C   UNL     1     170.672 176.763 186.646  1.00  0.00    -0.006 C 
ATOM     24  C   UNL     1     169.025 178.677 187.324  1.00  0.00     0.033 C 
ATOM     25  C   UNL     1     170.484 178.286 187.012  1.00  0.00     0.120 C 
ATOM     26  C   UNL     1     171.155 175.981 187.901  1.00  0.00     0.014 C 
ATOM     27  C   UNL     1     171.840 176.584 185.624  1.00  0.00     0.014 C 
BRANCH  25  28
ATOM     28  O   UNL     1     170.929 179.133 185.975  1.00  0.00    -0.393 OA
ATOM     29  H   UNL     1     170.219 179.152 185.278  1.00  0.00     0.210 HD
ENDBRANCH  25  28
ENDBRANCH   2   6
ENDBRANCH   1   2
BRANCH   1  30
ATOM     30  C   UNL     1     160.486 175.513 187.600  1.00  0.00     0.028 C 
BRANCH  30  31
ATOM     31  C   UNL     1     160.223 174.271 186.780  1.00  0.00    -0.028 C 
ATOM     32  C   UNL     1     160.975 173.155 186.881  1.00  0.00    -0.080 C 
ATOM     33  C   UNL     1     160.660 171.987 185.984  1.00  0.00     0.039 C 
ATOM     34  C   UNL     1     162.123 173.060 187.864  1.00  0.00     0.039 C 
ENDBRANCH  30  31
ENDBRANCH   1  30
TORSDOF 6
ENDMDL
MODEL 6
REMARK VINA RESULT:    -6.519      5.651      9.745
REMARK INTER + INTRA:          -9.709
REMARK INTER:                  -9.077
REMARK INTRA:                  -0.632
REMARK UNBOUND:                -1.093
REMARK SMILES CC(C)=CCC[C@@H](C(=O)[O-])[C@H]1CC[C@@]2(C)C3=C(CC[C@@]12C)[C@]1(C)CC[C@H](O)C(C)(C)[C@@H]1CC3
REMARK SMILES IDX 6 1 7 2 8 3 9 4 10 5 11 6 12 7 20 8 13 9 14 10 19 11 21 12
REMARK SMILES IDX 15 13 16 14 18 15 17 16 33 17 22 18 32 19 31 20 24 21 23 22
REMARK SMILES IDX 28 23 25 24 26 25 29 26 30 27 27 28 5 30 4 31 2 32 1 33 3 34
REMARK H PARENT 27 29
REMARK Flexibility Score: inf
ROOT
ATOM      1  C   UNL     1     162.886 167.750 185.496  1.00  0.00     0.014 C 
ENDROOT
BRANCH   1   2
ATOM      2  C   UNL     1     163.345 168.149 186.933  1.00  0.00     0.039 C 
BRANCH   2   3
ATOM      3  C   UNL     1     164.858 168.250 187.009  1.00  0.00     0.045 C 
ATOM      4  O   UNL     1     165.484 167.672 187.939  1.00  0.00    -0.550 OA
ATOM      5  O   UNL     1     165.566 168.984 186.057  1.00  0.00    -0.550 OA
ENDBRANCH   2   3
BRANCH   2   6
ATOM      6  C   UNL     1     162.730 169.457 187.565  1.00  0.00     0.004 C 
ATOM      7  C   UNL     1     163.635 170.300 188.457  1.00  0.00     0.006 C 
ATOM      8  C   UNL     1     161.896 170.495 186.741  1.00  0.00    -0.020 C 
ATOM      9  C   UNL     1     162.813 171.549 188.804  1.00  0.00     0.012 C 
ATOM     10  C   UNL     1     161.576 171.596 187.847  1.00  0.00    -0.006 C 
ATOM     11  C   UNL     1     162.674 171.122 185.526  1.00  0.00     0.012 C 
ATOM     12  C   UNL     1     160.625 169.811 186.161  1.00  0.00     0.012 C 
ATOM     13  C   UNL     1     160.308 171.205 188.683  1.00  0.00     0.017 C 
ATOM     14  C   UNL     1     161.431 173.030 187.251  1.00  0.00    -0.064 C 
ATOM     15  C   UNL     1     163.328 172.469 185.800  1.00  0.00     0.032 C 
ATOM     16  C   UNL     1     162.287 173.461 186.279  1.00  0.00    -0.064 C 
ATOM     17  C   UNL     1     160.303 173.941 187.686  1.00  0.00     0.032 C 
ATOM     18  C   UNL     1     162.126 174.827 185.538  1.00  0.00    -0.008 C 
ATOM     19  C   UNL     1     160.723 175.396 187.647  1.00  0.00     0.009 C 
ATOM     20  C   UNL     1     161.055 175.815 186.201  1.00  0.00     0.007 C 
ATOM     21  C   UNL     1     163.529 175.524 185.437  1.00  0.00     0.014 C 
ATOM     22  C   UNL     1     161.630 174.469 184.111  1.00  0.00     0.016 C 
ATOM     23  C   UNL     1     161.411 177.364 186.104  1.00  0.00    -0.006 C 
ATOM     24  C   UNL     1     163.808 176.453 186.613  1.00  0.00     0.033 C 
ATOM     25  C   UNL     1     162.857 177.666 186.656  1.00  0.00     0.120 C 
ATOM     26  C   UNL     1     161.305 177.845 184.628  1.00  0.00     0.014 C 
ATOM     27  C   UNL     1     160.345 178.226 186.854  1.00  0.00     0.014 C 
BRANCH  25  28
ATOM     28  O   UNL     1     162.824 178.120 187.992  1.00  0.00    -0.393 OA
ATOM     29  H   UNL     1     162.851 177.319 188.582  1.00  0.00     0.210 HD
ENDBRANCH  25  28
ENDBRANCH   2   6
ENDBRANCH   1   2
BRANCH   1  30
ATOM     30  C   UNL     1     162.189 166.373 185.417  1.00  0.00     0.028 C 
BRANCH  30  31
ATOM     31  C   UNL     1     161.067 166.257 186.422  1.00  0.00    -0.028 C 
ATOM     32  C   UNL     1     161.064 165.340 187.413  1.00  0.00    -0.080 C 
ATOM     33  C   UNL     1     159.875 165.276 188.336  1.00  0.00     0.039 C 
ATOM     34  C   UNL     1     162.218 164.380 187.606  1.00  0.00     0.039 C 
ENDBRANCH  30  31
ENDBRANCH   1  30
TORSDOF 6
ENDMDL
MODEL 7
REMARK VINA RESULT:    -6.494     12.379     14.642
REMARK INTER + INTRA:          -9.675
REMARK INTER:                  -8.100
REMARK INTRA:                  -1.575
REMARK UNBOUND:                -1.093
REMARK SMILES CC(C)=CCC[C@@H](C(=O)[O-])[C@H]1CC[C@@]2(C)C3=C(CC[C@@]12C)[C@]1(C)CC[C@H](O)C(C)(C)[C@@H]1CC3
REMARK SMILES IDX 6 1 7 2 8 3 9 4 10 5 11 6 12 7 20 8 13 9 14 10 19 11 21 12
REMARK SMILES IDX 15 13 16 14 18 15 17 16 33 17 22 18 32 19 31 20 24 21 23 22
REMARK SMILES IDX 28 23 25 24 26 25 29 26 30 27 27 28 5 30 4 31 2 32 1 33 3 34
REMARK H PARENT 27 29
REMARK Flexibility Score: inf
ROOT
ATOM      1  C   UNL     1     174.858 161.849 187.890  1.00  0.00     0.014 C 
ENDROOT
BRANCH   1   2
ATOM      2  C   UNL     1     174.165 162.028 186.503  1.00  0.00     0.039 C 
BRANCH   2   3
ATOM      3  C   UNL     1     175.063 161.538 185.382  1.00  0.00     0.045 C 
ATOM      4  O   UNL     1     176.006 162.263 184.965  1.00  0.00    -0.550 OA
ATOM      5  O   UNL     1     174.851 160.287 184.801  1.00  0.00    -0.550 OA
ENDBRANCH   2   3
BRANCH   2   6
ATOM      6  C   UNL     1     172.736 161.388 186.306  1.00  0.00     0.004 C 
ATOM      7  C   UNL     1     172.080 160.745 187.523  1.00  0.00     0.006 C 
ATOM      8  C   UNL     1     171.569 162.116 185.556  1.00  0.00    -0.020 C 
ATOM      9  C   UNL     1     170.673 160.342 187.059  1.00  0.00     0.012 C 
ATOM     10  C   UNL     1     170.391 161.052 185.694  1.00  0.00    -0.006 C 
ATOM     11  C   UNL     1     171.162 163.497 186.191  1.00  0.00     0.012 C 
ATOM     12  C   UNL     1     171.981 162.398 184.083  1.00  0.00     0.012 C 
ATOM     13  C   UNL     1     170.474 159.968 184.564  1.00  0.00     0.017 C 
ATOM     14  C   UNL     1     168.979 161.713 185.731  1.00  0.00    -0.064 C 
ATOM     15  C   UNL     1     169.980 163.448 187.149  1.00  0.00     0.032 C 
ATOM     16  C   UNL     1     168.773 162.857 186.449  1.00  0.00    -0.064 C 
ATOM     17  C   UNL     1     167.833 161.142 184.923  1.00  0.00     0.032 C 
ATOM     18  C   UNL     1     167.428 163.652 186.428  1.00  0.00    -0.008 C 
ATOM     19  C   UNL     1     166.504 161.365 185.617  1.00  0.00     0.009 C 
ATOM     20  C   UNL     1     166.213 162.874 185.735  1.00  0.00     0.007 C 
ATOM     21  C   UNL     1     167.053 164.063 187.895  1.00  0.00     0.014 C 
ATOM     22  C   UNL     1     167.715 164.931 185.597  1.00  0.00     0.016 C 
ATOM     23  C   UNL     1     164.780 163.147 186.374  1.00  0.00    -0.006 C 
ATOM     24  C   UNL     1     166.169 163.030 188.586  1.00  0.00     0.033 C 
ATOM     25  C   UNL     1     164.779 162.898 187.932  1.00  0.00     0.120 C 
ATOM     26  C   UNL     1     164.334 164.609 186.080  1.00  0.00     0.014 C 
ATOM     27  C   UNL     1     163.686 162.277 185.678  1.00  0.00     0.014 C 
BRANCH  25  28
ATOM     28  O   UNL     1     164.287 161.616 188.257  1.00  0.00    -0.393 OA
ATOM     29  H   UNL     1     164.215 161.564 189.248  1.00  0.00     0.210 HD
ENDBRANCH  25  28
ENDBRANCH   2   6
ENDBRANCH   1   2
BRANCH   1  30
ATOM     30  C   UNL     1     175.326 163.172 188.536  1.00  0.00     0.028 C 
BRANCH  30  31
ATOM     31  C   UNL     1     174.159 163.997 189.026  1.00  0.00    -0.028 C 
ATOM     32  C   UNL     1     173.786 165.156 188.444  1.00  0.00    -0.080 C 
ATOM     33  C   UNL     1     172.637 165.928 189.039  1.00  0.00     0.039 C 
ATOM     34  C   UNL     1     174.498 165.693 187.221  1.00  0.00     0.039 C 
ENDBRANCH  30  31
ENDBRANCH   1  30
TORSDOF 6
ENDMDL
MODEL 8
REMARK VINA RESULT:    -6.483      6.030      8.907
REMARK INTER + INTRA:          -9.661
REMARK INTER:                  -7.837
REMARK INTRA:                  -1.824
REMARK UNBOUND:                -1.093
REMARK SMILES CC(C)=CCC[C@@H](C(=O)[O-])[C@H]1CC[C@@]2(C)C3=C(CC[C@@]12C)[C@]1(C)CC[C@H](O)C(C)(C)[C@@H]1CC3
REMARK SMILES IDX 6 1 7 2 8 3 9 4 10 5 11 6 12 7 20 8 13 9 14 10 19 11 21 12
REMARK SMILES IDX 15 13 16 14 18 15 17 16 33 17 22 18 32 19 31 20 24 21 23 22
REMARK SMILES IDX 28 23 25 24 26 25 29 26 30 27 27 28 5 30 4 31 2 32 1 33 3 34
REMARK H PARENT 27 29
REMARK Flexibility Score: inf
ROOT
ATOM      1  C   UNL     1     160.156 173.589 186.688  1.00  0.00     0.014 C 
ENDROOT
BRANCH   1   2
ATOM      2  C   UNL     1     161.601 173.039 186.473  1.00  0.00     0.039 C 
BRANCH   2   3
ATOM      3  C   UNL     1     161.804 171.740 187.233  1.00  0.00     0.045 C 
ATOM      4  O   UNL     1     162.956 171.410 187.623  1.00  0.00    -0.550 OA
ATOM      5  O   UNL     1     160.722 170.901 187.500  1.00  0.00    -0.550 OA
ENDBRANCH   2   3
BRANCH   2   6
ATOM      6  C   UNL     1     162.094 172.826 184.990  1.00  0.00     0.004 C 
ATOM      7  C   UNL     1     161.201 172.010 184.062  1.00  0.00     0.006 C 
ATOM      8  C   UNL     1     162.648 173.988 184.098  1.00  0.00    -0.020 C 
ATOM      9  C   UNL     1     161.869 172.092 182.682  1.00  0.00     0.012 C 
ATOM     10  C   UNL     1     162.946 173.226 182.731  1.00  0.00    -0.006 C 
ATOM     11  C   UNL     1     161.631 175.168 183.878  1.00  0.00     0.012 C 
ATOM     12  C   UNL     1     163.918 174.601 184.756  1.00  0.00     0.012 C 
ATOM     13  C   UNL     1     164.358 172.543 182.761  1.00  0.00     0.017 C 
ATOM     14  C   UNL     1     162.797 174.143 181.480  1.00  0.00    -0.064 C 
ATOM     15  C   UNL     1     160.827 175.099 182.587  1.00  0.00     0.032 C 
ATOM     16  C   UNL     1     161.764 175.033 181.398  1.00  0.00    -0.064 C 
ATOM     17  C   UNL     1     163.825 174.115 180.369  1.00  0.00     0.032 C 
ATOM     18  C   UNL     1     161.621 176.078 180.245  1.00  0.00    -0.008 C 
ATOM     19  C   UNL     1     163.192 174.410 179.024  1.00  0.00     0.009 C 
ATOM     20  C   UNL     1     162.613 175.839 179.011  1.00  0.00     0.007 C 
ATOM     21  C   UNL     1     160.130 176.100 179.756  1.00  0.00     0.014 C 
ATOM     22  C   UNL     1     161.970 177.450 180.883  1.00  0.00     0.016 C 
ATOM     23  C   UNL     1     162.022 176.221 177.583  1.00  0.00    -0.006 C 
ATOM     24  C   UNL     1     159.875 175.134 178.605  1.00  0.00     0.033 C 
ATOM     25  C   UNL     1     160.633 175.520 177.319  1.00  0.00     0.120 C 
ATOM     26  C   UNL     1     161.858 177.764 177.468  1.00  0.00     0.014 C 
ATOM     27  C   UNL     1     163.038 175.870 176.450  1.00  0.00     0.014 C 
BRANCH  25  28
ATOM     28  O   UNL     1     160.777 174.345 176.552  1.00  0.00    -0.393 OA
ATOM     29  H   UNL     1     159.877 174.100 176.206  1.00  0.00     0.210 HD
ENDBRANCH  25  28
ENDBRANCH   2   6
ENDBRANCH   1   2
BRANCH   1  30
ATOM     30  C   UNL     1     160.086 174.844 187.587  1.00  0.00     0.028 C 
BRANCH  30  31
ATOM     31  C   UNL     1     161.439 175.502 187.731  1.00  0.00    -0.028 C 
ATOM     32  C   UNL     1     161.695 176.751 187.288  1.00  0.00    -0.080 C 
ATOM     33  C   UNL     1     163.091 177.299 187.438  1.00  0.00     0.039 C 
ATOM     34  C   UNL     1     160.620 177.599 186.643  1.00  0.00     0.039 C 
ENDBRANCH  30  31
ENDBRANCH   1  30
TORSDOF 6
ENDMDL
MODEL 9
REMARK VINA RESULT:    -6.449      8.745     12.888
REMARK INTER + INTRA:          -9.615
REMARK INTER:                  -7.915
REMARK INTRA:                  -1.700
REMARK UNBOUND:                -1.093
REMARK SMILES CC(C)=CCC[C@@H](C(=O)[O-])[C@H]1CC[C@@]2(C)C3=C(CC[C@@]12C)[C@]1(C)CC[C@H](O)C(C)(C)[C@@H]1CC3
REMARK SMILES IDX 6 1 7 2 8 3 9 4 10 5 11 6 12 7 20 8 13 9 14 10 19 11 21 12
REMARK SMILES IDX 15 13 16 14 18 15 17 16 33 17 22 18 32 19 31 20 24 21 23 22
REMARK SMILES IDX 28 23 25 24 26 25 29 26 30 27 27 28 5 30 4 31 2 32 1 33 3 34
REMARK H PARENT 27 29
REMARK Flexibility Score: inf
ROOT
ATOM      1  C   UNL     1     163.645 163.397 183.727  1.00  0.00     0.014 C 
ENDROOT
BRANCH   1   2
ATOM      2  C   UNL     1     162.569 163.039 184.799  1.00  0.00     0.039 C 
BRANCH   2   3
ATOM      3  C   UNL     1     163.008 161.846 185.630  1.00  0.00     0.045 C 
ATOM      4  O   UNL     1     164.160 161.360 185.477  1.00  0.00    -0.550 OA
ATOM      5  O   UNL     1     162.140 161.277 186.563  1.00  0.00    -0.550 OA
ENDBRANCH   2   3
BRANCH   2   6
ATOM      6  C   UNL     1     162.101 164.181 185.782  1.00  0.00     0.004 C 
ATOM      7  C   UNL     1     163.105 164.669 186.821  1.00  0.00     0.006 C 
ATOM      8  C   UNL     1     161.359 165.473 185.300  1.00  0.00    -0.020 C 
ATOM      9  C   UNL     1     162.419 165.850 187.523  1.00  0.00     0.012 C 
ATOM     10  C   UNL     1     161.173 166.264 186.671  1.00  0.00    -0.006 C 
ATOM     11  C   UNL     1     162.171 166.328 184.259  1.00  0.00     0.012 C 
ATOM     12  C   UNL     1     160.014 165.088 184.620  1.00  0.00     0.012 C 
ATOM     13  C   UNL     1     159.890 165.781 187.433  1.00  0.00     0.017 C 
ATOM     14  C   UNL     1     161.161 167.811 186.482  1.00  0.00    -0.064 C 
ATOM     15  C   UNL     1     162.963 167.488 184.848  1.00  0.00     0.032 C 
ATOM     16  C   UNL     1     162.036 168.406 185.620  1.00  0.00    -0.064 C 
ATOM     17  C   UNL     1     160.139 168.672 187.194  1.00  0.00     0.032 C 
ATOM     18  C   UNL     1     161.998 169.929 185.273  1.00  0.00    -0.008 C 
ATOM     19  C   UNL     1     160.703 170.040 187.521  1.00  0.00     0.009 C 
ATOM     20  C   UNL     1     161.045 170.798 186.223  1.00  0.00     0.007 C 
ATOM     21  C   UNL     1     163.461 170.497 185.295  1.00  0.00     0.014 C 
ATOM     22  C   UNL     1     161.439 170.012 183.827  1.00  0.00     0.016 C 
ATOM     23  C   UNL     1     161.553 172.277 186.522  1.00  0.00    -0.006 C 
ATOM     24  C   UNL     1     163.857 171.048 186.660  1.00  0.00     0.033 C 
ATOM     25  C   UNL     1     163.034 172.288 187.066  1.00  0.00     0.120 C 
ATOM     26  C   UNL     1     161.466 173.143 185.232  1.00  0.00     0.014 C 
ATOM     27  C   UNL     1     160.595 173.001 187.521  1.00  0.00     0.014 C 
BRANCH  25  28
ATOM     28  O   UNL     1     163.073 172.369 188.474  1.00  0.00    -0.393 OA
ATOM     29  H   UNL     1     162.374 171.757 188.830  1.00  0.00     0.210 HD
ENDBRANCH  25  28
ENDBRANCH   2   6
ENDBRANCH   1   2
BRANCH   1  30
ATOM     30  C   UNL     1     163.293 162.924 182.298  1.00  0.00     0.028 C 
BRANCH  30  31
ATOM     31  C   UNL     1     161.839 163.171 181.972  1.00  0.00    -0.028 C 
ATOM     32  C   UNL     1     161.421 164.233 181.251  1.00  0.00    -0.080 C 
ATOM     33  C   UNL     1     159.943 164.414 181.020  1.00  0.00     0.039 C 
ATOM     34  C   UNL     1     162.399 165.239 180.683  1.00  0.00     0.039 C 
ENDBRANCH  30  31
ENDBRANCH   1  30
TORSDOF 6
ENDMDL
