MODEL 1
REMARK VINA RESULT:    -6.477      0.000      0.000
REMARK INTER + INTRA:          -6.477
REMARK INTER:                  -6.477
REMARK INTRA:                   0.000
REMARK UNBOUND:                 0.000
REMARK SMILES CC(C)=C1CC[C@@H](C)CC1=O
REMARK SMILES IDX 8 1 7 2 6 3 5 4 4 5 2 6 1 7 3 8 10 9 11 10 9 11
REMARK H PARENT
REMARK Flexibility Score: inf
ROOT
ATOM      1  C   UNL     1      22.566 -25.822  21.964  1.00  0.00     0.008 C 
ATOM      2  C   UNL     1      22.484 -24.565  21.093  1.00  0.00    -0.006 C 
ATOM      3  C   UNL     1      23.661 -24.511  20.107  1.00  0.00     0.008 C 
ATOM      4  C   UNL     1      23.540 -23.311  19.159  1.00  0.00     0.039 C 
ATOM      5  C   UNL     1      23.340 -21.997  19.902  1.00  0.00    -0.006 C 
ATOM      6  C   UNL     1      23.824 -20.820  19.406  1.00  0.00    -0.070 C 
ATOM      7  C   UNL     1      24.565 -20.771  18.089  1.00  0.00     0.039 C 
ATOM      8  C   UNL     1      23.682 -19.519  20.161  1.00  0.00     0.039 C 
ATOM      9  C   UNL     1      22.491 -22.060  21.128  1.00  0.00     0.159 C 
ATOM     10  O   UNL     1      21.771 -21.086  21.477  1.00  0.00    -0.295 OA
ATOM     11  C   UNL     1      22.476 -23.303  21.970  1.00  0.00     0.084 C 
ENDROOT
TORSDOF 0
ENDMDL
MODEL 2
REMARK VINA RESULT:    -6.126      2.297      4.980
REMARK INTER + INTRA:          -6.126
REMARK INTER:                  -6.126
REMARK INTRA:                   0.000
REMARK UNBOUND:                 0.000
REMARK SMILES CC(C)=C1CC[C@@H](C)CC1=O
REMARK SMILES IDX 8 1 7 2 6 3 5 4 4 5 2 6 1 7 3 8 10 9 11 10 9 11
REMARK H PARENT
REMARK Flexibility Score: inf
ROOT
ATOM      1  C   UNL     1      24.126 -19.771  14.465  1.00  0.00     0.008 C 
ATOM      2  C   UNL     1      24.205 -20.355  15.879  1.00  0.00    -0.006 C 
ATOM      3  C   UNL     1      23.023 -21.303  16.140  1.00  0.00     0.008 C 
ATOM      4  C   UNL     1      23.141 -21.975  17.513  1.00  0.00     0.039 C 
ATOM      5  C   UNL     1      23.345 -20.971  18.640  1.00  0.00    -0.006 C 
ATOM      6  C   UNL     1      22.859 -21.205  19.895  1.00  0.00    -0.070 C 
ATOM      7  C   UNL     1      22.113 -22.479  20.222  1.00  0.00     0.039 C 
ATOM      8  C   UNL     1      23.005 -20.191  21.006  1.00  0.00     0.039 C 
ATOM      9  C   UNL     1      24.199 -19.790  18.319  1.00  0.00     0.159 C 
ATOM     10  O   UNL     1      24.920 -19.245  19.197  1.00  0.00    -0.295 OA
ATOM     11  C   UNL     1      24.216 -19.231  16.926  1.00  0.00     0.084 C 
ENDROOT
TORSDOF 0
ENDMDL
MODEL 3
REMARK VINA RESULT:    -6.099      2.716      5.641
REMARK INTER + INTRA:          -6.099
REMARK INTER:                  -6.099
REMARK INTRA:                   0.000
REMARK UNBOUND:                 0.000
REMARK SMILES CC(C)=C1CC[C@@H](C)CC1=O
REMARK SMILES IDX 8 1 7 2 6 3 5 4 4 5 2 6 1 7 3 8 10 9 11 10 9 11
REMARK H PARENT
REMARK Flexibility Score: inf
ROOT
ATOM      1  C   UNL     1      24.058 -18.275  15.625  1.00  0.00     0.008 C 
ATOM      2  C   UNL     1      23.544 -19.480  16.419  1.00  0.00    -0.006 C 
ATOM      3  C   UNL     1      24.464 -19.773  17.615  1.00  0.00     0.008 C 
ATOM      4  C   UNL     1      23.909 -20.912  18.479  1.00  0.00     0.039 C 
ATOM      5  C   UNL     1      23.592 -22.161  17.667  1.00  0.00    -0.006 C 
ATOM      6  C   UNL     1      23.711 -23.409  18.209  1.00  0.00    -0.070 C 
ATOM      7  C   UNL     1      24.148 -23.603  19.643  1.00  0.00     0.039 C 
ATOM      8  C   UNL     1      23.454 -24.657  17.396  1.00  0.00     0.039 C 
ATOM      9  C   UNL     1      23.035 -21.930  16.301  1.00  0.00     0.159 C 
ATOM     10  O   UNL     1      22.213 -22.733  15.784  1.00  0.00    -0.295 OA
ATOM     11  C   UNL     1      23.448 -20.719  15.516  1.00  0.00     0.084 C 
ENDROOT
TORSDOF 0
ENDMDL
MODEL 4
REMARK VINA RESULT:    -6.064      6.670      7.688
REMARK INTER + INTRA:          -6.064
REMARK INTER:                  -6.064
REMARK INTRA:                   0.000
REMARK UNBOUND:                 0.000
REMARK SMILES CC(C)=C1CC[C@@H](C)CC1=O
REMARK SMILES IDX 8 1 7 2 6 3 5 4 4 5 2 6 1 7 3 8 10 9 11 10 9 11
REMARK H PARENT
REMARK Flexibility Score: inf
ROOT
ATOM      1  C   UNL     1      16.366 -24.215  12.967  1.00  0.00     0.008 C 
ATOM      2  C   UNL     1      17.498 -24.282  13.998  1.00  0.00    -0.006 C 
ATOM      3  C   UNL     1      17.914 -22.869  14.438  1.00  0.00     0.008 C 
ATOM      4  C   UNL     1      18.975 -22.920  15.544  1.00  0.00     0.039 C 
ATOM      5  C   UNL     1      20.168 -23.790  15.170  1.00  0.00    -0.006 C 
ATOM      6  C   UNL     1      21.424 -23.507  15.627  1.00  0.00    -0.070 C 
ATOM      7  C   UNL     1      21.680 -22.327  16.536  1.00  0.00     0.039 C 
ATOM      8  C   UNL     1      22.624 -24.330  15.217  1.00  0.00     0.039 C 
ATOM      9  C   UNL     1      19.860 -25.021  14.384  1.00  0.00     0.159 C 
ATOM     10  O   UNL     1      20.546 -26.070  14.513  1.00  0.00    -0.295 OA
ATOM     11  C   UNL     1      18.709 -25.029  13.419  1.00  0.00     0.084 C 
ENDROOT
TORSDOF 0
ENDMDL
MODEL 5
REMARK VINA RESULT:    -6.063      2.336      3.301
REMARK INTER + INTRA:          -6.063
REMARK INTER:                  -6.063
REMARK INTRA:                   0.000
REMARK UNBOUND:                 0.000
REMARK SMILES CC(C)=C1CC[C@@H](C)CC1=O
REMARK SMILES IDX 8 1 7 2 6 3 5 4 4 5 2 6 1 7 3 8 10 9 11 10 9 11
REMARK H PARENT
REMARK Flexibility Score: inf
ROOT
ATOM      1  C   UNL     1      22.988 -24.234  22.896  1.00  0.00     0.008 C 
ATOM      2  C   UNL     1      23.350 -23.716  21.501  1.00  0.00    -0.006 C 
ATOM      3  C   UNL     1      22.305 -22.702  21.011  1.00  0.00     0.008 C 
ATOM      4  C   UNL     1      22.705 -22.097  19.660  1.00  0.00     0.039 C 
ATOM      5  C   UNL     1      23.022 -23.159  18.615  1.00  0.00    -0.006 C 
ATOM      6  C   UNL     1      22.776 -22.945  17.289  1.00  0.00    -0.070 C 
ATOM      7  C   UNL     1      22.194 -21.639  16.800  1.00  0.00     0.039 C 
ATOM      8  C   UNL     1      23.033 -24.013  16.250  1.00  0.00     0.039 C 
ATOM      9  C   UNL     1      23.719 -24.381  19.114  1.00  0.00     0.159 C 
ATOM     10  O   UNL     1      24.536 -25.011  18.391  1.00  0.00    -0.295 OA
ATOM     11  C   UNL     1      23.456 -24.882  20.505  1.00  0.00     0.084 C 
ENDROOT
TORSDOF 0
ENDMDL
MODEL 6
REMARK VINA RESULT:    -5.731      8.233      9.154
REMARK INTER + INTRA:          -5.731
REMARK INTER:                  -5.731
REMARK INTRA:                   0.000
REMARK UNBOUND:                 0.000
REMARK SMILES CC(C)=C1CC[C@@H](C)CC1=O
REMARK SMILES IDX 8 1 7 2 6 3 5 4 4 5 2 6 1 7 3 8 10 9 11 10 9 11
REMARK H PARENT
REMARK Flexibility Score: inf
ROOT
ATOM      1  C   UNL     1      16.298 -26.035  10.937  1.00  0.00     0.008 C 
ATOM      2  C   UNL     1      16.909 -25.674  12.295  1.00  0.00    -0.006 C 
ATOM      3  C   UNL     1      16.532 -24.238  12.694  1.00  0.00     0.008 C 
ATOM      4  C   UNL     1      17.050 -23.895  14.096  1.00  0.00     0.039 C 
ATOM      5  C   UNL     1      18.539 -24.173  14.253  1.00  0.00    -0.006 C 
ATOM      6  C   UNL     1      19.319 -23.415  15.080  1.00  0.00    -0.070 C 
ATOM      7  C   UNL     1      18.733 -22.280  15.887  1.00  0.00     0.039 C 
ATOM      8  C   UNL     1      20.808 -23.645  15.201  1.00  0.00     0.039 C 
ATOM      9  C   UNL     1      19.058 -25.382  13.548  1.00  0.00     0.159 C 
ATOM     10  O   UNL     1      20.013 -26.056  14.019  1.00  0.00    -0.295 OA
ATOM     11  C   UNL     1      18.438 -25.822  12.254  1.00  0.00     0.084 C 
ENDROOT
TORSDOF 0
ENDMDL
MODEL 7
REMARK VINA RESULT:    -5.681      3.228      5.858
REMARK INTER + INTRA:          -5.681
REMARK INTER:                  -5.681
REMARK INTRA:                   0.000
REMARK UNBOUND:                 0.000
REMARK SMILES CC(C)=C1CC[C@@H](C)CC1=O
REMARK SMILES IDX 8 1 7 2 6 3 5 4 4 5 2 6 1 7 3 8 10 9 11 10 9 11
REMARK H PARENT
REMARK Flexibility Score: inf
ROOT
ATOM      1  C   UNL     1      29.357 -18.511  20.061  1.00  0.00     0.008 C 
ATOM      2  C   UNL     1      27.847 -18.509  19.804  1.00  0.00    -0.006 C 
ATOM      3  C   UNL     1      27.076 -18.221  21.102  1.00  0.00     0.008 C 
ATOM      4  C   UNL     1      25.568 -18.114  20.843  1.00  0.00     0.039 C 
ATOM      5  C   UNL     1      25.017 -19.318  20.092  1.00  0.00    -0.006 C 
ATOM      6  C   UNL     1      23.741 -19.760  20.297  1.00  0.00    -0.070 C 
ATOM      7  C   UNL     1      22.816 -19.061  21.267  1.00  0.00     0.039 C 
ATOM      8  C   UNL     1      23.202 -20.988  19.600  1.00  0.00     0.039 C 
ATOM      9  C   UNL     1      25.908 -19.902  19.045  1.00  0.00     0.159 C 
ATOM     10  O   UNL     1      25.436 -20.435  18.006  1.00  0.00    -0.295 OA
ATOM     11  C   UNL     1      27.399 -19.856  19.216  1.00  0.00     0.084 C 
ENDROOT
TORSDOF 0
ENDMDL
MODEL 8
REMARK VINA RESULT:    -5.642      4.078      5.797
REMARK INTER + INTRA:          -5.642
REMARK INTER:                  -5.642
REMARK INTRA:                   0.000
REMARK UNBOUND:                 0.000
REMARK SMILES CC(C)=C1CC[C@@H](C)CC1=O
REMARK SMILES IDX 8 1 7 2 6 3 5 4 4 5 2 6 1 7 3 8 10 9 11 10 9 11
REMARK H PARENT
REMARK Flexibility Score: inf
ROOT
ATOM      1  C   UNL     1      23.777 -20.832  18.085  1.00  0.00     0.008 C 
ATOM      2  C   UNL     1      24.874 -20.419  19.073  1.00  0.00    -0.006 C 
ATOM      3  C   UNL     1      24.663 -18.971  19.543  1.00  0.00     0.008 C 
ATOM      4  C   UNL     1      25.692 -18.575  20.608  1.00  0.00     0.039 C 
ATOM      5  C   UNL     1      27.125 -18.841  20.165  1.00  0.00    -0.006 C 
ATOM      6  C   UNL     1      28.156 -18.051  20.585  1.00  0.00    -0.070 C 
ATOM      7  C   UNL     1      27.922 -16.889  21.522  1.00  0.00     0.039 C 
ATOM      8  C   UNL     1      29.573 -18.272  20.107  1.00  0.00     0.039 C 
ATOM      9  C   UNL     1      27.339 -20.074  19.350  1.00  0.00     0.159 C 
ATOM     10  O   UNL     1      28.415 -20.727  19.421  1.00  0.00    -0.295 OA
ATOM     11  C   UNL     1      26.261 -20.563  18.428  1.00  0.00     0.084 C 
ENDROOT
TORSDOF 0
ENDMDL
MODEL 9
REMARK VINA RESULT:    -5.537      3.727      5.131
REMARK INTER + INTRA:          -5.537
REMARK INTER:                  -5.537
REMARK INTRA:                   0.000
REMARK UNBOUND:                 0.000
REMARK SMILES CC(C)=C1CC[C@@H](C)CC1=O
REMARK SMILES IDX 8 1 7 2 6 3 5 4 4 5 2 6 1 7 3 8 10 9 11 10 9 11
REMARK H PARENT
REMARK Flexibility Score: inf
ROOT
ATOM      1  C   UNL     1      22.963 -22.328  20.160  1.00  0.00     0.008 C 
ATOM      2  C   UNL     1      21.803 -21.339  20.309  1.00  0.00    -0.006 C 
ATOM      3  C   UNL     1      21.923 -20.557  21.627  1.00  0.00     0.008 C 
ATOM      4  C   UNL     1      20.827 -19.492  21.745  1.00  0.00     0.039 C 
ATOM      5  C   UNL     1      19.431 -20.062  21.530  1.00  0.00    -0.006 C 
ATOM      6  C   UNL     1      18.344 -19.541  22.172  1.00  0.00    -0.070 C 
ATOM      7  C   UNL     1      18.479 -18.364  23.111  1.00  0.00     0.039 C 
ATOM      8  C   UNL     1      16.964 -20.134  22.010  1.00  0.00     0.039 C 
ATOM      9  C   UNL     1      19.313 -21.133  20.497  1.00  0.00     0.159 C 
ATOM     10  O   UNL     1      18.268 -21.265  19.806  1.00  0.00    -0.295 OA
ATOM     11  C   UNL     1      20.456 -22.077  20.258  1.00  0.00     0.084 C 
ENDROOT
TORSDOF 0
ENDMDL
