MODEL 1
REMARK VINA RESULT:    -2.471      0.000      0.000
REMARK INTER + INTRA:          -1.272
REMARK INTER:                  -3.771
REMARK INTRA:                   2.499
REMARK UNBOUND:                 2.499
REMARK SMILES CC1=CCC[C@@H](C)C(=O)C[C@@H](C(C)C)C(=O)C1
REMARK SMILES IDX 8 1 9 2 6 3 7 4 5 5 4 6 3 7 2 8 1 9 10 11 11 12 15 13 16 14
REMARK SMILES IDX 17 15 12 17 13 18 14 19
REMARK H PARENT
REMARK Flexibility Score: 70.00
ROOT
ATOM      1  C   UNL     1      77.807  14.532   2.118  1.00  0.00     0.136 C 
ATOM      2  O   UNL     1      76.826  13.904   2.492  1.00  0.00    -0.299 OA
ENDROOT
BRANCH   1   3
ATOM      3  C   UNL     1      77.738  15.362   0.848  1.00  0.00     0.053 C 
ATOM      4  C   UNL     1      78.955  15.142  -0.065  1.00  0.00     0.016 C 
BRANCH   3   5
ATOM      5  C   UNL     1      77.474  16.863   1.121  1.00  0.00     0.015 C 
BRANCH   5   6
ATOM      6  C   UNL     1      78.569  17.878   0.724  1.00  0.00     0.028 C 
BRANCH   6   7
ATOM      7  C   UNL     1      79.705  18.090   1.697  1.00  0.00    -0.028 C 
ATOM      8  C   UNL     1      79.661  17.924   3.040  1.00  0.00    -0.070 CG0
ATOM      9  C   UNL     1      80.860  18.365   3.841  1.00  0.00     0.039 C 
ATOM     10  G   UNL     1      78.517  17.251   3.772  1.00  0.00     0.000 G0
ENDBRANCH   6   7
ENDBRANCH   5   6
ENDBRANCH   3   5
ENDBRANCH   1   3
BRANCH   1  11
ATOM     11  C   UNL     1      79.072  14.470   2.952  1.00  0.00     0.087 C 
BRANCH  11  12
ATOM     12  C   UNL     1      78.845  14.743   4.465  1.00  0.00     0.066 C 
BRANCH  12  13
ATOM     13  C   UNL     1      78.988  16.226   4.758  1.00  0.00     0.140 C 
ATOM     14  O   UNL     1      79.533  16.580   5.795  1.00  0.00    -0.299 OA
BRANCH  13  15
ATOM     15  C   UNL     1      78.501  17.275   3.785  1.00  0.00     0.106 CG0
ATOM     16  G   UNL     1      79.680  17.900   3.066  1.00  0.00     0.000 G0
ENDBRANCH  13  15
ENDBRANCH  12  13
BRANCH  12  17
ATOM     17  C   UNL     1      79.803  13.900   5.366  1.00  0.00    -0.006 C 
ATOM     18  C   UNL     1      79.818  14.401   6.821  1.00  0.00     0.008 C 
ATOM     19  C   UNL     1      81.241  13.917   4.817  1.00  0.00     0.008 C 
ENDBRANCH  12  17
ENDBRANCH  11  12
ENDBRANCH   1  11
TORSDOF 1
ENDMDL
MODEL 2
REMARK VINA RESULT:     0.152      1.695      4.145
REMARK INTER + INTRA:           2.731
REMARK INTER:                  -0.545
REMARK INTRA:                   3.276
REMARK UNBOUND:                 2.499
REMARK SMILES CC1=CCC[C@@H](C)C(=O)C[C@@H](C(C)C)C(=O)C1
REMARK SMILES IDX 8 1 9 2 6 3 7 4 5 5 4 6 3 7 2 8 1 9 10 11 11 12 15 13 16 14
REMARK SMILES IDX 17 15 12 17 13 18 14 19
REMARK H PARENT
REMARK Flexibility Score: 70.00
ROOT
ATOM      1  C   UNL     1      80.216  14.484   3.267  1.00  0.00     0.136 C 
ATOM      2  O   UNL     1      81.348  14.560   3.722  1.00  0.00    -0.299 OA
ENDROOT
BRANCH   1   3
ATOM      3  C   UNL     1      79.100  13.879   4.102  1.00  0.00     0.053 C 
ATOM      4  C   UNL     1      77.709  14.366   3.666  1.00  0.00     0.016 C 
BRANCH   3   5
ATOM      5  C   UNL     1      79.328  14.042   5.624  1.00  0.00     0.015 C 
BRANCH   5   6
ATOM      6  C   UNL     1      80.245  15.191   6.103  1.00  0.00     0.028 C 
BRANCH   6   7
ATOM      7  C   UNL     1      79.601  16.535   6.353  1.00  0.00    -0.028 C 
ATOM      8  C   UNL     1      79.692  17.633   5.566  1.00  0.00    -0.070 CG0
ATOM      9  C   UNL     1      79.120  18.924   6.095  1.00  0.00     0.039 C 
ATOM     10  G   UNL     1      80.260  17.623   4.161  1.00  0.00     0.000 G0
ENDBRANCH   6   7
ENDBRANCH   5   6
ENDBRANCH   3   5
ENDBRANCH   1   3
BRANCH   1  11
ATOM     11  C   UNL     1      79.956  15.013   1.870  1.00  0.00     0.087 C 
BRANCH  11  12
ATOM     12  C   UNL     1      79.723  16.548   1.809  1.00  0.00     0.066 C 
BRANCH  12  13
ATOM     13  C   UNL     1      79.279  17.066   3.166  1.00  0.00     0.140 C 
ATOM     14  O   UNL     1      78.096  17.006   3.471  1.00  0.00    -0.299 OA
BRANCH  13  15
ATOM     15  C   UNL     1      80.270  17.628   4.159  1.00  0.00     0.106 CG0
ATOM     16  G   UNL     1      79.667  17.623   5.550  1.00  0.00     0.000 G0
ENDBRANCH  13  15
ENDBRANCH  12  13
BRANCH  12  17
ATOM     17  C   UNL     1      78.701  16.945   0.697  1.00  0.00    -0.006 C 
ATOM     18  C   UNL     1      77.956  18.249   1.035  1.00  0.00     0.008 C 
ATOM     19  C   UNL     1      77.668  15.826   0.465  1.00  0.00     0.008 C 
ENDBRANCH  12  17
ENDBRANCH  11  12
ENDBRANCH   1  11
TORSDOF 1
ENDMDL
