MODEL 1
REMARK VINA RESULT:     1.789      0.000      0.000
REMARK INTER + INTRA:           1.621
REMARK INTER:                   1.894
REMARK INTRA:                  -0.272
REMARK UNBOUND:                -0.272
REMARK SMILES CC1=C[C@@H]2C(=C(C)CC[C@H]2C(C)C)CC1
REMARK SMILES IDX 1 1 2 2 3 3 4 4 10 5 9 6 8 7 6 8 5 9 14 10 15 11 7 12 11 13
REMARK SMILES IDX 12 14 13 15
REMARK H PARENT
REMARK Flexibility Score: inf
ROOT
ATOM      1  C   UNL     1     154.404 141.152 161.470  1.00  0.00     0.039 C 
ATOM      2  C   UNL     1     153.996 139.765 161.890  1.00  0.00    -0.076 C 
ATOM      3  C   UNL     1     152.885 139.213 161.356  1.00  0.00    -0.020 C 
ATOM      4  C   UNL     1     152.347 137.838 161.740  1.00  0.00     0.041 C 
ATOM      5  C   UNL     1     152.066 136.951 160.491  1.00  0.00     0.003 C 
ATOM      6  C   UNL     1     151.545 135.588 160.990  1.00  0.00     0.009 C 
ATOM      7  C   UNL     1     152.613 134.875 161.817  1.00  0.00     0.031 C 
ATOM      8  C   UNL     1     153.296 135.763 162.838  1.00  0.00    -0.073 C 
ATOM      9  C   UNL     1     153.257 137.126 162.745  1.00  0.00    -0.064 C 
ATOM     10  C   UNL     1     154.020 138.027 163.693  1.00  0.00     0.036 C 
ATOM     11  C   UNL     1     154.855 139.003 162.871  1.00  0.00     0.035 C 
ATOM     12  C   UNL     1     154.145 135.059 163.871  1.00  0.00     0.039 C 
ENDROOT
BRANCH   5  13
ATOM     13  C   UNL     1     151.116 137.602 159.427  1.00  0.00    -0.013 C 
ATOM     14  C   UNL     1     149.707 137.915 159.958  1.00  0.00     0.007 C 
ATOM     15  C   UNL     1     151.019 136.763 158.142  1.00  0.00     0.007 C 
ENDBRANCH   5  13
TORSDOF 1
ENDMDL
