MODEL 1
REMARK VINA RESULT:    -4.805      0.000      0.000
REMARK INTER + INTRA:          -9.239
REMARK INTER:                  -8.457
REMARK INTRA:                  -0.782
REMARK UNBOUND:                -0.782
REMARK SMILES CCCCCCCCCCCCCCC(=O)[O-]
REMARK SMILES IDX 9 1 10 2 11 3 12 4 13 5 14 6 15 7 16 8 17 9 8 10 7 11 6 12
REMARK SMILES IDX 5 13 4 14 3 15 2 16 1 17
REMARK H PARENT
REMARK Flexibility Score: inf
ROOT
ATOM      1  C   UNL     1      -0.907  61.483  23.277  1.00  0.00     0.000 C 
ENDROOT
BRANCH   1   2
ATOM      2  C   UNL     1      -0.615  62.930  23.709  1.00  0.00     0.000 C 
BRANCH   2   3
ATOM      3  C   UNL     1      -1.385  63.963  22.868  1.00  0.00     0.000 C 
BRANCH   3   4
ATOM      4  C   UNL     1      -1.183  65.403  23.371  1.00  0.00     0.000 C 
BRANCH   4   5
ATOM      5  C   UNL     1      -2.482  66.224  23.349  1.00  0.00     0.006 C 
BRANCH   5   6
ATOM      6  C   UNL     1      -3.192  66.173  21.990  1.00  0.00     0.053 C 
BRANCH   6   7
ATOM      7  C   UNL     1      -4.552  65.564  22.134  1.00  0.00     0.041 C 
ATOM      8  O   UNL     1      -5.568  66.177  21.713  1.00  0.00    -0.550 OA
ATOM      9  O   UNL     1      -4.692  64.300  22.692  1.00  0.00    -0.550 OA
ENDBRANCH   6   7
ENDBRANCH   5   6
ENDBRANCH   4   5
ENDBRANCH   3   4
ENDBRANCH   2   3
ENDBRANCH   1   2
BRANCH   1  10
ATOM     10  C   UNL     1       0.138  60.488  23.808  1.00  0.00     0.000 C 
BRANCH  10  11
ATOM     11  C   UNL     1      -0.125  60.073  25.267  1.00  0.00    -0.000 C 
BRANCH  11  12
ATOM     12  C   UNL     1       0.089  58.569  25.502  1.00  0.00    -0.000 C 
BRANCH  12  13
ATOM     13  C   UNL     1       0.877  57.900  24.365  1.00  0.00    -0.000 C 
BRANCH  13  14
ATOM     14  C   UNL     1       2.188  57.299  24.886  1.00  0.00    -0.000 C 
BRANCH  14  15
ATOM     15  C   UNL     1       3.368  57.689  23.983  1.00  0.00    -0.000 C 
BRANCH  15  16
ATOM     16  C   UNL     1       2.958  57.848  22.510  1.00  0.00    -0.003 C 
ATOM     17  C   UNL     1       3.459  59.156  21.897  1.00  0.00     0.004 C 
ENDBRANCH  15  16
ENDBRANCH  14  15
ENDBRANCH  13  14
ENDBRANCH  12  13
ENDBRANCH  11  12
ENDBRANCH  10  11
ENDBRANCH   1  10
TORSDOF 13
ENDMDL
MODEL 2
REMARK VINA RESULT:    -4.732      3.864      8.573
REMARK INTER + INTRA:          -9.110
REMARK INTER:                  -8.227
REMARK INTRA:                  -0.883
REMARK UNBOUND:                -0.782
REMARK SMILES CCCCCCCCCCCCCCC(=O)[O-]
REMARK SMILES IDX 9 1 10 2 11 3 12 4 13 5 14 6 15 7 16 8 17 9 8 10 7 11 6 12
REMARK SMILES IDX 5 13 4 14 3 15 2 16 1 17
REMARK H PARENT
REMARK Flexibility Score: inf
ROOT
ATOM      1  C   UNL     1      -0.056  61.572  24.137  1.00  0.00     0.000 C 
ENDROOT
BRANCH   1   2
ATOM      2  C   UNL     1       0.680  60.223  24.072  1.00  0.00     0.000 C 
BRANCH   2   3
ATOM      3  C   UNL     1       0.155  59.215  25.108  1.00  0.00     0.000 C 
BRANCH   3   4
ATOM      4  C   UNL     1       0.571  57.768  24.787  1.00  0.00     0.000 C 
BRANCH   4   5
ATOM      5  C   UNL     1       0.691  57.509  23.277  1.00  0.00     0.006 C 
BRANCH   5   6
ATOM      6  C   UNL     1       2.029  56.866  22.891  1.00  0.00     0.053 C 
BRANCH   6   7
ATOM      7  C   UNL     1       3.130  57.878  22.951  1.00  0.00     0.041 C 
ATOM      8  O   UNL     1       3.774  58.052  24.020  1.00  0.00    -0.550 OA
ATOM      9  O   UNL     1       3.478  58.596  21.814  1.00  0.00    -0.550 OA
ENDBRANCH   6   7
ENDBRANCH   5   6
ENDBRANCH   4   5
ENDBRANCH   3   4
ENDBRANCH   2   3
ENDBRANCH   1   2
BRANCH   1  10
ATOM     10  C   UNL     1      -1.226  61.653  23.144  1.00  0.00     0.000 C 
BRANCH  10  11
ATOM     11  C   UNL     1      -1.723  63.094  22.928  1.00  0.00    -0.000 C 
BRANCH  11  12
ATOM     12  C   UNL     1      -0.752  64.144  23.492  1.00  0.00    -0.000 C 
BRANCH  12  13
ATOM     13  C   UNL     1      -1.352  65.559  23.498  1.00  0.00    -0.000 C 
BRANCH  13  14
ATOM     14  C   UNL     1      -1.249  66.205  22.111  1.00  0.00    -0.000 C 
BRANCH  14  15
ATOM     15  C   UNL     1      -2.641  66.565  21.568  1.00  0.00    -0.000 C 
BRANCH  15  16
ATOM     16  C   UNL     1      -3.773  66.143  22.518  1.00  0.00    -0.003 C 
ATOM     17  C   UNL     1      -4.989  65.588  21.776  1.00  0.00     0.004 C 
ENDBRANCH  15  16
ENDBRANCH  14  15
ENDBRANCH  13  14
ENDBRANCH  12  13
ENDBRANCH  11  12
ENDBRANCH  10  11
ENDBRANCH   1  10
TORSDOF 13
ENDMDL
MODEL 3
REMARK VINA RESULT:    -4.688      4.559      6.149
REMARK INTER + INTRA:          -9.033
REMARK INTER:                  -7.922
REMARK INTRA:                  -1.111
REMARK UNBOUND:                -0.782
REMARK SMILES CCCCCCCCCCCCCCC(=O)[O-]
REMARK SMILES IDX 9 1 10 2 11 3 12 4 13 5 14 6 15 7 16 8 17 9 8 10 7 11 6 12
REMARK SMILES IDX 5 13 4 14 3 15 2 16 1 17
REMARK H PARENT
REMARK Flexibility Score: inf
ROOT
ATOM      1  C   UNL     1       2.037  57.114  25.502  1.00  0.00     0.000 C 
ENDROOT
BRANCH   1   2
ATOM      2  C   UNL     1       0.770  57.585  24.768  1.00  0.00     0.000 C 
BRANCH   2   3
ATOM      3  C   UNL     1      -0.074  58.556  25.613  1.00  0.00     0.000 C 
BRANCH   3   4
ATOM      4  C   UNL     1       0.098  60.021  25.176  1.00  0.00     0.000 C 
BRANCH   4   5
ATOM      5  C   UNL     1       0.935  60.162  23.895  1.00  0.00     0.006 C 
BRANCH   5   6
ATOM      6  C   UNL     1       1.361  61.610  23.621  1.00  0.00     0.053 C 
BRANCH   6   7
ATOM      7  C   UNL     1       2.783  61.656  23.158  1.00  0.00     0.041 C 
ATOM      8  O   UNL     1       3.095  61.204  22.025  1.00  0.00    -0.550 OA
ATOM      9  O   UNL     1       3.756  62.241  23.958  1.00  0.00    -0.550 OA
ENDBRANCH   6   7
ENDBRANCH   5   6
ENDBRANCH   4   5
ENDBRANCH   3   4
ENDBRANCH   2   3
ENDBRANCH   1   2
BRANCH   1  10
ATOM     10  C   UNL     1       3.215  56.868  24.545  1.00  0.00     0.000 C 
BRANCH  10  11
ATOM     11  C   UNL     1       3.499  58.074  23.632  1.00  0.00    -0.000 C 
BRANCH  11  12
ATOM     12  C   UNL     1       3.276  57.756  22.144  1.00  0.00    -0.000 C 
BRANCH  12  13
ATOM     13  C   UNL     1       1.932  57.057  21.885  1.00  0.00    -0.000 C 
BRANCH  13  14
ATOM     14  C   UNL     1       2.059  56.024  20.759  1.00  0.00    -0.000 C 
BRANCH  14  15
ATOM     15  C   UNL     1       2.717  54.733  21.269  1.00  0.00    -0.000 C 
BRANCH  15  16
ATOM     16  C   UNL     1       2.115  54.247  22.597  1.00  0.00    -0.003 C 
ATOM     17  C   UNL     1       1.611  52.805  22.523  1.00  0.00     0.004 C 
ENDBRANCH  15  16
ENDBRANCH  14  15
ENDBRANCH  13  14
ENDBRANCH  12  13
ENDBRANCH  11  12
ENDBRANCH  10  11
ENDBRANCH   1  10
TORSDOF 13
ENDMDL
MODEL 4
REMARK VINA RESULT:    -4.645      4.011      5.501
REMARK INTER + INTRA:          -8.956
REMARK INTER:                  -7.773
REMARK INTRA:                  -1.183
REMARK UNBOUND:                -0.782
REMARK SMILES CCCCCCCCCCCCCCC(=O)[O-]
REMARK SMILES IDX 9 1 10 2 11 3 12 4 13 5 14 6 15 7 16 8 17 9 8 10 7 11 6 12
REMARK SMILES IDX 5 13 4 14 3 15 2 16 1 17
REMARK H PARENT
REMARK Flexibility Score: inf
ROOT
ATOM      1  C   UNL     1       1.778  57.567  22.164  1.00  0.00     0.000 C 
ENDROOT
BRANCH   1   2
ATOM      2  C   UNL     1       3.138  58.165  22.561  1.00  0.00     0.000 C 
BRANCH   2   3
ATOM      3  C   UNL     1       3.621  59.241  21.572  1.00  0.00     0.000 C 
BRANCH   3   4
ATOM      4  C   UNL     1       3.123  60.649  21.943  1.00  0.00     0.000 C 
BRANCH   4   5
ATOM      5  C   UNL     1       2.757  60.774  23.430  1.00  0.00     0.006 C 
BRANCH   5   6
ATOM      6  C   UNL     1       1.609  61.761  23.677  1.00  0.00     0.053 C 
BRANCH   6   7
ATOM      7  C   UNL     1       0.365  61.027  24.068  1.00  0.00     0.041 C 
ATOM      8  O   UNL     1      -0.372  60.514  23.185  1.00  0.00    -0.550 OA
ATOM      9  O   UNL     1       0.045  60.867  25.410  1.00  0.00    -0.550 OA
ENDBRANCH   6   7
ENDBRANCH   5   6
ENDBRANCH   4   5
ENDBRANCH   3   4
ENDBRANCH   2   3
ENDBRANCH   1   2
BRANCH   1  10
ATOM     10  C   UNL     1       0.943  57.144  23.383  1.00  0.00     0.000 C 
BRANCH  10  11
ATOM     11  C   UNL     1       1.536  57.645  24.712  1.00  0.00    -0.000 C 
BRANCH  11  12
ATOM     12  C   UNL     1       2.863  56.954  25.065  1.00  0.00    -0.000 C 
BRANCH  12  13
ATOM     13  C   UNL     1       2.666  55.713  25.950  1.00  0.00    -0.000 C 
BRANCH  13  14
ATOM     14  C   UNL     1       3.390  54.498  25.361  1.00  0.00    -0.000 C 
BRANCH  14  15
ATOM     15  C   UNL     1       3.504  54.612  23.833  1.00  0.00    -0.000 C 
BRANCH  15  16
ATOM     16  C   UNL     1       2.417  53.812  23.098  1.00  0.00    -0.003 C 
ATOM     17  C   UNL     1       2.538  53.913  21.577  1.00  0.00     0.004 C 
ENDBRANCH  15  16
ENDBRANCH  14  15
ENDBRANCH  13  14
ENDBRANCH  12  13
ENDBRANCH  11  12
ENDBRANCH  10  11
ENDBRANCH   1  10
TORSDOF 13
ENDMDL
MODEL 5
REMARK VINA RESULT:    -4.552      4.398      8.989
REMARK INTER + INTRA:          -8.792
REMARK INTER:                  -8.052
REMARK INTRA:                  -0.740
REMARK UNBOUND:                -0.782
REMARK SMILES CCCCCCCCCCCCCCC(=O)[O-]
REMARK SMILES IDX 9 1 10 2 11 3 12 4 13 5 14 6 15 7 16 8 17 9 8 10 7 11 6 12
REMARK SMILES IDX 5 13 4 14 3 15 2 16 1 17
REMARK H PARENT
REMARK Flexibility Score: inf
ROOT
ATOM      1  C   UNL     1      -0.459  61.131  24.062  1.00  0.00     0.000 C 
ENDROOT
BRANCH   1   2
ATOM      2  C   UNL     1       0.777  60.321  23.635  1.00  0.00     0.000 C 
BRANCH   2   3
ATOM      3  C   UNL     1       0.823  58.928  24.286  1.00  0.00     0.000 C 
BRANCH   3   4
ATOM      4  C   UNL     1       0.805  57.791  23.250  1.00  0.00     0.000 C 
BRANCH   4   5
ATOM      5  C   UNL     1       2.209  57.447  22.727  1.00  0.00     0.006 C 
BRANCH   5   6
ATOM      6  C   UNL     1       3.260  57.391  23.843  1.00  0.00     0.053 C 
BRANCH   6   7
ATOM      7  C   UNL     1       3.022  56.204  24.723  1.00  0.00     0.041 C 
ATOM      8  O   UNL     1       3.221  55.040  24.285  1.00  0.00    -0.550 OA
ATOM      9  O   UNL     1       2.627  56.385  26.042  1.00  0.00    -0.550 OA
ENDBRANCH   6   7
ENDBRANCH   5   6
ENDBRANCH   4   5
ENDBRANCH   3   4
ENDBRANCH   2   3
ENDBRANCH   1   2
BRANCH   1  10
ATOM     10  C   UNL     1      -1.383  61.463  22.879  1.00  0.00     0.000 C 
BRANCH  10  11
ATOM     11  C   UNL     1      -1.899  62.912  22.917  1.00  0.00    -0.000 C 
BRANCH  11  12
ATOM     12  C   UNL     1      -0.804  63.920  23.304  1.00  0.00    -0.000 C 
BRANCH  12  13
ATOM     13  C   UNL     1      -1.346  65.349  23.462  1.00  0.00    -0.000 C 
BRANCH  13  14
ATOM     14  C   UNL     1      -1.266  66.116  22.136  1.00  0.00    -0.000 C 
BRANCH  14  15
ATOM     15  C   UNL     1      -2.667  66.515  21.648  1.00  0.00    -0.000 C 
BRANCH  15  16
ATOM     16  C   UNL     1      -3.788  65.876  22.481  1.00  0.00    -0.003 C 
ATOM     17  C   UNL     1      -5.119  65.815  21.731  1.00  0.00     0.004 C 
ENDBRANCH  15  16
ENDBRANCH  14  15
ENDBRANCH  13  14
ENDBRANCH  12  13
ENDBRANCH  11  12
ENDBRANCH  10  11
ENDBRANCH   1  10
TORSDOF 13
ENDMDL
MODEL 6
REMARK VINA RESULT:    -4.489      5.637      8.730
REMARK INTER + INTRA:          -8.683
REMARK INTER:                  -7.024
REMARK INTRA:                  -1.658
REMARK UNBOUND:                -0.782
REMARK SMILES CCCCCCCCCCCCCCC(=O)[O-]
REMARK SMILES IDX 9 1 10 2 11 3 12 4 13 5 14 6 15 7 16 8 17 9 8 10 7 11 6 12
REMARK SMILES IDX 5 13 4 14 3 15 2 16 1 17
REMARK H PARENT
REMARK Flexibility Score: inf
ROOT
ATOM      1  C   UNL     1       1.225  57.470  22.032  1.00  0.00     0.000 C 
ENDROOT
BRANCH   1   2
ATOM      2  C   UNL     1       0.777  56.762  23.322  1.00  0.00     0.000 C 
BRANCH   2   3
ATOM      3  C   UNL     1       0.724  57.714  24.529  1.00  0.00     0.000 C 
BRANCH   3   4
ATOM      4  C   UNL     1       1.713  57.317  25.639  1.00  0.00     0.000 C 
BRANCH   4   5
ATOM      5  C   UNL     1       2.951  56.587  25.094  1.00  0.00     0.006 C 
BRANCH   5   6
ATOM      6  C   UNL     1       3.019  55.121  25.542  1.00  0.00     0.053 C 
BRANCH   6   7
ATOM      7  C   UNL     1       3.658  54.281  24.481  1.00  0.00     0.041 C 
ATOM      8  O   UNL     1       3.056  54.064  23.396  1.00  0.00    -0.550 OA
ATOM      9  O   UNL     1       4.938  53.776  24.671  1.00  0.00    -0.550 OA
ENDBRANCH   6   7
ENDBRANCH   5   6
ENDBRANCH   4   5
ENDBRANCH   3   4
ENDBRANCH   2   3
ENDBRANCH   1   2
BRANCH   1  10
ATOM     10  C   UNL     1       2.743  57.381  21.807  1.00  0.00     0.000 C 
BRANCH  10  11
ATOM     11  C   UNL     1       3.416  58.764  21.749  1.00  0.00    -0.000 C 
BRANCH  11  12
ATOM     12  C   UNL     1       3.259  59.553  23.059  1.00  0.00    -0.000 C 
BRANCH  12  13
ATOM     13  C   UNL     1       2.899  61.028  22.819  1.00  0.00    -0.000 C 
BRANCH  13  14
ATOM     14  C   UNL     1       1.760  61.472  23.744  1.00  0.00    -0.000 C 
BRANCH  14  15
ATOM     15  C   UNL     1       0.413  60.911  23.264  1.00  0.00    -0.000 C 
BRANCH  15  16
ATOM     16  C   UNL     1      -0.706  61.093  24.302  1.00  0.00    -0.003 C 
ATOM     17  C   UNL     1      -0.186  61.072  25.740  1.00  0.00     0.004 C 
ENDBRANCH  15  16
ENDBRANCH  14  15
ENDBRANCH  13  14
ENDBRANCH  12  13
ENDBRANCH  11  12
ENDBRANCH  10  11
ENDBRANCH   1  10
TORSDOF 13
ENDMDL
MODEL 7
REMARK VINA RESULT:    -4.469      4.546      8.585
REMARK INTER + INTRA:          -8.647
REMARK INTER:                  -7.922
REMARK INTRA:                  -0.725
REMARK UNBOUND:                -0.782
REMARK SMILES CCCCCCCCCCCCCCC(=O)[O-]
REMARK SMILES IDX 9 1 10 2 11 3 12 4 13 5 14 6 15 7 16 8 17 9 8 10 7 11 6 12
REMARK SMILES IDX 5 13 4 14 3 15 2 16 1 17
REMARK H PARENT
REMARK Flexibility Score: inf
ROOT
ATOM      1  C   UNL     1       0.224  61.483  24.070  1.00  0.00     0.000 C 
ENDROOT
BRANCH   1   2
ATOM      2  C   UNL     1      -0.148  60.636  25.299  1.00  0.00     0.000 C 
BRANCH   2   3
ATOM      3  C   UNL     1       0.183  59.145  25.109  1.00  0.00     0.000 C 
BRANCH   3   4
ATOM      4  C   UNL     1       0.821  58.852  23.740  1.00  0.00     0.000 C 
BRANCH   4   5
ATOM      5  C   UNL     1       0.544  57.421  23.254  1.00  0.00     0.006 C 
BRANCH   5   6
ATOM      6  C   UNL     1       1.703  56.838  22.435  1.00  0.00     0.053 C 
BRANCH   6   7
ATOM      7  C   UNL     1       2.373  55.734  23.192  1.00  0.00     0.041 C 
ATOM      8  O   UNL     1       3.059  55.994  24.216  1.00  0.00    -0.550 OA
ATOM      9  O   UNL     1       2.201  54.415  22.795  1.00  0.00    -0.550 OA
ENDBRANCH   6   7
ENDBRANCH   5   6
ENDBRANCH   4   5
ENDBRANCH   3   4
ENDBRANCH   2   3
ENDBRANCH   1   2
BRANCH   1  10
ATOM     10  C   UNL     1      -1.010  62.068  23.363  1.00  0.00     0.000 C 
BRANCH  10  11
ATOM     11  C   UNL     1      -0.981  63.605  23.293  1.00  0.00    -0.000 C 
BRANCH  11  12
ATOM     12  C   UNL     1      -2.274  64.195  22.708  1.00  0.00    -0.000 C 
BRANCH  12  13
ATOM     13  C   UNL     1      -2.403  65.705  22.964  1.00  0.00    -0.000 C 
BRANCH  13  14
ATOM     14  C   UNL     1      -1.028  66.383  22.955  1.00  0.00    -0.000 C 
BRANCH  14  15
ATOM     15  C   UNL     1      -0.622  66.784  21.529  1.00  0.00    -0.000 C 
BRANCH  15  16
ATOM     16  C   UNL     1       0.879  67.086  21.405  1.00  0.00    -0.003 C 
ATOM     17  C   UNL     1       1.671  66.658  22.641  1.00  0.00     0.004 C 
ENDBRANCH  15  16
ENDBRANCH  14  15
ENDBRANCH  13  14
ENDBRANCH  12  13
ENDBRANCH  11  12
ENDBRANCH  10  11
ENDBRANCH   1  10
TORSDOF 13
ENDMDL
MODEL 8
REMARK VINA RESULT:    -4.446      5.626      8.276
REMARK INTER + INTRA:          -8.606
REMARK INTER:                  -7.054
REMARK INTRA:                  -1.552
REMARK UNBOUND:                -0.782
REMARK SMILES CCCCCCCCCCCCCCC(=O)[O-]
REMARK SMILES IDX 9 1 10 2 11 3 12 4 13 5 14 6 15 7 16 8 17 9 8 10 7 11 6 12
REMARK SMILES IDX 5 13 4 14 3 15 2 16 1 17
REMARK H PARENT
REMARK Flexibility Score: inf
ROOT
ATOM      1  C   UNL     1       2.029  57.397  25.030  1.00  0.00     0.000 C 
ENDROOT
BRANCH   1   2
ATOM      2  C   UNL     1       3.016  57.358  23.851  1.00  0.00     0.000 C 
BRANCH   2   3
ATOM      3  C   UNL     1       2.416  57.942  22.560  1.00  0.00     0.000 C 
BRANCH   3   4
ATOM      4  C   UNL     1       2.755  57.100  21.318  1.00  0.00     0.000 C 
BRANCH   4   5
ATOM      5  C   UNL     1       1.849  55.867  21.175  1.00  0.00     0.006 C 
BRANCH   5   6
ATOM      6  C   UNL     1       2.630  54.548  21.228  1.00  0.00     0.053 C 
BRANCH   6   7
ATOM      7  C   UNL     1       2.377  53.844  22.524  1.00  0.00     0.041 C 
ATOM      8  O   UNL     1       3.181  53.978  23.485  1.00  0.00    -0.550 OA
ATOM      9  O   UNL     1       1.230  53.079  22.688  1.00  0.00    -0.550 OA
ENDBRANCH   6   7
ENDBRANCH   5   6
ENDBRANCH   4   5
ENDBRANCH   3   4
ENDBRANCH   2   3
ENDBRANCH   1   2
BRANCH   1  10
ATOM     10  C   UNL     1       0.601  57.758  24.590  1.00  0.00     0.000 C 
BRANCH  10  11
ATOM     11  C   UNL     1      -0.185  58.505  25.683  1.00  0.00    -0.000 C 
BRANCH  11  12
ATOM     12  C   UNL     1      -0.217  60.024  25.454  1.00  0.00    -0.000 C 
BRANCH  12  13
ATOM     13  C   UNL     1      -0.266  60.396  23.963  1.00  0.00    -0.000 C 
BRANCH  13  14
ATOM     14  C   UNL     1       0.723  61.523  23.645  1.00  0.00    -0.000 C 
BRANCH  14  15
ATOM     15  C   UNL     1       2.173  61.021  23.728  1.00  0.00    -0.000 C 
BRANCH  15  16
ATOM     16  C   UNL     1       3.162  61.952  23.009  1.00  0.00    -0.003 C 
ATOM     17  C   UNL     1       3.688  61.357  21.702  1.00  0.00     0.004 C 
ENDBRANCH  15  16
ENDBRANCH  14  15
ENDBRANCH  13  14
ENDBRANCH  12  13
ENDBRANCH  11  12
ENDBRANCH  10  11
ENDBRANCH   1  10
TORSDOF 13
ENDMDL
MODEL 9
REMARK VINA RESULT:    -4.401      3.164      5.832
REMARK INTER + INTRA:          -8.527
REMARK INTER:                  -6.864
REMARK INTRA:                  -1.663
REMARK UNBOUND:                -0.782
REMARK SMILES CCCCCCCCCCCCCCC(=O)[O-]
REMARK SMILES IDX 9 1 10 2 11 3 12 4 13 5 14 6 15 7 16 8 17 9 8 10 7 11 6 12
REMARK SMILES IDX 5 13 4 14 3 15 2 16 1 17
REMARK H PARENT
REMARK Flexibility Score: inf
ROOT
ATOM      1  C   UNL     1       2.767  55.555  25.775  1.00  0.00     0.000 C 
ENDROOT
BRANCH   1   2
ATOM      2  C   UNL     1       2.371  57.040  25.732  1.00  0.00     0.000 C 
BRANCH   2   3
ATOM      3  C   UNL     1       1.022  57.270  25.028  1.00  0.00     0.000 C 
BRANCH   3   4
ATOM      4  C   UNL     1       0.455  58.677  25.284  1.00  0.00     0.000 C 
BRANCH   4   5
ATOM      5  C   UNL     1       0.452  59.552  24.019  1.00  0.00     0.006 C 
BRANCH   5   6
ATOM      6  C   UNL     1       0.503  61.052  24.336  1.00  0.00     0.053 C 
BRANCH   6   7
ATOM      7  C   UNL     1      -0.536  61.786  23.548  1.00  0.00     0.041 C 
ATOM      8  O   UNL     1      -1.308  61.157  22.776  1.00  0.00    -0.550 OA
ATOM      9  O   UNL     1      -0.683  63.158  23.700  1.00  0.00    -0.550 OA
ENDBRANCH   6   7
ENDBRANCH   5   6
ENDBRANCH   4   5
ENDBRANCH   3   4
ENDBRANCH   2   3
ENDBRANCH   1   2
BRANCH   1  10
ATOM     10  C   UNL     1       3.726  55.168  24.637  1.00  0.00     0.000 C 
BRANCH  10  11
ATOM     11  C   UNL     1       3.212  53.976  23.809  1.00  0.00    -0.000 C 
BRANCH  11  12
ATOM     12  C   UNL     1       2.051  54.360  22.877  1.00  0.00    -0.000 C 
BRANCH  12  13
ATOM     13  C   UNL     1       2.449  54.326  21.393  1.00  0.00    -0.000 C 
BRANCH  13  14
ATOM     14  C   UNL     1       2.285  55.707  20.749  1.00  0.00    -0.000 C 
BRANCH  14  15
ATOM     15  C   UNL     1       1.938  56.769  21.804  1.00  0.00    -0.000 C 
BRANCH  15  16
ATOM     16  C   UNL     1       2.770  58.051  21.648  1.00  0.00    -0.003 C 
ATOM     17  C   UNL     1       3.728  58.280  22.817  1.00  0.00     0.004 C 
ENDBRANCH  15  16
ENDBRANCH  14  15
ENDBRANCH  13  14
ENDBRANCH  12  13
ENDBRANCH  11  12
ENDBRANCH  10  11
ENDBRANCH   1  10
TORSDOF 13
ENDMDL
