MODEL 1
REMARK VINA RESULT:    -4.518      0.000      0.000
REMARK INTER + INTRA:          -4.956
REMARK INTER:                  -4.782
REMARK INTRA:                  -0.175
REMARK UNBOUND:                -0.175
REMARK SMILES CC1=CC[C@@H](C(C)C)C=C1
REMARK SMILES IDX 1 1 2 2 3 3 4 4 5 5 9 6 10 7 6 8 7 9 8 10
REMARK H PARENT
REMARK Flexibility Score: inf
ROOT
ATOM      1  C   UNL     1      59.495  43.975  40.827  1.00  0.00     0.044 C 
ATOM      2  C   UNL     1      58.163  44.397  41.369  1.00  0.00    -0.055 C 
ATOM      3  C   UNL     1      57.843  45.700  41.445  1.00  0.00    -0.023 C 
ATOM      4  C   UNL     1      56.456  46.130  41.845  1.00  0.00     0.035 C 
ATOM      5  C   UNL     1      55.851  45.150  42.879  1.00  0.00     0.018 C 
ATOM      6  C   UNL     1      56.060  43.717  42.429  1.00  0.00    -0.023 C 
ATOM      7  C   UNL     1      57.169  43.372  41.765  1.00  0.00    -0.001 C 
ENDROOT
BRANCH   5   8
ATOM      8  C   UNL     1      54.370  45.489  43.215  1.00  0.00    -0.010 C 
ATOM      9  C   UNL     1      53.437  45.136  42.046  1.00  0.00     0.008 C 
ATOM     10  C   UNL     1      54.152  46.953  43.642  1.00  0.00     0.008 C 
ENDBRANCH   5   8
TORSDOF 1
ENDMDL
MODEL 2
REMARK VINA RESULT:    -4.499      1.186      4.309
REMARK INTER + INTRA:          -4.937
REMARK INTER:                  -4.772
REMARK INTRA:                  -0.164
REMARK UNBOUND:                -0.175
REMARK SMILES CC1=CC[C@@H](C(C)C)C=C1
REMARK SMILES IDX 1 1 2 2 3 3 4 4 5 5 9 6 10 7 6 8 7 9 8 10
REMARK H PARENT
REMARK Flexibility Score: inf
ROOT
ATOM      1  C   UNL     1      53.226  45.812  42.597  1.00  0.00     0.044 C 
ATOM      2  C   UNL     1      54.552  45.117  42.507  1.00  0.00    -0.055 C 
ATOM      3  C   UNL     1      55.687  45.829  42.423  1.00  0.00    -0.023 C 
ATOM      4  C   UNL     1      57.029  45.149  42.484  1.00  0.00     0.035 C 
ATOM      5  C   UNL     1      56.971  43.753  41.817  1.00  0.00     0.018 C 
ATOM      6  C   UNL     1      55.753  42.990  42.302  1.00  0.00    -0.023 C 
ATOM      7  C   UNL     1      54.615  43.638  42.574  1.00  0.00    -0.001 C 
ENDROOT
BRANCH   5   8
ATOM      8  C   UNL     1      58.305  42.967  41.980  1.00  0.00    -0.010 C 
ATOM      9  C   UNL     1      58.796  42.994  43.435  1.00  0.00     0.008 C 
ATOM     10  C   UNL     1      59.423  43.447  41.036  1.00  0.00     0.008 C 
ENDBRANCH   5   8
TORSDOF 1
ENDMDL
MODEL 3
REMARK VINA RESULT:    -4.483      0.754      4.613
REMARK INTER + INTRA:          -4.920
REMARK INTER:                  -4.733
REMARK INTRA:                  -0.187
REMARK UNBOUND:                -0.175
REMARK SMILES CC1=CC[C@@H](C(C)C)C=C1
REMARK SMILES IDX 1 1 2 2 3 3 4 4 5 5 9 6 10 7 6 8 7 9 8 10
REMARK H PARENT
REMARK Flexibility Score: inf
ROOT
ATOM      1  C   UNL     1      53.997  45.681  43.053  1.00  0.00     0.044 C 
ATOM      2  C   UNL     1      55.327  45.196  42.559  1.00  0.00    -0.055 C 
ATOM      3  C   UNL     1      55.602  43.882  42.532  1.00  0.00    -0.023 C 
ATOM      4  C   UNL     1      56.872  43.374  41.900  1.00  0.00     0.035 C 
ATOM      5  C   UNL     1      58.032  44.377  42.109  1.00  0.00     0.018 C 
ATOM      6  C   UNL     1      57.575  45.785  41.778  1.00  0.00    -0.023 C 
ATOM      7  C   UNL     1      56.319  46.166  42.040  1.00  0.00    -0.001 C 
ENDROOT
BRANCH   5   8
ATOM      8  C   UNL     1      59.324  43.948  41.356  1.00  0.00    -0.010 C 
ATOM      9  C   UNL     1      59.490  44.727  40.042  1.00  0.00     0.008 C 
ATOM     10  C   UNL     1      59.409  42.434  41.087  1.00  0.00     0.008 C 
ENDBRANCH   5   8
TORSDOF 1
ENDMDL
MODEL 4
REMARK VINA RESULT:    -4.369      0.390      1.612
REMARK INTER + INTRA:          -4.799
REMARK INTER:                  -4.657
REMARK INTRA:                  -0.142
REMARK UNBOUND:                -0.175
REMARK SMILES CC1=CC[C@@H](C(C)C)C=C1
REMARK SMILES IDX 1 1 2 2 3 3 4 4 5 5 9 6 10 7 6 8 7 9 8 10
REMARK H PARENT
REMARK Flexibility Score: inf
ROOT
ATOM      1  C   UNL     1      59.481  44.110  40.702  1.00  0.00     0.044 C 
ATOM      2  C   UNL     1      58.185  44.456  41.369  1.00  0.00    -0.055 C 
ATOM      3  C   UNL     1      57.400  43.488  41.871  1.00  0.00    -0.023 C 
ATOM      4  C   UNL     1      56.173  43.832  42.675  1.00  0.00     0.035 C 
ATOM      5  C   UNL     1      55.515  45.130  42.150  1.00  0.00     0.018 C 
ATOM      6  C   UNL     1      56.566  46.205  41.945  1.00  0.00    -0.023 C 
ATOM      7  C   UNL     1      57.796  45.876  41.533  1.00  0.00    -0.001 C 
ENDROOT
BRANCH   5   8
ATOM      8  C   UNL     1      54.322  45.587  43.040  1.00  0.00    -0.010 C 
ATOM      9  C   UNL     1      53.000  45.561  42.258  1.00  0.00     0.008 C 
ATOM     10  C   UNL     1      54.528  46.969  43.687  1.00  0.00     0.008 C 
ENDBRANCH   5   8
TORSDOF 1
ENDMDL
MODEL 5
REMARK VINA RESULT:    -3.879      1.660      1.938
REMARK INTER + INTRA:          -4.281
REMARK INTER:                  -4.095
REMARK INTRA:                  -0.185
REMARK UNBOUND:                -0.175
REMARK SMILES CC1=CC[C@@H](C(C)C)C=C1
REMARK SMILES IDX 1 1 2 2 3 3 4 4 5 5 9 6 10 7 6 8 7 9 8 10
REMARK H PARENT
REMARK Flexibility Score: inf
ROOT
ATOM      1  C   UNL     1      60.873  44.321  42.958  1.00  0.00     0.044 C 
ATOM      2  C   UNL     1      59.376  44.269  42.897  1.00  0.00    -0.055 C 
ATOM      3  C   UNL     1      58.682  45.299  42.385  1.00  0.00    -0.023 C 
ATOM      4  C   UNL     1      57.193  45.198  42.180  1.00  0.00     0.035 C 
ATOM      5  C   UNL     1      56.541  44.332  43.285  1.00  0.00     0.018 C 
ATOM      6  C   UNL     1      57.330  43.052  43.483  1.00  0.00    -0.023 C 
ATOM      7  C   UNL     1      58.661  43.052  43.344  1.00  0.00    -0.001 C 
ENDROOT
BRANCH   5   8
ATOM      8  C   UNL     1      55.024  44.096  43.030  1.00  0.00    -0.010 C 
ATOM      9  C   UNL     1      54.781  42.772  42.290  1.00  0.00     0.008 C 
ATOM     10  C   UNL     1      54.336  45.254  42.282  1.00  0.00     0.008 C 
ENDBRANCH   5   8
TORSDOF 1
ENDMDL
MODEL 6
REMARK VINA RESULT:    -3.628     22.102     22.974
REMARK INTER + INTRA:          -4.015
REMARK INTER:                  -3.824
REMARK INTRA:                  -0.190
REMARK UNBOUND:                -0.175
REMARK SMILES CC1=CC[C@@H](C(C)C)C=C1
REMARK SMILES IDX 1 1 2 2 3 3 4 4 5 5 9 6 10 7 6 8 7 9 8 10
REMARK H PARENT
REMARK Flexibility Score: inf
ROOT
ATOM      1  C   UNL     1      51.176  28.328  27.891  1.00  0.00     0.044 C 
ATOM      2  C   UNL     1      52.625  28.359  27.507  1.00  0.00    -0.055 C 
ATOM      3  C   UNL     1      53.436  27.341  27.835  1.00  0.00    -0.023 C 
ATOM      4  C   UNL     1      54.853  27.290  27.326  1.00  0.00     0.035 C 
ATOM      5  C   UNL     1      55.449  28.714  27.210  1.00  0.00     0.018 C 
ATOM      6  C   UNL     1      54.467  29.639  26.519  1.00  0.00    -0.023 C 
ATOM      7  C   UNL     1      53.150  29.489  26.706  1.00  0.00    -0.001 C 
ENDROOT
BRANCH   5   8
ATOM      8  C   UNL     1      56.864  28.709  26.562  1.00  0.00    -0.010 C 
ATOM      9  C   UNL     1      56.864  29.446  25.214  1.00  0.00     0.008 C 
ATOM     10  C   UNL     1      57.461  27.299  26.394  1.00  0.00     0.008 C 
ENDBRANCH   5   8
TORSDOF 1
ENDMDL
MODEL 7
REMARK VINA RESULT:    -3.574     21.444     22.517
REMARK INTER + INTRA:          -3.957
REMARK INTER:                  -3.767
REMARK INTRA:                  -0.191
REMARK UNBOUND:                -0.175
REMARK SMILES CC1=CC[C@@H](C(C)C)C=C1
REMARK SMILES IDX 1 1 2 2 3 3 4 4 5 5 9 6 10 7 6 8 7 9 8 10
REMARK H PARENT
REMARK Flexibility Score: inf
ROOT
ATOM      1  C   UNL     1      57.690  26.890  26.198  1.00  0.00     0.044 C 
ATOM      2  C   UNL     1      56.710  28.015  26.051  1.00  0.00    -0.055 C 
ATOM      3  C   UNL     1      56.951  29.018  25.191  1.00  0.00    -0.023 C 
ATOM      4  C   UNL     1      55.908  30.071  24.924  1.00  0.00     0.035 C 
ATOM      5  C   UNL     1      55.080  30.362  26.199  1.00  0.00     0.018 C 
ATOM      6  C   UNL     1      54.643  29.063  26.848  1.00  0.00    -0.023 C 
ATOM      7  C   UNL     1      55.439  27.989  26.811  1.00  0.00    -0.001 C 
ENDROOT
BRANCH   5   8
ATOM      8  C   UNL     1      53.907  31.348  25.925  1.00  0.00    -0.010 C 
ATOM      9  C   UNL     1      52.587  30.823  26.511  1.00  0.00     0.008 C 
ATOM     10  C   UNL     1      53.724  31.694  24.436  1.00  0.00     0.008 C 
ENDBRANCH   5   8
TORSDOF 1
ENDMDL
MODEL 8
REMARK VINA RESULT:    -2.033      1.312      4.831
REMARK INTER + INTRA:          -2.326
REMARK INTER:                  -2.177
REMARK INTRA:                  -0.149
REMARK UNBOUND:                -0.175
REMARK SMILES CC1=CC[C@@H](C(C)C)C=C1
REMARK SMILES IDX 1 1 2 2 3 3 4 4 5 5 9 6 10 7 6 8 7 9 8 10
REMARK H PARENT
REMARK Flexibility Score: inf
ROOT
ATOM      1  C   UNL     1      51.131  47.125  43.300  1.00  0.00     0.044 C 
ATOM      2  C   UNL     1      52.496  46.511  43.208  1.00  0.00    -0.055 C 
ATOM      3  C   UNL     1      53.437  46.812  44.118  1.00  0.00    -0.023 C 
ATOM      4  C   UNL     1      54.760  46.091  44.125  1.00  0.00     0.035 C 
ATOM      5  C   UNL     1      55.199  45.729  42.686  1.00  0.00     0.018 C 
ATOM      6  C   UNL     1      54.043  45.109  41.925  1.00  0.00    -0.023 C 
ATOM      7  C   UNL     1      52.789  45.521  42.147  1.00  0.00    -0.001 C 
ENDROOT
BRANCH   5   8
ATOM      8  C   UNL     1      56.494  44.867  42.665  1.00  0.00    -0.010 C 
ATOM      9  C   UNL     1      57.497  45.390  41.625  1.00  0.00     0.008 C 
ATOM     10  C   UNL     1      56.233  43.366  42.439  1.00  0.00     0.008 C 
ENDBRANCH   5   8
TORSDOF 1
ENDMDL
