MODEL 1
REMARK VINA RESULT:    -5.314      0.000      0.000
REMARK INTER + INTRA:          -6.144
REMARK INTER:                  -6.091
REMARK INTRA:                  -0.053
REMARK UNBOUND:                -0.053
REMARK SMILES O=C([O-])c1cc(O)c(O)c(O)c1
REMARK SMILES IDX 4 1 5 2 12 3 6 4 10 5 8 6 2 7 1 8 3 9 7 10 11 12 9 14
REMARK H PARENT 7 11 11 13 9 15
REMARK Flexibility Score: inf
ROOT
ATOM      1  C   UNL     1      20.340  -0.294 -19.604  1.00  0.00     0.005 A 
ATOM      2  C   UNL     1      20.521  -0.883 -20.868  1.00  0.00     0.060 A 
ATOM      3  C   UNL     1      20.874   0.983 -19.364  1.00  0.00     0.060 A 
ATOM      4  C   UNL     1      21.223  -0.207 -21.876  1.00  0.00     0.162 A 
ATOM      5  C   UNL     1      21.577   1.662 -20.368  1.00  0.00     0.162 A 
ATOM      6  C   UNL     1      21.753   1.069 -21.625  1.00  0.00     0.200 A 
ENDROOT
BRANCH   1   7
ATOM      7  C   UNL     1      19.599  -1.006 -18.540  1.00  0.00     0.072 C 
ATOM      8  O   UNL     1      19.084  -2.135 -18.762  1.00  0.00    -0.545 OA
ATOM      9  O   UNL     1      19.458  -0.439 -17.278  1.00  0.00    -0.545 OA
ENDBRANCH   1   7
BRANCH   4  10
ATOM     10  O   UNL     1      21.397  -0.801 -23.125  1.00  0.00    -0.504 OA
ATOM     11  H   UNL     1      21.024  -0.382 -23.969  1.00  0.00     0.293 HD
ENDBRANCH   4  10
BRANCH   5  12
ATOM     12  O   UNL     1      22.104   2.929 -20.124  1.00  0.00    -0.504 OA
ATOM     13  H   UNL     1      21.702   3.546 -19.427  1.00  0.00     0.293 HD
ENDBRANCH   5  12
BRANCH   6  14
ATOM     14  O   UNL     1      22.456   1.761 -22.611  1.00  0.00    -0.502 OA
ATOM     15  H   UNL     1      21.986   2.285 -23.341  1.00  0.00     0.293 HD
ENDBRANCH   6  14
TORSDOF 4
ENDMDL
MODEL 2
REMARK VINA RESULT:    -5.313      0.040      2.422
REMARK INTER + INTRA:          -6.142
REMARK INTER:                  -6.089
REMARK INTRA:                  -0.053
REMARK UNBOUND:                -0.053
REMARK SMILES O=C([O-])c1cc(O)c(O)c(O)c1
REMARK SMILES IDX 4 1 5 2 12 3 6 4 10 5 8 6 2 7 1 8 3 9 7 10 11 12 9 14
REMARK H PARENT 7 11 11 13 9 15
REMARK Flexibility Score: inf
ROOT
ATOM      1  C   UNL     1      20.364  -0.278 -19.594  1.00  0.00     0.005 A 
ATOM      2  C   UNL     1      20.904   1.000 -19.369  1.00  0.00     0.060 A 
ATOM      3  C   UNL     1      20.527  -0.875 -20.856  1.00  0.00     0.060 A 
ATOM      4  C   UNL     1      21.596   1.672 -20.387  1.00  0.00     0.162 A 
ATOM      5  C   UNL     1      21.217  -0.208 -21.876  1.00  0.00     0.162 A 
ATOM      6  C   UNL     1      21.753   1.065 -21.644  1.00  0.00     0.200 A 
ENDROOT
BRANCH   1   7
ATOM      7  C   UNL     1      19.633  -0.987 -18.521  1.00  0.00     0.072 C 
ATOM      8  O   UNL     1      19.122  -2.120 -18.732  1.00  0.00    -0.545 OA
ATOM      9  O   UNL     1      19.498  -0.413 -17.261  1.00  0.00    -0.545 OA
ENDBRANCH   1   7
BRANCH   4  10
ATOM     10  O   UNL     1      22.127   2.939 -20.153  1.00  0.00    -0.504 OA
ATOM     11  H   UNL     1      21.839   3.745 -20.695  1.00  0.00     0.293 HD
ENDBRANCH   4  10
BRANCH   5  12
ATOM     12  O   UNL     1      21.377  -0.805 -23.125  1.00  0.00    -0.504 OA
ATOM     13  H   UNL     1      20.897  -1.665 -23.368  1.00  0.00     0.293 HD
ENDBRANCH   5  12
BRANCH   6  14
ATOM     14  O   UNL     1      22.437   1.714 -22.673  1.00  0.00    -0.502 OA
ATOM     15  H   UNL     1      22.425   1.371 -23.627  1.00  0.00     0.293 HD
ENDBRANCH   6  14
TORSDOF 4
ENDMDL
MODEL 3
REMARK VINA RESULT:    -4.944      1.322      4.780
REMARK INTER + INTRA:          -5.720
REMARK INTER:                  -5.674
REMARK INTRA:                  -0.046
REMARK UNBOUND:                -0.053
REMARK SMILES O=C([O-])c1cc(O)c(O)c(O)c1
REMARK SMILES IDX 4 1 5 2 12 3 6 4 10 5 8 6 2 7 1 8 3 9 7 10 11 12 9 14
REMARK H PARENT 7 11 11 13 9 15
REMARK Flexibility Score: inf
ROOT
ATOM      1  C   UNL     1      21.195   0.968 -20.649  1.00  0.00     0.005 A 
ATOM      2  C   UNL     1      21.804   1.245 -19.412  1.00  0.00     0.060 A 
ATOM      3  C   UNL     1      19.994   0.238 -20.669  1.00  0.00     0.060 A 
ATOM      4  C   UNL     1      21.224   0.801 -18.216  1.00  0.00     0.162 A 
ATOM      5  C   UNL     1      19.410  -0.208 -19.476  1.00  0.00     0.162 A 
ATOM      6  C   UNL     1      20.023   0.073 -18.248  1.00  0.00     0.200 A 
ENDROOT
BRANCH   1   7
ATOM      7  C   UNL     1      21.806   1.435 -21.912  1.00  0.00     0.072 C 
ATOM      8  O   UNL     1      21.830   2.662 -22.198  1.00  0.00    -0.545 OA
ATOM      9  O   UNL     1      22.363   0.526 -22.805  1.00  0.00    -0.545 OA
ENDBRANCH   1   7
BRANCH   4  10
ATOM     10  O   UNL     1      21.837   1.081 -16.996  1.00  0.00    -0.504 OA
ATOM     11  H   UNL     1      21.403   0.836 -16.113  1.00  0.00     0.293 HD
ENDBRANCH   4  10
BRANCH   5  12
ATOM     12  O   UNL     1      18.219  -0.930 -19.502  1.00  0.00    -0.504 OA
ATOM     13  H   UNL     1      17.356  -0.519 -19.841  1.00  0.00     0.293 HD
ENDBRANCH   5  12
BRANCH   6  14
ATOM     14  O   UNL     1      19.427  -0.380 -17.071  1.00  0.00    -0.502 OA
ATOM     15  H   UNL     1      19.878  -0.287 -16.168  1.00  0.00     0.293 HD
ENDBRANCH   6  14
TORSDOF 4
ENDMDL
MODEL 4
REMARK VINA RESULT:    -4.924      1.321      4.278
REMARK INTER + INTRA:          -5.696
REMARK INTER:                  -5.651
REMARK INTRA:                  -0.045
REMARK UNBOUND:                -0.053
REMARK SMILES O=C([O-])c1cc(O)c(O)c(O)c1
REMARK SMILES IDX 4 1 5 2 12 3 6 4 10 5 8 6 2 7 1 8 3 9 7 10 11 12 9 14
REMARK H PARENT 7 11 11 13 9 15
REMARK Flexibility Score: inf
ROOT
ATOM      1  C   UNL     1      21.232   0.927 -20.689  1.00  0.00     0.005 A 
ATOM      2  C   UNL     1      20.039   0.184 -20.694  1.00  0.00     0.060 A 
ATOM      3  C   UNL     1      21.831   1.248 -19.460  1.00  0.00     0.060 A 
ATOM      4  C   UNL     1      19.453  -0.232 -19.490  1.00  0.00     0.162 A 
ATOM      5  C   UNL     1      21.249   0.834 -18.254  1.00  0.00     0.162 A 
ATOM      6  C   UNL     1      20.061   0.094 -18.267  1.00  0.00     0.200 A 
ENDROOT
BRANCH   1   7
ATOM      7  C   UNL     1      21.852   1.368 -21.959  1.00  0.00     0.072 C 
ATOM      8  O   UNL     1      21.827   2.581 -22.298  1.00  0.00    -0.545 OA
ATOM      9  O   UNL     1      22.470   0.447 -22.799  1.00  0.00    -0.545 OA
ENDBRANCH   1   7
BRANCH   4  10
ATOM     10  O   UNL     1      18.270  -0.968 -19.507  1.00  0.00    -0.504 OA
ATOM     11  H   UNL     1      17.560  -0.819 -20.214  1.00  0.00     0.293 HD
ENDBRANCH   4  10
BRANCH   5  12
ATOM     12  O   UNL     1      21.849   1.155 -17.037  1.00  0.00    -0.504 OA
ATOM     13  H   UNL     1      21.313   1.533 -16.265  1.00  0.00     0.293 HD
ENDBRANCH   5  12
BRANCH   6  14
ATOM     14  O   UNL     1      19.497  -0.309 -17.056  1.00  0.00    -0.502 OA
ATOM     15  H   UNL     1      18.506  -0.498 -16.959  1.00  0.00     0.293 HD
ENDBRANCH   6  14
TORSDOF 4
ENDMDL
MODEL 5
REMARK VINA RESULT:    -4.879      1.009      1.409
REMARK INTER + INTRA:          -5.645
REMARK INTER:                  -5.594
REMARK INTRA:                  -0.051
REMARK UNBOUND:                -0.053
REMARK SMILES O=C([O-])c1cc(O)c(O)c(O)c1
REMARK SMILES IDX 4 1 5 2 12 3 6 4 10 5 8 6 2 7 1 8 3 9 7 10 11 12 9 14
REMARK H PARENT 7 11 11 13 9 15
REMARK Flexibility Score: inf
ROOT
ATOM      1  C   UNL     1      19.990  -0.231 -18.653  1.00  0.00     0.005 A 
ATOM      2  C   UNL     1      19.868  -0.835 -19.917  1.00  0.00     0.060 A 
ATOM      3  C   UNL     1      20.907   0.820 -18.485  1.00  0.00     0.060 A 
ATOM      4  C   UNL     1      20.649  -0.396 -20.996  1.00  0.00     0.162 A 
ATOM      5  C   UNL     1      21.690   1.262 -19.560  1.00  0.00     0.162 A 
ATOM      6  C   UNL     1      21.562   0.656 -20.816  1.00  0.00     0.200 A 
ENDROOT
BRANCH   1   7
ATOM      7  C   UNL     1      19.167  -0.694 -17.514  1.00  0.00     0.072 C 
ATOM      8  O   UNL     1      18.826   0.107 -16.602  1.00  0.00    -0.545 OA
ATOM      9  O   UNL     1      18.758  -2.020 -17.432  1.00  0.00    -0.545 OA
ENDBRANCH   1   7
BRANCH   4  10
ATOM     10  O   UNL     1      20.519  -1.002 -22.244  1.00  0.00    -0.504 OA
ATOM     11  H   UNL     1      20.829  -0.543 -23.093  1.00  0.00     0.293 HD
ENDBRANCH   4  10
BRANCH   5  12
ATOM     12  O   UNL     1      22.597   2.305 -19.387  1.00  0.00    -0.504 OA
ATOM     13  H   UNL     1      22.838   2.930 -20.148  1.00  0.00     0.293 HD
ENDBRANCH   5  12
BRANCH   6  14
ATOM     14  O   UNL     1      22.351   1.110 -21.874  1.00  0.00    -0.502 OA
ATOM     15  H   UNL     1      22.844   0.474 -22.490  1.00  0.00     0.293 HD
ENDBRANCH   6  14
TORSDOF 4
ENDMDL
MODEL 6
REMARK VINA RESULT:    -4.815     16.348     17.792
REMARK INTER + INTRA:          -5.572
REMARK INTER:                  -5.527
REMARK INTRA:                  -0.045
REMARK UNBOUND:                -0.053
REMARK SMILES O=C([O-])c1cc(O)c(O)c(O)c1
REMARK SMILES IDX 4 1 5 2 12 3 6 4 10 5 8 6 2 7 1 8 3 9 7 10 11 12 9 14
REMARK H PARENT 7 11 11 13 9 15
REMARK Flexibility Score: inf
ROOT
ATOM      1  C   UNL     1       8.607  -6.591 -10.271  1.00  0.00     0.005 A 
ATOM      2  C   UNL     1       7.820  -6.214  -9.169  1.00  0.00     0.060 A 
ATOM      3  C   UNL     1      10.007  -6.574 -10.148  1.00  0.00     0.060 A 
ATOM      4  C   UNL     1       8.420  -5.827  -7.962  1.00  0.00     0.162 A 
ATOM      5  C   UNL     1      10.611  -6.188  -8.944  1.00  0.00     0.162 A 
ATOM      6  C   UNL     1       9.820  -5.815  -7.850  1.00  0.00     0.200 A 
ENDROOT
BRANCH   1   7
ATOM      7  C   UNL     1       7.975  -6.999 -11.545  1.00  0.00     0.072 C 
ATOM      8  O   UNL     1       7.534  -8.170 -11.697  1.00  0.00    -0.545 OA
ATOM      9  O   UNL     1       7.860  -6.096 -12.596  1.00  0.00    -0.545 OA
ENDBRANCH   1   7
BRANCH   4  10
ATOM     10  O   UNL     1       7.630  -5.456  -6.877  1.00  0.00    -0.504 OA
ATOM     11  H   UNL     1       6.757  -5.928  -6.667  1.00  0.00     0.293 HD
ENDBRANCH   4  10
BRANCH   5  12
ATOM     12  O   UNL     1      12.000  -6.174  -8.826  1.00  0.00    -0.504 OA
ATOM     13  H   UNL     1      12.548  -5.367  -9.100  1.00  0.00     0.293 HD
ENDBRANCH   5  12
BRANCH   6  14
ATOM     14  O   UNL     1      10.441  -5.433  -6.660  1.00  0.00    -0.502 OA
ATOM     15  H   UNL     1      10.633  -6.095  -5.917  1.00  0.00     0.293 HD
ENDBRANCH   6  14
TORSDOF 4
ENDMDL
MODEL 7
REMARK VINA RESULT:    -4.800     16.339     17.792
REMARK INTER + INTRA:          -5.554
REMARK INTER:                  -5.510
REMARK INTRA:                  -0.045
REMARK UNBOUND:                -0.053
REMARK SMILES O=C([O-])c1cc(O)c(O)c(O)c1
REMARK SMILES IDX 4 1 5 2 12 3 6 4 10 5 8 6 2 7 1 8 3 9 7 10 11 12 9 14
REMARK H PARENT 7 11 11 13 9 15
REMARK Flexibility Score: inf
ROOT
ATOM      1  C   UNL     1       8.623  -6.729 -10.257  1.00  0.00     0.005 A 
ATOM      2  C   UNL     1      10.023  -6.646 -10.151  1.00  0.00     0.060 A 
ATOM      3  C   UNL     1       7.833  -6.379  -9.149  1.00  0.00     0.060 A 
ATOM      4  C   UNL     1      10.624  -6.221  -8.958  1.00  0.00     0.162 A 
ATOM      5  C   UNL     1       8.429  -5.953  -7.955  1.00  0.00     0.162 A 
ATOM      6  C   UNL     1       9.824  -5.874  -7.856  1.00  0.00     0.200 A 
ENDROOT
BRANCH   1   7
ATOM      7  C   UNL     1       7.988  -7.177 -11.516  1.00  0.00     0.072 C 
ATOM      8  O   UNL     1       7.606  -8.370 -11.652  1.00  0.00    -0.545 OA
ATOM      9  O   UNL     1       7.805  -6.288 -12.569  1.00  0.00    -0.545 OA
ENDBRANCH   1   7
BRANCH   4  10
ATOM     10  O   UNL     1      12.012  -6.144  -8.863  1.00  0.00    -0.504 OA
ATOM     11  H   UNL     1      12.474  -5.920  -7.989  1.00  0.00     0.293 HD
ENDBRANCH   4  10
BRANCH   5  12
ATOM     12  O   UNL     1       7.640  -5.606  -6.860  1.00  0.00    -0.504 OA
ATOM     13  H   UNL     1       6.632  -5.709  -6.878  1.00  0.00     0.293 HD
ENDBRANCH   5  12
BRANCH   6  14
ATOM     14  O   UNL     1      10.399  -5.448  -6.658  1.00  0.00    -0.502 OA
ATOM     15  H   UNL     1      11.217  -5.898  -6.263  1.00  0.00     0.293 HD
ENDBRANCH   6  14
TORSDOF 4
ENDMDL
MODEL 8
REMARK VINA RESULT:    -4.503      2.649      3.998
REMARK INTER + INTRA:          -5.214
REMARK INTER:                  -5.168
REMARK INTRA:                  -0.046
REMARK UNBOUND:                -0.053
REMARK SMILES O=C([O-])c1cc(O)c(O)c(O)c1
REMARK SMILES IDX 4 1 5 2 12 3 6 4 10 5 8 6 2 7 1 8 3 9 7 10 11 12 9 14
REMARK H PARENT 7 11 11 13 9 15
REMARK Flexibility Score: inf
ROOT
ATOM      1  C   UNL     1      22.123   1.197 -17.383  1.00  0.00     0.005 A 
ATOM      2  C   UNL     1      22.430   1.705 -18.657  1.00  0.00     0.060 A 
ATOM      3  C   UNL     1      21.030   0.325 -17.241  1.00  0.00     0.060 A 
ATOM      4  C   UNL     1      21.659   1.348 -19.772  1.00  0.00     0.162 A 
ATOM      5  C   UNL     1      20.256  -0.034 -18.353  1.00  0.00     0.162 A 
ATOM      6  C   UNL     1      20.569   0.475 -19.619  1.00  0.00     0.200 A 
ENDROOT
BRANCH   1   7
ATOM      7  C   UNL     1      22.936   1.573 -16.205  1.00  0.00     0.072 C 
ATOM      8  O   UNL     1      23.597   0.703 -15.577  1.00  0.00    -0.545 OA
ATOM      9  O   UNL     1      22.981   2.894 -15.772  1.00  0.00    -0.545 OA
ENDBRANCH   1   7
BRANCH   4  10
ATOM     10  O   UNL     1      21.973   1.858 -21.031  1.00  0.00    -0.504 OA
ATOM     11  H   UNL     1      22.930   2.052 -21.303  1.00  0.00     0.293 HD
ENDBRANCH   4  10
BRANCH   5  12
ATOM     12  O   UNL     1      19.175  -0.900 -18.206  1.00  0.00    -0.504 OA
ATOM     13  H   UNL     1      19.010  -1.660 -18.857  1.00  0.00     0.293 HD
ENDBRANCH   5  12
BRANCH   6  14
ATOM     14  O   UNL     1      19.787   0.106 -20.714  1.00  0.00    -0.502 OA
ATOM     15  H   UNL     1      19.753  -0.848 -21.054  1.00  0.00     0.293 HD
ENDBRANCH   6  14
TORSDOF 4
ENDMDL
MODEL 9
REMARK VINA RESULT:    -4.503      2.650      3.932
REMARK INTER + INTRA:          -5.214
REMARK INTER:                  -5.168
REMARK INTRA:                  -0.046
REMARK UNBOUND:                -0.053
REMARK SMILES O=C([O-])c1cc(O)c(O)c(O)c1
REMARK SMILES IDX 4 1 5 2 12 3 6 4 10 5 8 6 2 7 1 8 3 9 7 10 11 12 9 14
REMARK H PARENT 7 11 11 13 9 15
REMARK Flexibility Score: inf
ROOT
ATOM      1  C   UNL     1      22.147   1.214 -17.391  1.00  0.00     0.005 A 
ATOM      2  C   UNL     1      21.072   0.319 -17.253  1.00  0.00     0.060 A 
ATOM      3  C   UNL     1      22.446   1.732 -18.662  1.00  0.00     0.060 A 
ATOM      4  C   UNL     1      20.306  -0.053 -18.367  1.00  0.00     0.162 A 
ATOM      5  C   UNL     1      21.683   1.363 -19.779  1.00  0.00     0.162 A 
ATOM      6  C   UNL     1      20.612   0.471 -19.634  1.00  0.00     0.200 A 
ENDROOT
BRANCH   1   7
ATOM      7  C   UNL     1      22.957   1.606 -16.216  1.00  0.00     0.072 C 
ATOM      8  O   UNL     1      22.996   2.807 -15.836  1.00  0.00    -0.545 OA
ATOM      9  O   UNL     1      23.688   0.654 -15.513  1.00  0.00    -0.545 OA
ENDBRANCH   1   7
BRANCH   4  10
ATOM     10  O   UNL     1      19.242  -0.940 -18.219  1.00  0.00    -0.504 OA
ATOM     11  H   UNL     1      18.278  -0.630 -18.271  1.00  0.00     0.293 HD
ENDBRANCH   4  10
BRANCH   5  12
ATOM     12  O   UNL     1      21.983   1.881 -21.037  1.00  0.00    -0.504 OA
ATOM     13  H   UNL     1      22.108   1.279 -21.843  1.00  0.00     0.293 HD
ENDBRANCH   5  12
BRANCH   6  14
ATOM     14  O   UNL     1      19.865   0.117 -20.757  1.00  0.00    -0.502 OA
ATOM     15  H   UNL     1      19.410  -0.785 -20.839  1.00  0.00     0.293 HD
ENDBRANCH   6  14
TORSDOF 4
ENDMDL
