MODEL 1
REMARK VINA RESULT:    -5.006      0.000      0.000
REMARK INTER + INTRA:         -17.420
REMARK INTER:                 -13.200
REMARK INTRA:                  -4.220
REMARK UNBOUND:                -4.220
REMARK SMILES CCCCCCCCCCCCCCCCCCCCCCCCCCCCCC(=O)[O-]
REMARK SMILES IDX 16 1 17 2 18 3 19 4 20 5 21 6 22 7 23 8 24 9 25 10 26 11
REMARK SMILES IDX 27 12 28 13 29 14 30 15 31 16 32 17 15 18 14 19 13 20 12 21
REMARK SMILES IDX 11 22 10 23 9 24 8 25 7 26 6 27 5 28 4 29 3 30 2 31 1 32
REMARK H PARENT
REMARK Flexibility Score: inf
ROOT
ATOM      1  C   UNL     1      -8.907   8.782 -10.199  1.00  0.00     0.000 C 
ENDROOT
BRANCH   1   2
ATOM      2  C   UNL     1      -8.433   7.879  -9.042  1.00  0.00     0.000 C 
BRANCH   2   3
ATOM      3  C   UNL     1      -6.909   7.652  -8.973  1.00  0.00     0.000 C 
BRANCH   3   4
ATOM      4  C   UNL     1      -6.077   8.533  -9.926  1.00  0.00     0.000 C 
BRANCH   4   5
ATOM      5  C   UNL     1      -5.442   7.788 -11.120  1.00  0.00     0.000 C 
BRANCH   5   6
ATOM      6  C   UNL     1      -4.973   6.353 -10.817  1.00  0.00     0.000 C 
BRANCH   6   7
ATOM      7  C   UNL     1      -3.827   6.305  -9.791  1.00  0.00     0.000 C 
BRANCH   7   8
ATOM      8  C   UNL     1      -2.513   5.782 -10.392  1.00  0.00     0.000 C 
BRANCH   8   9
ATOM      9  C   UNL     1      -1.536   6.909 -10.769  1.00  0.00     0.000 C 
BRANCH   9  10
ATOM     10  C   UNL     1      -1.546   7.223 -12.274  1.00  0.00     0.000 C 
BRANCH  10  11
ATOM     11  C   UNL     1      -1.822   8.709 -12.568  1.00  0.00     0.000 C 
BRANCH  11  12
ATOM     12  C   UNL     1      -2.235   8.954 -14.034  1.00  0.00     0.000 C 
BRANCH  12  13
ATOM     13  C   UNL     1      -3.085   7.820 -14.639  1.00  0.00     0.006 C 
BRANCH  13  14
ATOM     14  C   UNL     1      -2.996   7.707 -16.170  1.00  0.00     0.053 C 
BRANCH  14  15
ATOM     15  C   UNL     1      -3.190   9.028 -16.852  1.00  0.00     0.041 C 
ATOM     16  O   UNL     1      -4.349   9.423 -17.152  1.00  0.00    -0.550 OA
ATOM     17  O   UNL     1      -2.095   9.827 -17.150  1.00  0.00    -0.550 OA
ENDBRANCH  14  15
ENDBRANCH  13  14
ENDBRANCH  12  13
ENDBRANCH  11  12
ENDBRANCH  10  11
ENDBRANCH   9  10
ENDBRANCH   8   9
ENDBRANCH   7   8
ENDBRANCH   6   7
ENDBRANCH   5   6
ENDBRANCH   4   5
ENDBRANCH   3   4
ENDBRANCH   2   3
ENDBRANCH   1   2
BRANCH   1  18
ATOM     18  C   UNL     1      -9.704   8.056 -11.300  1.00  0.00     0.000 C 
BRANCH  18  19
ATOM     19  C   UNL     1     -10.647   6.979 -10.736  1.00  0.00     0.000 C 
BRANCH  19  20
ATOM     20  C   UNL     1     -11.911   6.791 -11.594  1.00  0.00     0.000 C 
BRANCH  20  21
ATOM     21  C   UNL     1     -13.009   5.921 -10.949  1.00  0.00     0.000 C 
BRANCH  21  22
ATOM     22  C   UNL     1     -12.634   5.301  -9.587  1.00  0.00     0.000 C 
BRANCH  22  23
ATOM     23  C   UNL     1     -13.060   3.831  -9.399  1.00  0.00     0.000 C 
BRANCH  23  24
ATOM     24  C   UNL     1     -12.028   2.949  -8.673  1.00  0.00    -0.000 C 
BRANCH  24  25
ATOM     25  C   UNL     1     -10.889   3.767  -8.046  1.00  0.00    -0.000 C 
BRANCH  25  26
ATOM     26  C   UNL     1      -9.495   3.279  -8.480  1.00  0.00    -0.000 C 
BRANCH  26  27
ATOM     27  C   UNL     1      -8.633   4.380  -9.135  1.00  0.00    -0.000 C 
BRANCH  27  28
ATOM     28  C   UNL     1      -8.241   4.030 -10.581  1.00  0.00    -0.000 C 
BRANCH  28  29
ATOM     29  C   UNL     1      -8.799   2.661 -11.024  1.00  0.00    -0.000 C 
BRANCH  29  30
ATOM     30  C   UNL     1      -9.450   2.683 -12.417  1.00  0.00    -0.000 C 
BRANCH  30  31
ATOM     31  C   UNL     1     -10.837   3.341 -12.418  1.00  0.00    -0.003 C 
ATOM     32  C   UNL     1     -11.944   2.290 -12.390  1.00  0.00     0.004 C 
ENDBRANCH  30  31
ENDBRANCH  29  30
ENDBRANCH  28  29
ENDBRANCH  27  28
ENDBRANCH  26  27
ENDBRANCH  25  26
ENDBRANCH  24  25
ENDBRANCH  23  24
ENDBRANCH  22  23
ENDBRANCH  21  22
ENDBRANCH  20  21
ENDBRANCH  19  20
ENDBRANCH  18  19
ENDBRANCH   1  18
TORSDOF 28
ENDMDL
MODEL 2
REMARK VINA RESULT:    -4.769      1.413      3.435
REMARK INTER + INTRA:         -16.795
REMARK INTER:                 -12.932
REMARK INTRA:                  -3.863
REMARK UNBOUND:                -4.220
REMARK SMILES CCCCCCCCCCCCCCCCCCCCCCCCCCCCCC(=O)[O-]
REMARK SMILES IDX 16 1 17 2 18 3 19 4 20 5 21 6 22 7 23 8 24 9 25 10 26 11
REMARK SMILES IDX 27 12 28 13 29 14 30 15 31 16 32 17 15 18 14 19 13 20 12 21
REMARK SMILES IDX 11 22 10 23 9 24 8 25 7 26 6 27 5 28 4 29 3 30 2 31 1 32
REMARK H PARENT
REMARK Flexibility Score: inf
ROOT
ATOM      1  C   UNL     1     -10.417   6.599 -10.842  1.00  0.00     0.000 C 
ENDROOT
BRANCH   1   2
ATOM      2  C   UNL     1      -9.897   8.007 -11.202  1.00  0.00     0.000 C 
BRANCH   2   3
ATOM      3  C   UNL     1      -9.046   8.688 -10.111  1.00  0.00     0.000 C 
BRANCH   3   4
ATOM      4  C   UNL     1      -8.394   7.724  -9.099  1.00  0.00     0.000 C 
BRANCH   4   5
ATOM      5  C   UNL     1      -6.864   7.866  -8.952  1.00  0.00     0.000 C 
BRANCH   5   6
ATOM      6  C   UNL     1      -6.151   8.508 -10.156  1.00  0.00     0.000 C 
BRANCH   6   7
ATOM      7  C   UNL     1      -5.901   7.512 -11.301  1.00  0.00     0.000 C 
BRANCH   7   8
ATOM      8  C   UNL     1      -4.762   6.528 -10.995  1.00  0.00     0.000 C 
BRANCH   8   9
ATOM      9  C   UNL     1      -3.669   6.521 -12.078  1.00  0.00     0.000 C 
BRANCH   9  10
ATOM     10  C   UNL     1      -2.354   7.156 -11.598  1.00  0.00     0.000 C 
BRANCH  10  11
ATOM     11  C   UNL     1      -2.139   8.572 -12.160  1.00  0.00     0.000 C 
BRANCH  11  12
ATOM     12  C   UNL     1      -2.991   8.845 -13.417  1.00  0.00     0.000 C 
BRANCH  12  13
ATOM     13  C   UNL     1      -2.185   9.402 -14.606  1.00  0.00     0.006 C 
BRANCH  13  14
ATOM     14  C   UNL     1      -2.925   9.356 -15.953  1.00  0.00     0.053 C 
BRANCH  14  15
ATOM     15  C   UNL     1      -3.415   7.979 -16.288  1.00  0.00     0.041 C 
ATOM     16  O   UNL     1      -4.652   7.747 -16.365  1.00  0.00    -0.550 OA
ATOM     17  O   UNL     1      -2.509   6.954 -16.523  1.00  0.00    -0.550 OA
ENDBRANCH  14  15
ENDBRANCH  13  14
ENDBRANCH  12  13
ENDBRANCH  11  12
ENDBRANCH  10  11
ENDBRANCH   9  10
ENDBRANCH   8   9
ENDBRANCH   7   8
ENDBRANCH   6   7
ENDBRANCH   5   6
ENDBRANCH   4   5
ENDBRANCH   3   4
ENDBRANCH   2   3
ENDBRANCH   1   2
BRANCH   1  18
ATOM     18  C   UNL     1     -11.950   6.463 -10.823  1.00  0.00     0.000 C 
BRANCH  18  19
ATOM     19  C   UNL     1     -12.596   6.844 -12.166  1.00  0.00     0.000 C 
BRANCH  19  20
ATOM     20  C   UNL     1     -12.388   5.771 -13.249  1.00  0.00     0.000 C 
BRANCH  20  21
ATOM     21  C   UNL     1     -11.372   6.146 -14.347  1.00  0.00     0.000 C 
BRANCH  21  22
ATOM     22  C   UNL     1     -10.379   5.030 -14.727  1.00  0.00     0.000 C 
BRANCH  22  23
ATOM     23  C   UNL     1      -9.505   4.511 -13.567  1.00  0.00     0.000 C 
BRANCH  23  24
ATOM     24  C   UNL     1      -9.644   3.006 -13.280  1.00  0.00    -0.000 C 
BRANCH  24  25
ATOM     25  C   UNL     1     -10.471   2.719 -12.017  1.00  0.00    -0.000 C 
BRANCH  25  26
ATOM     26  C   UNL     1     -11.922   2.316 -12.333  1.00  0.00    -0.000 C 
BRANCH  26  27
ATOM     27  C   UNL     1     -12.940   2.803 -11.280  1.00  0.00    -0.000 C 
BRANCH  27  28
ATOM     28  C   UNL     1     -12.693   2.177  -9.896  1.00  0.00    -0.000 C 
BRANCH  28  29
ATOM     29  C   UNL     1     -12.273   3.227  -8.846  1.00  0.00    -0.000 C 
BRANCH  29  30
ATOM     30  C   UNL     1     -11.186   2.729  -7.877  1.00  0.00    -0.000 C 
BRANCH  30  31
ATOM     31  C   UNL     1     -10.705   1.307  -8.198  1.00  0.00    -0.003 C 
ATOM     32  C   UNL     1      -9.257   1.312  -8.679  1.00  0.00     0.004 C 
ENDBRANCH  30  31
ENDBRANCH  29  30
ENDBRANCH  28  29
ENDBRANCH  27  28
ENDBRANCH  26  27
ENDBRANCH  25  26
ENDBRANCH  24  25
ENDBRANCH  23  24
ENDBRANCH  22  23
ENDBRANCH  21  22
ENDBRANCH  20  21
ENDBRANCH  19  20
ENDBRANCH  18  19
ENDBRANCH   1  18
TORSDOF 28
ENDMDL
MODEL 3
REMARK VINA RESULT:    -4.763      1.264      2.024
REMARK INTER + INTRA:         -16.780
REMARK INTER:                 -12.993
REMARK INTRA:                  -3.787
REMARK UNBOUND:                -4.220
REMARK SMILES CCCCCCCCCCCCCCCCCCCCCCCCCCCCCC(=O)[O-]
REMARK SMILES IDX 16 1 17 2 18 3 19 4 20 5 21 6 22 7 23 8 24 9 25 10 26 11
REMARK SMILES IDX 27 12 28 13 29 14 30 15 31 16 32 17 15 18 14 19 13 20 12 21
REMARK SMILES IDX 11 22 10 23 9 24 8 25 7 26 6 27 5 28 4 29 3 30 2 31 1 32
REMARK H PARENT
REMARK Flexibility Score: inf
ROOT
ATOM      1  C   UNL     1      -9.417   7.558 -10.791  1.00  0.00     0.000 C 
ENDROOT
BRANCH   1   2
ATOM      2  C   UNL     1      -8.769   8.238  -9.567  1.00  0.00     0.000 C 
BRANCH   2   3
ATOM      3  C   UNL     1      -8.297   7.275  -8.458  1.00  0.00     0.000 C 
BRANCH   3   4
ATOM      4  C   UNL     1      -6.873   7.541  -7.928  1.00  0.00     0.000 C 
BRANCH   4   5
ATOM      5  C   UNL     1      -5.930   8.257  -8.918  1.00  0.00     0.000 C 
BRANCH   5   6
ATOM      6  C   UNL     1      -5.222   7.333  -9.927  1.00  0.00     0.000 C 
BRANCH   6   7
ATOM      7  C   UNL     1      -5.492   7.730 -11.389  1.00  0.00     0.000 C 
BRANCH   7   8
ATOM      8  C   UNL     1      -4.532   7.050 -12.377  1.00  0.00     0.000 C 
BRANCH   8   9
ATOM      9  C   UNL     1      -3.082   6.995 -11.863  1.00  0.00     0.000 C 
BRANCH   9  10
ATOM     10  C   UNL     1      -2.061   7.444 -12.920  1.00  0.00     0.000 C 
BRANCH  10  11
ATOM     11  C   UNL     1      -1.854   8.969 -12.935  1.00  0.00     0.000 C 
BRANCH  11  12
ATOM     12  C   UNL     1      -2.499   9.641 -14.165  1.00  0.00     0.000 C 
BRANCH  12  13
ATOM     13  C   UNL     1      -2.558   8.734 -15.409  1.00  0.00     0.006 C 
BRANCH  13  14
ATOM     14  C   UNL     1      -3.511   9.228 -16.510  1.00  0.00     0.053 C 
BRANCH  14  15
ATOM     15  C   UNL     1      -4.546   8.205 -16.873  1.00  0.00     0.041 C 
ATOM     16  O   UNL     1      -4.620   7.123 -16.230  1.00  0.00    -0.550 OA
ATOM     17  O   UNL     1      -5.432   8.447 -17.913  1.00  0.00    -0.550 OA
ENDBRANCH  14  15
ENDBRANCH  13  14
ENDBRANCH  12  13
ENDBRANCH  11  12
ENDBRANCH  10  11
ENDBRANCH   9  10
ENDBRANCH   8   9
ENDBRANCH   7   8
ENDBRANCH   6   7
ENDBRANCH   5   6
ENDBRANCH   4   5
ENDBRANCH   3   4
ENDBRANCH   2   3
ENDBRANCH   1   2
BRANCH   1  18
ATOM     18  C   UNL     1     -10.524   6.542 -10.454  1.00  0.00     0.000 C 
BRANCH  18  19
ATOM     19  C   UNL     1     -11.800   6.759 -11.286  1.00  0.00     0.000 C 
BRANCH  19  20
ATOM     20  C   UNL     1     -13.014   6.003 -10.718  1.00  0.00     0.000 C 
BRANCH  20  21
ATOM     21  C   UNL     1     -12.700   5.080  -9.522  1.00  0.00     0.000 C 
BRANCH  21  22
ATOM     22  C   UNL     1     -12.938   3.578  -9.776  1.00  0.00     0.000 C 
BRANCH  22  23
ATOM     23  C   UNL     1     -12.469   2.642  -8.644  1.00  0.00     0.000 C 
BRANCH  23  24
ATOM     24  C   UNL     1     -11.146   3.053  -7.974  1.00  0.00    -0.000 C 
BRANCH  24  25
ATOM     25  C   UNL     1      -9.926   2.358  -8.598  1.00  0.00    -0.000 C 
BRANCH  25  26
ATOM     26  C   UNL     1      -9.112   3.290  -9.513  1.00  0.00    -0.000 C 
BRANCH  26  27
ATOM     27  C   UNL     1      -8.255   2.537 -10.552  1.00  0.00    -0.000 C 
BRANCH  27  28
ATOM     28  C   UNL     1      -8.840   2.634 -11.972  1.00  0.00    -0.000 C 
BRANCH  28  29
ATOM     29  C   UNL     1     -10.226   3.312 -11.988  1.00  0.00    -0.000 C 
BRANCH  29  30
ATOM     30  C   UNL     1     -10.684   3.746 -13.391  1.00  0.00    -0.000 C 
BRANCH  30  31
ATOM     31  C   UNL     1      -9.981   5.019 -13.882  1.00  0.00    -0.003 C 
ATOM     32  C   UNL     1     -10.513   5.450 -15.246  1.00  0.00     0.004 C 
ENDBRANCH  30  31
ENDBRANCH  29  30
ENDBRANCH  28  29
ENDBRANCH  27  28
ENDBRANCH  26  27
ENDBRANCH  25  26
ENDBRANCH  24  25
ENDBRANCH  23  24
ENDBRANCH  22  23
ENDBRANCH  21  22
ENDBRANCH  20  21
ENDBRANCH  19  20
ENDBRANCH  18  19
ENDBRANCH   1  18
TORSDOF 28
ENDMDL
MODEL 4
REMARK VINA RESULT:    -4.739      2.604      8.355
REMARK INTER + INTRA:         -16.716
REMARK INTER:                 -11.642
REMARK INTRA:                  -5.074
REMARK UNBOUND:                -4.220
REMARK SMILES CCCCCCCCCCCCCCCCCCCCCCCCCCCCCC(=O)[O-]
REMARK SMILES IDX 16 1 17 2 18 3 19 4 20 5 21 6 22 7 23 8 24 9 25 10 26 11
REMARK SMILES IDX 27 12 28 13 29 14 30 15 31 16 32 17 15 18 14 19 13 20 12 21
REMARK SMILES IDX 11 22 10 23 9 24 8 25 7 26 6 27 5 28 4 29 3 30 2 31 1 32
REMARK H PARENT
REMARK Flexibility Score: inf
ROOT
ATOM      1  C   UNL     1      -8.778   8.878 -10.126  1.00  0.00     0.000 C 
ENDROOT
BRANCH   1   2
ATOM      2  C   UNL     1      -9.748   8.240 -11.142  1.00  0.00     0.000 C 
BRANCH   2   3
ATOM      3  C   UNL     1     -10.423   6.936 -10.670  1.00  0.00     0.000 C 
BRANCH   3   4
ATOM      4  C   UNL     1     -11.838   6.694 -11.236  1.00  0.00     0.000 C 
BRANCH   4   5
ATOM      5  C   UNL     1     -12.747   5.801 -10.365  1.00  0.00     0.000 C 
BRANCH   5   6
ATOM      6  C   UNL     1     -12.622   4.290 -10.630  1.00  0.00     0.000 C 
BRANCH   6   7
ATOM      7  C   UNL     1     -12.361   3.480  -9.349  1.00  0.00     0.000 C 
BRANCH   7   8
ATOM      8  C   UNL     1     -11.625   4.292  -8.272  1.00  0.00     0.000 C 
BRANCH   8   9
ATOM      9  C   UNL     1     -10.249   3.703  -7.912  1.00  0.00     0.000 C 
BRANCH   9  10
ATOM     10  C   UNL     1      -9.092   4.663  -8.230  1.00  0.00     0.000 C 
BRANCH  10  11
ATOM     11  C   UNL     1      -8.047   4.042  -9.173  1.00  0.00     0.000 C 
BRANCH  11  12
ATOM     12  C   UNL     1      -8.679   3.094 -10.214  1.00  0.00     0.000 C 
BRANCH  12  13
ATOM     13  C   UNL     1      -8.927   3.753 -11.585  1.00  0.00     0.006 C 
BRANCH  13  14
ATOM     14  C   UNL     1      -9.741   2.892 -12.565  1.00  0.00     0.053 C 
BRANCH  14  15
ATOM     15  C   UNL     1      -8.871   2.177 -13.556  1.00  0.00     0.041 C 
ATOM     16  O   UNL     1      -7.692   2.570 -13.765  1.00  0.00    -0.550 OA
ATOM     17  O   UNL     1      -9.358   1.072 -14.242  1.00  0.00    -0.550 OA
ENDBRANCH  14  15
ENDBRANCH  13  14
ENDBRANCH  12  13
ENDBRANCH  11  12
ENDBRANCH  10  11
ENDBRANCH   9  10
ENDBRANCH   8   9
ENDBRANCH   7   8
ENDBRANCH   6   7
ENDBRANCH   5   6
ENDBRANCH   4   5
ENDBRANCH   3   4
ENDBRANCH   2   3
ENDBRANCH   1   2
BRANCH   1  18
ATOM     18  C   UNL     1      -8.028   7.874  -9.231  1.00  0.00     0.000 C 
BRANCH  18  19
ATOM     19  C   UNL     1      -6.499   8.006  -9.345  1.00  0.00     0.000 C 
BRANCH  19  20
ATOM     20  C   UNL     1      -6.032   8.262 -10.789  1.00  0.00     0.000 C 
BRANCH  20  21
ATOM     21  C   UNL     1      -6.127   7.041 -11.727  1.00  0.00     0.000 C 
BRANCH  21  22
ATOM     22  C   UNL     1      -5.218   5.855 -11.347  1.00  0.00     0.000 C 
BRANCH  22  23
ATOM     23  C   UNL     1      -4.921   4.866 -12.493  1.00  0.00     0.000 C 
BRANCH  23  24
ATOM     24  C   UNL     1      -3.460   4.392 -12.573  1.00  0.00    -0.000 C 
BRANCH  24  25
ATOM     25  C   UNL     1      -2.717   4.963 -13.790  1.00  0.00    -0.000 C 
BRANCH  25  26
ATOM     26  C   UNL     1      -3.503   6.081 -14.498  1.00  0.00    -0.000 C 
BRANCH  26  27
ATOM     27  C   UNL     1      -2.609   7.218 -15.036  1.00  0.00    -0.000 C 
BRANCH  27  28
ATOM     28  C   UNL     1      -2.999   8.590 -14.458  1.00  0.00    -0.000 C 
BRANCH  28  29
ATOM     29  C   UNL     1      -2.961   8.607 -12.916  1.00  0.00    -0.000 C 
BRANCH  29  30
ATOM     30  C   UNL     1      -1.546   8.451 -12.332  1.00  0.00    -0.000 C 
BRANCH  30  31
ATOM     31  C   UNL     1      -1.443   7.310 -11.310  1.00  0.00    -0.003 C 
ATOM     32  C   UNL     1      -0.209   7.472 -10.427  1.00  0.00     0.004 C 
ENDBRANCH  30  31
ENDBRANCH  29  30
ENDBRANCH  28  29
ENDBRANCH  27  28
ENDBRANCH  26  27
ENDBRANCH  25  26
ENDBRANCH  24  25
ENDBRANCH  23  24
ENDBRANCH  22  23
ENDBRANCH  21  22
ENDBRANCH  20  21
ENDBRANCH  19  20
ENDBRANCH  18  19
ENDBRANCH   1  18
TORSDOF 28
ENDMDL
MODEL 5
REMARK VINA RESULT:    -4.716      2.839      7.344
REMARK INTER + INTRA:         -16.657
REMARK INTER:                 -11.866
REMARK INTRA:                  -4.791
REMARK UNBOUND:                -4.220
REMARK SMILES CCCCCCCCCCCCCCCCCCCCCCCCCCCCCC(=O)[O-]
REMARK SMILES IDX 16 1 17 2 18 3 19 4 20 5 21 6 22 7 23 8 24 9 25 10 26 11
REMARK SMILES IDX 27 12 28 13 29 14 30 15 31 16 32 17 15 18 14 19 13 20 12 21
REMARK SMILES IDX 11 22 10 23 9 24 8 25 7 26 6 27 5 28 4 29 3 30 2 31 1 32
REMARK H PARENT
REMARK Flexibility Score: inf
ROOT
ATOM      1  C   UNL     1      -8.589   4.396  -8.949  1.00  0.00     0.000 C 
ENDROOT
BRANCH   1   2
ATOM      2  C   UNL     1     -10.060   4.168  -8.544  1.00  0.00     0.000 C 
BRANCH   2   3
ATOM      3  C   UNL     1     -10.869   3.267  -9.500  1.00  0.00     0.000 C 
BRANCH   3   4
ATOM      4  C   UNL     1     -12.255   3.816  -9.893  1.00  0.00     0.000 C 
BRANCH   4   5
ATOM      5  C   UNL     1     -12.515   5.284  -9.494  1.00  0.00     0.000 C 
BRANCH   5   6
ATOM      6  C   UNL     1     -13.084   6.173 -10.615  1.00  0.00     0.000 C 
BRANCH   6   7
ATOM      7  C   UNL     1     -12.658   5.708 -12.018  1.00  0.00     0.000 C 
BRANCH   7   8
ATOM      8  C   UNL     1     -12.908   6.772 -13.099  1.00  0.00     0.000 C 
BRANCH   8   9
ATOM      9  C   UNL     1     -12.078   6.538 -14.373  1.00  0.00     0.000 C 
BRANCH   9  10
ATOM     10  C   UNL     1     -12.604   7.335 -15.577  1.00  0.00     0.000 C 
BRANCH  10  11
ATOM     11  C   UNL     1     -11.475   7.974 -16.406  1.00  0.00     0.000 C 
BRANCH  11  12
ATOM     12  C   UNL     1     -10.377   8.603 -15.523  1.00  0.00     0.000 C 
BRANCH  12  13
ATOM     13  C   UNL     1      -9.572   9.712 -16.227  1.00  0.00     0.006 C 
BRANCH  13  14
ATOM     14  C   UNL     1      -9.696  11.099 -15.574  1.00  0.00     0.053 C 
BRANCH  14  15
ATOM     15  C   UNL     1      -9.148  12.191 -16.444  1.00  0.00     0.041 C 
ATOM     16  O   UNL     1      -9.898  13.125 -16.837  1.00  0.00    -0.550 OA
ATOM     17  O   UNL     1      -7.810  12.183 -16.814  1.00  0.00    -0.550 OA
ENDBRANCH  14  15
ENDBRANCH  13  14
ENDBRANCH  12  13
ENDBRANCH  11  12
ENDBRANCH  10  11
ENDBRANCH   9  10
ENDBRANCH   8   9
ENDBRANCH   7   8
ENDBRANCH   6   7
ENDBRANCH   5   6
ENDBRANCH   4   5
ENDBRANCH   3   4
ENDBRANCH   2   3
ENDBRANCH   1   2
BRANCH   1  18
ATOM     18  C   UNL     1      -8.171   3.721 -10.269  1.00  0.00     0.000 C 
BRANCH  18  19
ATOM     19  C   UNL     1      -7.776   4.737 -11.355  1.00  0.00     0.000 C 
BRANCH  19  20
ATOM     20  C   UNL     1      -8.995   5.440 -11.979  1.00  0.00     0.000 C 
BRANCH  20  21
ATOM     21  C   UNL     1      -8.679   6.771 -12.693  1.00  0.00     0.000 C 
BRANCH  21  22
ATOM     22  C   UNL     1      -9.473   7.990 -12.182  1.00  0.00     0.000 C 
BRANCH  22  23
ATOM     23  C   UNL     1      -9.852   7.942 -10.688  1.00  0.00     0.000 C 
BRANCH  23  24
ATOM     24  C   UNL     1      -8.847   8.627  -9.745  1.00  0.00    -0.000 C 
BRANCH  24  25
ATOM     25  C   UNL     1      -8.010   7.620  -8.941  1.00  0.00    -0.000 C 
BRANCH  25  26
ATOM     26  C   UNL     1      -6.519   7.644  -9.321  1.00  0.00    -0.000 C 
BRANCH  26  27
ATOM     27  C   UNL     1      -6.207   8.547 -10.534  1.00  0.00    -0.000 C 
BRANCH  27  28
ATOM     28  C   UNL     1      -5.238   7.878 -11.525  1.00  0.00    -0.000 C 
BRANCH  28  29
ATOM     29  C   UNL     1      -4.148   7.053 -10.810  1.00  0.00    -0.000 C 
BRANCH  29  30
ATOM     30  C   UNL     1      -2.957   6.690 -11.713  1.00  0.00    -0.000 C 
BRANCH  30  31
ATOM     31  C   UNL     1      -2.010   7.873 -11.958  1.00  0.00    -0.003 C 
ATOM     32  C   UNL     1      -2.176   8.427 -13.371  1.00  0.00     0.004 C 
ENDBRANCH  30  31
ENDBRANCH  29  30
ENDBRANCH  28  29
ENDBRANCH  27  28
ENDBRANCH  26  27
ENDBRANCH  25  26
ENDBRANCH  24  25
ENDBRANCH  23  24
ENDBRANCH  22  23
ENDBRANCH  21  22
ENDBRANCH  20  21
ENDBRANCH  19  20
ENDBRANCH  18  19
ENDBRANCH   1  18
TORSDOF 28
ENDMDL
MODEL 6
REMARK VINA RESULT:    -4.665      2.045      7.218
REMARK INTER + INTRA:         -16.520
REMARK INTER:                 -11.667
REMARK INTRA:                  -4.853
REMARK UNBOUND:                -4.220
REMARK SMILES CCCCCCCCCCCCCCCCCCCCCCCCCCCCCC(=O)[O-]
REMARK SMILES IDX 16 1 17 2 18 3 19 4 20 5 21 6 22 7 23 8 24 9 25 10 26 11
REMARK SMILES IDX 27 12 28 13 29 14 30 15 31 16 32 17 15 18 14 19 13 20 12 21
REMARK SMILES IDX 11 22 10 23 9 24 8 25 7 26 6 27 5 28 4 29 3 30 2 31 1 32
REMARK H PARENT
REMARK Flexibility Score: inf
ROOT
ATOM      1  C   UNL     1     -11.883   3.549 -11.921  1.00  0.00     0.000 C 
ENDROOT
BRANCH   1   2
ATOM      2  C   UNL     1     -12.769   2.370 -11.466  1.00  0.00     0.000 C 
BRANCH   2   3
ATOM      3  C   UNL     1     -13.001   2.278  -9.944  1.00  0.00     0.000 C 
BRANCH   3   4
ATOM      4  C   UNL     1     -11.849   1.630  -9.149  1.00  0.00     0.000 C 
BRANCH   4   5
ATOM      5  C   UNL     1     -11.308   2.475  -7.976  1.00  0.00     0.000 C 
BRANCH   5   6
ATOM      6  C   UNL     1     -11.266   3.993  -8.232  1.00  0.00     0.000 C 
BRANCH   6   7
ATOM      7  C   UNL     1      -9.846   4.575  -8.129  1.00  0.00     0.000 C 
BRANCH   7   8
ATOM      8  C   UNL     1      -8.758   3.561  -8.518  1.00  0.00     0.000 C 
BRANCH   8   9
ATOM      9  C   UNL     1      -8.215   3.780  -9.941  1.00  0.00     0.000 C 
BRANCH   9  10
ATOM     10  C   UNL     1      -8.653   2.678 -10.919  1.00  0.00     0.000 C 
BRANCH  10  11
ATOM     11  C   UNL     1      -8.198   2.951 -12.363  1.00  0.00     0.000 C 
BRANCH  11  12
ATOM     12  C   UNL     1      -8.728   1.898 -13.359  1.00  0.00     0.000 C 
BRANCH  12  13
ATOM     13  C   UNL     1      -9.428   2.503 -14.591  1.00  0.00     0.006 C 
BRANCH  13  14
ATOM     14  C   UNL     1      -9.453   4.040 -14.616  1.00  0.00     0.053 C 
BRANCH  14  15
ATOM     15  C   UNL     1      -8.437   4.613 -15.559  1.00  0.00     0.041 C 
ATOM     16  O   UNL     1      -8.515   4.378 -16.795  1.00  0.00    -0.550 OA
ATOM     17  O   UNL     1      -7.409   5.411 -15.076  1.00  0.00    -0.550 OA
ENDBRANCH  14  15
ENDBRANCH  13  14
ENDBRANCH  12  13
ENDBRANCH  11  12
ENDBRANCH  10  11
ENDBRANCH   9  10
ENDBRANCH   8   9
ENDBRANCH   7   8
ENDBRANCH   6   7
ENDBRANCH   5   6
ENDBRANCH   4   5
ENDBRANCH   3   4
ENDBRANCH   2   3
ENDBRANCH   1   2
BRANCH   1  18
ATOM     18  C   UNL     1     -12.373   4.937 -11.469  1.00  0.00     0.000 C 
BRANCH  18  19
ATOM     19  C   UNL     1     -11.585   6.086 -12.121  1.00  0.00     0.000 C 
BRANCH  19  20
ATOM     20  C   UNL     1     -10.260   6.382 -11.396  1.00  0.00     0.000 C 
BRANCH  20  21
ATOM     21  C   UNL     1     -10.126   7.819 -10.853  1.00  0.00     0.000 C 
BRANCH  21  22
ATOM     22  C   UNL     1      -8.699   8.229 -10.437  1.00  0.00     0.000 C 
BRANCH  22  23
ATOM     23  C   UNL     1      -8.233   7.680  -9.074  1.00  0.00     0.000 C 
BRANCH  23  24
ATOM     24  C   UNL     1      -6.727   7.839  -8.796  1.00  0.00    -0.000 C 
BRANCH  24  25
ATOM     25  C   UNL     1      -5.984   6.494  -8.778  1.00  0.00    -0.000 C 
BRANCH  25  26
ATOM     26  C   UNL     1      -4.918   6.387  -9.882  1.00  0.00    -0.000 C 
BRANCH  26  27
ATOM     27  C   UNL     1      -4.918   7.584 -10.858  1.00  0.00    -0.000 C 
BRANCH  27  28
ATOM     28  C   UNL     1      -4.964   7.136 -12.329  1.00  0.00    -0.000 C 
BRANCH  28  29
ATOM     29  C   UNL     1      -3.568   7.146 -12.987  1.00  0.00    -0.000 C 
BRANCH  29  30
ATOM     30  C   UNL     1      -2.504   7.897 -12.167  1.00  0.00    -0.000 C 
BRANCH  30  31
ATOM     31  C   UNL     1      -1.846   9.042 -12.949  1.00  0.00    -0.003 C 
ATOM     32  C   UNL     1      -2.566   9.290 -14.272  1.00  0.00     0.004 C 
ENDBRANCH  30  31
ENDBRANCH  29  30
ENDBRANCH  28  29
ENDBRANCH  27  28
ENDBRANCH  26  27
ENDBRANCH  25  26
ENDBRANCH  24  25
ENDBRANCH  23  24
ENDBRANCH  22  23
ENDBRANCH  21  22
ENDBRANCH  20  21
ENDBRANCH  19  20
ENDBRANCH  18  19
ENDBRANCH   1  18
TORSDOF 28
ENDMDL
MODEL 7
REMARK VINA RESULT:    -4.647      2.118      5.021
REMARK INTER + INTRA:         -16.474
REMARK INTER:                 -11.817
REMARK INTRA:                  -4.657
REMARK UNBOUND:                -4.220
REMARK SMILES CCCCCCCCCCCCCCCCCCCCCCCCCCCCCC(=O)[O-]
REMARK SMILES IDX 16 1 17 2 18 3 19 4 20 5 21 6 22 7 23 8 24 9 25 10 26 11
REMARK SMILES IDX 27 12 28 13 29 14 30 15 31 16 32 17 15 18 14 19 13 20 12 21
REMARK SMILES IDX 11 22 10 23 9 24 8 25 7 26 6 27 5 28 4 29 3 30 2 31 1 32
REMARK H PARENT
REMARK Flexibility Score: inf
ROOT
ATOM      1  C   UNL     1     -11.913   2.547 -11.587  1.00  0.00     0.000 C 
ENDROOT
BRANCH   1   2
ATOM      2  C   UNL     1     -11.397   3.697 -12.477  1.00  0.00     0.000 C 
BRANCH   2   3
ATOM      3  C   UNL     1     -12.193   5.014 -12.370  1.00  0.00     0.000 C 
BRANCH   3   4
ATOM      4  C   UNL     1     -11.399   6.209 -11.805  1.00  0.00     0.000 C 
BRANCH   4   5
ATOM      5  C   UNL     1     -10.636   7.044 -12.855  1.00  0.00     0.000 C 
BRANCH   5   6
ATOM      6  C   UNL     1      -9.759   8.171 -12.280  1.00  0.00     0.000 C 
BRANCH   6   7
ATOM      7  C   UNL     1      -9.608   8.087 -10.751  1.00  0.00     0.000 C 
BRANCH   7   8
ATOM      8  C   UNL     1      -8.289   8.694 -10.250  1.00  0.00     0.000 C 
BRANCH   8   9
ATOM      9  C   UNL     1      -7.479   7.724  -9.371  1.00  0.00     0.000 C 
BRANCH   9  10
ATOM     10  C   UNL     1      -5.965   7.826  -9.618  1.00  0.00     0.000 C 
BRANCH  10  11
ATOM     11  C   UNL     1      -5.626   8.323 -11.034  1.00  0.00     0.000 C 
BRANCH  11  12
ATOM     12  C   UNL     1      -4.771   7.312 -11.827  1.00  0.00     0.000 C 
BRANCH  12  13
ATOM     13  C   UNL     1      -3.331   7.167 -11.298  1.00  0.00     0.006 C 
BRANCH  13  14
ATOM     14  C   UNL     1      -2.251   7.740 -12.231  1.00  0.00     0.053 C 
BRANCH  14  15
ATOM     15  C   UNL     1      -2.836   8.412 -13.437  1.00  0.00     0.041 C 
ATOM     16  O   UNL     1      -2.938   9.668 -13.475  1.00  0.00    -0.550 OA
ATOM     17  O   UNL     1      -3.261   7.655 -14.520  1.00  0.00    -0.550 OA
ENDBRANCH  14  15
ENDBRANCH  13  14
ENDBRANCH  12  13
ENDBRANCH  11  12
ENDBRANCH  10  11
ENDBRANCH   9  10
ENDBRANCH   8   9
ENDBRANCH   7   8
ENDBRANCH   6   7
ENDBRANCH   5   6
ENDBRANCH   4   5
ENDBRANCH   3   4
ENDBRANCH   2   3
ENDBRANCH   1   2
BRANCH   1  18
ATOM     18  C   UNL     1     -13.023   2.946 -10.597  1.00  0.00     0.000 C 
BRANCH  18  19
ATOM     19  C   UNL     1     -12.536   2.966  -9.138  1.00  0.00     0.000 C 
BRANCH  19  20
ATOM     20  C   UNL     1     -11.947   4.328  -8.728  1.00  0.00     0.000 C 
BRANCH  20  21
ATOM     21  C   UNL     1     -10.479   4.284  -8.256  1.00  0.00     0.000 C 
BRANCH  21  22
ATOM     22  C   UNL     1      -9.440   4.699  -9.316  1.00  0.00     0.000 C 
BRANCH  22  23
ATOM     23  C   UNL     1      -8.513   3.567  -9.801  1.00  0.00     0.000 C 
BRANCH  23  24
ATOM     24  C   UNL     1      -7.305   4.034 -10.632  1.00  0.00    -0.000 C 
BRANCH  24  25
ATOM     25  C   UNL     1      -7.701   4.990 -11.767  1.00  0.00    -0.000 C 
BRANCH  25  26
ATOM     26  C   UNL     1      -8.104   4.253 -13.056  1.00  0.00    -0.000 C 
BRANCH  26  27
ATOM     27  C   UNL     1      -7.314   2.948 -13.292  1.00  0.00    -0.000 C 
BRANCH  27  28
ATOM     28  C   UNL     1      -7.669   2.286 -14.635  1.00  0.00    -0.000 C 
BRANCH  28  29
ATOM     29  C   UNL     1      -9.190   2.081 -14.802  1.00  0.00    -0.000 C 
BRANCH  29  30
ATOM     30  C   UNL     1      -9.593   0.615 -15.036  1.00  0.00    -0.000 C 
BRANCH  30  31
ATOM     31  C   UNL     1      -9.917   0.312 -16.506  1.00  0.00    -0.003 C 
ATOM     32  C   UNL     1      -8.654  -0.055 -17.282  1.00  0.00     0.004 C 
ENDBRANCH  30  31
ENDBRANCH  29  30
ENDBRANCH  28  29
ENDBRANCH  27  28
ENDBRANCH  26  27
ENDBRANCH  25  26
ENDBRANCH  24  25
ENDBRANCH  23  24
ENDBRANCH  22  23
ENDBRANCH  21  22
ENDBRANCH  20  21
ENDBRANCH  19  20
ENDBRANCH  18  19
ENDBRANCH   1  18
TORSDOF 28
ENDMDL
MODEL 8
REMARK VINA RESULT:    -4.647      2.386      7.682
REMARK INTER + INTRA:         -16.473
REMARK INTER:                 -11.456
REMARK INTRA:                  -5.017
REMARK UNBOUND:                -4.220
REMARK SMILES CCCCCCCCCCCCCCCCCCCCCCCCCCCCCC(=O)[O-]
REMARK SMILES IDX 16 1 17 2 18 3 19 4 20 5 21 6 22 7 23 8 24 9 25 10 26 11
REMARK SMILES IDX 27 12 28 13 29 14 30 15 31 16 32 17 15 18 14 19 13 20 12 21
REMARK SMILES IDX 11 22 10 23 9 24 8 25 7 26 6 27 5 28 4 29 3 30 2 31 1 32
REMARK H PARENT
REMARK Flexibility Score: inf
ROOT
ATOM      1  C   UNL     1     -10.416   6.909 -10.657  1.00  0.00     0.000 C 
ENDROOT
BRANCH   1   2
ATOM      2  C   UNL     1     -11.670   7.025 -11.548  1.00  0.00     0.000 C 
BRANCH   2   3
ATOM      3  C   UNL     1     -12.918   6.290 -11.019  1.00  0.00     0.000 C 
BRANCH   3   4
ATOM      4  C   UNL     1     -12.686   5.447  -9.748  1.00  0.00     0.000 C 
BRANCH   4   5
ATOM      5  C   UNL     1     -12.873   3.926  -9.930  1.00  0.00     0.000 C 
BRANCH   5   6
ATOM      6  C   UNL     1     -12.001   3.048  -9.013  1.00  0.00     0.000 C 
BRANCH   6   7
ATOM      7  C   UNL     1     -10.810   2.414  -9.752  1.00  0.00     0.000 C 
BRANCH   7   8
ATOM      8  C   UNL     1      -9.594   3.351  -9.832  1.00  0.00     0.000 C 
BRANCH   8   9
ATOM      9  C   UNL     1      -9.137   3.617 -11.278  1.00  0.00     0.000 C 
BRANCH   9  10
ATOM     10  C   UNL     1     -10.020   2.909 -12.318  1.00  0.00     0.000 C 
BRANCH  10  11
ATOM     11  C   UNL     1     -10.897   3.888 -13.118  1.00  0.00     0.000 C 
BRANCH  11  12
ATOM     12  C   UNL     1     -10.142   4.525 -14.304  1.00  0.00     0.000 C 
BRANCH  12  13
ATOM     13  C   UNL     1     -10.808   5.802 -14.852  1.00  0.00     0.006 C 
BRANCH  13  14
ATOM     14  C   UNL     1      -9.895   6.661 -15.742  1.00  0.00     0.053 C 
BRANCH  14  15
ATOM     15  C   UNL     1      -9.964   8.118 -15.392  1.00  0.00     0.041 C 
ATOM     16  O   UNL     1      -9.765   8.495 -14.206  1.00  0.00    -0.550 OA
ATOM     17  O   UNL     1     -10.239   9.060 -16.375  1.00  0.00    -0.550 OA
ENDBRANCH  14  15
ENDBRANCH  13  14
ENDBRANCH  12  13
ENDBRANCH  11  12
ENDBRANCH  10  11
ENDBRANCH   9  10
ENDBRANCH   8   9
ENDBRANCH   7   8
ENDBRANCH   6   7
ENDBRANCH   5   6
ENDBRANCH   4   5
ENDBRANCH   3   4
ENDBRANCH   2   3
ENDBRANCH   1   2
BRANCH   1  18
ATOM     18  C   UNL     1      -9.423   8.079 -10.783  1.00  0.00     0.000 C 
BRANCH  18  19
ATOM     19  C   UNL     1      -8.526   8.231  -9.542  1.00  0.00     0.000 C 
BRANCH  19  20
ATOM     20  C   UNL     1      -7.087   8.646  -9.899  1.00  0.00     0.000 C 
BRANCH  20  21
ATOM     21  C   UNL     1      -5.985   7.771  -9.268  1.00  0.00     0.000 C 
BRANCH  21  22
ATOM     22  C   UNL     1      -4.953   7.203 -10.263  1.00  0.00     0.000 C 
BRANCH  22  23
ATOM     23  C   UNL     1      -5.370   7.270 -11.746  1.00  0.00     0.000 C 
BRANCH  23  24
ATOM     24  C   UNL     1      -6.236   6.092 -12.226  1.00  0.00    -0.000 C 
BRANCH  24  25
ATOM     25  C   UNL     1      -6.986   6.402 -13.531  1.00  0.00    -0.000 C 
BRANCH  25  26
ATOM     26  C   UNL     1      -6.297   5.806 -14.771  1.00  0.00    -0.000 C 
BRANCH  26  27
ATOM     27  C   UNL     1      -5.091   6.634 -15.264  1.00  0.00    -0.000 C 
BRANCH  27  28
ATOM     28  C   UNL     1      -3.750   5.928 -14.995  1.00  0.00    -0.000 C 
BRANCH  28  29
ATOM     29  C   UNL     1      -2.661   6.906 -14.506  1.00  0.00    -0.000 C 
BRANCH  29  30
ATOM     30  C   UNL     1      -2.824   8.335 -15.054  1.00  0.00    -0.000 C 
BRANCH  30  31
ATOM     31  C   UNL     1      -2.640   9.412 -13.976  1.00  0.00    -0.003 C 
ATOM     32  C   UNL     1      -1.813   8.884 -12.806  1.00  0.00     0.004 C 
ENDBRANCH  30  31
ENDBRANCH  29  30
ENDBRANCH  28  29
ENDBRANCH  27  28
ENDBRANCH  26  27
ENDBRANCH  25  26
ENDBRANCH  24  25
ENDBRANCH  23  24
ENDBRANCH  22  23
ENDBRANCH  21  22
ENDBRANCH  20  21
ENDBRANCH  19  20
ENDBRANCH  18  19
ENDBRANCH   1  18
TORSDOF 28
ENDMDL
MODEL 9
REMARK VINA RESULT:    -4.624      2.754      7.789
REMARK INTER + INTRA:         -16.412
REMARK INTER:                 -11.106
REMARK INTRA:                  -5.306
REMARK UNBOUND:                -4.220
REMARK SMILES CCCCCCCCCCCCCCCCCCCCCCCCCCCCCC(=O)[O-]
REMARK SMILES IDX 16 1 17 2 18 3 19 4 20 5 21 6 22 7 23 8 24 9 25 10 26 11
REMARK SMILES IDX 27 12 28 13 29 14 30 15 31 16 32 17 15 18 14 19 13 20 12 21
REMARK SMILES IDX 11 22 10 23 9 24 8 25 7 26 6 27 5 28 4 29 3 30 2 31 1 32
REMARK H PARENT
REMARK Flexibility Score: inf
ROOT
ATOM      1  C   UNL     1      -7.315   6.470 -12.594  1.00  0.00     0.000 C 
ENDROOT
BRANCH   1   2
ATOM      2  C   UNL     1      -7.377   5.000 -12.129  1.00  0.00     0.000 C 
BRANCH   2   3
ATOM      3  C   UNL     1      -8.310   4.733 -10.931  1.00  0.00     0.000 C 
BRANCH   3   4
ATOM      4  C   UNL     1      -8.161   3.339 -10.289  1.00  0.00     0.000 C 
BRANCH   4   5
ATOM      5  C   UNL     1      -8.765   3.201  -8.875  1.00  0.00     0.000 C 
BRANCH   5   6
ATOM      6  C   UNL     1      -9.524   4.442  -8.368  1.00  0.00     0.000 C 
BRANCH   6   7
ATOM      7  C   UNL     1     -10.965   4.122  -7.935  1.00  0.00     0.000 C 
BRANCH   7   8
ATOM      8  C   UNL     1     -12.008   4.541  -8.983  1.00  0.00     0.000 C 
BRANCH   8   9
ATOM      9  C   UNL     1     -12.702   3.341  -9.651  1.00  0.00     0.000 C 
BRANCH   9  10
ATOM     10  C   UNL     1     -12.378   3.229 -11.149  1.00  0.00     0.000 C 
BRANCH  10  11
ATOM     11  C   UNL     1     -11.993   4.580 -11.777  1.00  0.00     0.000 C 
BRANCH  11  12
ATOM     12  C   UNL     1     -11.321   4.421 -13.157  1.00  0.00     0.000 C 
BRANCH  12  13
ATOM     13  C   UNL     1     -10.553   3.096 -13.326  1.00  0.00     0.006 C 
BRANCH  13  14
ATOM     14  C   UNL     1      -9.413   3.149 -14.357  1.00  0.00     0.053 C 
BRANCH  14  15
ATOM     15  C   UNL     1      -9.067   1.793 -14.896  1.00  0.00     0.041 C 
ATOM     16  O   UNL     1      -9.851   0.821 -14.720  1.00  0.00    -0.550 OA
ATOM     17  O   UNL     1      -7.885   1.603 -15.600  1.00  0.00    -0.550 OA
ENDBRANCH  14  15
ENDBRANCH  13  14
ENDBRANCH  12  13
ENDBRANCH  11  12
ENDBRANCH  10  11
ENDBRANCH   9  10
ENDBRANCH   8   9
ENDBRANCH   7   8
ENDBRANCH   6   7
ENDBRANCH   5   6
ENDBRANCH   4   5
ENDBRANCH   3   4
ENDBRANCH   2   3
ENDBRANCH   1   2
BRANCH   1  18
ATOM     18  C   UNL     1      -8.621   7.009 -13.207  1.00  0.00     0.000 C 
BRANCH  18  19
ATOM     19  C   UNL     1      -9.165   8.237 -12.458  1.00  0.00     0.000 C 
BRANCH  19  20
ATOM     20  C   UNL     1      -9.735   7.882 -11.073  1.00  0.00     0.000 C 
BRANCH  20  21
ATOM     21  C   UNL     1      -9.130   8.679  -9.899  1.00  0.00     0.000 C 
BRANCH  21  22
ATOM     22  C   UNL     1      -8.314   7.842  -8.894  1.00  0.00     0.000 C 
BRANCH  22  23
ATOM     23  C   UNL     1      -6.812   7.712  -9.218  1.00  0.00     0.000 C 
BRANCH  23  24
ATOM     24  C   UNL     1      -6.149   6.424  -8.699  1.00  0.00    -0.000 C 
BRANCH  24  25
ATOM     25  C   UNL     1      -4.697   6.645  -8.250  1.00  0.00    -0.000 C 
BRANCH  25  26
ATOM     26  C   UNL     1      -3.689   5.808  -9.056  1.00  0.00    -0.000 C 
BRANCH  26  27
ATOM     27  C   UNL     1      -4.283   5.201 -10.345  1.00  0.00    -0.000 C 
BRANCH  27  28
ATOM     28  C   UNL     1      -3.793   5.926 -11.611  1.00  0.00    -0.000 C 
BRANCH  28  29
ATOM     29  C   UNL     1      -2.599   6.860 -11.325  1.00  0.00    -0.000 C 
BRANCH  29  30
ATOM     30  C   UNL     1      -1.900   7.375 -12.596  1.00  0.00    -0.000 C 
BRANCH  30  31
ATOM     31  C   UNL     1      -1.897   8.906 -12.697  1.00  0.00    -0.003 C 
ATOM     32  C   UNL     1      -2.221   9.364 -14.116  1.00  0.00     0.004 C 
ENDBRANCH  30  31
ENDBRANCH  29  30
ENDBRANCH  28  29
ENDBRANCH  27  28
ENDBRANCH  26  27
ENDBRANCH  25  26
ENDBRANCH  24  25
ENDBRANCH  23  24
ENDBRANCH  22  23
ENDBRANCH  21  22
ENDBRANCH  20  21
ENDBRANCH  19  20
ENDBRANCH  18  19
ENDBRANCH   1  18
TORSDOF 28
ENDMDL
