MODEL 1
REMARK VINA RESULT:    -2.663      0.000      0.000
REMARK INTER + INTRA:          -3.633
REMARK INTER:                  -3.441
REMARK INTRA:                  -0.191
REMARK UNBOUND:                -0.191
REMARK SMILES CCCCCCC=O
REMARK SMILES IDX 4 1 3 2 2 3 1 4 5 5 6 6 7 7 8 8
REMARK H PARENT
REMARK Flexibility Score: inf
ROOT
ATOM      1  C   UNL     1     166.343 166.112 169.549  1.00  0.00     0.000 C 
ENDROOT
BRANCH   1   2
ATOM      2  C   UNL     1     164.977 166.811 169.612  1.00  0.00    -0.000 C 
BRANCH   2   3
ATOM      3  C   UNL     1     164.657 167.597 168.331  1.00  0.00    -0.003 C 
ATOM      4  C   UNL     1     165.378 168.942 168.267  1.00  0.00     0.004 C 
ENDBRANCH   2   3
ENDBRANCH   1   2
BRANCH   1   5
ATOM      5  C   UNL     1     166.542 165.415 168.198  1.00  0.00     0.008 C 
BRANCH   5   6
ATOM      6  C   UNL     1     168.031 165.203 167.902  1.00  0.00     0.072 C 
BRANCH   6   7
ATOM      7  C   UNL     1     168.534 163.950 168.554  1.00  0.00     0.224 C 
ATOM      8  O   UNL     1     168.241 162.855 168.101  1.00  0.00    -0.303 OA
ENDBRANCH   6   7
ENDBRANCH   5   6
ENDBRANCH   1   5
TORSDOF 5
ENDMDL
MODEL 2
REMARK VINA RESULT:    -2.640      5.502      6.661
REMARK INTER + INTRA:          -3.604
REMARK INTER:                  -3.471
REMARK INTRA:                  -0.132
REMARK UNBOUND:                -0.191
REMARK SMILES CCCCCCC=O
REMARK SMILES IDX 4 1 3 2 2 3 1 4 5 5 6 6 7 7 8 8
REMARK H PARENT
REMARK Flexibility Score: inf
ROOT
ATOM      1  C   UNL     1     170.114 168.299 168.713  1.00  0.00     0.000 C 
ENDROOT
BRANCH   1   2
ATOM      2  C   UNL     1     170.771 168.775 170.018  1.00  0.00    -0.000 C 
BRANCH   2   3
ATOM      3  C   UNL     1     172.145 169.421 169.785  1.00  0.00    -0.003 C 
ATOM      4  C   UNL     1     172.784 169.937 171.073  1.00  0.00     0.004 C 
ENDBRANCH   2   3
ENDBRANCH   1   2
BRANCH   1   5
ATOM      5  C   UNL     1     169.163 169.366 168.157  1.00  0.00     0.008 C 
BRANCH   5   6
ATOM      6  C   UNL     1     168.116 169.768 169.202  1.00  0.00     0.072 C 
BRANCH   6   7
ATOM      7  C   UNL     1     167.102 170.703 168.613  1.00  0.00     0.224 C 
ATOM      8  O   UNL     1     167.453 171.750 168.093  1.00  0.00    -0.303 OA
ENDBRANCH   6   7
ENDBRANCH   5   6
ENDBRANCH   1   5
TORSDOF 5
ENDMDL
MODEL 3
REMARK VINA RESULT:    -2.629      3.719      5.054
REMARK INTER + INTRA:          -3.589
REMARK INTER:                  -3.435
REMARK INTRA:                  -0.154
REMARK UNBOUND:                -0.191
REMARK SMILES CCCCCCC=O
REMARK SMILES IDX 4 1 3 2 2 3 1 4 5 5 6 6 7 7 8 8
REMARK H PARENT
REMARK Flexibility Score: inf
ROOT
ATOM      1  C   UNL     1     168.603 165.729 167.964  1.00  0.00     0.000 C 
ENDROOT
BRANCH   1   2
ATOM      2  C   UNL     1     167.907 164.699 168.866  1.00  0.00    -0.000 C 
BRANCH   2   3
ATOM      3  C   UNL     1     168.796 164.238 170.031  1.00  0.00    -0.003 C 
ATOM      4  C   UNL     1     169.500 162.912 169.750  1.00  0.00     0.004 C 
ENDBRANCH   2   3
ENDBRANCH   1   2
BRANCH   1   5
ATOM      5  C   UNL     1     169.492 166.669 168.788  1.00  0.00     0.008 C 
BRANCH   5   6
ATOM      6  C   UNL     1     170.259 167.636 167.880  1.00  0.00     0.072 C 
BRANCH   6   7
ATOM      7  C   UNL     1     171.379 168.298 168.626  1.00  0.00     0.224 C 
ATOM      8  O   UNL     1     172.518 168.270 168.187  1.00  0.00    -0.303 OA
ENDBRANCH   6   7
ENDBRANCH   5   6
ENDBRANCH   1   5
TORSDOF 5
ENDMDL
MODEL 4
REMARK VINA RESULT:    -2.606      2.576      4.777
REMARK INTER + INTRA:          -3.559
REMARK INTER:                  -3.411
REMARK INTRA:                  -0.148
REMARK UNBOUND:                -0.191
REMARK SMILES CCCCCCC=O
REMARK SMILES IDX 4 1 3 2 2 3 1 4 5 5 6 6 7 7 8 8
REMARK H PARENT
REMARK Flexibility Score: inf
ROOT
ATOM      1  C   UNL     1     167.934 166.289 169.302  1.00  0.00     0.000 C 
ENDROOT
BRANCH   1   2
ATOM      2  C   UNL     1     169.109 165.300 169.271  1.00  0.00    -0.000 C 
BRANCH   2   3
ATOM      3  C   UNL     1     168.661 163.861 168.975  1.00  0.00    -0.003 C 
ATOM      4  C   UNL     1     169.487 162.817 169.724  1.00  0.00     0.004 C 
ENDBRANCH   2   3
ENDBRANCH   1   2
BRANCH   1   5
ATOM      5  C   UNL     1     166.674 165.665 168.690  1.00  0.00     0.008 C 
BRANCH   5   6
ATOM      6  C   UNL     1     165.889 166.698 167.875  1.00  0.00     0.072 C 
BRANCH   6   7
ATOM      7  C   UNL     1     164.647 167.123 168.601  1.00  0.00     0.224 C 
ATOM      8  O   UNL     1     163.602 167.293 167.994  1.00  0.00    -0.303 OA
ENDBRANCH   6   7
ENDBRANCH   5   6
ENDBRANCH   1   5
TORSDOF 5
ENDMDL
MODEL 5
REMARK VINA RESULT:    -2.596      3.991      4.893
REMARK INTER + INTRA:          -3.547
REMARK INTER:                  -3.305
REMARK INTRA:                  -0.242
REMARK UNBOUND:                -0.191
REMARK SMILES CCCCCCC=O
REMARK SMILES IDX 4 1 3 2 2 3 1 4 5 5 6 6 7 7 8 8
REMARK H PARENT
REMARK Flexibility Score: inf
ROOT
ATOM      1  C   UNL     1     166.931 168.765 169.922  1.00  0.00     0.000 C 
ENDROOT
BRANCH   1   2
ATOM      2  C   UNL     1     166.404 167.326 170.022  1.00  0.00    -0.000 C 
BRANCH   2   3
ATOM      3  C   UNL     1     165.032 167.153 169.353  1.00  0.00    -0.003 C 
ATOM      4  C   UNL     1     165.018 167.624 167.900  1.00  0.00     0.004 C 
ENDBRANCH   2   3
ENDBRANCH   1   2
BRANCH   1   5
ATOM      5  C   UNL     1     168.286 168.806 169.204  1.00  0.00     0.008 C 
BRANCH   5   6
ATOM      6  C   UNL     1     168.438 170.094 168.389  1.00  0.00     0.072 C 
BRANCH   6   7
ATOM      7  C   UNL     1     167.273 171.012 168.614  1.00  0.00     0.224 C 
ATOM      8  O   UNL     1     167.248 172.119 168.101  1.00  0.00    -0.303 OA
ENDBRANCH   6   7
ENDBRANCH   5   6
ENDBRANCH   1   5
TORSDOF 5
ENDMDL
MODEL 6
REMARK VINA RESULT:    -2.587      2.331      3.225
REMARK INTER + INTRA:          -3.534
REMARK INTER:                  -3.278
REMARK INTRA:                  -0.256
REMARK UNBOUND:                -0.191
REMARK SMILES CCCCCCC=O
REMARK SMILES IDX 4 1 3 2 2 3 1 4 5 5 6 6 7 7 8 8
REMARK H PARENT
REMARK Flexibility Score: inf
ROOT
ATOM      1  C   UNL     1     168.090 166.625 168.272  1.00  0.00     0.000 C 
ENDROOT
BRANCH   1   2
ATOM      2  C   UNL     1     169.573 166.670 167.875  1.00  0.00    -0.000 C 
BRANCH   2   3
ATOM      3  C   UNL     1     170.258 167.977 168.302  1.00  0.00    -0.003 C 
ATOM      4  C   UNL     1     169.269 169.032 168.792  1.00  0.00     0.004 C 
ENDBRANCH   2   3
ENDBRANCH   1   2
BRANCH   1   5
ATOM      5  C   UNL     1     167.763 165.329 169.026  1.00  0.00     0.008 C 
BRANCH   5   6
ATOM      6  C   UNL     1     169.042 164.575 169.404  1.00  0.00     0.072 C 
BRANCH   6   7
ATOM      7  C   UNL     1     168.883 163.102 169.174  1.00  0.00     0.224 C 
ATOM      8  O   UNL     1     168.401 162.685 168.133  1.00  0.00    -0.303 OA
ENDBRANCH   6   7
ENDBRANCH   5   6
ENDBRANCH   1   5
TORSDOF 5
ENDMDL
MODEL 7
REMARK VINA RESULT:    -2.586      1.230      1.770
REMARK INTER + INTRA:          -3.534
REMARK INTER:                  -3.213
REMARK INTRA:                  -0.321
REMARK UNBOUND:                -0.191
REMARK SMILES CCCCCCC=O
REMARK SMILES IDX 4 1 3 2 2 3 1 4 5 5 6 6 7 7 8 8
REMARK H PARENT
REMARK Flexibility Score: inf
ROOT
ATOM      1  C   UNL     1     167.585 166.790 168.276  1.00  0.00     0.000 C 
ENDROOT
BRANCH   1   2
ATOM      2  C   UNL     1     166.219 166.102 168.132  1.00  0.00    -0.000 C 
BRANCH   2   3
ATOM      3  C   UNL     1     165.176 166.649 169.118  1.00  0.00    -0.003 C 
ATOM      4  C   UNL     1     165.807 167.311 170.342  1.00  0.00     0.004 C 
ENDBRANCH   2   3
ENDBRANCH   1   2
BRANCH   1   5
ATOM      5  C   UNL     1     168.718 165.758 168.324  1.00  0.00     0.008 C 
BRANCH   5   6
ATOM      6  C   UNL     1     168.480 164.732 169.438  1.00  0.00     0.072 C 
BRANCH   6   7
ATOM      7  C   UNL     1     168.708 163.336 168.939  1.00  0.00     0.224 C 
ATOM      8  O   UNL     1     168.232 162.973 167.875  1.00  0.00    -0.303 OA
ENDBRANCH   6   7
ENDBRANCH   5   6
ENDBRANCH   1   5
TORSDOF 5
ENDMDL
MODEL 8
REMARK VINA RESULT:    -2.564      3.276      4.934
REMARK INTER + INTRA:          -3.505
REMARK INTER:                  -3.345
REMARK INTRA:                  -0.160
REMARK UNBOUND:                -0.191
REMARK SMILES CCCCCCC=O
REMARK SMILES IDX 4 1 3 2 2 3 1 4 5 5 6 6 7 7 8 8
REMARK H PARENT
REMARK Flexibility Score: inf
ROOT
ATOM      1  C   UNL     1     165.132 167.373 168.286  1.00  0.00     0.000 C 
ENDROOT
BRANCH   1   2
ATOM      2  C   UNL     1     166.354 166.626 168.840  1.00  0.00    -0.000 C 
BRANCH   2   3
ATOM      3  C   UNL     1     166.783 165.452 167.947  1.00  0.00    -0.003 C 
ATOM      4  C   UNL     1     167.944 164.653 168.536  1.00  0.00     0.004 C 
ENDBRANCH   2   3
ENDBRANCH   1   2
BRANCH   1   5
ATOM      5  C   UNL     1     165.357 168.890 168.314  1.00  0.00     0.008 C 
BRANCH   5   6
ATOM      6  C   UNL     1     166.852 169.225 168.309  1.00  0.00     0.072 C 
BRANCH   6   7
ATOM      7  C   UNL     1     167.096 170.601 168.852  1.00  0.00     0.224 C 
ATOM      8  O   UNL     1     167.418 171.513 168.107  1.00  0.00    -0.303 OA
ENDBRANCH   6   7
ENDBRANCH   5   6
ENDBRANCH   1   5
TORSDOF 5
ENDMDL
MODEL 9
REMARK VINA RESULT:    -2.555      3.043      4.359
REMARK INTER + INTRA:          -3.494
REMARK INTER:                  -3.341
REMARK INTRA:                  -0.153
REMARK UNBOUND:                -0.191
REMARK SMILES CCCCCCC=O
REMARK SMILES IDX 4 1 3 2 2 3 1 4 5 5 6 6 7 7 8 8
REMARK H PARENT
REMARK Flexibility Score: inf
ROOT
ATOM      1  C   UNL     1     167.937 165.884 169.396  1.00  0.00     0.000 C 
ENDROOT
BRANCH   1   2
ATOM      2  C   UNL     1     168.656 167.163 168.943  1.00  0.00    -0.000 C 
BRANCH   2   3
ATOM      3  C   UNL     1     169.903 166.870 168.096  1.00  0.00    -0.003 C 
ATOM      4  C   UNL     1     170.977 167.948 168.229  1.00  0.00     0.004 C 
ENDBRANCH   2   3
ENDBRANCH   1   2
BRANCH   1   5
ATOM      5  C   UNL     1     166.591 165.727 168.677  1.00  0.00     0.008 C 
BRANCH   5   6
ATOM      6  C   UNL     1     166.062 167.083 168.197  1.00  0.00     0.072 C 
BRANCH   6   7
ATOM      7  C   UNL     1     164.658 167.310 168.673  1.00  0.00     0.224 C 
ATOM      8  O   UNL     1     163.736 167.369 167.876  1.00  0.00    -0.303 OA
ENDBRANCH   6   7
ENDBRANCH   5   6
ENDBRANCH   1   5
TORSDOF 5
ENDMDL
