MODEL 1
REMARK VINA RESULT:    -4.829      0.000      0.000
REMARK INTER + INTRA:          -6.234
REMARK INTER:                  -5.959
REMARK INTRA:                  -0.275
REMARK UNBOUND:                -0.275
REMARK SMILES CCOC(=O)c1ccc(O)c(O)c1
REMARK SMILES IDX 4 1 5 2 3 3 2 4 1 5 6 6 13 7 7 8 11 9 8 10 9 11 12 12 10 14
REMARK H PARENT 12 13 10 15
REMARK Flexibility Score: inf
ROOT
ATOM      1  C   UNL     1      10.924 -12.503  12.891  1.00  0.00     0.338 C 
ATOM      2  O   UNL     1      11.950 -11.769  12.850  1.00  0.00    -0.246 OA
ENDROOT
BRANCH   1   3
ATOM      3  O   UNL     1      11.048 -13.887  12.730  1.00  0.00    -0.462 OA
BRANCH   3   4
ATOM      4  C   UNL     1      10.762 -14.814  13.773  1.00  0.00     0.230 C 
ATOM      5  C   UNL     1      11.687 -14.557  14.950  1.00  0.00     0.049 C 
ENDBRANCH   3   4
ENDBRANCH   1   3
BRANCH   1   6
ATOM      6  C   UNL     1       9.589 -11.904  13.111  1.00  0.00     0.064 A 
ATOM      7  C   UNL     1       8.480 -12.352  12.372  1.00  0.00     0.065 A 
ATOM      8  C   UNL     1       9.409 -10.881  14.058  1.00  0.00     0.020 A 
ATOM      9  C   UNL     1       7.211 -11.788  12.575  1.00  0.00     0.158 A 
ATOM     10  C   UNL     1       8.146 -10.319  14.260  1.00  0.00     0.051 A 
ATOM     11  C   UNL     1       7.045 -10.766  13.524  1.00  0.00     0.157 A 
BRANCH   9  12
ATOM     12  O   UNL     1       6.118 -12.239  11.836  1.00  0.00    -0.504 OA
ATOM     13  H   UNL     1       6.199 -13.013  11.187  1.00  0.00     0.293 HD
ENDBRANCH   9  12
BRANCH  11  14
ATOM     14  O   UNL     1       5.797 -10.186  13.749  1.00  0.00    -0.504 OA
ATOM     15  H   UNL     1       4.982 -10.738  13.988  1.00  0.00     0.293 HD
ENDBRANCH  11  14
ENDBRANCH   1   6
TORSDOF 5
ENDMDL
MODEL 2
REMARK VINA RESULT:    -4.729      7.058      7.698
REMARK INTER + INTRA:          -6.110
REMARK INTER:                  -5.876
REMARK INTRA:                  -0.234
REMARK UNBOUND:                -0.275
REMARK SMILES CCOC(=O)c1ccc(O)c(O)c1
REMARK SMILES IDX 4 1 5 2 3 3 2 4 1 5 6 6 13 7 7 8 11 9 8 10 9 11 12 12 10 14
REMARK H PARENT 12 13 10 15
REMARK Flexibility Score: inf
ROOT
ATOM      1  C   UNL     1       9.811 -16.449   6.567  1.00  0.00     0.338 C 
ATOM      2  O   UNL     1       9.999 -17.496   7.247  1.00  0.00    -0.246 OA
ENDROOT
BRANCH   1   3
ATOM      3  O   UNL     1      10.814 -15.984   5.709  1.00  0.00    -0.462 OA
BRANCH   3   4
ATOM      4  C   UNL     1      12.201 -16.105   6.008  1.00  0.00     0.230 C 
ATOM      5  C   UNL     1      12.620 -14.981   6.941  1.00  0.00     0.049 C 
ENDBRANCH   3   4
ENDBRANCH   1   3
BRANCH   1   6
ATOM      6  C   UNL     1       8.533 -15.711   6.674  1.00  0.00     0.064 A 
ATOM      7  C   UNL     1       8.120 -14.854   5.638  1.00  0.00     0.065 A 
ATOM      8  C   UNL     1       7.715 -15.855   7.807  1.00  0.00     0.020 A 
ATOM      9  C   UNL     1       6.909 -14.152   5.733  1.00  0.00     0.158 A 
ATOM     10  C   UNL     1       6.509 -15.155   7.902  1.00  0.00     0.051 A 
ATOM     11  C   UNL     1       6.101 -14.303   6.872  1.00  0.00     0.157 A 
BRANCH   9  12
ATOM     12  O   UNL     1       6.508 -13.305   4.701  1.00  0.00    -0.504 OA
ATOM     13  H   UNL     1       5.771 -13.565   4.056  1.00  0.00     0.293 HD
ENDBRANCH   9  12
BRANCH  11  14
ATOM     14  O   UNL     1       4.892 -13.619   6.996  1.00  0.00    -0.504 OA
ATOM     15  H   UNL     1       3.998 -14.086   6.909  1.00  0.00     0.293 HD
ENDBRANCH  11  14
ENDBRANCH   1   6
TORSDOF 5
ENDMDL
MODEL 3
REMARK VINA RESULT:    -4.713      6.956      7.781
REMARK INTER + INTRA:          -6.091
REMARK INTER:                  -5.808
REMARK INTRA:                  -0.283
REMARK UNBOUND:                -0.275
REMARK SMILES CCOC(=O)c1ccc(O)c(O)c1
REMARK SMILES IDX 4 1 5 2 3 3 2 4 1 5 6 6 13 7 7 8 11 9 8 10 9 11 12 12 10 14
REMARK H PARENT 12 13 10 15
REMARK Flexibility Score: inf
ROOT
ATOM      1  C   UNL     1       9.573 -17.019   7.549  1.00  0.00     0.338 C 
ATOM      2  O   UNL     1       9.348 -17.424   8.723  1.00  0.00    -0.246 OA
ENDROOT
BRANCH   1   3
ATOM      3  O   UNL     1      10.676 -17.509   6.841  1.00  0.00    -0.462 OA
BRANCH   3   4
ATOM      4  C   UNL     1      12.017 -17.150   7.157  1.00  0.00     0.230 C 
ATOM      5  C   UNL     1      12.492 -16.066   6.204  1.00  0.00     0.049 C 
ENDBRANCH   3   4
ENDBRANCH   1   3
BRANCH   1   6
ATOM      6  C   UNL     1       8.674 -16.027   6.919  1.00  0.00     0.064 A 
ATOM      7  C   UNL     1       7.578 -15.510   7.632  1.00  0.00     0.065 A 
ATOM      8  C   UNL     1       8.900 -15.587   5.604  1.00  0.00     0.020 A 
ATOM      9  C   UNL     1       6.721 -14.568   7.041  1.00  0.00     0.158 A 
ATOM     10  C   UNL     1       8.047 -14.651   5.014  1.00  0.00     0.051 A 
ATOM     11  C   UNL     1       6.958 -14.138   5.725  1.00  0.00     0.157 A 
BRANCH   9  12
ATOM     12  O   UNL     1       5.638 -14.062   7.757  1.00  0.00    -0.504 OA
ATOM     13  H   UNL     1       5.402 -13.076   7.738  1.00  0.00     0.293 HD
ENDBRANCH   9  12
BRANCH  11  14
ATOM     14  O   UNL     1       6.125 -13.205   5.110  1.00  0.00    -0.504 OA
ATOM     15  H   UNL     1       5.781 -12.387   5.599  1.00  0.00     0.293 HD
ENDBRANCH  11  14
ENDBRANCH   1   6
TORSDOF 5
ENDMDL
MODEL 4
REMARK VINA RESULT:    -4.660      7.539      9.126
REMARK INTER + INTRA:          -6.024
REMARK INTER:                  -5.872
REMARK INTRA:                  -0.153
REMARK UNBOUND:                -0.275
REMARK SMILES CCOC(=O)c1ccc(O)c(O)c1
REMARK SMILES IDX 4 1 5 2 3 3 2 4 1 5 6 6 13 7 7 8 11 9 8 10 9 11 12 12 10 14
REMARK H PARENT 12 13 10 15
REMARK Flexibility Score: inf
ROOT
ATOM      1  C   UNL     1       7.291 -14.623   5.783  1.00  0.00     0.338 C 
ATOM      2  O   UNL     1       7.327 -13.674   4.952  1.00  0.00    -0.246 OA
ENDROOT
BRANCH   1   3
ATOM      3  O   UNL     1       6.080 -14.977   6.388  1.00  0.00    -0.462 OA
BRANCH   3   4
ATOM      4  C   UNL     1       4.965 -14.094   6.456  1.00  0.00     0.230 C 
ATOM      5  C   UNL     1       3.962 -14.617   7.470  1.00  0.00     0.049 C 
ENDBRANCH   3   4
ENDBRANCH   1   3
BRANCH   1   6
ATOM      6  C   UNL     1       8.527 -15.365   6.119  1.00  0.00     0.064 A 
ATOM      7  C   UNL     1       8.527 -16.307   7.162  1.00  0.00     0.065 A 
ATOM      8  C   UNL     1       9.716 -15.139   5.403  1.00  0.00     0.020 A 
ATOM      9  C   UNL     1       9.696 -17.014   7.486  1.00  0.00     0.158 A 
ATOM     10  C   UNL     1      10.879 -15.842   5.726  1.00  0.00     0.051 A 
ATOM     11  C   UNL     1      10.877 -16.778   6.764  1.00  0.00     0.157 A 
BRANCH   9  12
ATOM     12  O   UNL     1       9.685 -17.946   8.522  1.00  0.00    -0.504 OA
ATOM     13  H   UNL     1      10.013 -18.896   8.386  1.00  0.00     0.293 HD
ENDBRANCH   9  12
BRANCH  11  14
ATOM     14  O   UNL     1      12.054 -17.464   7.062  1.00  0.00    -0.504 OA
ATOM     15  H   UNL     1      12.132 -18.469   6.960  1.00  0.00     0.293 HD
ENDBRANCH  11  14
ENDBRANCH   1   6
TORSDOF 5
ENDMDL
MODEL 5
REMARK VINA RESULT:    -4.638      7.410      9.418
REMARK INTER + INTRA:          -5.998
REMARK INTER:                  -5.838
REMARK INTRA:                  -0.160
REMARK UNBOUND:                -0.275
REMARK SMILES CCOC(=O)c1ccc(O)c(O)c1
REMARK SMILES IDX 4 1 5 2 3 3 2 4 1 5 6 6 13 7 7 8 11 9 8 10 9 11 12 12 10 14
REMARK H PARENT 12 13 10 15
REMARK Flexibility Score: inf
ROOT
ATOM      1  C   UNL     1       3.276 -14.767   7.910  1.00  0.00     0.338 C 
ATOM      2  O   UNL     1       2.888 -13.793   8.613  1.00  0.00    -0.246 OA
ENDROOT
BRANCH   1   3
ATOM      3  O   UNL     1       2.399 -15.819   7.628  1.00  0.00    -0.462 OA
BRANCH   3   4
ATOM      4  C   UNL     1       2.496 -16.609   6.447  1.00  0.00     0.230 C 
ATOM      5  C   UNL     1       1.102 -16.959   5.953  1.00  0.00     0.049 C 
ENDBRANCH   3   4
ENDBRANCH   1   3
BRANCH   1   6
ATOM      6  C   UNL     1       4.658 -14.798   7.380  1.00  0.00     0.064 A 
ATOM      7  C   UNL     1       5.008 -14.015   6.265  1.00  0.00     0.065 A 
ATOM      8  C   UNL     1       5.638 -15.606   7.980  1.00  0.00     0.020 A 
ATOM      9  C   UNL     1       6.316 -14.040   5.758  1.00  0.00     0.158 A 
ATOM     10  C   UNL     1       6.941 -15.631   7.475  1.00  0.00     0.051 A 
ATOM     11  C   UNL     1       7.286 -14.853   6.367  1.00  0.00     0.157 A 
BRANCH   9  12
ATOM     12  O   UNL     1       6.653 -13.260   4.652  1.00  0.00    -0.504 OA
ATOM     13  H   UNL     1       6.481 -12.261   4.634  1.00  0.00     0.293 HD
ENDBRANCH   9  12
BRANCH  11  14
ATOM     14  O   UNL     1       8.594 -14.899   5.886  1.00  0.00    -0.504 OA
ATOM     15  H   UNL     1       8.833 -15.367   5.020  1.00  0.00     0.293 HD
ENDBRANCH  11  14
ENDBRANCH   1   6
TORSDOF 5
ENDMDL
MODEL 6
REMARK VINA RESULT:    -4.634     11.393     13.635
REMARK INTER + INTRA:          -5.993
REMARK INTER:                  -5.686
REMARK INTRA:                  -0.306
REMARK UNBOUND:                -0.275
REMARK SMILES CCOC(=O)c1ccc(O)c(O)c1
REMARK SMILES IDX 4 1 5 2 3 3 2 4 1 5 6 6 13 7 7 8 11 9 8 10 9 11 12 12 10 14
REMARK H PARENT 12 13 10 15
REMARK Flexibility Score: inf
ROOT
ATOM      1  C   UNL     1      14.457 -23.356  14.439  1.00  0.00     0.338 C 
ATOM      2  O   UNL     1      15.000 -23.002  15.522  1.00  0.00    -0.246 OA
ENDROOT
BRANCH   1   3
ATOM      3  O   UNL     1      14.708 -22.640  13.264  1.00  0.00    -0.462 OA
BRANCH   3   4
ATOM      4  C   UNL     1      13.770 -21.725  12.704  1.00  0.00     0.230 C 
ATOM      5  C   UNL     1      13.217 -22.294  11.408  1.00  0.00     0.049 C 
ENDBRANCH   3   4
ENDBRANCH   1   3
BRANCH   1   6
ATOM      6  C   UNL     1      13.556 -24.530  14.408  1.00  0.00     0.064 A 
ATOM      7  C   UNL     1      12.247 -24.432  14.912  1.00  0.00     0.065 A 
ATOM      8  C   UNL     1      13.992 -25.756  13.878  1.00  0.00     0.020 A 
ATOM      9  C   UNL     1      11.386 -25.540  14.886  1.00  0.00     0.158 A 
ATOM     10  C   UNL     1      13.137 -26.860  13.852  1.00  0.00     0.051 A 
ATOM     11  C   UNL     1      11.836 -26.760  14.353  1.00  0.00     0.157 A 
BRANCH   9  12
ATOM     12  O   UNL     1      10.090 -25.432  15.387  1.00  0.00    -0.504 OA
ATOM     13  H   UNL     1       9.312 -25.161  14.796  1.00  0.00     0.293 HD
ENDBRANCH   9  12
BRANCH  11  14
ATOM     14  O   UNL     1      11.005 -27.880  14.314  1.00  0.00    -0.504 OA
ATOM     15  H   UNL     1      11.238 -28.704  13.774  1.00  0.00     0.293 HD
ENDBRANCH  11  14
ENDBRANCH   1   6
TORSDOF 5
ENDMDL
MODEL 7
REMARK VINA RESULT:    -4.632      7.347      8.756
REMARK INTER + INTRA:          -5.991
REMARK INTER:                  -5.752
REMARK INTRA:                  -0.238
REMARK UNBOUND:                -0.275
REMARK SMILES CCOC(=O)c1ccc(O)c(O)c1
REMARK SMILES IDX 4 1 5 2 3 3 2 4 1 5 6 6 13 7 7 8 11 9 8 10 9 11 12 12 10 14
REMARK H PARENT 12 13 10 15
REMARK Flexibility Score: inf
ROOT
ATOM      1  C   UNL     1       5.426 -14.129   6.556  1.00  0.00     0.338 C 
ATOM      2  O   UNL     1       5.402 -13.525   5.449  1.00  0.00    -0.246 OA
ENDROOT
BRANCH   1   3
ATOM      3  O   UNL     1       6.624 -14.231   7.271  1.00  0.00    -0.462 OA
BRANCH   3   4
ATOM      4  C   UNL     1       7.405 -15.422   7.302  1.00  0.00     0.230 C 
ATOM      5  C   UNL     1       8.370 -15.428   6.128  1.00  0.00     0.049 C 
ENDBRANCH   3   4
ENDBRANCH   1   3
BRANCH   1   6
ATOM      6  C   UNL     1       4.189 -14.730   7.102  1.00  0.00     0.064 A 
ATOM      7  C   UNL     1       3.622 -15.863   6.493  1.00  0.00     0.065 A 
ATOM      8  C   UNL     1       3.563 -14.180   8.234  1.00  0.00     0.020 A 
ATOM      9  C   UNL     1       2.449 -16.438   7.005  1.00  0.00     0.158 A 
ATOM     10  C   UNL     1       2.395 -14.752   8.744  1.00  0.00     0.051 A 
ATOM     11  C   UNL     1       1.834 -15.879   8.137  1.00  0.00     0.157 A 
BRANCH   9  12
ATOM     12  O   UNL     1       1.895 -17.562   6.393  1.00  0.00    -0.504 OA
ATOM     13  H   UNL     1       2.306 -18.483   6.501  1.00  0.00     0.293 HD
ENDBRANCH   9  12
BRANCH  11  14
ATOM     14  O   UNL     1       0.667 -16.427   8.669  1.00  0.00    -0.504 OA
ATOM     15  H   UNL     1       0.175 -17.188   8.217  1.00  0.00     0.293 HD
ENDBRANCH  11  14
ENDBRANCH   1   6
TORSDOF 5
ENDMDL
MODEL 8
REMARK VINA RESULT:    -4.625      6.815      7.444
REMARK INTER + INTRA:          -5.981
REMARK INTER:                  -5.797
REMARK INTRA:                  -0.184
REMARK UNBOUND:                -0.275
REMARK SMILES CCOC(=O)c1ccc(O)c(O)c1
REMARK SMILES IDX 4 1 5 2 3 3 2 4 1 5 6 6 13 7 7 8 11 9 8 10 9 11 12 12 10 14
REMARK H PARENT 12 13 10 15
REMARK Flexibility Score: inf
ROOT
ATOM      1  C   UNL     1       8.976 -15.727   6.134  1.00  0.00     0.338 C 
ATOM      2  O   UNL     1       9.623 -15.186   5.195  1.00  0.00    -0.246 OA
ENDROOT
BRANCH   1   3
ATOM      3  O   UNL     1       9.518 -16.822   6.816  1.00  0.00    -0.462 OA
BRANCH   3   4
ATOM      4  C   UNL     1      10.669 -16.719   7.648  1.00  0.00     0.230 C 
ATOM      5  C   UNL     1      11.880 -17.266   6.911  1.00  0.00     0.049 C 
ENDBRANCH   3   4
ENDBRANCH   1   3
BRANCH   1   6
ATOM      6  C   UNL     1       7.644 -15.207   6.515  1.00  0.00     0.064 A 
ATOM      7  C   UNL     1       7.121 -15.467   7.794  1.00  0.00     0.065 A 
ATOM      8  C   UNL     1       6.883 -14.449   5.609  1.00  0.00     0.020 A 
ATOM      9  C   UNL     1       5.859 -14.977   8.163  1.00  0.00     0.158 A 
ATOM     10  C   UNL     1       5.626 -13.962   5.975  1.00  0.00     0.051 A 
ATOM     11  C   UNL     1       5.108 -14.221   7.247  1.00  0.00     0.157 A 
BRANCH   9  12
ATOM     12  O   UNL     1       5.350 -15.239   9.434  1.00  0.00    -0.504 OA
ATOM     13  H   UNL     1       5.261 -14.509  10.132  1.00  0.00     0.293 HD
ENDBRANCH   9  12
BRANCH  11  14
ATOM     14  O   UNL     1       3.851 -13.721   7.584  1.00  0.00    -0.504 OA
ATOM     15  H   UNL     1       3.086 -13.698   6.921  1.00  0.00     0.293 HD
ENDBRANCH  11  14
ENDBRANCH   1   6
TORSDOF 5
ENDMDL
MODEL 9
REMARK VINA RESULT:    -4.615      2.495      5.112
REMARK INTER + INTRA:          -5.969
REMARK INTER:                  -5.681
REMARK INTRA:                  -0.289
REMARK UNBOUND:                -0.275
REMARK SMILES CCOC(=O)c1ccc(O)c(O)c1
REMARK SMILES IDX 4 1 5 2 3 3 2 4 1 5 6 6 13 7 7 8 11 9 8 10 9 11 12 12 10 14
REMARK H PARENT 12 13 10 15
REMARK Flexibility Score: inf
ROOT
ATOM      1  C   UNL     1       8.810 -12.871  13.074  1.00  0.00     0.338 C 
ATOM      2  O   UNL     1       8.807 -13.296  11.886  1.00  0.00    -0.246 OA
ENDROOT
BRANCH   1   3
ATOM      3  O   UNL     1       8.355 -11.578  13.355  1.00  0.00    -0.462 OA
BRANCH   3   4
ATOM      4  C   UNL     1       9.096 -10.656  14.148  1.00  0.00     0.230 C 
ATOM      5  C   UNL     1      10.232 -10.074  13.324  1.00  0.00     0.049 C 
ENDBRANCH   3   4
ENDBRANCH   1   3
BRANCH   1   6
ATOM      6  C   UNL     1       9.294 -13.737  14.172  1.00  0.00     0.064 A 
ATOM      7  C   UNL     1      10.673 -13.889  14.401  1.00  0.00     0.065 A 
ATOM      8  C   UNL     1       8.386 -14.418  15.001  1.00  0.00     0.020 A 
ATOM      9  C   UNL     1      11.138 -14.709  15.440  1.00  0.00     0.158 A 
ATOM     10  C   UNL     1       8.849 -15.235  16.036  1.00  0.00     0.051 A 
ATOM     11  C   UNL     1      10.220 -15.385  16.261  1.00  0.00     0.157 A 
BRANCH   9  12
ATOM     12  O   UNL     1      12.507 -14.853  15.659  1.00  0.00    -0.504 OA
ATOM     13  H   UNL     1      12.943 -14.549  16.522  1.00  0.00     0.293 HD
ENDBRANCH   9  12
BRANCH  11  14
ATOM     14  O   UNL     1      10.652 -16.207  17.302  1.00  0.00    -0.504 OA
ATOM     15  H   UNL     1      11.225 -17.025  17.139  1.00  0.00     0.293 HD
ENDBRANCH  11  14
ENDBRANCH   1   6
TORSDOF 5
ENDMDL
