MODEL 1
REMARK VINA RESULT:    -6.728      0.000      0.000
REMARK INTER + INTRA:          -7.884
REMARK INTER:                  -8.105
REMARK INTRA:                   0.221
REMARK UNBOUND:                 0.221
REMARK SMILES Oc1cc(O)c2c(c1)O[C@@H](c1ccc(O)c(O)c1)[C@@H](O)C2
REMARK SMILES IDX 21 1 19 2 10 3 9 4 7 5 8 6 2 7 3 8 4 9 6 10 20 11 11 13
REMARK SMILES IDX 18 14 12 15 16 16 13 17 14 18 17 19 15 21 5 23 1 25
REMARK H PARENT 20 12 17 20 15 22 5 24 1 26
REMARK Flexibility Score: inf
ROOT
ATOM      1  C   UNL     1      10.249  -5.802  -7.896  1.00  0.00     0.079 C 
ATOM      2  C   UNL     1      11.143  -6.719  -8.749  1.00  0.00     0.164 C 
ATOM      3  C   UNL     1      10.312  -7.804  -9.463  1.00  0.00     0.232 C 
ATOM      4  O   UNL     1       9.498  -8.508  -8.521  1.00  0.00    -0.482 OA
ATOM      5  C   UNL     1       8.974  -7.916  -7.364  1.00  0.00     0.131 A 
ATOM      6  C   UNL     1       8.112  -8.663  -6.556  1.00  0.00     0.093 A 
ATOM      7  C   UNL     1       7.546  -8.093  -5.412  1.00  0.00     0.122 A 
ATOM      8  C   UNL     1       7.833  -6.767  -5.082  1.00  0.00     0.092 A 
ATOM      9  C   UNL     1       8.689  -6.002  -5.881  1.00  0.00     0.126 A 
ATOM     10  C   UNL     1       9.304  -6.588  -7.014  1.00  0.00     0.039 A 
ENDROOT
BRANCH   2  11
ATOM     11  O   UNL     1      11.865  -5.962  -9.687  1.00  0.00    -0.389 OA
ATOM     12  H   UNL     1      11.373  -6.026 -10.547  1.00  0.00     0.211 HD
ENDBRANCH   2  11
BRANCH   3  13
ATOM     13  C   UNL     1       9.479  -7.253 -10.609  1.00  0.00    -0.001 A 
ATOM     14  C   UNL     1       8.810  -6.018 -10.515  1.00  0.00     0.057 A 
ATOM     15  C   UNL     1       9.407  -7.971 -11.816  1.00  0.00     0.012 A 
ATOM     16  C   UNL     1       8.073  -5.518 -11.596  1.00  0.00     0.157 A 
ATOM     17  C   UNL     1       8.672  -7.476 -12.895  1.00  0.00     0.050 A 
ATOM     18  C   UNL     1       8.002  -6.250 -12.792  1.00  0.00     0.157 A 
BRANCH  16  19
ATOM     19  O   UNL     1       7.421  -4.293 -11.462  1.00  0.00    -0.504 OA
ATOM     20  H   UNL     1       7.022  -3.988 -10.583  1.00  0.00     0.293 HD
ENDBRANCH  16  19
BRANCH  18  21
ATOM     21  O   UNL     1       7.269  -5.759 -13.871  1.00  0.00    -0.504 OA
ATOM     22  H   UNL     1       6.328  -5.401 -13.755  1.00  0.00     0.293 HD
ENDBRANCH  18  21
ENDBRANCH   3  13
BRANCH   9  23
ATOM     23  O   UNL     1       8.896  -4.666  -5.528  1.00  0.00    -0.507 OA
ATOM     24  H   UNL     1       9.813  -4.268  -5.369  1.00  0.00     0.293 HD
ENDBRANCH   9  23
BRANCH   7  25
ATOM     25  O   UNL     1       6.689  -8.833  -4.600  1.00  0.00    -0.508 OA
ATOM     26  H   UNL     1       6.884  -9.800  -4.365  1.00  0.00     0.293 HD
ENDBRANCH   7  25
TORSDOF 6
ENDMDL
MODEL 2
REMARK VINA RESULT:    -6.344      2.420      6.215
REMARK INTER + INTRA:          -7.420
REMARK INTER:                  -7.516
REMARK INTRA:                   0.096
REMARK UNBOUND:                 0.221
REMARK SMILES Oc1cc(O)c2c(c1)O[C@@H](c1ccc(O)c(O)c1)[C@@H](O)C2
REMARK SMILES IDX 21 1 19 2 10 3 9 4 7 5 8 6 2 7 3 8 4 9 6 10 20 11 11 13
REMARK SMILES IDX 18 14 12 15 16 16 13 17 14 18 17 19 15 21 5 23 1 25
REMARK H PARENT 20 12 17 20 15 22 5 24 1 26
REMARK Flexibility Score: inf
ROOT
ATOM      1  C   UNL     1       9.560  -5.154 -11.135  1.00  0.00     0.079 C 
ATOM      2  C   UNL     1       9.067  -6.593 -10.904  1.00  0.00     0.164 C 
ATOM      3  C   UNL     1       9.756  -7.232  -9.681  1.00  0.00     0.232 C 
ATOM      4  O   UNL     1      11.177  -7.121  -9.797  1.00  0.00    -0.482 OA
ATOM      5  C   UNL     1      11.816  -6.056 -10.444  1.00  0.00     0.131 A 
ATOM      6  C   UNL     1      13.212  -5.992 -10.421  1.00  0.00     0.093 A 
ATOM      7  C   UNL     1      13.880  -4.925 -11.029  1.00  0.00     0.122 A 
ATOM      8  C   UNL     1      13.148  -3.913 -11.652  1.00  0.00     0.092 A 
ATOM      9  C   UNL     1      11.750  -3.956 -11.682  1.00  0.00     0.126 A 
ATOM     10  C   UNL     1      11.070  -5.058 -11.110  1.00  0.00     0.039 A 
ENDROOT
BRANCH   2  11
ATOM     11  O   UNL     1       7.671  -6.611 -10.742  1.00  0.00    -0.389 OA
ATOM     12  H   UNL     1       7.486  -6.316  -9.812  1.00  0.00     0.211 HD
ENDBRANCH   2  11
BRANCH   3  13
ATOM     13  C   UNL     1       9.262  -6.662  -8.361  1.00  0.00    -0.001 A 
ATOM     14  C   UNL     1      10.103  -5.918  -7.511  1.00  0.00     0.057 A 
ATOM     15  C   UNL     1       7.918  -6.845  -7.992  1.00  0.00     0.012 A 
ATOM     16  C   UNL     1       9.616  -5.380  -6.313  1.00  0.00     0.157 A 
ATOM     17  C   UNL     1       7.430  -6.310  -6.797  1.00  0.00     0.050 A 
ATOM     18  C   UNL     1       8.274  -5.577  -5.953  1.00  0.00     0.157 A 
BRANCH  16  19
ATOM     19  O   UNL     1      10.481  -4.653  -5.497  1.00  0.00    -0.504 OA
ATOM     20  H   UNL     1      11.081  -5.099  -4.814  1.00  0.00     0.293 HD
ENDBRANCH  16  19
BRANCH  18  21
ATOM     21  O   UNL     1       7.784  -5.046  -4.762  1.00  0.00    -0.504 OA
ATOM     22  H   UNL     1       8.331  -4.401  -4.203  1.00  0.00     0.293 HD
ENDBRANCH  18  21
ENDBRANCH   3  13
BRANCH   9  23
ATOM     23  O   UNL     1      11.073  -2.887 -12.275  1.00  0.00    -0.507 OA
ATOM     24  H   UNL     1      11.505  -1.993 -12.467  1.00  0.00     0.293 HD
ENDBRANCH   9  23
BRANCH   7  25
ATOM     25  O   UNL     1      15.271  -4.856 -11.013  1.00  0.00    -0.508 OA
ATOM     26  H   UNL     1      15.767  -4.306 -10.320  1.00  0.00     0.293 HD
ENDBRANCH   7  25
TORSDOF 6
ENDMDL
MODEL 3
REMARK VINA RESULT:    -6.250      1.813      6.307
REMARK INTER + INTRA:          -7.307
REMARK INTER:                  -7.293
REMARK INTRA:                  -0.014
REMARK UNBOUND:                 0.221
REMARK SMILES Oc1cc(O)c2c(c1)O[C@@H](c1ccc(O)c(O)c1)[C@@H](O)C2
REMARK SMILES IDX 21 1 19 2 10 3 9 4 7 5 8 6 2 7 3 8 4 9 6 10 20 11 11 13
REMARK SMILES IDX 18 14 12 15 16 16 13 17 14 18 17 19 15 21 5 23 1 25
REMARK H PARENT 20 12 17 20 15 22 5 24 1 26
REMARK Flexibility Score: inf
ROOT
ATOM      1  C   UNL     1       8.443  -6.407  -9.922  1.00  0.00     0.079 C 
ATOM      2  C   UNL     1       8.469  -7.809  -9.288  1.00  0.00     0.164 C 
ATOM      3  C   UNL     1       9.487  -7.881  -8.131  1.00  0.00     0.232 C 
ATOM      4  O   UNL     1      10.769  -7.423  -8.568  1.00  0.00    -0.482 OA
ATOM      5  C   UNL     1      10.941  -6.438  -9.550  1.00  0.00     0.131 A 
ATOM      6  C   UNL     1      12.234  -5.992  -9.838  1.00  0.00     0.093 A 
ATOM      7  C   UNL     1      12.438  -4.988 -10.790  1.00  0.00     0.122 A 
ATOM      8  C   UNL     1      11.344  -4.421 -11.446  1.00  0.00     0.092 A 
ATOM      9  C   UNL     1      10.042  -4.850 -11.167  1.00  0.00     0.126 A 
ATOM     10  C   UNL     1       9.832  -5.900 -10.240  1.00  0.00     0.039 A 
ENDROOT
BRANCH   2  11
ATOM     11  O   UNL     1       7.188  -8.163  -8.833  1.00  0.00    -0.389 OA
ATOM     12  H   UNL     1       7.238  -8.209  -7.842  1.00  0.00     0.211 HD
ENDBRANCH   2  11
BRANCH   3  13
ATOM     13  C   UNL     1       9.025  -7.134  -6.890  1.00  0.00    -0.001 A 
ATOM     14  C   UNL     1       8.303  -7.773  -5.864  1.00  0.00     0.057 A 
ATOM     15  C   UNL     1       9.362  -5.778  -6.738  1.00  0.00     0.012 A 
ATOM     16  C   UNL     1       7.915  -7.069  -4.717  1.00  0.00     0.157 A 
ATOM     17  C   UNL     1       8.974  -5.074  -5.596  1.00  0.00     0.050 A 
ATOM     18  C   UNL     1       8.250  -5.713  -4.582  1.00  0.00     0.157 A 
BRANCH  16  19
ATOM     19  O   UNL     1       7.198  -7.736  -3.725  1.00  0.00    -0.504 OA
ATOM     20  H   UNL     1       7.561  -7.856  -2.787  1.00  0.00     0.293 HD
ENDBRANCH  16  19
BRANCH  18  21
ATOM     21  O   UNL     1       7.865  -5.007  -3.444  1.00  0.00    -0.504 OA
ATOM     22  H   UNL     1       6.921  -5.060  -3.080  1.00  0.00     0.293 HD
ENDBRANCH  18  21
ENDBRANCH   3  13
BRANCH   9  23
ATOM     23  O   UNL     1       8.986  -4.208 -11.818  1.00  0.00    -0.507 OA
ATOM     24  H   UNL     1       8.746  -3.237 -11.664  1.00  0.00     0.293 HD
ENDBRANCH   9  23
BRANCH   7  25
ATOM     25  O   UNL     1      13.724  -4.541 -11.085  1.00  0.00    -0.508 OA
ATOM     26  H   UNL     1      14.418  -5.156 -11.495  1.00  0.00     0.293 HD
ENDBRANCH   7  25
TORSDOF 6
ENDMDL
MODEL 4
REMARK VINA RESULT:    -6.098      2.139      5.941
REMARK INTER + INTRA:          -7.125
REMARK INTER:                  -7.240
REMARK INTRA:                   0.116
REMARK UNBOUND:                 0.221
REMARK SMILES Oc1cc(O)c2c(c1)O[C@@H](c1ccc(O)c(O)c1)[C@@H](O)C2
REMARK SMILES IDX 21 1 19 2 10 3 9 4 7 5 8 6 2 7 3 8 4 9 6 10 20 11 11 13
REMARK SMILES IDX 18 14 12 15 16 16 13 17 14 18 17 19 15 21 5 23 1 25
REMARK H PARENT 20 12 17 20 15 22 5 24 1 26
REMARK Flexibility Score: inf
ROOT
ATOM      1  C   UNL     1       9.975  -4.991 -10.820  1.00  0.00     0.079 C 
ATOM      2  C   UNL     1       8.548  -5.556 -10.927  1.00  0.00     0.164 C 
ATOM      3  C   UNL     1       8.401  -6.860 -10.117  1.00  0.00     0.232 C 
ATOM      4  O   UNL     1       9.419  -7.793 -10.488  1.00  0.00    -0.482 OA
ATOM      5  C   UNL     1      10.699  -7.409 -10.910  1.00  0.00     0.131 A 
ATOM      6  C   UNL     1      11.652  -8.399 -11.159  1.00  0.00     0.093 A 
ATOM      7  C   UNL     1      12.948  -8.049 -11.551  1.00  0.00     0.122 A 
ATOM      8  C   UNL     1      13.293  -6.702 -11.682  1.00  0.00     0.092 A 
ATOM      9  C   UNL     1      12.354  -5.696 -11.432  1.00  0.00     0.126 A 
ATOM     10  C   UNL     1      11.027  -6.046 -11.082  1.00  0.00     0.039 A 
ENDROOT
BRANCH   2  11
ATOM     11  O   UNL     1       7.611  -4.604 -10.492  1.00  0.00    -0.389 OA
ATOM     12  H   UNL     1       6.768  -4.786 -10.982  1.00  0.00     0.211 HD
ENDBRANCH   2  11
BRANCH   3  13
ATOM     13  C   UNL     1       8.386  -6.625  -8.615  1.00  0.00    -0.001 A 
ATOM     14  C   UNL     1       9.380  -5.864  -7.971  1.00  0.00     0.057 A 
ATOM     15  C   UNL     1       7.329  -7.144  -7.847  1.00  0.00     0.012 A 
ATOM     16  C   UNL     1       9.328  -5.637  -6.591  1.00  0.00     0.157 A 
ATOM     17  C   UNL     1       7.275  -6.921  -6.470  1.00  0.00     0.050 A 
ATOM     18  C   UNL     1       8.271  -6.169  -5.835  1.00  0.00     0.157 A 
BRANCH  16  19
ATOM     19  O   UNL     1      10.333  -4.882  -5.990  1.00  0.00    -0.504 OA
ATOM     20  H   UNL     1      10.876  -4.200  -6.506  1.00  0.00     0.293 HD
ENDBRANCH  16  19
BRANCH  18  21
ATOM     21  O   UNL     1       8.214  -5.949  -4.460  1.00  0.00    -0.504 OA
ATOM     22  H   UNL     1       8.728  -5.194  -4.021  1.00  0.00     0.293 HD
ENDBRANCH  18  21
ENDBRANCH   3  13
BRANCH   9  23
ATOM     23  O   UNL     1      12.774  -4.368 -11.530  1.00  0.00    -0.507 OA
ATOM     24  H   UNL     1      13.571  -4.075 -12.081  1.00  0.00     0.293 HD
ENDBRANCH   9  23
BRANCH   7  25
ATOM     25  O   UNL     1      13.903  -9.031 -11.804  1.00  0.00    -0.508 OA
ATOM     26  H   UNL     1      14.581  -9.305 -11.101  1.00  0.00     0.293 HD
ENDBRANCH   7  25
TORSDOF 6
ENDMDL
MODEL 5
REMARK VINA RESULT:    -5.889      1.201      6.027
REMARK INTER + INTRA:          -6.872
REMARK INTER:                  -7.455
REMARK INTRA:                   0.583
REMARK UNBOUND:                 0.221
REMARK SMILES Oc1cc(O)c2c(c1)O[C@@H](c1ccc(O)c(O)c1)[C@@H](O)C2
REMARK SMILES IDX 21 1 19 2 10 3 9 4 7 5 8 6 2 7 3 8 4 9 6 10 20 11 11 13
REMARK SMILES IDX 18 14 12 15 16 16 13 17 14 18 17 19 15 21 5 23 1 25
REMARK H PARENT 20 12 17 20 15 22 5 24 1 26
REMARK Flexibility Score: inf
ROOT
ATOM      1  C   UNL     1       9.383  -8.166 -10.701  1.00  0.00     0.079 C 
ATOM      2  C   UNL     1      10.659  -7.920  -9.876  1.00  0.00     0.164 C 
ATOM      3  C   UNL     1      10.488  -6.718  -8.925  1.00  0.00     0.232 C 
ATOM      4  O   UNL     1      10.041  -5.570  -9.650  1.00  0.00    -0.482 OA
ATOM      5  C   UNL     1       9.222  -5.647 -10.785  1.00  0.00     0.131 A 
ATOM      6  C   UNL     1       8.762  -4.462 -11.365  1.00  0.00     0.093 A 
ATOM      7  C   UNL     1       7.917  -4.504 -12.479  1.00  0.00     0.122 A 
ATOM      8  C   UNL     1       7.522  -5.735 -13.005  1.00  0.00     0.092 A 
ATOM      9  C   UNL     1       7.968  -6.932 -12.434  1.00  0.00     0.126 A 
ATOM     10  C   UNL     1       8.862  -6.896 -11.337  1.00  0.00     0.039 A 
ENDROOT
BRANCH   2  11
ATOM     11  O   UNL     1      11.001  -9.073  -9.150  1.00  0.00    -0.389 OA
ATOM     12  H   UNL     1      11.914  -9.334  -9.439  1.00  0.00     0.211 HD
ENDBRANCH   2  11
BRANCH   3  13
ATOM     13  C   UNL     1       9.575  -7.021  -7.749  1.00  0.00    -0.001 A 
ATOM     14  C   UNL     1       9.024  -5.999  -6.952  1.00  0.00     0.057 A 
ATOM     15  C   UNL     1       9.232  -8.356  -7.469  1.00  0.00     0.012 A 
ATOM     16  C   UNL     1       8.162  -6.303  -5.891  1.00  0.00     0.157 A 
ATOM     17  C   UNL     1       8.373  -8.662  -6.411  1.00  0.00     0.050 A 
ATOM     18  C   UNL     1       7.835  -7.641  -5.618  1.00  0.00     0.157 A 
BRANCH  16  19
ATOM     19  O   UNL     1       7.641  -5.264  -5.124  1.00  0.00    -0.504 OA
ATOM     20  H   UNL     1       6.876  -5.404  -4.475  1.00  0.00     0.293 HD
ENDBRANCH  16  19
BRANCH  18  21
ATOM     21  O   UNL     1       6.979  -7.950  -4.563  1.00  0.00    -0.504 OA
ATOM     22  H   UNL     1       7.122  -7.572  -3.634  1.00  0.00     0.293 HD
ENDBRANCH  18  21
ENDBRANCH   3  13
BRANCH   9  23
ATOM     23  O   UNL     1       7.497  -8.131 -12.974  1.00  0.00    -0.507 OA
ATOM     24  H   UNL     1       6.564  -8.244 -13.349  1.00  0.00     0.293 HD
ENDBRANCH   9  23
BRANCH   7  25
ATOM     25  O   UNL     1       7.457  -3.327 -13.065  1.00  0.00    -0.508 OA
ATOM     26  H   UNL     1       7.974  -2.458 -12.987  1.00  0.00     0.293 HD
ENDBRANCH   7  25
TORSDOF 6
ENDMDL
MODEL 6
REMARK VINA RESULT:    -5.730     10.067     13.912
REMARK INTER + INTRA:          -6.681
REMARK INTER:                  -7.068
REMARK INTRA:                   0.386
REMARK UNBOUND:                 0.221
REMARK SMILES Oc1cc(O)c2c(c1)O[C@@H](c1ccc(O)c(O)c1)[C@@H](O)C2
REMARK SMILES IDX 21 1 19 2 10 3 9 4 7 5 8 6 2 7 3 8 4 9 6 10 20 11 11 13
REMARK SMILES IDX 18 14 12 15 16 16 13 17 14 18 17 19 15 21 5 23 1 25
REMARK H PARENT 20 12 17 20 15 22 5 24 1 26
REMARK Flexibility Score: inf
ROOT
ATOM      1  C   UNL     1       8.354   4.354 -17.206  1.00  0.00     0.079 C 
ATOM      2  C   UNL     1       6.829   4.202 -17.338  1.00  0.00     0.164 C 
ATOM      3  C   UNL     1       6.448   2.794 -17.839  1.00  0.00     0.232 C 
ATOM      4  O   UNL     1       7.165   2.482 -19.037  1.00  0.00    -0.482 OA
ATOM      5  C   UNL     1       8.450   2.965 -19.313  1.00  0.00     0.131 A 
ATOM      6  C   UNL     1       9.102   2.525 -20.468  1.00  0.00     0.093 A 
ATOM      7  C   UNL     1      10.399   2.963 -20.757  1.00  0.00     0.122 A 
ATOM      8  C   UNL     1      11.048   3.834 -19.881  1.00  0.00     0.092 A 
ATOM      9  C   UNL     1      10.414   4.282 -18.717  1.00  0.00     0.126 A 
ATOM     10  C   UNL     1       9.084   3.880 -18.443  1.00  0.00     0.039 A 
ENDROOT
BRANCH   2  11
ATOM     11  O   UNL     1       6.203   4.468 -16.109  1.00  0.00    -0.389 OA
ATOM     12  H   UNL     1       6.903   4.822 -15.501  1.00  0.00     0.211 HD
ENDBRANCH   2  11
BRANCH   3  13
ATOM     13  C   UNL     1       6.642   1.718 -16.782  1.00  0.00    -0.001 A 
ATOM     14  C   UNL     1       7.537   1.884 -15.708  1.00  0.00     0.057 A 
ATOM     15  C   UNL     1       5.877   0.540 -16.851  1.00  0.00     0.012 A 
ATOM     16  C   UNL     1       7.675   0.890 -14.731  1.00  0.00     0.157 A 
ATOM     17  C   UNL     1       6.015  -0.453 -15.879  1.00  0.00     0.050 A 
ATOM     18  C   UNL     1       6.912  -0.285 -14.817  1.00  0.00     0.157 A 
BRANCH  16  19
ATOM     19  O   UNL     1       8.574   1.089 -13.685  1.00  0.00    -0.504 OA
ATOM     20  H   UNL     1       9.081   1.959 -13.568  1.00  0.00     0.293 HD
ENDBRANCH  16  19
BRANCH  18  21
ATOM     21  O   UNL     1       7.046  -1.279 -13.849  1.00  0.00    -0.504 OA
ATOM     22  H   UNL     1       6.648  -2.202 -13.977  1.00  0.00     0.293 HD
ENDBRANCH  18  21
ENDBRANCH   3  13
BRANCH   9  23
ATOM     23  O   UNL     1      11.135   5.111 -17.855  1.00  0.00    -0.507 OA
ATOM     24  H   UNL     1      12.012   4.842 -17.428  1.00  0.00     0.293 HD
ENDBRANCH   9  23
BRANCH   7  25
ATOM     25  O   UNL     1      11.053   2.531 -21.908  1.00  0.00    -0.508 OA
ATOM     26  H   UNL     1      10.557   2.058 -22.655  1.00  0.00     0.293 HD
ENDBRANCH   7  25
TORSDOF 6
ENDMDL
MODEL 7
REMARK VINA RESULT:    -5.689     12.024     15.154
REMARK INTER + INTRA:          -6.632
REMARK INTER:                  -6.613
REMARK INTRA:                  -0.019
REMARK UNBOUND:                 0.221
REMARK SMILES Oc1cc(O)c2c(c1)O[C@@H](c1ccc(O)c(O)c1)[C@@H](O)C2
REMARK SMILES IDX 21 1 19 2 10 3 9 4 7 5 8 6 2 7 3 8 4 9 6 10 20 11 11 13
REMARK SMILES IDX 18 14 12 15 16 16 13 17 14 18 17 19 15 21 5 23 1 25
REMARK H PARENT 20 12 17 20 15 22 5 24 1 26
REMARK Flexibility Score: inf
ROOT
ATOM      1  C   UNL     1      23.695  -4.487  -8.925  1.00  0.00     0.079 C 
ATOM      2  C   UNL     1      24.058  -3.757  -7.620  1.00  0.00     0.164 C 
ATOM      3  C   UNL     1      23.326  -2.404  -7.513  1.00  0.00     0.232 C 
ATOM      4  O   UNL     1      23.548  -1.624  -8.691  1.00  0.00    -0.482 OA
ATOM      5  C   UNL     1      23.736  -2.185  -9.961  1.00  0.00     0.131 A 
ATOM      6  C   UNL     1      23.850  -1.333 -11.063  1.00  0.00     0.093 A 
ATOM      7  C   UNL     1      24.007  -1.861 -12.349  1.00  0.00     0.122 A 
ATOM      8  C   UNL     1      24.036  -3.244 -12.533  1.00  0.00     0.092 A 
ATOM      9  C   UNL     1      23.917  -4.113 -11.442  1.00  0.00     0.126 A 
ATOM     10  C   UNL     1      23.807  -3.585 -10.133  1.00  0.00     0.039 A 
ENDROOT
BRANCH   2  11
ATOM     11  O   UNL     1      23.758  -4.563  -6.509  1.00  0.00    -0.389 OA
ATOM     12  H   UNL     1      22.772  -4.540  -6.396  1.00  0.00     0.211 HD
ENDBRANCH   2  11
BRANCH   3  13
ATOM     13  C   UNL     1      21.842  -2.557  -7.222  1.00  0.00    -0.001 A 
ATOM     14  C   UNL     1      20.875  -2.525  -8.246  1.00  0.00     0.057 A 
ATOM     15  C   UNL     1      21.419  -2.779  -5.899  1.00  0.00     0.012 A 
ATOM     16  C   UNL     1      19.517  -2.697  -7.954  1.00  0.00     0.157 A 
ATOM     17  C   UNL     1      20.064  -2.949  -5.606  1.00  0.00     0.050 A 
ATOM     18  C   UNL     1      19.108  -2.909  -6.628  1.00  0.00     0.157 A 
BRANCH  16  19
ATOM     19  O   UNL     1      18.591  -2.655  -8.995  1.00  0.00    -0.504 OA
ATOM     20  H   UNL     1      17.780  -2.049  -8.971  1.00  0.00     0.293 HD
ENDBRANCH  16  19
BRANCH  18  21
ATOM     21  O   UNL     1      17.757  -3.080  -6.331  1.00  0.00    -0.504 OA
ATOM     22  H   UNL     1      17.076  -2.352  -6.516  1.00  0.00     0.293 HD
ENDBRANCH  18  21
ENDBRANCH   3  13
BRANCH   9  23
ATOM     23  O   UNL     1      23.901  -5.486 -11.697  1.00  0.00    -0.507 OA
ATOM     24  H   UNL     1      24.504  -5.934 -12.376  1.00  0.00     0.293 HD
ENDBRANCH   9  23
BRANCH   7  25
ATOM     25  O   UNL     1      24.125  -1.018 -13.452  1.00  0.00    -0.508 OA
ATOM     26  H   UNL     1      23.975  -0.019 -13.375  1.00  0.00     0.293 HD
ENDBRANCH   7  25
TORSDOF 6
ENDMDL
MODEL 8
REMARK VINA RESULT:    -5.616      7.911      9.866
REMARK INTER + INTRA:          -6.543
REMARK INTER:                  -6.513
REMARK INTRA:                  -0.030
REMARK UNBOUND:                 0.221
REMARK SMILES Oc1cc(O)c2c(c1)O[C@@H](c1ccc(O)c(O)c1)[C@@H](O)C2
REMARK SMILES IDX 21 1 19 2 10 3 9 4 7 5 8 6 2 7 3 8 4 9 6 10 20 11 11 13
REMARK SMILES IDX 18 14 12 15 16 16 13 17 14 18 17 19 15 21 5 23 1 25
REMARK H PARENT 20 12 17 20 15 22 5 24 1 26
REMARK Flexibility Score: inf
ROOT
ATOM      1  C   UNL     1      17.778  -4.180 -14.173  1.00  0.00     0.079 C 
ATOM      2  C   UNL     1      18.067  -5.523 -13.478  1.00  0.00     0.164 C 
ATOM      3  C   UNL     1      16.815  -6.424 -13.461  1.00  0.00     0.232 C 
ATOM      4  O   UNL     1      15.701  -5.717 -12.910  1.00  0.00    -0.482 OA
ATOM      5  C   UNL     1      15.527  -4.333 -13.039  1.00  0.00     0.131 A 
ATOM      6  C   UNL     1      14.356  -3.752 -12.546  1.00  0.00     0.093 A 
ATOM      7  C   UNL     1      14.136  -2.378 -12.688  1.00  0.00     0.122 A 
ATOM      8  C   UNL     1      15.085  -1.587 -13.336  1.00  0.00     0.092 A 
ATOM      9  C   UNL     1      16.262  -2.151 -13.841  1.00  0.00     0.126 A 
ATOM     10  C   UNL     1      16.512  -3.532 -13.658  1.00  0.00     0.039 A 
ENDROOT
BRANCH   2  11
ATOM     11  O   UNL     1      19.133  -6.182 -14.111  1.00  0.00    -0.389 OA
ATOM     12  H   UNL     1      18.771  -7.033 -14.473  1.00  0.00     0.211 HD
ENDBRANCH   2  11
BRANCH   3  13
ATOM     13  C   UNL     1      16.484  -7.001 -14.828  1.00  0.00    -0.001 A 
ATOM     14  C   UNL     1      15.729  -6.282 -15.775  1.00  0.00     0.057 A 
ATOM     15  C   UNL     1      16.977  -8.270 -15.178  1.00  0.00     0.012 A 
ATOM     16  C   UNL     1      15.462  -6.824 -17.038  1.00  0.00     0.157 A 
ATOM     17  C   UNL     1      16.711  -8.813 -16.436  1.00  0.00     0.050 A 
ATOM     18  C   UNL     1      15.954  -8.097 -17.371  1.00  0.00     0.157 A 
BRANCH  16  19
ATOM     19  O   UNL     1      14.709  -6.083 -17.947  1.00  0.00    -0.504 OA
ATOM     20  H   UNL     1      14.872  -5.096 -18.104  1.00  0.00     0.293 HD
ENDBRANCH  16  19
BRANCH  18  21
ATOM     21  O   UNL     1      15.690  -8.642 -18.626  1.00  0.00    -0.504 OA
ATOM     22  H   UNL     1      16.425  -8.778 -19.311  1.00  0.00     0.293 HD
ENDBRANCH  18  21
ENDBRANCH   3  13
BRANCH   9  23
ATOM     23  O   UNL     1      17.148  -1.316 -14.525  1.00  0.00    -0.507 OA
ATOM     24  H   UNL     1      18.130  -1.528 -14.649  1.00  0.00     0.293 HD
ENDBRANCH   9  23
BRANCH   7  25
ATOM     25  O   UNL     1      12.972  -1.791 -12.195  1.00  0.00    -0.508 OA
ATOM     26  H   UNL     1      12.991  -0.901 -11.711  1.00  0.00     0.293 HD
ENDBRANCH   7  25
TORSDOF 6
ENDMDL
MODEL 9
REMARK VINA RESULT:    -4.396      1.822      2.108
REMARK INTER + INTRA:          -5.074
REMARK INTER:                  -5.066
REMARK INTRA:                  -0.008
REMARK UNBOUND:                 0.221
REMARK SMILES Oc1cc(O)c2c(c1)O[C@@H](c1ccc(O)c(O)c1)[C@@H](O)C2
REMARK SMILES IDX 21 1 19 2 10 3 9 4 7 5 8 6 2 7 3 8 4 9 6 10 20 11 11 13
REMARK SMILES IDX 18 14 12 15 16 16 13 17 14 18 17 19 15 21 5 23 1 25
REMARK H PARENT 20 12 17 20 15 22 5 24 1 26
REMARK Flexibility Score: inf
ROOT
ATOM      1  C   UNL     1       9.788  -6.294  -8.403  1.00  0.00     0.079 C 
ATOM      2  C   UNL     1      10.775  -7.310  -9.004  1.00  0.00     0.164 C 
ATOM      3  C   UNL     1      10.110  -8.687  -9.201  1.00  0.00     0.232 C 
ATOM      4  O   UNL     1       9.502  -9.125  -7.983  1.00  0.00    -0.482 OA
ATOM      5  C   UNL     1       8.956  -8.248  -7.037  1.00  0.00     0.131 A 
ATOM      6  C   UNL     1       8.300  -8.781  -5.924  1.00  0.00     0.093 A 
ATOM      7  C   UNL     1       7.715  -7.934  -4.977  1.00  0.00     0.122 A 
ATOM      8  C   UNL     1       7.778  -6.551  -5.151  1.00  0.00     0.092 A 
ATOM      9  C   UNL     1       8.426  -5.998  -6.261  1.00  0.00     0.126 A 
ATOM     10  C   UNL     1       9.061  -6.849  -7.198  1.00  0.00     0.039 A 
ENDROOT
BRANCH   2  11
ATOM     11  O   UNL     1      11.284  -6.834 -10.223  1.00  0.00    -0.389 OA
ATOM     12  H   UNL     1      12.181  -7.244 -10.339  1.00  0.00     0.211 HD
ENDBRANCH   2  11
BRANCH   3  13
ATOM     13  C   UNL     1       9.118  -8.704 -10.353  1.00  0.00    -0.001 A 
ATOM     14  C   UNL     1       9.538  -8.727 -11.697  1.00  0.00     0.057 A 
ATOM     15  C   UNL     1       7.740  -8.740 -10.074  1.00  0.00     0.012 A 
ATOM     16  C   UNL     1       8.604  -8.772 -12.739  1.00  0.00     0.157 A 
ATOM     17  C   UNL     1       6.807  -8.783 -11.112  1.00  0.00     0.050 A 
ATOM     18  C   UNL     1       7.232  -8.799 -12.446  1.00  0.00     0.157 A 
BRANCH  16  19
ATOM     19  O   UNL     1       9.060  -8.790 -14.056  1.00  0.00    -0.504 OA
ATOM     20  H   UNL     1       9.293  -7.942 -14.557  1.00  0.00     0.293 HD
ENDBRANCH  16  19
BRANCH  18  21
ATOM     21  O   UNL     1       6.297  -8.842 -13.479  1.00  0.00    -0.504 OA
ATOM     22  H   UNL     1       5.301  -8.870 -13.293  1.00  0.00     0.293 HD
ENDBRANCH  18  21
ENDBRANCH   3  13
BRANCH   9  23
ATOM     23  O   UNL     1       8.409  -4.609  -6.406  1.00  0.00    -0.507 OA
ATOM     24  H   UNL     1       7.558  -4.065  -6.456  1.00  0.00     0.293 HD
ENDBRANCH   9  23
BRANCH   7  25
ATOM     25  O   UNL     1       7.062  -8.458  -3.864  1.00  0.00    -0.508 OA
ATOM     26  H   UNL     1       6.053  -8.427  -3.777  1.00  0.00     0.293 HD
ENDBRANCH   7  25
TORSDOF 6
ENDMDL
