MODEL 1
REMARK VINA RESULT:    -6.082      0.000      0.000
REMARK INTER + INTRA:          -7.656
REMARK INTER:                  -7.505
REMARK INTRA:                  -0.152
REMARK UNBOUND:                -0.152
REMARK SMILES COc1cc(-c2oc3cc(O)cc(O)c3c(=O)c2O)ccc1O
REMARK SMILES IDX 6 1 18 2 16 3 17 4 15 5 13 6 12 7 10 8 9 9 8 10 7 11 5 12
REMARK SMILES IDX 3 13 22 14 4 15 21 16 20 17 2 18 1 19 23 20 19 22 14 24
REMARK SMILES IDX 11 26
REMARK H PARENT 23 21 19 23 14 25 11 27
REMARK Flexibility Score: inf
ROOT
ATOM      1  C   UNL     1       1.735  -3.914  22.218  1.00  0.00     0.180 A 
ATOM      2  C   UNL     1       2.808  -3.680  23.097  1.00  0.00     0.208 A 
ATOM      3  C   UNL     1       2.532  -3.338  24.431  1.00  0.00     0.238 A 
ATOM      4  O   UNL     1       3.495  -3.183  25.226  1.00  0.00    -0.285 OA
ATOM      5  C   UNL     1       1.190  -3.219  24.864  1.00  0.00     0.111 A 
ATOM      6  C   UNL     1       0.794  -2.840  26.183  1.00  0.00     0.134 A 
ATOM      7  C   UNL     1      -0.559  -2.881  26.537  1.00  0.00     0.093 A 
ATOM      8  C   UNL     1      -1.538  -3.225  25.602  1.00  0.00     0.123 A 
ATOM      9  C   UNL     1      -1.168  -3.540  24.296  1.00  0.00     0.094 A 
ATOM     10  C   UNL     1       0.178  -3.542  23.923  1.00  0.00     0.146 A 
ATOM     11  O   UNL     1       0.488  -3.858  22.672  1.00  0.00    -0.452 OA
ENDROOT
BRANCH   1  12
ATOM     12  C   UNL     1       1.947  -4.252  20.792  1.00  0.00     0.025 A 
ATOM     13  C   UNL     1       1.585  -3.819  18.411  1.00  0.00     0.161 A 
ATOM     14  C   UNL     1       2.332  -4.969  18.098  1.00  0.00     0.157 A 
ATOM     15  C   UNL     1       1.390  -3.472  19.764  1.00  0.00     0.062 A 
ATOM     16  C   UNL     1       2.866  -5.757  19.121  1.00  0.00     0.051 A 
ATOM     17  C   UNL     1       2.669  -5.408  20.459  1.00  0.00     0.016 A 
BRANCH  13  18
ATOM     18  O   UNL     1       1.051  -3.052  17.363  1.00  0.00    -0.493 OA
ATOM     19  C   UNL     1      -0.338  -2.799  17.171  1.00  0.00     0.278 C 
ENDBRANCH  13  18
BRANCH  14  20
ATOM     20  O   UNL     1       2.552  -5.347  16.774  1.00  0.00    -0.504 OA
ATOM     21  H   UNL     1       1.799  -5.646  16.165  1.00  0.00     0.293 HD
ENDBRANCH  14  20
ENDBRANCH   1  12
BRANCH   2  22
ATOM     22  O   UNL     1       4.125  -3.824  22.653  1.00  0.00    -0.502 OA
ATOM     23  H   UNL     1       4.605  -4.715  22.658  1.00  0.00     0.293 HD
ENDBRANCH   2  22
BRANCH   6  24
ATOM     24  O   UNL     1       1.683  -2.391  27.165  1.00  0.00    -0.507 OA
ATOM     25  H   UNL     1       1.467  -2.330  28.149  1.00  0.00     0.293 HD
ENDBRANCH   6  24
BRANCH   8  26
ATOM     26  O   UNL     1      -2.885  -3.250  25.958  1.00  0.00    -0.508 OA
ATOM     27  H   UNL     1      -3.604  -2.894  25.337  1.00  0.00     0.293 HD
ENDBRANCH   8  26
TORSDOF 6
ENDMDL
MODEL 2
REMARK VINA RESULT:    -6.038      1.566      6.775
REMARK INTER + INTRA:          -7.602
REMARK INTER:                  -7.650
REMARK INTRA:                   0.048
REMARK UNBOUND:                -0.152
REMARK SMILES COc1cc(-c2oc3cc(O)cc(O)c3c(=O)c2O)ccc1O
REMARK SMILES IDX 6 1 18 2 16 3 17 4 15 5 13 6 12 7 10 8 9 9 8 10 7 11 5 12
REMARK SMILES IDX 3 13 22 14 4 15 21 16 20 17 2 18 1 19 23 20 19 22 14 24
REMARK SMILES IDX 11 26
REMARK H PARENT 23 21 19 23 14 25 11 27
REMARK Flexibility Score: inf
ROOT
ATOM      1  C   UNL     1       2.309  -4.073  22.222  1.00  0.00     0.180 A 
ATOM      2  C   UNL     1       2.892  -5.064  21.412  1.00  0.00     0.208 A 
ATOM      3  C   UNL     1       2.633  -5.054  20.032  1.00  0.00     0.238 A 
ATOM      4  O   UNL     1       3.201  -5.910  19.305  1.00  0.00    -0.285 OA
ATOM      5  C   UNL     1       1.783  -4.064  19.482  1.00  0.00     0.111 A 
ATOM      6  C   UNL     1       1.419  -3.983  18.104  1.00  0.00     0.134 A 
ATOM      7  C   UNL     1       0.677  -2.887  17.649  1.00  0.00     0.093 A 
ATOM      8  C   UNL     1       0.229  -1.903  18.534  1.00  0.00     0.123 A 
ATOM      9  C   UNL     1       0.528  -2.004  19.890  1.00  0.00     0.094 A 
ATOM     10  C   UNL     1       1.297  -3.068  20.368  1.00  0.00     0.146 A 
ATOM     11  O   UNL     1       1.569  -3.121  21.667  1.00  0.00    -0.452 OA
ENDROOT
BRANCH   1  12
ATOM     12  C   UNL     1       2.515  -4.034  23.688  1.00  0.00     0.025 A 
ATOM     13  C   UNL     1       1.663  -3.744  25.963  1.00  0.00     0.161 A 
ATOM     14  C   UNL     1       2.967  -3.916  26.463  1.00  0.00     0.157 A 
ATOM     15  C   UNL     1       1.447  -3.797  24.571  1.00  0.00     0.062 A 
ATOM     16  C   UNL     1       4.031  -4.129  25.583  1.00  0.00     0.051 A 
ATOM     17  C   UNL     1       3.811  -4.180  24.205  1.00  0.00     0.016 A 
BRANCH  13  18
ATOM     18  O   UNL     1       0.614  -3.521  26.870  1.00  0.00    -0.493 OA
ATOM     19  C   UNL     1      -0.707  -3.139  26.501  1.00  0.00     0.278 C 
ENDBRANCH  13  18
BRANCH  14  20
ATOM     20  O   UNL     1       3.225  -3.874  27.833  1.00  0.00    -0.504 OA
ATOM     21  H   UNL     1       2.690  -3.291  28.466  1.00  0.00     0.293 HD
ENDBRANCH  14  20
ENDBRANCH   1  12
BRANCH   2  22
ATOM     22  O   UNL     1       3.746  -6.017  21.973  1.00  0.00    -0.502 OA
ATOM     23  H   UNL     1       4.011  -6.863  21.484  1.00  0.00     0.293 HD
ENDBRANCH   2  22
BRANCH   6  24
ATOM     24  O   UNL     1       1.736  -4.959  17.154  1.00  0.00    -0.507 OA
ATOM     25  H   UNL     1       1.169  -5.769  16.952  1.00  0.00     0.293 HD
ENDBRANCH   6  24
BRANCH   8  26
ATOM     26  O   UNL     1      -0.523  -0.823  18.075  1.00  0.00    -0.508 OA
ATOM     27  H   UNL     1      -0.925  -0.815  17.145  1.00  0.00     0.293 HD
ENDBRANCH   8  26
TORSDOF 6
ENDMDL
MODEL 3
REMARK VINA RESULT:    -5.883      5.144      8.063
REMARK INTER + INTRA:          -7.411
REMARK INTER:                  -7.633
REMARK INTRA:                   0.223
REMARK UNBOUND:                -0.152
REMARK SMILES COc1cc(-c2oc3cc(O)cc(O)c3c(=O)c2O)ccc1O
REMARK SMILES IDX 6 1 18 2 16 3 17 4 15 5 13 6 12 7 10 8 9 9 8 10 7 11 5 12
REMARK SMILES IDX 3 13 22 14 4 15 21 16 20 17 2 18 1 19 23 20 19 22 14 24
REMARK SMILES IDX 11 26
REMARK H PARENT 23 21 19 23 14 25 11 27
REMARK Flexibility Score: inf
ROOT
ATOM      1  C   UNL     1      -2.648  -0.872  18.705  1.00  0.00     0.180 A 
ATOM      2  C   UNL     1      -3.246  -0.497  19.922  1.00  0.00     0.208 A 
ATOM      3  C   UNL     1      -4.418   0.276  19.894  1.00  0.00     0.238 A 
ATOM      4  O   UNL     1      -4.978   0.563  20.985  1.00  0.00    -0.285 OA
ATOM      5  C   UNL     1      -4.969   0.676  18.653  1.00  0.00     0.111 A 
ATOM      6  C   UNL     1      -6.131   1.493  18.508  1.00  0.00     0.134 A 
ATOM      7  C   UNL     1      -6.662   1.718  17.232  1.00  0.00     0.093 A 
ATOM      8  C   UNL     1      -6.035   1.211  16.091  1.00  0.00     0.123 A 
ATOM      9  C   UNL     1      -4.868   0.462  16.218  1.00  0.00     0.094 A 
ATOM     10  C   UNL     1      -4.334   0.190  17.480  1.00  0.00     0.146 A 
ATOM     11  O   UNL     1      -3.226  -0.536  17.558  1.00  0.00    -0.452 OA
ENDROOT
BRANCH   1  12
ATOM     12  C   UNL     1      -1.398  -1.663  18.654  1.00  0.00     0.025 A 
ATOM     13  C   UNL     1       0.729  -2.371  19.633  1.00  0.00     0.161 A 
ATOM     14  C   UNL     1       0.990  -3.143  18.486  1.00  0.00     0.157 A 
ATOM     15  C   UNL     1      -0.466  -1.627  19.706  1.00  0.00     0.062 A 
ATOM     16  C   UNL     1       0.073  -3.160  17.432  1.00  0.00     0.051 A 
ATOM     17  C   UNL     1      -1.109  -2.421  17.509  1.00  0.00     0.016 A 
BRANCH  13  18
ATOM     18  O   UNL     1       1.674  -2.364  20.673  1.00  0.00    -0.493 OA
ATOM     19  C   UNL     1       1.491  -2.995  21.936  1.00  0.00     0.278 C 
ENDBRANCH  13  18
BRANCH  14  20
ATOM     20  O   UNL     1       2.158  -3.896  18.375  1.00  0.00    -0.504 OA
ATOM     21  H   UNL     1       2.756  -3.848  17.559  1.00  0.00     0.293 HD
ENDBRANCH  14  20
ENDBRANCH   1  12
BRANCH   2  22
ATOM     22  O   UNL     1      -2.697  -0.921  21.135  1.00  0.00    -0.502 OA
ATOM     23  H   UNL     1      -2.620  -1.899  21.383  1.00  0.00     0.293 HD
ENDBRANCH   2  22
BRANCH   6  24
ATOM     24  O   UNL     1      -6.780   2.124  19.574  1.00  0.00    -0.507 OA
ATOM     25  H   UNL     1      -6.379   2.260  20.489  1.00  0.00     0.293 HD
ENDBRANCH   6  24
BRANCH   8  26
ATOM     26  O   UNL     1      -6.562   1.452  14.824  1.00  0.00    -0.508 OA
ATOM     27  H   UNL     1      -6.497   0.762  14.083  1.00  0.00     0.293 HD
ENDBRANCH   8  26
TORSDOF 6
ENDMDL
MODEL 4
REMARK VINA RESULT:    -5.841      3.270      5.535
REMARK INTER + INTRA:          -7.359
REMARK INTER:                  -6.972
REMARK INTRA:                  -0.387
REMARK UNBOUND:                -0.152
REMARK SMILES COc1cc(-c2oc3cc(O)cc(O)c3c(=O)c2O)ccc1O
REMARK SMILES IDX 6 1 18 2 16 3 17 4 15 5 13 6 12 7 10 8 9 9 8 10 7 11 5 12
REMARK SMILES IDX 3 13 22 14 4 15 21 16 20 17 2 18 1 19 23 20 19 22 14 24
REMARK SMILES IDX 11 26
REMARK H PARENT 23 21 19 23 14 25 11 27
REMARK Flexibility Score: inf
ROOT
ATOM      1  C   UNL     1      -0.487  -3.053  24.256  1.00  0.00     0.180 A 
ATOM      2  C   UNL     1      -0.045  -2.498  25.470  1.00  0.00     0.208 A 
ATOM      3  C   UNL     1       1.178  -2.929  26.010  1.00  0.00     0.238 A 
ATOM      4  O   UNL     1       1.595  -2.389  27.068  1.00  0.00    -0.285 OA
ATOM      5  C   UNL     1       1.934  -3.919  25.338  1.00  0.00     0.111 A 
ATOM      6  C   UNL     1       3.168  -4.459  25.814  1.00  0.00     0.134 A 
ATOM      7  C   UNL     1       3.895  -5.338  25.003  1.00  0.00     0.093 A 
ATOM      8  C   UNL     1       3.402  -5.749  23.762  1.00  0.00     0.123 A 
ATOM      9  C   UNL     1       2.171  -5.275  23.315  1.00  0.00     0.094 A 
ATOM     10  C   UNL     1       1.440  -4.368  24.085  1.00  0.00     0.146 A 
ATOM     11  O   UNL     1       0.277  -3.931  23.617  1.00  0.00    -0.452 OA
ENDROOT
BRANCH   1  12
ATOM     12  C   UNL     1      -1.777  -2.667  23.639  1.00  0.00     0.025 A 
ATOM     13  C   UNL     1      -3.120  -1.180  22.236  1.00  0.00     0.161 A 
ATOM     14  C   UNL     1      -4.263  -1.945  22.536  1.00  0.00     0.157 A 
ATOM     15  C   UNL     1      -1.881  -1.545  22.800  1.00  0.00     0.062 A 
ATOM     16  C   UNL     1      -4.163  -3.047  23.388  1.00  0.00     0.051 A 
ATOM     17  C   UNL     1      -2.932  -3.403  23.944  1.00  0.00     0.016 A 
BRANCH  13  18
ATOM     18  O   UNL     1      -3.252  -0.071  21.385  1.00  0.00    -0.493 OA
ATOM     19  C   UNL     1      -3.043  -0.102  19.977  1.00  0.00     0.278 C 
ENDBRANCH  13  18
BRANCH  14  20
ATOM     20  O   UNL     1      -5.508  -1.622  21.997  1.00  0.00    -0.504 OA
ATOM     21  H   UNL     1      -6.328  -2.197  22.147  1.00  0.00     0.293 HD
ENDBRANCH  14  20
ENDBRANCH   1  12
BRANCH   2  22
ATOM     22  O   UNL     1      -0.797  -1.506  26.105  1.00  0.00    -0.502 OA
ATOM     23  H   UNL     1      -1.328  -0.814  25.591  1.00  0.00     0.293 HD
ENDBRANCH   2  22
BRANCH   6  24
ATOM     24  O   UNL     1       3.703  -4.186  27.076  1.00  0.00    -0.507 OA
ATOM     25  H   UNL     1       3.357  -4.571  27.942  1.00  0.00     0.293 HD
ENDBRANCH   6  24
BRANCH   8  26
ATOM     26  O   UNL     1       4.125  -6.637  22.968  1.00  0.00    -0.508 OA
ATOM     27  H   UNL     1       4.301  -7.591  23.265  1.00  0.00     0.293 HD
ENDBRANCH   8  26
TORSDOF 6
ENDMDL
MODEL 5
REMARK VINA RESULT:    -5.706      3.221      5.572
REMARK INTER + INTRA:          -7.192
REMARK INTER:                  -6.810
REMARK INTRA:                  -0.382
REMARK UNBOUND:                -0.152
REMARK SMILES COc1cc(-c2oc3cc(O)cc(O)c3c(=O)c2O)ccc1O
REMARK SMILES IDX 6 1 18 2 16 3 17 4 15 5 13 6 12 7 10 8 9 9 8 10 7 11 5 12
REMARK SMILES IDX 3 13 22 14 4 15 21 16 20 17 2 18 1 19 23 20 19 22 14 24
REMARK SMILES IDX 11 26
REMARK H PARENT 23 21 19 23 14 25 11 27
REMARK Flexibility Score: inf
ROOT
ATOM      1  C   UNL     1      -1.276  -2.453  23.777  1.00  0.00     0.180 A 
ATOM      2  C   UNL     1      -0.895  -1.890  25.009  1.00  0.00     0.208 A 
ATOM      3  C   UNL     1       0.227  -2.408  25.676  1.00  0.00     0.238 A 
ATOM      4  O   UNL     1       0.594  -1.866  26.751  1.00  0.00    -0.285 OA
ATOM      5  C   UNL     1       0.943  -3.491  25.112  1.00  0.00     0.111 A 
ATOM      6  C   UNL     1       2.071  -4.121  25.721  1.00  0.00     0.134 A 
ATOM      7  C   UNL     1       2.782  -5.097  25.013  1.00  0.00     0.093 A 
ATOM      8  C   UNL     1       2.367  -5.513  23.746  1.00  0.00     0.123 A 
ATOM      9  C   UNL     1       1.234  -4.947  23.168  1.00  0.00     0.094 A 
ATOM     10  C   UNL     1       0.525  -3.945  23.834  1.00  0.00     0.146 A 
ATOM     11  O   UNL     1      -0.544  -3.424  23.244  1.00  0.00    -0.452 OA
ENDROOT
BRANCH   1  12
ATOM     12  C   UNL     1      -2.461  -1.977  23.028  1.00  0.00     0.025 A 
ATOM     13  C   UNL     1      -3.492  -0.535  21.342  1.00  0.00     0.161 A 
ATOM     14  C   UNL     1      -4.753  -1.067  21.672  1.00  0.00     0.157 A 
ATOM     15  C   UNL     1      -2.351  -0.991  22.033  1.00  0.00     0.062 A 
ATOM     16  C   UNL     1      -4.864  -2.031  22.677  1.00  0.00     0.051 A 
ATOM     17  C   UNL     1      -3.730  -2.479  23.357  1.00  0.00     0.016 A 
BRANCH  13  18
ATOM     18  O   UNL     1      -3.412   0.441  20.336  1.00  0.00    -0.493 OA
ATOM     19  C   UNL     1      -3.202   0.163  18.955  1.00  0.00     0.278 C 
ENDBRANCH  13  18
BRANCH  14  20
ATOM     20  O   UNL     1      -5.907  -0.647  21.012  1.00  0.00    -0.504 OA
ATOM     21  H   UNL     1      -6.187  -1.028  20.116  1.00  0.00     0.293 HD
ENDBRANCH  14  20
ENDBRANCH   1  12
BRANCH   2  22
ATOM     22  O   UNL     1      -1.604  -0.807  25.536  1.00  0.00    -0.502 OA
ATOM     23  H   UNL     1      -2.533  -0.560  25.219  1.00  0.00     0.293 HD
ENDBRANCH   2  22
BRANCH   6  24
ATOM     24  O   UNL     1       2.512  -3.846  27.019  1.00  0.00    -0.507 OA
ATOM     25  H   UNL     1       3.050  -4.482  27.589  1.00  0.00     0.293 HD
ENDBRANCH   6  24
BRANCH   8  26
ATOM     26  O   UNL     1       3.072  -6.496  23.054  1.00  0.00    -0.508 OA
ATOM     27  H   UNL     1       3.471  -6.317  22.138  1.00  0.00     0.293 HD
ENDBRANCH   8  26
TORSDOF 6
ENDMDL
MODEL 6
REMARK VINA RESULT:    -5.683      1.591      2.886
REMARK INTER + INTRA:          -7.164
REMARK INTER:                  -7.401
REMARK INTRA:                   0.238
REMARK UNBOUND:                -0.152
REMARK SMILES COc1cc(-c2oc3cc(O)cc(O)c3c(=O)c2O)ccc1O
REMARK SMILES IDX 6 1 18 2 16 3 17 4 15 5 13 6 12 7 10 8 9 9 8 10 7 11 5 12
REMARK SMILES IDX 3 13 22 14 4 15 21 16 20 17 2 18 1 19 23 20 19 22 14 24
REMARK SMILES IDX 11 26
REMARK H PARENT 23 21 19 23 14 25 11 27
REMARK Flexibility Score: inf
ROOT
ATOM      1  C   UNL     1       1.506  -3.890  23.045  1.00  0.00     0.180 A 
ATOM      2  C   UNL     1       0.344  -3.173  23.383  1.00  0.00     0.208 A 
ATOM      3  C   UNL     1       0.065  -2.929  24.738  1.00  0.00     0.238 A 
ATOM      4  O   UNL     1      -0.947  -2.240  25.030  1.00  0.00    -0.285 OA
ATOM      5  C   UNL     1       0.941  -3.417  25.736  1.00  0.00     0.111 A 
ATOM      6  C   UNL     1       0.735  -3.263  27.141  1.00  0.00     0.134 A 
ATOM      7  C   UNL     1       1.732  -3.672  28.034  1.00  0.00     0.093 A 
ATOM      8  C   UNL     1       2.899  -4.290  27.577  1.00  0.00     0.123 A 
ATOM      9  C   UNL     1       3.083  -4.498  26.213  1.00  0.00     0.094 A 
ATOM     10  C   UNL     1       2.122  -4.069  25.294  1.00  0.00     0.146 A 
ATOM     11  O   UNL     1       2.341  -4.277  24.002  1.00  0.00    -0.452 OA
ENDROOT
BRANCH   1  12
ATOM     12  C   UNL     1       1.854  -4.208  21.641  1.00  0.00     0.025 A 
ATOM     13  C   UNL     1       1.773  -3.704  19.249  1.00  0.00     0.161 A 
ATOM     14  C   UNL     1       2.492  -4.885  18.986  1.00  0.00     0.157 A 
ATOM     15  C   UNL     1       1.451  -3.377  20.582  1.00  0.00     0.062 A 
ATOM     16  C   UNL     1       2.872  -5.722  20.039  1.00  0.00     0.051 A 
ATOM     17  C   UNL     1       2.550  -5.392  21.356  1.00  0.00     0.016 A 
BRANCH  13  18
ATOM     18  O   UNL     1       1.394  -2.888  18.170  1.00  0.00    -0.493 OA
ATOM     19  C   UNL     1       0.161  -3.000  17.466  1.00  0.00     0.278 C 
ENDBRANCH  13  18
BRANCH  14  20
ATOM     20  O   UNL     1       2.834  -5.245  17.683  1.00  0.00    -0.504 OA
ATOM     21  H   UNL     1       3.741  -5.631  17.449  1.00  0.00     0.293 HD
ENDBRANCH  14  20
ENDBRANCH   1  12
BRANCH   2  22
ATOM     22  O   UNL     1      -0.495  -2.681  22.379  1.00  0.00    -0.502 OA
ATOM     23  H   UNL     1      -0.203  -2.611  21.413  1.00  0.00     0.293 HD
ENDBRANCH   2  22
BRANCH   6  24
ATOM     24  O   UNL     1      -0.434  -2.744  27.706  1.00  0.00    -0.507 OA
ATOM     25  H   UNL     1      -0.614  -1.762  27.851  1.00  0.00     0.293 HD
ENDBRANCH   6  24
BRANCH   8  26
ATOM     26  O   UNL     1       3.880  -4.708  28.474  1.00  0.00    -0.508 OA
ATOM     27  H   UNL     1       3.643  -5.208  29.324  1.00  0.00     0.293 HD
ENDBRANCH   8  26
TORSDOF 6
ENDMDL
MODEL 7
REMARK VINA RESULT:    -5.675      4.188      6.000
REMARK INTER + INTRA:          -7.154
REMARK INTER:                  -7.055
REMARK INTRA:                  -0.099
REMARK UNBOUND:                -0.152
REMARK SMILES COc1cc(-c2oc3cc(O)cc(O)c3c(=O)c2O)ccc1O
REMARK SMILES IDX 6 1 18 2 16 3 17 4 15 5 13 6 12 7 10 8 9 9 8 10 7 11 5 12
REMARK SMILES IDX 3 13 22 14 4 15 21 16 20 17 2 18 1 19 23 20 19 22 14 24
REMARK SMILES IDX 11 26
REMARK H PARENT 23 21 19 23 14 25 11 27
REMARK Flexibility Score: inf
ROOT
ATOM      1  C   UNL     1      -2.463  -1.239  22.952  1.00  0.00     0.180 A 
ATOM      2  C   UNL     1      -2.316  -0.402  24.072  1.00  0.00     0.208 A 
ATOM      3  C   UNL     1      -1.372  -0.741  25.055  1.00  0.00     0.238 A 
ATOM      4  O   UNL     1      -1.207   0.041  26.028  1.00  0.00    -0.285 OA
ATOM      5  C   UNL     1      -0.601  -1.919  24.914  1.00  0.00     0.111 A 
ATOM      6  C   UNL     1       0.356  -2.380  25.869  1.00  0.00     0.134 A 
ATOM      7  C   UNL     1       1.155  -3.489  25.565  1.00  0.00     0.093 A 
ATOM      8  C   UNL     1       0.987  -4.192  24.370  1.00  0.00     0.123 A 
ATOM      9  C   UNL     1       0.016  -3.785  23.458  1.00  0.00     0.094 A 
ATOM     10  C   UNL     1      -0.772  -2.662  23.717  1.00  0.00     0.146 A 
ATOM     11  O   UNL     1      -1.679  -2.302  22.817  1.00  0.00    -0.452 OA
ENDROOT
BRANCH   1  12
ATOM     12  C   UNL     1      -3.455  -0.961  21.887  1.00  0.00     0.025 A 
ATOM     13  C   UNL     1      -4.099   0.123  19.791  1.00  0.00     0.161 A 
ATOM     14  C   UNL     1      -5.391  -0.418  19.919  1.00  0.00     0.157 A 
ATOM     15  C   UNL     1      -3.138  -0.148  20.786  1.00  0.00     0.062 A 
ATOM     16  C   UNL     1      -5.712  -1.209  21.026  1.00  0.00     0.051 A 
ATOM     17  C   UNL     1      -4.755  -1.473  22.008  1.00  0.00     0.016 A 
BRANCH  13  18
ATOM     18  O   UNL     1      -3.808   0.923  18.674  1.00  0.00    -0.493 OA
ATOM     19  C   UNL     1      -4.494   2.125  18.339  1.00  0.00     0.278 C 
ENDBRANCH  13  18
BRANCH  14  20
ATOM     20  O   UNL     1      -6.371  -0.178  18.957  1.00  0.00    -0.504 OA
ATOM     21  H   UNL     1      -7.147  -0.812  18.805  1.00  0.00     0.293 HD
ENDBRANCH  14  20
ENDBRANCH   1  12
BRANCH   2  22
ATOM     22  O   UNL     1      -3.073   0.768  24.180  1.00  0.00    -0.502 OA
ATOM     23  H   UNL     1      -3.852   0.854  24.820  1.00  0.00     0.293 HD
ENDBRANCH   2  22
BRANCH   6  24
ATOM     24  O   UNL     1       0.539  -1.807  27.131  1.00  0.00    -0.507 OA
ATOM     25  H   UNL     1       1.350  -1.275  27.407  1.00  0.00     0.293 HD
ENDBRANCH   6  24
BRANCH   8  26
ATOM     26  O   UNL     1       1.777  -5.304  24.081  1.00  0.00    -0.508 OA
ATOM     27  H   UNL     1       1.481  -6.242  24.327  1.00  0.00     0.293 HD
ENDBRANCH   8  26
TORSDOF 6
ENDMDL
MODEL 8
REMARK VINA RESULT:    -5.630      3.216      5.796
REMARK INTER + INTRA:          -7.098
REMARK INTER:                  -6.892
REMARK INTRA:                  -0.206
REMARK UNBOUND:                -0.152
REMARK SMILES COc1cc(-c2oc3cc(O)cc(O)c3c(=O)c2O)ccc1O
REMARK SMILES IDX 6 1 18 2 16 3 17 4 15 5 13 6 12 7 10 8 9 9 8 10 7 11 5 12
REMARK SMILES IDX 3 13 22 14 4 15 21 16 20 17 2 18 1 19 23 20 19 22 14 24
REMARK SMILES IDX 11 26
REMARK H PARENT 23 21 19 23 14 25 11 27
REMARK Flexibility Score: inf
ROOT
ATOM      1  C   UNL     1      -0.727  -3.004  24.085  1.00  0.00     0.180 A 
ATOM      2  C   UNL     1      -1.450  -2.923  25.288  1.00  0.00     0.208 A 
ATOM      3  C   UNL     1      -2.602  -2.120  25.337  1.00  0.00     0.238 A 
ATOM      4  O   UNL     1      -3.276  -2.095  26.400  1.00  0.00    -0.285 OA
ATOM      5  C   UNL     1      -3.005  -1.398  24.189  1.00  0.00     0.111 A 
ATOM      6  C   UNL     1      -4.133  -0.523  24.136  1.00  0.00     0.134 A 
ATOM      7  C   UNL     1      -4.515   0.039  22.913  1.00  0.00     0.093 A 
ATOM      8  C   UNL     1      -3.772  -0.190  21.752  1.00  0.00     0.123 A 
ATOM      9  C   UNL     1      -2.636  -0.994  21.804  1.00  0.00     0.094 A 
ATOM     10  C   UNL     1      -2.251  -1.598  23.003  1.00  0.00     0.146 A 
ATOM     11  O   UNL     1      -1.168  -2.366  23.008  1.00  0.00    -0.452 OA
ENDROOT
BRANCH   1  12
ATOM     12  C   UNL     1       0.511  -3.808  23.965  1.00  0.00     0.025 A 
ATOM     13  C   UNL     1       2.807  -4.318  24.637  1.00  0.00     0.161 A 
ATOM     14  C   UNL     1       2.859  -5.329  23.660  1.00  0.00     0.157 A 
ATOM     15  C   UNL     1       1.630  -3.556  24.777  1.00  0.00     0.062 A 
ATOM     16  C   UNL     1       1.754  -5.564  22.838  1.00  0.00     0.051 A 
ATOM     17  C   UNL     1       0.590  -4.806  22.981  1.00  0.00     0.016 A 
BRANCH  13  18
ATOM     18  O   UNL     1       3.937  -4.096  25.442  1.00  0.00    -0.493 OA
ATOM     19  C   UNL     1       4.125  -4.648  26.741  1.00  0.00     0.278 C 
ENDBRANCH  13  18
BRANCH  14  20
ATOM     20  O   UNL     1       4.002  -6.109  23.489  1.00  0.00    -0.504 OA
ATOM     21  H   UNL     1       4.615  -6.002  22.690  1.00  0.00     0.293 HD
ENDBRANCH  14  20
ENDBRANCH   1  12
BRANCH   2  22
ATOM     22  O   UNL     1      -1.046  -3.662  26.403  1.00  0.00    -0.502 OA
ATOM     23  H   UNL     1      -1.707  -4.096  27.036  1.00  0.00     0.293 HD
ENDBRANCH   2  22
BRANCH   6  24
ATOM     24  O   UNL     1      -4.887  -0.154  25.254  1.00  0.00    -0.507 OA
ATOM     25  H   UNL     1      -4.651   0.598  25.883  1.00  0.00     0.293 HD
ENDBRANCH   6  24
BRANCH   8  26
ATOM     26  O   UNL     1      -4.150   0.385  20.540  1.00  0.00    -0.508 OA
ATOM     27  H   UNL     1      -5.123   0.575  20.325  1.00  0.00     0.293 HD
ENDBRANCH   8  26
TORSDOF 6
ENDMDL
MODEL 9
REMARK VINA RESULT:    -5.503      2.295      7.030
REMARK INTER + INTRA:          -6.942
REMARK INTER:                  -6.561
REMARK INTRA:                  -0.381
REMARK UNBOUND:                -0.152
REMARK SMILES COc1cc(-c2oc3cc(O)cc(O)c3c(=O)c2O)ccc1O
REMARK SMILES IDX 6 1 18 2 16 3 17 4 15 5 13 6 12 7 10 8 9 9 8 10 7 11 5 12
REMARK SMILES IDX 3 13 22 14 4 15 21 16 20 17 2 18 1 19 23 20 19 22 14 24
REMARK SMILES IDX 11 26
REMARK H PARENT 23 21 19 23 14 25 11 27
REMARK Flexibility Score: inf
ROOT
ATOM      1  C   UNL     1       0.049  -2.998  24.602  1.00  0.00     0.180 A 
ATOM      2  C   UNL     1       0.891  -3.805  25.388  1.00  0.00     0.208 A 
ATOM      3  C   UNL     1       1.883  -4.572  24.755  1.00  0.00     0.238 A 
ATOM      4  O   UNL     1       2.668  -5.250  25.468  1.00  0.00    -0.285 OA
ATOM      5  C   UNL     1       2.010  -4.534  23.346  1.00  0.00     0.111 A 
ATOM      6  C   UNL     1       2.953  -5.301  22.596  1.00  0.00     0.134 A 
ATOM      7  C   UNL     1       3.078  -5.087  21.219  1.00  0.00     0.093 A 
ATOM      8  C   UNL     1       2.248  -4.182  20.552  1.00  0.00     0.123 A 
ATOM      9  C   UNL     1       1.285  -3.472  21.265  1.00  0.00     0.094 A 
ATOM     10  C   UNL     1       1.161  -3.638  22.646  1.00  0.00     0.146 A 
ATOM     11  O   UNL     1       0.237  -2.934  23.289  1.00  0.00    -0.452 OA
ENDROOT
BRANCH   1  12
ATOM     12  C   UNL     1      -1.035  -2.182  25.195  1.00  0.00     0.025 A 
ATOM     13  C   UNL     1      -1.830  -0.135  26.273  1.00  0.00     0.161 A 
ATOM     14  C   UNL     1      -3.119  -0.693  26.362  1.00  0.00     0.157 A 
ATOM     15  C   UNL     1      -0.791  -0.891  25.694  1.00  0.00     0.062 A 
ATOM     16  C   UNL     1      -3.355  -1.986  25.886  1.00  0.00     0.051 A 
ATOM     17  C   UNL     1      -2.322  -2.730  25.314  1.00  0.00     0.016 A 
BRANCH  13  18
ATOM     18  O   UNL     1      -1.619   1.162  26.769  1.00  0.00    -0.493 OA
ATOM     19  C   UNL     1      -0.406   1.895  26.626  1.00  0.00     0.278 C 
ENDBRANCH  13  18
BRANCH  14  20
ATOM     20  O   UNL     1      -4.176   0.020  26.924  1.00  0.00    -0.504 OA
ATOM     21  H   UNL     1      -4.110   1.009  27.134  1.00  0.00     0.293 HD
ENDBRANCH  14  20
ENDBRANCH   1  12
BRANCH   2  22
ATOM     22  O   UNL     1       0.762  -3.810  26.780  1.00  0.00    -0.502 OA
ATOM     23  H   UNL     1       1.384  -3.288  27.384  1.00  0.00     0.293 HD
ENDBRANCH   2  22
BRANCH   6  24
ATOM     24  O   UNL     1       3.765  -6.296  23.149  1.00  0.00    -0.507 OA
ATOM     25  H   UNL     1       4.051  -6.333  24.115  1.00  0.00     0.293 HD
ENDBRANCH   6  24
BRANCH   8  26
ATOM     26  O   UNL     1       2.368  -3.985  19.178  1.00  0.00    -0.508 OA
ATOM     27  H   UNL     1       3.148  -4.368  18.654  1.00  0.00     0.293 HD
ENDBRANCH   8  26
TORSDOF 6
ENDMDL
