MODEL 1
REMARK VINA RESULT:    -3.967      0.000      0.000
REMARK INTER + INTRA:          -4.643
REMARK INTER:                  -4.430
REMARK INTRA:                  -0.213
REMARK UNBOUND:                -0.213
REMARK SMILES CC(C)c1ccc(C(=O)[O-])cc1
REMARK SMILES IDX 7 1 6 2 11 3 5 4 12 5 4 6 8 7 9 8 10 9 2 10 1 11 3 12
REMARK H PARENT
REMARK Flexibility Score: inf
ROOT
ATOM      1  C   UNL     1       8.605   5.710  -8.449  1.00  0.00    -0.003 A 
ATOM      2  C   UNL     1       9.314   5.810  -7.240  1.00  0.00     0.010 A 
ATOM      3  C   UNL     1       7.377   6.381  -8.576  1.00  0.00     0.010 A 
ATOM      4  C   UNL     1       8.805   6.566  -6.179  1.00  0.00     0.004 A 
ATOM      5  C   UNL     1       6.868   7.136  -7.516  1.00  0.00     0.004 A 
ATOM      6  C   UNL     1       7.576   7.238  -6.307  1.00  0.00    -0.045 A 
ENDROOT
BRANCH   1   7
ATOM      7  C   UNL     1       9.148   4.908  -9.567  1.00  0.00     0.071 C 
ATOM      8  O   UNL     1      10.250   5.214 -10.099  1.00  0.00    -0.545 OA
ATOM      9  O   UNL     1       8.452   3.806 -10.048  1.00  0.00    -0.545 OA
ENDBRANCH   1   7
BRANCH   6  10
ATOM     10  C   UNL     1       7.012   8.063  -5.164  1.00  0.00     0.013 C 
ATOM     11  C   UNL     1       7.845   7.884  -3.890  1.00  0.00     0.012 C 
ATOM     12  C   UNL     1       5.538   7.723  -4.913  1.00  0.00     0.012 C 
ENDBRANCH   6  10
TORSDOF 2
ENDMDL
MODEL 2
REMARK VINA RESULT:    -3.939     22.439     23.307
REMARK INTER + INTRA:          -4.613
REMARK INTER:                  -4.407
REMARK INTRA:                  -0.206
REMARK UNBOUND:                -0.213
REMARK SMILES CC(C)c1ccc(C(=O)[O-])cc1
REMARK SMILES IDX 7 1 6 2 11 3 5 4 12 5 4 6 8 7 9 8 10 9 2 10 1 11 3 12
REMARK H PARENT
REMARK Flexibility Score: inf
ROOT
ATOM      1  C   UNL     1      -0.372  -9.398   7.318  1.00  0.00    -0.003 A 
ATOM      2  C   UNL     1       0.082  -9.383   5.989  1.00  0.00     0.010 A 
ATOM      3  C   UNL     1      -1.724  -9.686   7.574  1.00  0.00     0.010 A 
ATOM      4  C   UNL     1      -0.798  -9.652   4.936  1.00  0.00     0.004 A 
ATOM      5  C   UNL     1      -2.603  -9.954   6.522  1.00  0.00     0.004 A 
ATOM      6  C   UNL     1      -2.151  -9.941   5.191  1.00  0.00    -0.045 A 
ENDROOT
BRANCH   1   7
ATOM      7  C   UNL     1       0.563  -9.112   8.429  1.00  0.00     0.071 C 
ATOM      8  O   UNL     1       1.369  -9.995   8.830  1.00  0.00    -0.545 OA
ATOM      9  O   UNL     1       0.567  -7.867   9.045  1.00  0.00    -0.545 OA
ENDBRANCH   1   7
BRANCH   6  10
ATOM     10  C   UNL     1      -3.117 -10.234   4.058  1.00  0.00     0.013 C 
ATOM     11  C   UNL     1      -2.369 -10.467   2.740  1.00  0.00     0.012 C 
ATOM     12  C   UNL     1      -4.156  -9.116   3.914  1.00  0.00     0.012 C 
ENDBRANCH   6  10
TORSDOF 2
ENDMDL
MODEL 3
REMARK VINA RESULT:    -3.921     22.421     23.503
REMARK INTER + INTRA:          -4.593
REMARK INTER:                  -4.378
REMARK INTRA:                  -0.215
REMARK UNBOUND:                -0.213
REMARK SMILES CC(C)c1ccc(C(=O)[O-])cc1
REMARK SMILES IDX 7 1 6 2 11 3 5 4 12 5 4 6 8 7 9 8 10 9 2 10 1 11 3 12
REMARK H PARENT
REMARK Flexibility Score: inf
ROOT
ATOM      1  C   UNL     1      -2.184 -10.000   5.067  1.00  0.00    -0.003 A 
ATOM      2  C   UNL     1      -2.786 -10.480   6.243  1.00  0.00     0.010 A 
ATOM      3  C   UNL     1      -0.843  -9.582   5.111  1.00  0.00     0.010 A 
ATOM      4  C   UNL     1      -2.061 -10.542   7.437  1.00  0.00     0.004 A 
ATOM      5  C   UNL     1      -0.118  -9.644   6.304  1.00  0.00     0.004 A 
ATOM      6  C   UNL     1      -0.719 -10.125   7.480  1.00  0.00    -0.045 A 
ENDROOT
BRANCH   1   7
ATOM      7  C   UNL     1      -2.955  -9.936   3.806  1.00  0.00     0.071 C 
ATOM      8  O   UNL     1      -4.033  -9.284   3.747  1.00  0.00    -0.545 OA
ATOM      9  O   UNL     1      -2.503 -10.594   2.669  1.00  0.00    -0.545 OA
ENDBRANCH   1   7
BRANCH   6  10
ATOM     10  C   UNL     1       0.079 -10.186   8.770  1.00  0.00     0.013 C 
ATOM     11  C   UNL     1      -0.845 -10.208   9.992  1.00  0.00     0.012 C 
ATOM     12  C   UNL     1       1.081  -9.029   8.856  1.00  0.00     0.012 C 
ENDBRANCH   6  10
TORSDOF 2
ENDMDL
MODEL 4
REMARK VINA RESULT:    -3.912     22.410     23.479
REMARK INTER + INTRA:          -4.582
REMARK INTER:                  -4.366
REMARK INTRA:                  -0.216
REMARK UNBOUND:                -0.213
REMARK SMILES CC(C)c1ccc(C(=O)[O-])cc1
REMARK SMILES IDX 7 1 6 2 11 3 5 4 12 5 4 6 8 7 9 8 10 9 2 10 1 11 3 12
REMARK H PARENT
REMARK Flexibility Score: inf
ROOT
ATOM      1  C   UNL     1      -2.193 -10.015   5.057  1.00  0.00    -0.003 A 
ATOM      2  C   UNL     1      -0.847  -9.611   5.071  1.00  0.00     0.010 A 
ATOM      3  C   UNL     1      -2.783 -10.460   6.252  1.00  0.00     0.010 A 
ATOM      4  C   UNL     1      -0.107  -9.651   6.256  1.00  0.00     0.004 A 
ATOM      5  C   UNL     1      -2.043 -10.500   7.437  1.00  0.00     0.004 A 
ATOM      6  C   UNL     1      -0.697 -10.095   7.453  1.00  0.00    -0.045 A 
ENDROOT
BRANCH   1   7
ATOM      7  C   UNL     1      -2.972  -9.971   3.800  1.00  0.00     0.071 C 
ATOM      8  O   UNL     1      -4.100  -9.409   3.765  1.00  0.00    -0.545 OA
ATOM      9  O   UNL     1      -2.471 -10.548   2.639  1.00  0.00    -0.545 OA
ENDBRANCH   1   7
BRANCH   6  10
ATOM     10  C   UNL     1       0.095 -10.144   8.746  1.00  0.00     0.013 C 
ATOM     11  C   UNL     1      -0.835 -10.214   9.962  1.00  0.00     0.012 C 
ATOM     12  C   UNL     1       1.054  -8.952   8.852  1.00  0.00     0.012 C 
ENDBRANCH   6  10
TORSDOF 2
ENDMDL
MODEL 5
REMARK VINA RESULT:    -3.787     22.054     22.752
REMARK INTER + INTRA:          -4.443
REMARK INTER:                  -4.231
REMARK INTRA:                  -0.212
REMARK UNBOUND:                -0.213
REMARK SMILES CC(C)c1ccc(C(=O)[O-])cc1
REMARK SMILES IDX 7 1 6 2 11 3 5 4 12 5 4 6 8 7 9 8 10 9 2 10 1 11 3 12
REMARK H PARENT
REMARK Flexibility Score: inf
ROOT
ATOM      1  C   UNL     1      -4.586  -9.305   2.691  1.00  0.00    -0.003 A 
ATOM      2  C   UNL     1      -4.740  -8.595   3.894  1.00  0.00     0.010 A 
ATOM      3  C   UNL     1      -3.495 -10.180   2.551  1.00  0.00     0.010 A 
ATOM      4  C   UNL     1      -3.822  -8.758   4.937  1.00  0.00     0.004 A 
ATOM      5  C   UNL     1      -2.578 -10.343   3.593  1.00  0.00     0.004 A 
ATOM      6  C   UNL     1      -2.731  -9.635   4.797  1.00  0.00    -0.045 A 
ENDROOT
BRANCH   1   7
ATOM      7  C   UNL     1      -5.559  -9.128   1.591  1.00  0.00     0.071 C 
ATOM      8  O   UNL     1      -6.794  -9.279   1.798  1.00  0.00    -0.545 OA
ATOM      9  O   UNL     1      -5.127  -8.794   0.314  1.00  0.00    -0.545 OA
ENDBRANCH   1   7
BRANCH   6  10
ATOM     10  C   UNL     1      -1.728  -9.821   5.921  1.00  0.00     0.013 C 
ATOM     11  C   UNL     1      -2.104  -8.977   7.144  1.00  0.00     0.012 C 
ATOM     12  C   UNL     1      -0.304  -9.504   5.448  1.00  0.00     0.012 C 
ENDBRANCH   6  10
TORSDOF 2
ENDMDL
MODEL 6
REMARK VINA RESULT:    -3.787     22.679     23.912
REMARK INTER + INTRA:          -4.443
REMARK INTER:                  -4.234
REMARK INTRA:                  -0.209
REMARK UNBOUND:                -0.213
REMARK SMILES CC(C)c1ccc(C(=O)[O-])cc1
REMARK SMILES IDX 7 1 6 2 11 3 5 4 12 5 4 6 8 7 9 8 10 9 2 10 1 11 3 12
REMARK H PARENT
REMARK Flexibility Score: inf
ROOT
ATOM      1  C   UNL     1      -3.459  -8.715   5.640  1.00  0.00    -0.003 A 
ATOM      2  C   UNL     1      -2.946  -8.094   6.791  1.00  0.00     0.010 A 
ATOM      3  C   UNL     1      -3.245 -10.092   5.456  1.00  0.00     0.010 A 
ATOM      4  C   UNL     1      -2.236  -8.835   7.740  1.00  0.00     0.004 A 
ATOM      5  C   UNL     1      -2.535 -10.833   6.405  1.00  0.00     0.004 A 
ATOM      6  C   UNL     1      -2.023 -10.214   7.557  1.00  0.00    -0.045 A 
ENDROOT
BRANCH   1   7
ATOM      7  C   UNL     1      -4.210  -7.926   4.638  1.00  0.00     0.071 C 
ATOM      8  O   UNL     1      -4.609  -8.463   3.570  1.00  0.00    -0.545 OA
ATOM      9  O   UNL     1      -4.486  -6.583   4.861  1.00  0.00    -0.545 OA
ENDBRANCH   1   7
BRANCH   6  10
ATOM     10  C   UNL     1      -1.253 -11.030   8.579  1.00  0.00     0.013 C 
ATOM     11  C   UNL     1      -1.765 -10.762   9.999  1.00  0.00     0.012 C 
ATOM     12  C   UNL     1       0.254 -10.766   8.476  1.00  0.00     0.012 C 
ENDBRANCH   6  10
TORSDOF 2
ENDMDL
MODEL 7
REMARK VINA RESULT:    -3.743     16.206     17.430
REMARK INTER + INTRA:          -4.393
REMARK INTER:                  -4.174
REMARK INTRA:                  -0.219
REMARK UNBOUND:                -0.213
REMARK SMILES CC(C)c1ccc(C(=O)[O-])cc1
REMARK SMILES IDX 7 1 6 2 11 3 5 4 12 5 4 6 8 7 9 8 10 9 2 10 1 11 3 12
REMARK H PARENT
REMARK Flexibility Score: inf
ROOT
ATOM      1  C   UNL     1      -6.864   0.709  -9.336  1.00  0.00    -0.003 A 
ATOM      2  C   UNL     1      -8.154   0.184  -9.150  1.00  0.00     0.010 A 
ATOM      3  C   UNL     1      -5.804  -0.171  -9.615  1.00  0.00     0.010 A 
ATOM      4  C   UNL     1      -8.380  -1.193  -9.243  1.00  0.00     0.004 A 
ATOM      5  C   UNL     1      -6.030  -1.546  -9.708  1.00  0.00     0.004 A 
ATOM      6  C   UNL     1      -7.320  -2.073  -9.523  1.00  0.00    -0.045 A 
ENDROOT
BRANCH   1   7
ATOM      7  C   UNL     1      -6.631   2.167  -9.236  1.00  0.00     0.071 C 
ATOM      8  O   UNL     1      -7.558   2.982  -9.490  1.00  0.00    -0.545 OA
ATOM      9  O   UNL     1      -5.386   2.658  -8.862  1.00  0.00    -0.545 OA
ENDBRANCH   1   7
BRANCH   6  10
ATOM     10  C   UNL     1      -7.551  -3.570  -9.626  1.00  0.00     0.013 C 
ATOM     11  C   UNL     1      -8.887  -3.968  -8.990  1.00  0.00     0.012 C 
ATOM     12  C   UNL     1      -6.388  -4.353  -9.005  1.00  0.00     0.012 C 
ENDBRANCH   6  10
TORSDOF 2
ENDMDL
MODEL 8
REMARK VINA RESULT:    -3.730      3.869      5.456
REMARK INTER + INTRA:          -4.378
REMARK INTER:                  -4.157
REMARK INTRA:                  -0.221
REMARK UNBOUND:                -0.213
REMARK SMILES CC(C)c1ccc(C(=O)[O-])cc1
REMARK SMILES IDX 7 1 6 2 11 3 5 4 12 5 4 6 8 7 9 8 10 9 2 10 1 11 3 12
REMARK H PARENT
REMARK Flexibility Score: inf
ROOT
ATOM      1  C   UNL     1       5.588   8.233  -5.028  1.00  0.00    -0.003 A 
ATOM      2  C   UNL     1       6.728   8.139  -4.212  1.00  0.00     0.010 A 
ATOM      3  C   UNL     1       5.656   7.764  -6.351  1.00  0.00     0.010 A 
ATOM      4  C   UNL     1       7.912   7.585  -4.709  1.00  0.00     0.004 A 
ATOM      5  C   UNL     1       6.839   7.210  -6.847  1.00  0.00     0.004 A 
ATOM      6  C   UNL     1       7.980   7.114  -6.032  1.00  0.00    -0.045 A 
ENDROOT
BRANCH   1   7
ATOM      7  C   UNL     1       4.338   8.821  -4.497  1.00  0.00     0.071 C 
ATOM      8  O   UNL     1       4.241   9.125  -3.278  1.00  0.00    -0.545 OA
ATOM      9  O   UNL     1       3.253   9.045  -5.336  1.00  0.00    -0.545 OA
ENDBRANCH   1   7
BRANCH   6  10
ATOM     10  C   UNL     1       9.259   6.511  -6.584  1.00  0.00     0.013 C 
ATOM     11  C   UNL     1       8.969   5.604  -7.785  1.00  0.00     0.012 C 
ATOM     12  C   UNL     1      10.030   5.756  -5.494  1.00  0.00     0.012 C 
ENDBRANCH   6  10
TORSDOF 2
ENDMDL
MODEL 9
REMARK VINA RESULT:    -3.705      3.863      5.272
REMARK INTER + INTRA:          -4.351
REMARK INTER:                  -4.130
REMARK INTRA:                  -0.221
REMARK UNBOUND:                -0.213
REMARK SMILES CC(C)c1ccc(C(=O)[O-])cc1
REMARK SMILES IDX 7 1 6 2 11 3 5 4 12 5 4 6 8 7 9 8 10 9 2 10 1 11 3 12
REMARK H PARENT
REMARK Flexibility Score: inf
ROOT
ATOM      1  C   UNL     1       5.360   8.198  -5.112  1.00  0.00    -0.003 A 
ATOM      2  C   UNL     1       5.743   8.259  -3.762  1.00  0.00     0.010 A 
ATOM      3  C   UNL     1       6.308   7.804  -6.072  1.00  0.00     0.010 A 
ATOM      4  C   UNL     1       7.047   7.932  -3.379  1.00  0.00     0.004 A 
ATOM      5  C   UNL     1       7.611   7.477  -5.690  1.00  0.00     0.004 A 
ATOM      6  C   UNL     1       7.996   7.536  -4.339  1.00  0.00    -0.045 A 
ENDROOT
BRANCH   1   7
ATOM      7  C   UNL     1       3.979   8.546  -5.513  1.00  0.00     0.071 C 
ATOM      8  O   UNL     1       3.204   9.125  -4.703  1.00  0.00    -0.545 OA
ATOM      9  O   UNL     1       3.515   8.240  -6.786  1.00  0.00    -0.545 OA
ENDBRANCH   1   7
BRANCH   6  10
ATOM     10  C   UNL     1       9.415   7.179  -3.937  1.00  0.00     0.013 C 
ATOM     11  C   UNL     1       9.969   6.047  -4.811  1.00  0.00     0.012 C 
ATOM     12  C   UNL     1       9.493   6.817  -2.449  1.00  0.00     0.012 C 
ENDBRANCH   6  10
TORSDOF 2
ENDMDL
