MODEL 1
REMARK VINA RESULT:    -3.807      0.000      0.000
REMARK INTER + INTRA:          -5.824
REMARK INTER:                  -5.809
REMARK INTRA:                  -0.015
REMARK UNBOUND:                -0.015
REMARK SMILES CC1=CCC[C@@H](C)C(=O)C[C@@H](C(C)C)C(=O)C1
REMARK SMILES IDX 8 1 9 2 6 3 7 4 5 5 4 6 3 7 2 8 1 9 10 11 11 12 15 13 16 14
REMARK SMILES IDX 17 15 12 17 13 18 14 19
REMARK H PARENT
REMARK Flexibility Score: 70.00
ROOT
ATOM      1  C   UNL     1      17.941  28.664  29.799  1.00  0.00     0.136 C 
ATOM      2  O   UNL     1      17.583  27.806  30.593  1.00  0.00    -0.299 OA
ENDROOT
BRANCH   1   3
ATOM      3  C   UNL     1      18.873  28.285  28.670  1.00  0.00     0.053 C 
ATOM      4  C   UNL     1      18.218  27.251  27.747  1.00  0.00     0.016 C 
BRANCH   3   5
ATOM      5  C   UNL     1      20.208  27.756  29.262  1.00  0.00     0.015 C 
BRANCH   5   6
ATOM      6  C   UNL     1      21.406  28.707  29.103  1.00  0.00     0.028 C 
BRANCH   6   7
ATOM      7  C   UNL     1      22.004  29.232  30.391  1.00  0.00    -0.028 C 
ATOM      8  C   UNL     1      21.795  30.452  30.941  1.00  0.00    -0.070 CG0
ATOM      9  C   UNL     1      22.371  30.703  32.313  1.00  0.00     0.039 C 
ATOM     10  G   UNL     1      20.988  31.553  30.273  1.00  0.00     0.000 G0
ENDBRANCH   6   7
ENDBRANCH   5   6
ENDBRANCH   3   5
ENDBRANCH   1   3
BRANCH   1  11
ATOM     11  C   UNL     1      17.438  30.080  29.975  1.00  0.00     0.087 C 
BRANCH  11  12
ATOM     12  C   UNL     1      18.421  31.190  29.500  1.00  0.00     0.066 C 
BRANCH  12  13
ATOM     13  C   UNL     1      19.483  31.528  30.548  1.00  0.00     0.140 C 
ATOM     14  O   UNL     1      19.116  31.817  31.678  1.00  0.00    -0.299 OA
BRANCH  13  15
ATOM     15  C   UNL     1      20.979  31.553  30.267  1.00  0.00     0.106 CG0
ATOM     16  G   UNL     1      21.786  30.454  30.940  1.00  0.00     0.000 G0
ENDBRANCH  13  15
ENDBRANCH  12  13
BRANCH  12  17
ATOM     17  C   UNL     1      17.635  32.452  29.013  1.00  0.00    -0.006 C 
ATOM     18  C   UNL     1      18.360  33.750  29.391  1.00  0.00     0.008 C 
ATOM     19  C   UNL     1      16.176  32.521  29.503  1.00  0.00     0.008 C 
ENDBRANCH  12  17
ENDBRANCH  11  12
ENDBRANCH   1  11
TORSDOF 1
ENDMDL
MODEL 2
REMARK VINA RESULT:    -3.789      2.763      4.142
REMARK INTER + INTRA:          -5.797
REMARK INTER:                  -5.767
REMARK INTRA:                  -0.031
REMARK UNBOUND:                -0.015
REMARK SMILES CC1=CCC[C@@H](C)C(=O)C[C@@H](C(C)C)C(=O)C1
REMARK SMILES IDX 8 1 9 2 6 3 7 4 5 5 4 6 3 7 2 8 1 9 10 11 11 12 15 13 16 14
REMARK SMILES IDX 17 15 12 17 13 18 14 19
REMARK H PARENT
REMARK Flexibility Score: 70.00
ROOT
ATOM      1  C   UNL     1      19.443  28.805  29.892  1.00  0.00     0.136 C 
ATOM      2  O   UNL     1      19.851  28.905  31.040  1.00  0.00    -0.299 OA
ENDROOT
BRANCH   1   3
ATOM      3  C   UNL     1      19.511  27.465  29.195  1.00  0.00     0.053 C 
ATOM      4  C   UNL     1      20.958  26.967  29.110  1.00  0.00     0.016 C 
BRANCH   3   5
ATOM      5  C   UNL     1      18.866  27.585  27.787  1.00  0.00     0.015 C 
BRANCH   5   6
ATOM      6  C   UNL     1      17.435  27.033  27.684  1.00  0.00     0.028 C 
BRANCH   6   7
ATOM      7  C   UNL     1      16.785  26.639  28.993  1.00  0.00    -0.028 C 
ATOM      8  C   UNL     1      16.059  27.440  29.809  1.00  0.00    -0.070 CG0
ATOM      9  C   UNL     1      15.373  26.792  30.986  1.00  0.00     0.039 C 
ATOM     10  G   UNL     1      15.871  28.931  29.582  1.00  0.00     0.000 G0
ENDBRANCH   6   7
ENDBRANCH   5   6
ENDBRANCH   3   5
ENDBRANCH   1   3
BRANCH   1  11
ATOM     11  C   UNL     1      18.884  30.032  29.205  1.00  0.00     0.087 C 
BRANCH  11  12
ATOM     12  C   UNL     1      17.783  30.788  30.006  1.00  0.00     0.066 C 
BRANCH  12  13
ATOM     13  C   UNL     1      16.670  29.862  30.499  1.00  0.00     0.140 C 
ATOM     14  O   UNL     1      16.425  29.830  31.697  1.00  0.00    -0.299 OA
BRANCH  13  15
ATOM     15  C   UNL     1      15.856  28.950  29.591  1.00  0.00     0.106 CG0
ATOM     16  G   UNL     1      16.064  27.460  29.809  1.00  0.00     0.000 G0
ENDBRANCH  13  15
ENDBRANCH  12  13
BRANCH  12  17
ATOM     17  C   UNL     1      17.235  32.000  29.182  1.00  0.00    -0.006 C 
ATOM     18  C   UNL     1      18.294  33.099  29.023  1.00  0.00     0.008 C 
ATOM     19  C   UNL     1      15.939  32.617  29.744  1.00  0.00     0.008 C 
ENDBRANCH  12  17
ENDBRANCH  11  12
ENDBRANCH   1  11
TORSDOF 1
ENDMDL
MODEL 3
REMARK VINA RESULT:    -3.768      1.645      2.351
REMARK INTER + INTRA:          -5.765
REMARK INTER:                  -5.486
REMARK INTRA:                  -0.279
REMARK UNBOUND:                -0.015
REMARK SMILES CC1=CCC[C@@H](C)C(=O)C[C@@H](C(C)C)C(=O)C1
REMARK SMILES IDX 8 1 9 2 6 3 7 4 5 5 4 6 3 7 2 8 1 9 10 11 11 12 15 13 16 14
REMARK SMILES IDX 17 15 12 17 13 18 14 19
REMARK H PARENT
REMARK Flexibility Score: 70.00
ROOT
ATOM      1  C   UNL     1      17.608  28.121  29.446  1.00  0.00     0.136 C 
ATOM      2  O   UNL     1      17.128  27.000  29.530  1.00  0.00    -0.299 OA
ENDROOT
BRANCH   1   3
ATOM      3  C   UNL     1      18.674  28.394  28.409  1.00  0.00     0.053 C 
ATOM      4  C   UNL     1      18.409  27.592  27.130  1.00  0.00     0.016 C 
BRANCH   3   5
ATOM      5  C   UNL     1      20.069  28.066  29.008  1.00  0.00     0.015 C 
BRANCH   5   6
ATOM      6  C   UNL     1      20.539  29.029  30.110  1.00  0.00     0.028 C 
BRANCH   6   7
ATOM      7  C   UNL     1      20.876  30.434  29.658  1.00  0.00    -0.028 C 
ATOM      8  C   UNL     1      20.189  31.564  29.951  1.00  0.00    -0.070 CG0
ATOM      9  C   UNL     1      20.798  32.877  29.523  1.00  0.00     0.039 C 
ATOM     10  G   UNL     1      18.874  31.580  30.714  1.00  0.00     0.000 G0
ENDBRANCH   6   7
ENDBRANCH   5   6
ENDBRANCH   3   5
ENDBRANCH   1   3
BRANCH   1  11
ATOM     11  C   UNL     1      17.116  29.200  30.386  1.00  0.00     0.087 C 
BRANCH  11  12
ATOM     12  C   UNL     1      16.636  30.508  29.691  1.00  0.00     0.066 C 
BRANCH  12  13
ATOM     13  C   UNL     1      17.602  31.677  29.899  1.00  0.00     0.140 C 
ATOM     14  O   UNL     1      17.356  32.741  29.348  1.00  0.00    -0.299 OA
BRANCH  13  15
ATOM     15  C   UNL     1      18.873  31.593  30.732  1.00  0.00     0.106 CG0
ATOM     16  G   UNL     1      20.170  31.570  29.940  1.00  0.00     0.000 G0
ENDBRANCH  13  15
ENDBRANCH  12  13
BRANCH  12  17
ATOM     17  C   UNL     1      15.172  30.855  30.118  1.00  0.00    -0.006 C 
ATOM     18  C   UNL     1      15.061  31.067  31.634  1.00  0.00     0.008 C 
ATOM     19  C   UNL     1      14.116  29.826  29.668  1.00  0.00     0.008 C 
ENDBRANCH  12  17
ENDBRANCH  11  12
ENDBRANCH   1  11
TORSDOF 1
ENDMDL
MODEL 4
REMARK VINA RESULT:    -3.734      2.386      4.609
REMARK INTER + INTRA:          -5.714
REMARK INTER:                  -5.507
REMARK INTRA:                  -0.207
REMARK UNBOUND:                -0.015
REMARK SMILES CC1=CCC[C@@H](C)C(=O)C[C@@H](C(C)C)C(=O)C1
REMARK SMILES IDX 8 1 9 2 6 3 7 4 5 5 4 6 3 7 2 8 1 9 10 11 11 12 15 13 16 14
REMARK SMILES IDX 17 15 12 17 13 18 14 19
REMARK H PARENT
REMARK Flexibility Score: 70.00
ROOT
ATOM      1  C   UNL     1      16.137  28.588  30.642  1.00  0.00     0.136 C 
ATOM      2  O   UNL     1      16.762  28.214  31.624  1.00  0.00    -0.299 OA
ENDROOT
BRANCH   1   3
ATOM      3  C   UNL     1      14.687  28.987  30.795  1.00  0.00     0.053 C 
ATOM      4  C   UNL     1      13.960  28.929  29.447  1.00  0.00     0.016 C 
BRANCH   3   5
ATOM      5  C   UNL     1      14.609  30.406  31.423  1.00  0.00     0.015 C 
BRANCH   5   6
ATOM      6  C   UNL     1      15.198  31.529  30.553  1.00  0.00     0.028 C 
BRANCH   6   7
ATOM      7  C   UNL     1      16.462  32.174  31.079  1.00  0.00    -0.028 C 
ATOM      8  C   UNL     1      17.680  32.166  30.488  1.00  0.00    -0.070 CG0
ATOM      9  C   UNL     1      18.762  33.010  31.115  1.00  0.00     0.039 C 
ATOM     10  G   UNL     1      17.999  31.391  29.220  1.00  0.00     0.000 G0
ENDBRANCH   6   7
ENDBRANCH   5   6
ENDBRANCH   3   5
ENDBRANCH   1   3
BRANCH   1  11
ATOM     11  C   UNL     1      16.840  28.639  29.303  1.00  0.00     0.087 C 
BRANCH  11  12
ATOM     12  C   UNL     1      18.393  28.726  29.380  1.00  0.00     0.066 C 
BRANCH  12  13
ATOM     13  C   UNL     1      18.905  30.168  29.370  1.00  0.00     0.140 C 
ATOM     14  O   UNL     1      20.103  30.363  29.519  1.00  0.00    -0.299 OA
BRANCH  13  15
ATOM     15  C   UNL     1      18.009  31.389  29.209  1.00  0.00     0.106 CG0
ATOM     16  G   UNL     1      17.689  32.135  30.494  1.00  0.00     0.000 G0
ENDBRANCH  13  15
ENDBRANCH  12  13
BRANCH  12  17
ATOM     17  C   UNL     1      19.051  27.847  28.266  1.00  0.00    -0.006 C 
ATOM     18  C   UNL     1      17.996  27.132  27.413  1.00  0.00     0.008 C 
ATOM     19  C   UNL     1      20.070  26.816  28.789  1.00  0.00     0.008 C 
ENDBRANCH  12  17
ENDBRANCH  11  12
ENDBRANCH   1  11
TORSDOF 1
ENDMDL
MODEL 5
REMARK VINA RESULT:    -3.705      1.774      2.633
REMARK INTER + INTRA:          -5.669
REMARK INTER:                  -5.158
REMARK INTRA:                  -0.511
REMARK UNBOUND:                -0.015
REMARK SMILES CC1=CCC[C@@H](C)C(=O)C[C@@H](C(C)C)C(=O)C1
REMARK SMILES IDX 8 1 9 2 6 3 7 4 5 5 4 6 3 7 2 8 1 9 10 11 11 12 15 13 16 14
REMARK SMILES IDX 17 15 12 17 13 18 14 19
REMARK H PARENT
REMARK Flexibility Score: 70.00
ROOT
ATOM      1  C   UNL     1      16.676  28.833  31.112  1.00  0.00     0.136 C 
ATOM      2  O   UNL     1      16.382  27.997  31.956  1.00  0.00    -0.299 OA
ENDROOT
BRANCH   1   3
ATOM      3  C   UNL     1      16.178  28.661  29.695  1.00  0.00     0.053 C 
ATOM      4  C   UNL     1      14.665  28.410  29.675  1.00  0.00     0.016 C 
BRANCH   3   5
ATOM      5  C   UNL     1      16.956  27.500  29.015  1.00  0.00     0.015 C 
BRANCH   5   6
ATOM      6  C   UNL     1      18.058  27.947  28.040  1.00  0.00     0.028 C 
BRANCH   6   7
ATOM      7  C   UNL     1      19.480  27.696  28.494  1.00  0.00    -0.028 C 
ATOM      8  C   UNL     1      20.379  28.629  28.888  1.00  0.00    -0.070 CG0
ATOM      9  C   UNL     1      21.690  28.135  29.451  1.00  0.00     0.039 C 
ATOM     10  G   UNL     1      20.125  30.126  28.830  1.00  0.00     0.000 G0
ENDBRANCH   6   7
ENDBRANCH   5   6
ENDBRANCH   3   5
ENDBRANCH   1   3
BRANCH   1  11
ATOM     11  C   UNL     1      17.530  30.013  31.519  1.00  0.00     0.087 C 
BRANCH  11  12
ATOM     12  C   UNL     1      18.029  30.900  30.339  1.00  0.00     0.066 C 
BRANCH  12  13
ATOM     13  C   UNL     1      19.531  30.758  30.087  1.00  0.00     0.140 C 
ATOM     14  O   UNL     1      20.307  31.185  30.930  1.00  0.00    -0.299 OA
BRANCH  13  15
ATOM     15  C   UNL     1      20.129  30.137  28.832  1.00  0.00     0.106 CG0
ATOM     16  G   UNL     1      20.374  28.639  28.901  1.00  0.00     0.000 G0
ENDBRANCH  13  15
ENDBRANCH  12  13
BRANCH  12  17
ATOM     17  C   UNL     1      17.592  32.388  30.544  1.00  0.00    -0.006 C 
ATOM     18  C   UNL     1      16.913  32.595  31.904  1.00  0.00     0.008 C 
ATOM     19  C   UNL     1      16.683  32.943  29.430  1.00  0.00     0.008 C 
ENDBRANCH  12  17
ENDBRANCH  11  12
ENDBRANCH   1  11
TORSDOF 1
ENDMDL
MODEL 6
REMARK VINA RESULT:    -3.694      2.203      4.220
REMARK INTER + INTRA:          -5.652
REMARK INTER:                  -5.141
REMARK INTRA:                  -0.511
REMARK UNBOUND:                -0.015
REMARK SMILES CC1=CCC[C@@H](C)C(=O)C[C@@H](C(C)C)C(=O)C1
REMARK SMILES IDX 8 1 9 2 6 3 7 4 5 5 4 6 3 7 2 8 1 9 10 11 11 12 15 13 16 14
REMARK SMILES IDX 17 15 12 17 13 18 14 19
REMARK H PARENT
REMARK Flexibility Score: 70.00
ROOT
ATOM      1  C   UNL     1      20.088  30.544  29.971  1.00  0.00     0.136 C 
ATOM      2  O   UNL     1      20.599  31.655  29.987  1.00  0.00    -0.299 OA
ENDROOT
BRANCH   1   3
ATOM      3  C   UNL     1      20.742  29.417  30.739  1.00  0.00     0.053 C 
ATOM      4  C   UNL     1      20.942  29.804  32.209  1.00  0.00     0.016 C 
BRANCH   3   5
ATOM      5  C   UNL     1      22.089  29.048  30.059  1.00  0.00     0.015 C 
BRANCH   5   6
ATOM      6  C   UNL     1      21.954  28.243  28.756  1.00  0.00     0.028 C 
BRANCH   6   7
ATOM      7  C   UNL     1      21.273  26.897  28.881  1.00  0.00    -0.028 C 
ATOM      8  C   UNL     1      20.040  26.570  28.428  1.00  0.00    -0.070 CG0
ATOM      9  C   UNL     1      19.627  25.122  28.523  1.00  0.00     0.039 C 
ATOM     10  G   UNL     1      19.078  27.566  27.801  1.00  0.00     0.000 G0
ENDBRANCH   6   7
ENDBRANCH   5   6
ENDBRANCH   3   5
ENDBRANCH   1   3
BRANCH   1  11
ATOM     11  C   UNL     1      18.815  30.335  29.181  1.00  0.00     0.087 C 
BRANCH  11  12
ATOM     12  C   UNL     1      17.920  29.160  29.675  1.00  0.00     0.066 C 
BRANCH  12  13
ATOM     13  C   UNL     1      17.892  27.985  28.696  1.00  0.00     0.140 C 
ATOM     14  O   UNL     1      16.874  27.312  28.621  1.00  0.00    -0.299 OA
BRANCH  13  15
ATOM     15  C   UNL     1      19.068  27.580  27.818  1.00  0.00     0.106 CG0
ATOM     16  G   UNL     1      20.018  26.564  28.431  1.00  0.00     0.000 G0
ENDBRANCH  13  15
ENDBRANCH  12  13
BRANCH  12  17
ATOM     17  C   UNL     1      16.488  29.672  30.040  1.00  0.00    -0.006 C 
ATOM     18  C   UNL     1      16.345  31.179  29.786  1.00  0.00     0.008 C 
ATOM     19  C   UNL     1      16.045  29.353  31.481  1.00  0.00     0.008 C 
ENDBRANCH  12  17
ENDBRANCH  11  12
ENDBRANCH   1  11
TORSDOF 1
ENDMDL
MODEL 7
REMARK VINA RESULT:    -3.646      2.049      4.216
REMARK INTER + INTRA:          -5.579
REMARK INTER:                  -5.054
REMARK INTRA:                  -0.525
REMARK UNBOUND:                -0.015
REMARK SMILES CC1=CCC[C@@H](C)C(=O)C[C@@H](C(C)C)C(=O)C1
REMARK SMILES IDX 8 1 9 2 6 3 7 4 5 5 4 6 3 7 2 8 1 9 10 11 11 12 15 13 16 14
REMARK SMILES IDX 17 15 12 17 13 18 14 19
REMARK H PARENT
REMARK Flexibility Score: 70.00
ROOT
ATOM      1  C   UNL     1      17.818  29.354  29.556  1.00  0.00     0.136 C 
ATOM      2  O   UNL     1      17.470  30.511  29.370  1.00  0.00    -0.299 OA
ENDROOT
BRANCH   1   3
ATOM      3  C   UNL     1      17.281  28.602  30.753  1.00  0.00     0.053 C 
ATOM      4  C   UNL     1      15.794  28.278  30.572  1.00  0.00     0.016 C 
BRANCH   3   5
ATOM      5  C   UNL     1      17.529  29.440  32.038  1.00  0.00     0.015 C 
BRANCH   5   6
ATOM      6  C   UNL     1      18.966  29.378  32.581  1.00  0.00     0.028 C 
BRANCH   6   7
ATOM      7  C   UNL     1      19.911  30.443  32.065  1.00  0.00    -0.028 C 
ATOM      8  C   UNL     1      21.007  30.248  31.294  1.00  0.00    -0.070 CG0
ATOM      9  C   UNL     1      21.712  31.473  30.766  1.00  0.00     0.039 C 
ATOM     10  G   UNL     1      21.533  28.876  30.906  1.00  0.00     0.000 G0
ENDBRANCH   6   7
ENDBRANCH   5   6
ENDBRANCH   3   5
ENDBRANCH   1   3
BRANCH   1  11
ATOM     11  C   UNL     1      18.777  28.712  28.577  1.00  0.00     0.087 C 
BRANCH  11  12
ATOM     12  C   UNL     1      19.792  27.715  29.210  1.00  0.00     0.066 C 
BRANCH  12  13
ATOM     13  C   UNL     1      21.142  28.364  29.522  1.00  0.00     0.140 C 
ATOM     14  O   UNL     1      21.960  28.473  28.619  1.00  0.00    -0.299 OA
BRANCH  13  15
ATOM     15  C   UNL     1      21.548  28.865  30.901  1.00  0.00     0.106 CG0
ATOM     16  G   UNL     1      21.004  30.232  31.283  1.00  0.00     0.000 G0
ENDBRANCH  13  15
ENDBRANCH  12  13
BRANCH  12  17
ATOM     17  C   UNL     1      19.932  26.433  28.325  1.00  0.00    -0.006 C 
ATOM     18  C   UNL     1      18.567  25.937  27.829  1.00  0.00     0.008 C 
ATOM     19  C   UNL     1      20.682  25.270  29.004  1.00  0.00     0.008 C 
ENDBRANCH  12  17
ENDBRANCH  11  12
ENDBRANCH   1  11
TORSDOF 1
ENDMDL
MODEL 8
REMARK VINA RESULT:    -3.611      1.536      4.016
REMARK INTER + INTRA:          -5.525
REMARK INTER:                  -5.294
REMARK INTRA:                  -0.232
REMARK UNBOUND:                -0.015
REMARK SMILES CC1=CCC[C@@H](C)C(=O)C[C@@H](C(C)C)C(=O)C1
REMARK SMILES IDX 8 1 9 2 6 3 7 4 5 5 4 6 3 7 2 8 1 9 10 11 11 12 15 13 16 14
REMARK SMILES IDX 17 15 12 17 13 18 14 19
REMARK H PARENT
REMARK Flexibility Score: 70.00
ROOT
ATOM      1  C   UNL     1      17.173  29.978  29.563  1.00  0.00     0.136 C 
ATOM      2  O   UNL     1      16.430  29.034  29.337  1.00  0.00    -0.299 OA
ENDROOT
BRANCH   1   3
ATOM      3  C   UNL     1      16.622  31.207  30.251  1.00  0.00     0.053 C 
ATOM      4  C   UNL     1      15.189  30.961  30.739  1.00  0.00     0.016 C 
BRANCH   3   5
ATOM      5  C   UNL     1      16.691  32.414  29.277  1.00  0.00     0.015 C 
BRANCH   5   6
ATOM      6  C   UNL     1      17.956  33.278  29.410  1.00  0.00     0.028 C 
BRANCH   6   7
ATOM      7  C   UNL     1      18.543  33.377  30.802  1.00  0.00    -0.028 C 
ATOM      8  C   UNL     1      19.681  32.791  31.243  1.00  0.00    -0.070 CG0
ATOM      9  C   UNL     1      20.159  33.157  32.627  1.00  0.00     0.039 C 
ATOM     10  G   UNL     1      20.514  31.829  30.412  1.00  0.00     0.000 G0
ENDBRANCH   6   7
ENDBRANCH   5   6
ENDBRANCH   3   5
ENDBRANCH   1   3
BRANCH   1  11
ATOM     11  C   UNL     1      18.624  29.883  29.146  1.00  0.00     0.087 C 
BRANCH  11  12
ATOM     12  C   UNL     1      19.581  29.295  30.224  1.00  0.00     0.066 C 
BRANCH  12  13
ATOM     13  C   UNL     1      20.478  30.358  30.862  1.00  0.00     0.140 C 
ATOM     14  O   UNL     1      21.192  30.033  31.800  1.00  0.00    -0.299 OA
BRANCH  13  15
ATOM     15  C   UNL     1      20.523  31.813  30.417  1.00  0.00     0.106 CG0
ATOM     16  G   UNL     1      19.689  32.774  31.249  1.00  0.00     0.000 G0
ENDBRANCH  13  15
ENDBRANCH  12  13
BRANCH  12  17
ATOM     17  C   UNL     1      20.395  28.092  29.644  1.00  0.00    -0.006 C 
ATOM     18  C   UNL     1      21.464  28.560  28.649  1.00  0.00     0.008 C 
ATOM     19  C   UNL     1      19.531  26.997  28.988  1.00  0.00     0.008 C 
ENDBRANCH  12  17
ENDBRANCH  11  12
ENDBRANCH   1  11
TORSDOF 1
ENDMDL
MODEL 9
REMARK VINA RESULT:    -3.499      2.196      4.571
REMARK INTER + INTRA:          -5.355
REMARK INTER:                  -5.363
REMARK INTRA:                   0.009
REMARK UNBOUND:                -0.015
REMARK SMILES CC1=CCC[C@@H](C)C(=O)C[C@@H](C(C)C)C(=O)C1
REMARK SMILES IDX 8 1 9 2 6 3 7 4 5 5 4 6 3 7 2 8 1 9 10 11 11 12 15 13 16 14
REMARK SMILES IDX 17 15 12 17 13 18 14 19
REMARK H PARENT
REMARK Flexibility Score: 70.00
ROOT
ATOM      1  C   UNL     1      21.971  27.240  28.587  1.00  0.00     0.136 C 
ATOM      2  O   UNL     1      22.900  26.525  28.235  1.00  0.00    -0.299 OA
ENDROOT
BRANCH   1   3
ATOM      3  C   UNL     1      20.650  26.607  28.960  1.00  0.00     0.053 C 
ATOM      4  C   UNL     1      20.587  25.153  28.478  1.00  0.00     0.016 C 
BRANCH   3   5
ATOM      5  C   UNL     1      19.490  27.454  28.369  1.00  0.00     0.015 C 
BRANCH   5   6
ATOM      6  C   UNL     1      18.411  27.866  29.383  1.00  0.00     0.028 C 
BRANCH   6   7
ATOM      7  C   UNL     1      18.093  29.345  29.442  1.00  0.00    -0.028 C 
ATOM      8  C   UNL     1      18.788  30.296  30.111  1.00  0.00    -0.070 CG0
ATOM      9  C   UNL     1      18.380  31.733  29.899  1.00  0.00     0.039 C 
ATOM     10  G   UNL     1      19.967  29.996  31.022  1.00  0.00     0.000 G0
ENDBRANCH   6   7
ENDBRANCH   5   6
ENDBRANCH   3   5
ENDBRANCH   1   3
BRANCH   1  11
ATOM     11  C   UNL     1      22.179  28.738  28.636  1.00  0.00     0.087 C 
BRANCH  11  12
ATOM     12  C   UNL     1      22.407  29.323  30.061  1.00  0.00     0.066 C 
BRANCH  12  13
ATOM     13  C   UNL     1      21.348  30.355  30.452  1.00  0.00     0.140 C 
ATOM     14  O   UNL     1      21.613  31.542  30.319  1.00  0.00    -0.299 OA
BRANCH  13  15
ATOM     15  C   UNL     1      19.982  30.001  31.025  1.00  0.00     0.106 CG0
ATOM     16  G   UNL     1      18.800  30.285  30.113  1.00  0.00     0.000 G0
ENDBRANCH  13  15
ENDBRANCH  12  13
BRANCH  12  17
ATOM     17  C   UNL     1      23.864  29.872  30.207  1.00  0.00    -0.006 C 
ATOM     18  C   UNL     1      24.889  28.935  29.554  1.00  0.00     0.008 C 
ATOM     19  C   UNL     1      24.292  30.164  31.658  1.00  0.00     0.008 C 
ENDBRANCH  12  17
ENDBRANCH  11  12
ENDBRANCH   1  11
TORSDOF 1
ENDMDL
