MODEL 1
REMARK VINA RESULT:    -3.876      0.000      0.000
REMARK INTER + INTRA:         -12.802
REMARK INTER:                  -8.862
REMARK INTRA:                  -3.941
REMARK UNBOUND:                -3.941
REMARK SMILES CCCCCCCCCCCCCCCCCCCCCCCC(=O)[O-]
REMARK SMILES IDX 13 1 14 2 15 3 16 4 17 5 18 6 19 7 20 8 21 9 22 10 23 11
REMARK SMILES IDX 24 12 25 13 26 14 12 15 11 16 10 17 9 18 8 19 7 20 6 21 5 22
REMARK SMILES IDX 4 23 3 24 2 25 1 26
REMARK H PARENT
REMARK Flexibility Score: inf
ROOT
ATOM      1  C   UNL     1       0.969   6.790  -1.956  1.00  0.00     0.000 C 
ENDROOT
BRANCH   1   2
ATOM      2  C   UNL     1       0.474   8.177  -2.415  1.00  0.00     0.000 C 
BRANCH   2   3
ATOM      3  C   UNL     1      -0.655   8.783  -1.559  1.00  0.00     0.000 C 
BRANCH   3   4
ATOM      4  C   UNL     1      -0.184   9.575  -0.329  1.00  0.00     0.000 C 
BRANCH   4   5
ATOM      5  C   UNL     1      -0.582   8.902   1.000  1.00  0.00     0.000 C 
BRANCH   5   6
ATOM      6  C   UNL     1       0.646   8.569   1.868  1.00  0.00     0.000 C 
BRANCH   6   7
ATOM      7  C   UNL     1       0.440   7.295   2.724  1.00  0.00     0.000 C 
BRANCH   7   8
ATOM      8  C   UNL     1       0.596   5.987   1.927  1.00  0.00     0.000 C 
BRANCH   8   9
ATOM      9  C   UNL     1      -0.134   4.796   2.581  1.00  0.00     0.000 C 
BRANCH   9  10
ATOM     10  C   UNL     1       0.841   3.773   3.193  1.00  0.00     0.006 C 
BRANCH  10  11
ATOM     11  C   UNL     1       2.290   4.273   3.294  1.00  0.00     0.053 C 
BRANCH  11  12
ATOM     12  C   UNL     1       2.587   4.897   4.623  1.00  0.00     0.041 C 
ATOM     13  O   UNL     1       1.855   4.645   5.618  1.00  0.00    -0.550 OA
ATOM     14  O   UNL     1       3.671   5.756   4.762  1.00  0.00    -0.550 OA
ENDBRANCH  11  12
ENDBRANCH  10  11
ENDBRANCH   9  10
ENDBRANCH   8   9
ENDBRANCH   7   8
ENDBRANCH   6   7
ENDBRANCH   5   6
ENDBRANCH   4   5
ENDBRANCH   3   4
ENDBRANCH   2   3
ENDBRANCH   1   2
BRANCH   1  15
ATOM     15  C   UNL     1       1.741   5.984  -3.014  1.00  0.00     0.000 C 
BRANCH  15  16
ATOM     16  C   UNL     1       2.922   6.765  -3.623  1.00  0.00     0.000 C 
BRANCH  16  17
ATOM     17  C   UNL     1       4.278   6.323  -3.041  1.00  0.00     0.000 C 
BRANCH  17  18
ATOM     18  C   UNL     1       5.040   7.425  -2.280  1.00  0.00    -0.000 C 
BRANCH  18  19
ATOM     19  C   UNL     1       4.174   8.665  -1.963  1.00  0.00    -0.000 C 
BRANCH  19  20
ATOM     20  C   UNL     1       3.728   8.739  -0.488  1.00  0.00    -0.000 C 
BRANCH  20  21
ATOM     21  C   UNL     1       3.759   7.381   0.238  1.00  0.00    -0.000 C 
BRANCH  21  22
ATOM     22  C   UNL     1       4.162   7.508   1.715  1.00  0.00    -0.000 C 
BRANCH  22  23
ATOM     23  C   UNL     1       5.492   6.793   1.985  1.00  0.00    -0.000 C 
BRANCH  23  24
ATOM     24  C   UNL     1       5.386   5.297   1.654  1.00  0.00    -0.000 C 
BRANCH  24  25
ATOM     25  C   UNL     1       6.386   4.856   0.576  1.00  0.00    -0.003 C 
ATOM     26  C   UNL     1       7.373   5.960   0.201  1.00  0.00     0.004 C 
ENDBRANCH  24  25
ENDBRANCH  23  24
ENDBRANCH  22  23
ENDBRANCH  21  22
ENDBRANCH  20  21
ENDBRANCH  19  20
ENDBRANCH  18  19
ENDBRANCH  17  18
ENDBRANCH  16  17
ENDBRANCH  15  16
ENDBRANCH   1  15
TORSDOF 22
ENDMDL
MODEL 2
REMARK VINA RESULT:    -3.852      1.455      2.406
REMARK INTER + INTRA:         -12.748
REMARK INTER:                  -8.996
REMARK INTRA:                  -3.752
REMARK UNBOUND:                -3.941
REMARK SMILES CCCCCCCCCCCCCCCCCCCCCCCC(=O)[O-]
REMARK SMILES IDX 13 1 14 2 15 3 16 4 17 5 18 6 19 7 20 8 21 9 22 10 23 11
REMARK SMILES IDX 24 12 25 13 26 14 12 15 11 16 10 17 9 18 8 19 7 20 6 21 5 22
REMARK SMILES IDX 4 23 3 24 2 25 1 26
REMARK H PARENT
REMARK Flexibility Score: inf
ROOT
ATOM      1  C   UNL     1       0.410   7.438  -1.670  1.00  0.00     0.000 C 
ENDROOT
BRANCH   1   2
ATOM      2  C   UNL     1      -0.816   8.369  -1.743  1.00  0.00     0.000 C 
BRANCH   2   3
ATOM      3  C   UNL     1      -0.871   9.466  -0.662  1.00  0.00     0.000 C 
BRANCH   3   4
ATOM      4  C   UNL     1      -0.887   8.950   0.785  1.00  0.00     0.000 C 
BRANCH   4   5
ATOM      5  C   UNL     1       0.369   9.360   1.579  1.00  0.00     0.000 C 
BRANCH   5   6
ATOM      6  C   UNL     1       0.706   8.349   2.691  1.00  0.00     0.000 C 
BRANCH   6   7
ATOM      7  C   UNL     1      -0.120   7.044   2.578  1.00  0.00     0.000 C 
BRANCH   7   8
ATOM      8  C   UNL     1       0.640   5.893   1.893  1.00  0.00     0.000 C 
BRANCH   8   9
ATOM      9  C   UNL     1       1.040   4.772   2.873  1.00  0.00     0.000 C 
BRANCH   9  10
ATOM     10  C   UNL     1      -0.164   3.919   3.315  1.00  0.00     0.006 C 
BRANCH  10  11
ATOM     11  C   UNL     1       0.043   3.190   4.651  1.00  0.00     0.053 C 
BRANCH  11  12
ATOM     12  C   UNL     1       0.086   4.133   5.815  1.00  0.00     0.041 C 
ATOM     13  O   UNL     1      -0.986   4.524   6.351  1.00  0.00    -0.550 OA
ATOM     14  O   UNL     1       1.308   4.579   6.305  1.00  0.00    -0.550 OA
ENDBRANCH  11  12
ENDBRANCH  10  11
ENDBRANCH   9  10
ENDBRANCH   8   9
ENDBRANCH   7   8
ENDBRANCH   6   7
ENDBRANCH   5   6
ENDBRANCH   4   5
ENDBRANCH   3   4
ENDBRANCH   2   3
ENDBRANCH   1   2
BRANCH   1  15
ATOM     15  C   UNL     1       1.353   7.494  -2.884  1.00  0.00     0.000 C 
BRANCH  15  16
ATOM     16  C   UNL     1       1.543   8.920  -3.433  1.00  0.00     0.000 C 
BRANCH  16  17
ATOM     17  C   UNL     1       2.885   9.541  -3.002  1.00  0.00     0.000 C 
BRANCH  17  18
ATOM     18  C   UNL     1       2.933  10.015  -1.538  1.00  0.00    -0.000 C 
BRANCH  18  19
ATOM     19  C   UNL     1       3.934   9.223  -0.667  1.00  0.00    -0.000 C 
BRANCH  19  20
ATOM     20  C   UNL     1       3.258   8.182   0.249  1.00  0.00    -0.000 C 
BRANCH  20  21
ATOM     21  C   UNL     1       3.942   6.802   0.230  1.00  0.00    -0.000 C 
BRANCH  21  22
ATOM     22  C   UNL     1       5.473   6.901   0.136  1.00  0.00    -0.000 C 
BRANCH  22  23
ATOM     23  C   UNL     1       5.992   6.204  -1.129  1.00  0.00    -0.000 C 
BRANCH  23  24
ATOM     24  C   UNL     1       4.829   5.794  -2.043  1.00  0.00    -0.000 C 
BRANCH  24  25
ATOM     25  C   UNL     1       4.875   6.492  -3.410  1.00  0.00    -0.003 C 
ATOM     26  C   UNL     1       5.928   7.596  -3.472  1.00  0.00     0.004 C 
ENDBRANCH  24  25
ENDBRANCH  23  24
ENDBRANCH  22  23
ENDBRANCH  21  22
ENDBRANCH  20  21
ENDBRANCH  19  20
ENDBRANCH  18  19
ENDBRANCH  17  18
ENDBRANCH  16  17
ENDBRANCH  15  16
ENDBRANCH   1  15
TORSDOF 22
ENDMDL
MODEL 3
REMARK VINA RESULT:    -3.852      1.645      2.234
REMARK INTER + INTRA:         -12.747
REMARK INTER:                  -8.705
REMARK INTRA:                  -4.042
REMARK UNBOUND:                -3.941
REMARK SMILES CCCCCCCCCCCCCCCCCCCCCCCC(=O)[O-]
REMARK SMILES IDX 13 1 14 2 15 3 16 4 17 5 18 6 19 7 20 8 21 9 22 10 23 11
REMARK SMILES IDX 24 12 25 13 26 14 12 15 11 16 10 17 9 18 8 19 7 20 6 21 5 22
REMARK SMILES IDX 4 23 3 24 2 25 1 26
REMARK H PARENT
REMARK Flexibility Score: inf
ROOT
ATOM      1  C   UNL     1       1.738   6.016  -2.659  1.00  0.00     0.000 C 
ENDROOT
BRANCH   1   2
ATOM      2  C   UNL     1       0.831   7.093  -2.029  1.00  0.00     0.000 C 
BRANCH   2   3
ATOM      3  C   UNL     1       0.987   8.507  -2.622  1.00  0.00     0.000 C 
BRANCH   3   4
ATOM      4  C   UNL     1      -0.136   9.490  -2.259  1.00  0.00     0.000 C 
BRANCH   4   5
ATOM      5  C   UNL     1      -1.016   8.988  -1.097  1.00  0.00     0.000 C 
BRANCH   5   6
ATOM      6  C   UNL     1      -0.505   9.482   0.270  1.00  0.00     0.000 C 
BRANCH   6   7
ATOM      7  C   UNL     1      -0.297   8.326   1.279  1.00  0.00     0.000 C 
BRANCH   7   8
ATOM      8  C   UNL     1      -1.109   8.490   2.577  1.00  0.00     0.000 C 
BRANCH   8   9
ATOM      9  C   UNL     1      -0.735   7.452   3.654  1.00  0.00     0.000 C 
BRANCH   9  10
ATOM     10  C   UNL     1      -0.040   6.213   3.060  1.00  0.00     0.006 C 
BRANCH  10  11
ATOM     11  C   UNL     1       0.278   5.120   4.092  1.00  0.00     0.053 C 
BRANCH  11  12
ATOM     12  C   UNL     1      -0.177   3.764   3.645  1.00  0.00     0.041 C 
ATOM     13  O   UNL     1      -0.231   2.811   4.470  1.00  0.00    -0.550 OA
ATOM     14  O   UNL     1      -0.539   3.553   2.320  1.00  0.00    -0.550 OA
ENDBRANCH  11  12
ENDBRANCH  10  11
ENDBRANCH   9  10
ENDBRANCH   8   9
ENDBRANCH   7   8
ENDBRANCH   6   7
ENDBRANCH   5   6
ENDBRANCH   4   5
ENDBRANCH   3   4
ENDBRANCH   2   3
ENDBRANCH   1   2
BRANCH   1  15
ATOM     15  C   UNL     1       2.521   6.461  -3.905  1.00  0.00     0.000 C 
BRANCH  15  16
ATOM     16  C   UNL     1       4.039   6.228  -3.777  1.00  0.00     0.000 C 
BRANCH  16  17
ATOM     17  C   UNL     1       4.518   6.281  -2.314  1.00  0.00     0.000 C 
BRANCH  17  18
ATOM     18  C   UNL     1       5.430   7.477  -1.980  1.00  0.00    -0.000 C 
BRANCH  18  19
ATOM     19  C   UNL     1       4.677   8.825  -1.911  1.00  0.00    -0.000 C 
BRANCH  19  20
ATOM     20  C   UNL     1       4.527   9.369  -0.476  1.00  0.00    -0.000 C 
BRANCH  20  21
ATOM     21  C   UNL     1       3.160   9.061   0.165  1.00  0.00    -0.000 C 
BRANCH  21  22
ATOM     22  C   UNL     1       3.287   8.292   1.489  1.00  0.00    -0.000 C 
BRANCH  22  23
ATOM     23  C   UNL     1       3.104   6.784   1.268  1.00  0.00    -0.000 C 
BRANCH  23  24
ATOM     24  C   UNL     1       4.457   6.059   1.300  1.00  0.00    -0.000 C 
BRANCH  24  25
ATOM     25  C   UNL     1       5.467   6.730   2.242  1.00  0.00    -0.003 C 
ATOM     26  C   UNL     1       6.784   7.070   1.548  1.00  0.00     0.004 C 
ENDBRANCH  24  25
ENDBRANCH  23  24
ENDBRANCH  22  23
ENDBRANCH  21  22
ENDBRANCH  20  21
ENDBRANCH  19  20
ENDBRANCH  18  19
ENDBRANCH  17  18
ENDBRANCH  16  17
ENDBRANCH  15  16
ENDBRANCH   1  15
TORSDOF 22
ENDMDL
MODEL 4
REMARK VINA RESULT:    -3.808      1.604      2.780
REMARK INTER + INTRA:         -12.646
REMARK INTER:                  -8.699
REMARK INTRA:                  -3.947
REMARK UNBOUND:                -3.941
REMARK SMILES CCCCCCCCCCCCCCCCCCCCCCCC(=O)[O-]
REMARK SMILES IDX 13 1 14 2 15 3 16 4 17 5 18 6 19 7 20 8 21 9 22 10 23 11
REMARK SMILES IDX 24 12 25 13 26 14 12 15 11 16 10 17 9 18 8 19 7 20 6 21 5 22
REMARK SMILES IDX 4 23 3 24 2 25 1 26
REMARK H PARENT
REMARK Flexibility Score: inf
ROOT
ATOM      1  C   UNL     1       2.165   6.464  -3.513  1.00  0.00     0.000 C 
ENDROOT
BRANCH   1   2
ATOM      2  C   UNL     1       1.749   7.885  -3.943  1.00  0.00     0.000 C 
BRANCH   2   3
ATOM      3  C   UNL     1       1.370   8.833  -2.789  1.00  0.00     0.000 C 
BRANCH   3   4
ATOM      4  C   UNL     1       0.037   8.511  -2.095  1.00  0.00     0.000 C 
BRANCH   4   5
ATOM      5  C   UNL     1       0.226   7.787  -0.748  1.00  0.00     0.000 C 
BRANCH   5   6
ATOM      6  C   UNL     1       1.422   8.346   0.046  1.00  0.00     0.000 C 
BRANCH   6   7
ATOM      7  C   UNL     1       1.027   8.805   1.471  1.00  0.00     0.000 C 
BRANCH   7   8
ATOM      8  C   UNL     1      -0.445   8.521   1.821  1.00  0.00     0.000 C 
BRANCH   8   9
ATOM      9  C   UNL     1      -0.602   7.568   3.024  1.00  0.00     0.000 C 
BRANCH   9  10
ATOM     10  C   UNL     1       0.465   6.458   3.038  1.00  0.00     0.006 C 
BRANCH  10  11
ATOM     11  C   UNL     1       0.094   5.222   2.205  1.00  0.00     0.053 C 
BRANCH  11  12
ATOM     12  C   UNL     1      -0.368   4.079   3.057  1.00  0.00     0.041 C 
ATOM     13  O   UNL     1      -0.536   2.937   2.547  1.00  0.00    -0.550 OA
ATOM     14  O   UNL     1      -0.615   4.274   4.411  1.00  0.00    -0.550 OA
ENDBRANCH  11  12
ENDBRANCH  10  11
ENDBRANCH   9  10
ENDBRANCH   8   9
ENDBRANCH   7   8
ENDBRANCH   6   7
ENDBRANCH   5   6
ENDBRANCH   4   5
ENDBRANCH   3   4
ENDBRANCH   2   3
ENDBRANCH   1   2
BRANCH   1  15
ATOM     15  C   UNL     1       3.390   6.389  -2.587  1.00  0.00     0.000 C 
BRANCH  15  16
ATOM     16  C   UNL     1       4.718   6.253  -3.356  1.00  0.00     0.000 C 
BRANCH  16  17
ATOM     17  C   UNL     1       5.521   7.567  -3.376  1.00  0.00     0.000 C 
BRANCH  17  18
ATOM     18  C   UNL     1       5.097   8.596  -2.312  1.00  0.00    -0.000 C 
BRANCH  18  19
ATOM     19  C   UNL     1       6.183   8.860  -1.244  1.00  0.00    -0.000 C 
BRANCH  19  20
ATOM     20  C   UNL     1       5.947   8.090   0.071  1.00  0.00    -0.000 C 
BRANCH  20  21
ATOM     21  C   UNL     1       6.539   6.668   0.072  1.00  0.00    -0.000 C 
BRANCH  21  22
ATOM     22  C   UNL     1       5.502   5.595   0.439  1.00  0.00    -0.000 C 
BRANCH  22  23
ATOM     23  C   UNL     1       4.216   6.236   0.977  1.00  0.00    -0.000 C 
BRANCH  23  24
ATOM     24  C   UNL     1       4.080   6.002   2.489  1.00  0.00    -0.000 C 
BRANCH  24  25
ATOM     25  C   UNL     1       4.000   4.512   2.853  1.00  0.00    -0.003 C 
ATOM     26  C   UNL     1       3.190   4.258   4.122  1.00  0.00     0.004 C 
ENDBRANCH  24  25
ENDBRANCH  23  24
ENDBRANCH  22  23
ENDBRANCH  21  22
ENDBRANCH  20  21
ENDBRANCH  19  20
ENDBRANCH  18  19
ENDBRANCH  17  18
ENDBRANCH  16  17
ENDBRANCH  15  16
ENDBRANCH   1  15
TORSDOF 22
ENDMDL
MODEL 5
REMARK VINA RESULT:    -3.777      1.852      5.645
REMARK INTER + INTRA:         -12.575
REMARK INTER:                  -8.043
REMARK INTRA:                  -4.532
REMARK UNBOUND:                -3.941
REMARK SMILES CCCCCCCCCCCCCCCCCCCCCCCC(=O)[O-]
REMARK SMILES IDX 13 1 14 2 15 3 16 4 17 5 18 6 19 7 20 8 21 9 22 10 23 11
REMARK SMILES IDX 24 12 25 13 26 14 12 15 11 16 10 17 9 18 8 19 7 20 6 21 5 22
REMARK SMILES IDX 4 23 3 24 2 25 1 26
REMARK H PARENT
REMARK Flexibility Score: inf
ROOT
ATOM      1  C   UNL     1       0.986   7.207  -0.301  1.00  0.00     0.000 C 
ENDROOT
BRANCH   1   2
ATOM      2  C   UNL     1       0.425   7.089  -1.733  1.00  0.00     0.000 C 
BRANCH   2   3
ATOM      3  C   UNL     1       0.719   8.292  -2.651  1.00  0.00     0.000 C 
BRANCH   3   4
ATOM      4  C   UNL     1       1.799   8.047  -3.715  1.00  0.00     0.000 C 
BRANCH   4   5
ATOM      5  C   UNL     1       2.435   6.647  -3.608  1.00  0.00     0.000 C 
BRANCH   5   6
ATOM      6  C   UNL     1       3.826   6.693  -2.946  1.00  0.00     0.000 C 
BRANCH   6   7
ATOM      7  C   UNL     1       4.219   8.119  -2.488  1.00  0.00     0.000 C 
BRANCH   7   8
ATOM      8  C   UNL     1       5.238   8.135  -1.335  1.00  0.00     0.000 C 
BRANCH   8   9
ATOM      9  C   UNL     1       6.503   7.308  -1.642  1.00  0.00     0.000 C 
BRANCH   9  10
ATOM     10  C   UNL     1       6.930   6.423  -0.457  1.00  0.00     0.006 C 
BRANCH  10  11
ATOM     11  C   UNL     1       5.854   5.426  -0.002  1.00  0.00     0.053 C 
BRANCH  11  12
ATOM     12  C   UNL     1       6.293   4.612   1.178  1.00  0.00     0.041 C 
ATOM     13  O   UNL     1       6.278   3.353   1.118  1.00  0.00    -0.550 OA
ATOM     14  O   UNL     1       6.716   5.245   2.341  1.00  0.00    -0.550 OA
ENDBRANCH  11  12
ENDBRANCH  10  11
ENDBRANCH   9  10
ENDBRANCH   8   9
ENDBRANCH   7   8
ENDBRANCH   6   7
ENDBRANCH   5   6
ENDBRANCH   4   5
ENDBRANCH   3   4
ENDBRANCH   2   3
ENDBRANCH   1   2
BRANCH   1  15
ATOM     15  C   UNL     1       1.342   8.633   0.151  1.00  0.00     0.000 C 
BRANCH  15  16
ATOM     16  C   UNL     1       2.551   8.679   1.105  1.00  0.00     0.000 C 
BRANCH  16  17
ATOM     17  C   UNL     1       3.067   7.273   1.464  1.00  0.00     0.000 C 
BRANCH  17  18
ATOM     18  C   UNL     1       3.854   7.195   2.786  1.00  0.00    -0.000 C 
BRANCH  18  19
ATOM     19  C   UNL     1       3.403   6.034   3.702  1.00  0.00    -0.000 C 
BRANCH  19  20
ATOM     20  C   UNL     1       2.972   4.774   2.925  1.00  0.00    -0.000 C 
BRANCH  20  21
ATOM     21  C   UNL     1       1.627   4.186   3.392  1.00  0.00    -0.000 C 
BRANCH  21  22
ATOM     22  C   UNL     1       0.437   4.702   2.569  1.00  0.00    -0.000 C 
BRANCH  22  23
ATOM     23  C   UNL     1      -0.483   5.582   3.425  1.00  0.00    -0.000 C 
BRANCH  23  24
ATOM     24  C   UNL     1      -0.193   7.071   3.188  1.00  0.00    -0.000 C 
BRANCH  24  25
ATOM     25  C   UNL     1       0.103   7.831   4.488  1.00  0.00    -0.003 C 
ATOM     26  C   UNL     1       0.703   9.214   4.239  1.00  0.00     0.004 C 
ENDBRANCH  24  25
ENDBRANCH  23  24
ENDBRANCH  22  23
ENDBRANCH  21  22
ENDBRANCH  20  21
ENDBRANCH  19  20
ENDBRANCH  18  19
ENDBRANCH  17  18
ENDBRANCH  16  17
ENDBRANCH  15  16
ENDBRANCH   1  15
TORSDOF 22
ENDMDL
MODEL 6
REMARK VINA RESULT:    -3.759      1.468      4.427
REMARK INTER + INTRA:         -12.535
REMARK INTER:                  -8.112
REMARK INTRA:                  -4.423
REMARK UNBOUND:                -3.941
REMARK SMILES CCCCCCCCCCCCCCCCCCCCCCCC(=O)[O-]
REMARK SMILES IDX 13 1 14 2 15 3 16 4 17 5 18 6 19 7 20 8 21 9 22 10 23 11
REMARK SMILES IDX 24 12 25 13 26 14 12 15 11 16 10 17 9 18 8 19 7 20 6 21 5 22
REMARK SMILES IDX 4 23 3 24 2 25 1 26
REMARK H PARENT
REMARK Flexibility Score: inf
ROOT
ATOM      1  C   UNL     1       5.030   5.256   2.990  1.00  0.00     0.000 C 
ENDROOT
BRANCH   1   2
ATOM      2  C   UNL     1       3.768   5.994   2.500  1.00  0.00     0.000 C 
BRANCH   2   3
ATOM      3  C   UNL     1       3.926   7.518   2.331  1.00  0.00     0.000 C 
BRANCH   3   4
ATOM      4  C   UNL     1       3.090   8.135   1.199  1.00  0.00     0.000 C 
BRANCH   4   5
ATOM      5  C   UNL     1       2.351   7.076   0.358  1.00  0.00     0.000 C 
BRANCH   5   6
ATOM      6  C   UNL     1       0.822   7.259   0.410  1.00  0.00     0.000 C 
BRANCH   6   7
ATOM      7  C   UNL     1       0.376   8.201   1.554  1.00  0.00     0.000 C 
BRANCH   7   8
ATOM      8  C   UNL     1      -0.564   7.529   2.572  1.00  0.00     0.000 C 
BRANCH   8   9
ATOM      9  C   UNL     1       0.163   6.520   3.483  1.00  0.00     0.000 C 
BRANCH   9  10
ATOM     10  C   UNL     1      -0.045   5.063   3.032  1.00  0.00     0.006 C 
BRANCH  10  11
ATOM     11  C   UNL     1       0.952   4.068   3.645  1.00  0.00     0.053 C 
BRANCH  11  12
ATOM     12  C   UNL     1       0.478   3.520   4.956  1.00  0.00     0.041 C 
ATOM     13  O   UNL     1      -0.298   2.526   4.983  1.00  0.00    -0.550 OA
ATOM     14  O   UNL     1       0.889   4.108   6.147  1.00  0.00    -0.550 OA
ENDBRANCH  11  12
ENDBRANCH  10  11
ENDBRANCH   9  10
ENDBRANCH   8   9
ENDBRANCH   7   8
ENDBRANCH   6   7
ENDBRANCH   5   6
ENDBRANCH   4   5
ENDBRANCH   3   4
ENDBRANCH   2   3
ENDBRANCH   1   2
BRANCH   1  15
ATOM     15  C   UNL     1       6.302   5.508   2.163  1.00  0.00     0.000 C 
BRANCH  15  16
ATOM     16  C   UNL     1       6.217   4.932   0.736  1.00  0.00     0.000 C 
BRANCH  16  17
ATOM     17  C   UNL     1       6.340   6.022  -0.344  1.00  0.00     0.000 C 
BRANCH  17  18
ATOM     18  C   UNL     1       5.241   5.985  -1.423  1.00  0.00    -0.000 C 
BRANCH  18  19
ATOM     19  C   UNL     1       5.187   7.263  -2.291  1.00  0.00    -0.000 C 
BRANCH  19  20
ATOM     20  C   UNL     1       5.479   8.553  -1.498  1.00  0.00    -0.000 C 
BRANCH  20  21
ATOM     21  C   UNL     1       4.500   9.703  -1.802  1.00  0.00    -0.000 C 
BRANCH  21  22
ATOM     22  C   UNL     1       3.461   9.329  -2.870  1.00  0.00    -0.000 C 
BRANCH  22  23
ATOM     23  C   UNL     1       2.034   9.497  -2.331  1.00  0.00    -0.000 C 
BRANCH  23  24
ATOM     24  C   UNL     1       1.079   8.488  -2.986  1.00  0.00    -0.000 C 
BRANCH  24  25
ATOM     25  C   UNL     1       1.820   7.375  -3.741  1.00  0.00    -0.003 C 
ATOM     26  C   UNL     1       1.698   6.016  -3.056  1.00  0.00     0.004 C 
ENDBRANCH  24  25
ENDBRANCH  23  24
ENDBRANCH  22  23
ENDBRANCH  21  22
ENDBRANCH  20  21
ENDBRANCH  19  20
ENDBRANCH  18  19
ENDBRANCH  17  18
ENDBRANCH  16  17
ENDBRANCH  15  16
ENDBRANCH   1  15
TORSDOF 22
ENDMDL
MODEL 7
REMARK VINA RESULT:    -3.749      1.323      2.716
REMARK INTER + INTRA:         -12.512
REMARK INTER:                  -9.326
REMARK INTRA:                  -3.187
REMARK UNBOUND:                -3.941
REMARK SMILES CCCCCCCCCCCCCCCCCCCCCCCC(=O)[O-]
REMARK SMILES IDX 13 1 14 2 15 3 16 4 17 5 18 6 19 7 20 8 21 9 22 10 23 11
REMARK SMILES IDX 24 12 25 13 26 14 12 15 11 16 10 17 9 18 8 19 7 20 6 21 5 22
REMARK SMILES IDX 4 23 3 24 2 25 1 26
REMARK H PARENT
REMARK Flexibility Score: inf
ROOT
ATOM      1  C   UNL     1      -0.807   8.493  -1.509  1.00  0.00     0.000 C 
ENDROOT
BRANCH   1   2
ATOM      2  C   UNL     1      -0.946   9.877  -0.845  1.00  0.00     0.000 C 
BRANCH   2   3
ATOM      3  C   UNL     1      -0.451   9.955   0.613  1.00  0.00     0.000 C 
BRANCH   3   4
ATOM      4  C   UNL     1      -0.508   8.630   1.389  1.00  0.00     0.000 C 
BRANCH   4   5
ATOM      5  C   UNL     1      -0.574   8.837   2.915  1.00  0.00     0.000 C 
BRANCH   5   6
ATOM      6  C   UNL     1      -0.086   7.596   3.688  1.00  0.00     0.000 C 
BRANCH   6   7
ATOM      7  C   UNL     1      -0.454   6.271   2.977  1.00  0.00     0.000 C 
BRANCH   7   8
ATOM      8  C   UNL     1       0.762   5.525   2.399  1.00  0.00     0.000 C 
BRANCH   8   9
ATOM      9  C   UNL     1       0.973   4.137   3.036  1.00  0.00     0.000 C 
BRANCH   9  10
ATOM     10  C   UNL     1      -0.241   3.680   3.867  1.00  0.00     0.006 C 
BRANCH  10  11
ATOM     11  C   UNL     1       0.087   3.374   5.336  1.00  0.00     0.053 C 
BRANCH  11  12
ATOM     12  C   UNL     1       0.277   4.619   6.149  1.00  0.00     0.041 C 
ATOM     13  O   UNL     1      -0.721   5.210   6.644  1.00  0.00    -0.550 OA
ATOM     14  O   UNL     1       1.555   5.126   6.358  1.00  0.00    -0.550 OA
ENDBRANCH  11  12
ENDBRANCH  10  11
ENDBRANCH   9  10
ENDBRANCH   8   9
ENDBRANCH   7   8
ENDBRANCH   6   7
ENDBRANCH   5   6
ENDBRANCH   4   5
ENDBRANCH   3   4
ENDBRANCH   2   3
ENDBRANCH   1   2
BRANCH   1  15
ATOM     15  C   UNL     1       0.549   8.219  -2.182  1.00  0.00     0.000 C 
BRANCH  15  16
ATOM     16  C   UNL     1       1.159   6.863  -1.778  1.00  0.00     0.000 C 
BRANCH  16  17
ATOM     17  C   UNL     1       1.553   6.011  -2.999  1.00  0.00     0.000 C 
BRANCH  17  18
ATOM     18  C   UNL     1       2.698   6.593  -3.848  1.00  0.00    -0.000 C 
BRANCH  18  19
ATOM     19  C   UNL     1       4.103   6.281  -3.283  1.00  0.00    -0.000 C 
BRANCH  19  20
ATOM     20  C   UNL     1       4.840   7.529  -2.754  1.00  0.00    -0.000 C 
BRANCH  20  21
ATOM     21  C   UNL     1       5.449   7.342  -1.352  1.00  0.00    -0.000 C 
BRANCH  21  22
ATOM     22  C   UNL     1       5.215   5.932  -0.788  1.00  0.00    -0.000 C 
BRANCH  22  23
ATOM     23  C   UNL     1       4.751   5.996   0.674  1.00  0.00    -0.000 C 
BRANCH  23  24
ATOM     24  C   UNL     1       3.695   7.093   0.865  1.00  0.00    -0.000 C 
BRANCH  24  25
ATOM     25  C   UNL     1       3.942   7.941   2.121  1.00  0.00    -0.003 C 
ATOM     26  C   UNL     1       3.054   9.182   2.179  1.00  0.00     0.004 C 
ENDBRANCH  24  25
ENDBRANCH  23  24
ENDBRANCH  22  23
ENDBRANCH  21  22
ENDBRANCH  20  21
ENDBRANCH  19  20
ENDBRANCH  18  19
ENDBRANCH  17  18
ENDBRANCH  16  17
ENDBRANCH  15  16
ENDBRANCH   1  15
TORSDOF 22
ENDMDL
MODEL 8
REMARK VINA RESULT:    -3.688      2.104      5.037
REMARK INTER + INTRA:         -12.373
REMARK INTER:                  -8.383
REMARK INTRA:                  -3.990
REMARK UNBOUND:                -3.941
REMARK SMILES CCCCCCCCCCCCCCCCCCCCCCCC(=O)[O-]
REMARK SMILES IDX 13 1 14 2 15 3 16 4 17 5 18 6 19 7 20 8 21 9 22 10 23 11
REMARK SMILES IDX 24 12 25 13 26 14 12 15 11 16 10 17 9 18 8 19 7 20 6 21 5 22
REMARK SMILES IDX 4 23 3 24 2 25 1 26
REMARK H PARENT
REMARK Flexibility Score: inf
ROOT
ATOM      1  C   UNL     1      -0.110   5.944   2.398  1.00  0.00     0.000 C 
ENDROOT
BRANCH   1   2
ATOM      2  C   UNL     1       0.179   4.648   3.183  1.00  0.00     0.000 C 
BRANCH   2   3
ATOM      3  C   UNL     1       1.670   4.283   3.315  1.00  0.00     0.000 C 
BRANCH   3   4
ATOM      4  C   UNL     1       2.383   4.894   4.531  1.00  0.00     0.000 C 
BRANCH   4   5
ATOM      5  C   UNL     1       3.298   6.075   4.154  1.00  0.00     0.000 C 
BRANCH   5   6
ATOM      6  C   UNL     1       3.002   7.329   5.000  1.00  0.00     0.000 C 
BRANCH   6   7
ATOM      7  C   UNL     1       1.689   7.202   5.810  1.00  0.00     0.000 C 
BRANCH   7   8
ATOM      8  C   UNL     1       0.510   7.978   5.195  1.00  0.00     0.000 C 
BRANCH   8   9
ATOM      9  C   UNL     1      -0.863   7.432   5.637  1.00  0.00     0.000 C 
BRANCH   9  10
ATOM     10  C   UNL     1      -0.774   6.585   6.920  1.00  0.00     0.006 C 
BRANCH  10  11
ATOM     11  C   UNL     1      -1.179   5.116   6.729  1.00  0.00     0.053 C 
BRANCH  11  12
ATOM     12  C   UNL     1      -0.108   4.167   7.175  1.00  0.00     0.041 C 
ATOM     13  O   UNL     1       0.599   4.440   8.182  1.00  0.00    -0.550 OA
ATOM     14  O   UNL     1       0.110   2.984   6.476  1.00  0.00    -0.550 OA
ENDBRANCH  11  12
ENDBRANCH  10  11
ENDBRANCH   9  10
ENDBRANCH   8   9
ENDBRANCH   7   8
ENDBRANCH   6   7
ENDBRANCH   5   6
ENDBRANCH   4   5
ENDBRANCH   3   4
ENDBRANCH   2   3
ENDBRANCH   1   2
BRANCH   1  15
ATOM     15  C   UNL     1       1.012   6.404   1.452  1.00  0.00     0.000 C 
BRANCH  15  16
ATOM     16  C   UNL     1       1.267   7.922   1.514  1.00  0.00     0.000 C 
BRANCH  16  17
ATOM     17  C   UNL     1      -0.040   8.734   1.567  1.00  0.00     0.000 C 
BRANCH  17  18
ATOM     18  C   UNL     1      -0.374   9.501   0.273  1.00  0.00    -0.000 C 
BRANCH  18  19
ATOM     19  C   UNL     1      -1.161   8.658  -0.756  1.00  0.00    -0.000 C 
BRANCH  19  20
ATOM     20  C   UNL     1      -0.267   8.038  -1.849  1.00  0.00    -0.000 C 
BRANCH  20  21
ATOM     21  C   UNL     1       0.652   9.055  -2.551  1.00  0.00    -0.000 C 
BRANCH  21  22
ATOM     22  C   UNL     1       2.100   8.555  -2.679  1.00  0.00    -0.000 C 
BRANCH  22  23
ATOM     23  C   UNL     1       2.230   7.113  -2.169  1.00  0.00    -0.000 C 
BRANCH  23  24
ATOM     24  C   UNL     1       3.522   6.934  -1.359  1.00  0.00    -0.000 C 
BRANCH  24  25
ATOM     25  C   UNL     1       4.533   6.010  -2.054  1.00  0.00    -0.003 C 
ATOM     26  C   UNL     1       4.688   6.319  -3.541  1.00  0.00     0.004 C 
ENDBRANCH  24  25
ENDBRANCH  23  24
ENDBRANCH  22  23
ENDBRANCH  21  22
ENDBRANCH  20  21
ENDBRANCH  19  20
ENDBRANCH  18  19
ENDBRANCH  17  18
ENDBRANCH  16  17
ENDBRANCH  15  16
ENDBRANCH   1  15
TORSDOF 22
ENDMDL
MODEL 9
REMARK VINA RESULT:    -3.676      1.329      3.967
REMARK INTER + INTRA:         -12.345
REMARK INTER:                  -7.903
REMARK INTRA:                  -4.442
REMARK UNBOUND:                -3.941
REMARK SMILES CCCCCCCCCCCCCCCCCCCCCCCC(=O)[O-]
REMARK SMILES IDX 13 1 14 2 15 3 16 4 17 5 18 6 19 7 20 8 21 9 22 10 23 11
REMARK SMILES IDX 24 12 25 13 26 14 12 15 11 16 10 17 9 18 8 19 7 20 6 21 5 22
REMARK SMILES IDX 4 23 3 24 2 25 1 26
REMARK H PARENT
REMARK Flexibility Score: inf
ROOT
ATOM      1  C   UNL     1       3.000   7.946   1.143  1.00  0.00     0.000 C 
ENDROOT
BRANCH   1   2
ATOM      2  C   UNL     1       2.179   6.818   0.488  1.00  0.00     0.000 C 
BRANCH   2   3
ATOM      3  C   UNL     1       0.725   7.188   0.134  1.00  0.00     0.000 C 
BRANCH   3   4
ATOM      4  C   UNL     1       0.392   8.684   0.244  1.00  0.00     0.000 C 
BRANCH   4   5
ATOM      5  C   UNL     1      -0.544   9.000   1.427  1.00  0.00     0.000 C 
BRANCH   5   6
ATOM      6  C   UNL     1       0.218   9.605   2.622  1.00  0.00     0.000 C 
BRANCH   6   7
ATOM      7  C   UNL     1       0.004   8.803   3.929  1.00  0.00     0.000 C 
BRANCH   7   8
ATOM      8  C   UNL     1       0.624   7.394   3.894  1.00  0.00     0.000 C 
BRANCH   8   9
ATOM      9  C   UNL     1      -0.436   6.274   3.900  1.00  0.00     0.000 C 
BRANCH   9  10
ATOM     10  C   UNL     1      -0.107   5.147   2.904  1.00  0.00     0.006 C 
BRANCH  10  11
ATOM     11  C   UNL     1       1.160   4.351   3.257  1.00  0.00     0.053 C 
BRANCH  11  12
ATOM     12  C   UNL     1       1.227   4.003   4.713  1.00  0.00     0.041 C 
ATOM     13  O   UNL     1       2.150   4.472   5.433  1.00  0.00    -0.550 OA
ATOM     14  O   UNL     1       0.274   3.160   5.272  1.00  0.00    -0.550 OA
ENDBRANCH  11  12
ENDBRANCH  10  11
ENDBRANCH   9  10
ENDBRANCH   8   9
ENDBRANCH   7   8
ENDBRANCH   6   7
ENDBRANCH   5   6
ENDBRANCH   4   5
ENDBRANCH   3   4
ENDBRANCH   2   3
ENDBRANCH   1   2
BRANCH   1  15
ATOM     15  C   UNL     1       4.108   7.481   2.104  1.00  0.00     0.000 C 
BRANCH  15  16
ATOM     16  C   UNL     1       4.275   5.950   2.134  1.00  0.00     0.000 C 
BRANCH  16  17
ATOM     17  C   UNL     1       5.691   5.507   1.721  1.00  0.00     0.000 C 
BRANCH  17  18
ATOM     18  C   UNL     1       5.872   5.254   0.212  1.00  0.00    -0.000 C 
BRANCH  18  19
ATOM     19  C   UNL     1       6.527   6.438  -0.536  1.00  0.00    -0.000 C 
BRANCH  19  20
ATOM     20  C   UNL     1       5.692   6.944  -1.730  1.00  0.00    -0.000 C 
BRANCH  20  21
ATOM     21  C   UNL     1       4.519   6.017  -2.104  1.00  0.00    -0.000 C 
BRANCH  21  22
ATOM     22  C   UNL     1       3.787   6.473  -3.376  1.00  0.00    -0.000 C 
BRANCH  22  23
ATOM     23  C   UNL     1       2.265   6.418  -3.182  1.00  0.00    -0.000 C 
BRANCH  23  24
ATOM     24  C   UNL     1       1.650   7.821  -3.282  1.00  0.00    -0.000 C 
BRANCH  24  25
ATOM     25  C   UNL     1       2.711   8.929  -3.361  1.00  0.00    -0.003 C 
ATOM     26  C   UNL     1       2.800   9.752  -2.078  1.00  0.00     0.004 C 
ENDBRANCH  24  25
ENDBRANCH  23  24
ENDBRANCH  22  23
ENDBRANCH  21  22
ENDBRANCH  20  21
ENDBRANCH  19  20
ENDBRANCH  18  19
ENDBRANCH  17  18
ENDBRANCH  16  17
ENDBRANCH  15  16
ENDBRANCH   1  15
TORSDOF 22
ENDMDL
