MODEL 1
REMARK VINA RESULT:    -5.768      0.000      0.000
REMARK INTER + INTRA:          -7.069
REMARK INTER:                  -6.780
REMARK INTRA:                  -0.289
REMARK UNBOUND:                -0.289
REMARK SMILES COc1cc2ccc(=O)oc2c(OC)c1OC
REMARK SMILES IDX 3 1 15 2 12 3 11 4 5 5 4 6 6 7 7 8 8 9 9 10 10 11 2 12 1 13
REMARK SMILES IDX 16 14 17 15 13 16 14 17
REMARK H PARENT
REMARK Flexibility Score: inf
ROOT
ATOM      1  C   UNL     1     -31.780  13.383  54.852  1.00  0.00     0.165 A 
ATOM      2  C   UNL     1     -30.692  13.711  53.993  1.00  0.00     0.207 A 
ATOM      3  C   UNL     1     -30.930  14.514  52.843  1.00  0.00     0.208 A 
ATOM      4  C   UNL     1     -32.226  14.971  52.567  1.00  0.00     0.184 A 
ATOM      5  C   UNL     1     -33.295  14.641  53.420  1.00  0.00     0.025 A 
ATOM      6  C   UNL     1     -33.070  13.856  54.550  1.00  0.00     0.062 A 
ATOM      7  C   UNL     1     -34.574  15.117  53.108  1.00  0.00     0.020 A 
ATOM      8  C   UNL     1     -34.755  15.900  51.969  1.00  0.00     0.094 A 
ATOM      9  C   UNL     1     -33.648  16.189  51.167  1.00  0.00     0.336 A 
ATOM     10  O   UNL     1     -33.787  16.893  50.132  1.00  0.00    -0.246 OA
ATOM     11  O   UNL     1     -32.445  15.722  51.488  1.00  0.00    -0.419 OA
ENDROOT
BRANCH   1  12
ATOM     12  O   UNL     1     -31.560  12.592  55.991  1.00  0.00    -0.493 OA
ATOM     13  C   UNL     1     -31.748  11.181  56.060  1.00  0.00     0.278 C 
ENDBRANCH   1  12
BRANCH   2  14
ATOM     14  O   UNL     1     -29.377  13.272  54.238  1.00  0.00    -0.490 OA
ATOM     15  C   UNL     1     -28.407  13.878  55.085  1.00  0.00     0.278 C 
ENDBRANCH   2  14
BRANCH   3  16
ATOM     16  O   UNL     1     -29.927  14.897  51.929  1.00  0.00    -0.490 OA
ATOM     17  C   UNL     1     -29.014  15.980  52.063  1.00  0.00     0.278 C 
ENDBRANCH   3  16
TORSDOF 3
ENDMDL
MODEL 2
REMARK VINA RESULT:    -5.724      1.653      3.585
REMARK INTER + INTRA:          -7.017
REMARK INTER:                  -6.706
REMARK INTRA:                  -0.310
REMARK UNBOUND:                -0.289
REMARK SMILES COc1cc2ccc(=O)oc2c(OC)c1OC
REMARK SMILES IDX 3 1 15 2 12 3 11 4 5 5 4 6 6 7 7 8 8 9 9 10 10 11 2 12 1 13
REMARK SMILES IDX 16 14 17 15 13 16 14 17
REMARK H PARENT
REMARK Flexibility Score: inf
ROOT
ATOM      1  C   UNL     1     -29.658  15.088  52.421  1.00  0.00     0.165 A 
ATOM      2  C   UNL     1     -29.855  14.122  53.448  1.00  0.00     0.207 A 
ATOM      3  C   UNL     1     -31.177  13.827  53.885  1.00  0.00     0.208 A 
ATOM      4  C   UNL     1     -32.266  14.488  53.302  1.00  0.00     0.184 A 
ATOM      5  C   UNL     1     -32.063  15.442  52.288  1.00  0.00     0.025 A 
ATOM      6  C   UNL     1     -30.771  15.736  51.855  1.00  0.00     0.062 A 
ATOM      7  C   UNL     1     -33.179  16.080  51.734  1.00  0.00     0.020 A 
ATOM      8  C   UNL     1     -34.454  15.756  52.196  1.00  0.00     0.094 A 
ATOM      9  C   UNL     1     -34.582  14.799  53.205  1.00  0.00     0.336 A 
ATOM     10  O   UNL     1     -35.723  14.491  53.640  1.00  0.00    -0.246 OA
ATOM     11  O   UNL     1     -33.503  14.210  53.714  1.00  0.00    -0.419 OA
ENDROOT
BRANCH   1  12
ATOM     12  O   UNL     1     -28.359  15.389  51.980  1.00  0.00    -0.493 OA
ATOM     13  C   UNL     1     -27.524  16.409  52.521  1.00  0.00     0.278 C 
ENDBRANCH   1  12
BRANCH   2  14
ATOM     14  O   UNL     1     -28.785  13.437  54.056  1.00  0.00    -0.490 OA
ATOM     15  C   UNL     1     -28.034  13.845  55.195  1.00  0.00     0.278 C 
ENDBRANCH   2  14
BRANCH   3  16
ATOM     16  O   UNL     1     -31.483  12.890  54.893  1.00  0.00    -0.490 OA
ATOM     17  C   UNL     1     -31.512  13.120  56.297  1.00  0.00     0.278 C 
ENDBRANCH   3  16
TORSDOF 3
ENDMDL
MODEL 3
REMARK VINA RESULT:    -5.572      5.051      7.812
REMARK INTER + INTRA:          -6.839
REMARK INTER:                  -6.553
REMARK INTRA:                  -0.285
REMARK UNBOUND:                -0.289
REMARK SMILES COc1cc2ccc(=O)oc2c(OC)c1OC
REMARK SMILES IDX 3 1 15 2 12 3 11 4 5 5 4 6 6 7 7 8 8 9 9 10 10 11 2 12 1 13
REMARK SMILES IDX 16 14 17 15 13 16 14 17
REMARK H PARENT
REMARK Flexibility Score: inf
ROOT
ATOM      1  C   UNL     1     -27.065  14.057  51.796  1.00  0.00     0.165 A 
ATOM      2  C   UNL     1     -26.757  14.930  52.879  1.00  0.00     0.207 A 
ATOM      3  C   UNL     1     -26.054  14.421  54.006  1.00  0.00     0.208 A 
ATOM      4  C   UNL     1     -25.674  13.072  54.040  1.00  0.00     0.184 A 
ATOM      5  C   UNL     1     -25.984  12.217  52.967  1.00  0.00     0.025 A 
ATOM      6  C   UNL     1     -26.672  12.707  51.859  1.00  0.00     0.062 A 
ATOM      7  C   UNL     1     -25.587  10.876  53.042  1.00  0.00     0.020 A 
ATOM      8  C   UNL     1     -24.900  10.426  54.169  1.00  0.00     0.094 A 
ATOM      9  C   UNL     1     -24.626  11.331  55.197  1.00  0.00     0.336 A 
ATOM     10  O   UNL     1     -24.008  10.948  56.225  1.00  0.00    -0.246 OA
ATOM     11  O   UNL     1     -25.016  12.599  55.098  1.00  0.00    -0.419 OA
ENDROOT
BRANCH   1  12
ATOM     12  O   UNL     1     -27.758  14.545  50.677  1.00  0.00    -0.493 OA
ATOM     13  C   UNL     1     -27.153  15.122  49.523  1.00  0.00     0.278 C 
ENDBRANCH   1  12
BRANCH   2  14
ATOM     14  O   UNL     1     -27.121  16.290  52.880  1.00  0.00    -0.490 OA
ATOM     15  C   UNL     1     -28.396  16.842  53.189  1.00  0.00     0.278 C 
ENDBRANCH   2  14
BRANCH   3  16
ATOM     16  O   UNL     1     -25.699  15.197  55.129  1.00  0.00    -0.490 OA
ATOM     17  C   UNL     1     -26.525  15.521  56.242  1.00  0.00     0.278 C 
ENDBRANCH   3  16
TORSDOF 3
ENDMDL
MODEL 4
REMARK VINA RESULT:    -5.443      5.012      7.101
REMARK INTER + INTRA:          -6.687
REMARK INTER:                  -6.386
REMARK INTRA:                  -0.302
REMARK UNBOUND:                -0.289
REMARK SMILES COc1cc2ccc(=O)oc2c(OC)c1OC
REMARK SMILES IDX 3 1 15 2 12 3 11 4 5 5 4 6 6 7 7 8 8 9 9 10 10 11 2 12 1 13
REMARK SMILES IDX 16 14 17 15 13 16 14 17
REMARK H PARENT
REMARK Flexibility Score: inf
ROOT
ATOM      1  C   UNL     1     -26.979  15.064  53.385  1.00  0.00     0.165 A 
ATOM      2  C   UNL     1     -26.412  13.789  53.667  1.00  0.00     0.207 A 
ATOM      3  C   UNL     1     -26.364  13.331  55.013  1.00  0.00     0.208 A 
ATOM      4  C   UNL     1     -26.871  14.135  56.042  1.00  0.00     0.184 A 
ATOM      5  C   UNL     1     -27.429  15.394  55.754  1.00  0.00     0.025 A 
ATOM      6  C   UNL     1     -27.480  15.851  54.438  1.00  0.00     0.062 A 
ATOM      7  C   UNL     1     -27.924  16.167  56.812  1.00  0.00     0.020 A 
ATOM      8  C   UNL     1     -27.853  15.673  58.113  1.00  0.00     0.094 A 
ATOM      9  C   UNL     1     -27.287  14.414  58.327  1.00  0.00     0.336 A 
ATOM     10  O   UNL     1     -27.211  13.947  59.493  1.00  0.00    -0.246 OA
ATOM     11  O   UNL     1     -26.824  13.703  57.302  1.00  0.00    -0.419 OA
ENDROOT
BRANCH   1  12
ATOM     12  O   UNL     1     -27.033  15.530  52.061  1.00  0.00    -0.493 OA
ATOM     13  C   UNL     1     -28.110  15.304  51.154  1.00  0.00     0.278 C 
ENDBRANCH   1  12
BRANCH   2  14
ATOM     14  O   UNL     1     -25.893  12.953  52.660  1.00  0.00    -0.490 OA
ATOM     15  C   UNL     1     -26.588  11.948  51.929  1.00  0.00     0.278 C 
ENDBRANCH   2  14
BRANCH   3  16
ATOM     16  O   UNL     1     -25.826  12.087  55.403  1.00  0.00    -0.490 OA
ATOM     17  C   UNL     1     -24.450  11.763  55.570  1.00  0.00     0.278 C 
ENDBRANCH   3  16
TORSDOF 3
ENDMDL
MODEL 5
REMARK VINA RESULT:    -5.439      5.281      6.187
REMARK INTER + INTRA:          -6.682
REMARK INTER:                  -6.427
REMARK INTRA:                  -0.255
REMARK UNBOUND:                -0.289
REMARK SMILES COc1cc2ccc(=O)oc2c(OC)c1OC
REMARK SMILES IDX 3 1 15 2 12 3 11 4 5 5 4 6 6 7 7 8 8 9 9 10 10 11 2 12 1 13
REMARK SMILES IDX 16 14 17 15 13 16 14 17
REMARK H PARENT
REMARK Flexibility Score: inf
ROOT
ATOM      1  C   UNL     1     -27.188  14.191  57.967  1.00  0.00     0.165 A 
ATOM      2  C   UNL     1     -26.871  13.056  57.168  1.00  0.00     0.207 A 
ATOM      3  C   UNL     1     -26.780  13.200  55.756  1.00  0.00     0.208 A 
ATOM      4  C   UNL     1     -27.002  14.453  55.168  1.00  0.00     0.184 A 
ATOM      5  C   UNL     1     -27.316  15.569  55.964  1.00  0.00     0.025 A 
ATOM      6  C   UNL     1     -27.408  15.436  57.349  1.00  0.00     0.062 A 
ATOM      7  C   UNL     1     -27.532  16.802  55.336  1.00  0.00     0.020 A 
ATOM      8  C   UNL     1     -27.431  16.892  53.949  1.00  0.00     0.094 A 
ATOM      9  C   UNL     1     -27.115  15.742  53.220  1.00  0.00     0.336 A 
ATOM     10  O   UNL     1     -27.019  15.798  51.967  1.00  0.00    -0.246 OA
ATOM     11  O   UNL     1     -26.916  14.585  53.844  1.00  0.00    -0.419 OA
ENDROOT
BRANCH   1  12
ATOM     12  O   UNL     1     -27.282  14.063  59.362  1.00  0.00    -0.493 OA
ATOM     13  C   UNL     1     -26.792  15.009  60.309  1.00  0.00     0.278 C 
ENDBRANCH   1  12
BRANCH   2  14
ATOM     14  O   UNL     1     -26.640  11.782  57.723  1.00  0.00    -0.490 OA
ATOM     15  C   UNL     1     -25.398  11.244  58.163  1.00  0.00     0.278 C 
ENDBRANCH   2  14
BRANCH   3  16
ATOM     16  O   UNL     1     -26.472  12.144  54.874  1.00  0.00    -0.490 OA
ATOM     17  C   UNL     1     -27.365  11.151  54.383  1.00  0.00     0.278 C 
ENDBRANCH   3  16
TORSDOF 3
ENDMDL
MODEL 6
REMARK VINA RESULT:    -5.412      1.832      3.065
REMARK INTER + INTRA:          -6.650
REMARK INTER:                  -6.387
REMARK INTRA:                  -0.263
REMARK UNBOUND:                -0.289
REMARK SMILES COc1cc2ccc(=O)oc2c(OC)c1OC
REMARK SMILES IDX 3 1 15 2 12 3 11 4 5 5 4 6 6 7 7 8 8 9 9 10 10 11 2 12 1 13
REMARK SMILES IDX 16 14 17 15 13 16 14 17
REMARK H PARENT
REMARK Flexibility Score: inf
ROOT
ATOM      1  C   UNL     1     -32.959  12.243  55.180  1.00  0.00     0.165 A 
ATOM      2  C   UNL     1     -31.563  12.057  55.389  1.00  0.00     0.207 A 
ATOM      3  C   UNL     1     -30.636  12.856  54.663  1.00  0.00     0.208 A 
ATOM      4  C   UNL     1     -31.105  13.813  53.752  1.00  0.00     0.184 A 
ATOM      5  C   UNL     1     -32.486  13.990  53.551  1.00  0.00     0.025 A 
ATOM      6  C   UNL     1     -33.400  13.211  54.259  1.00  0.00     0.062 A 
ATOM      7  C   UNL     1     -32.912  14.956  52.632  1.00  0.00     0.020 A 
ATOM      8  C   UNL     1     -31.964  15.714  51.945  1.00  0.00     0.094 A 
ATOM      9  C   UNL     1     -30.609  15.485  52.195  1.00  0.00     0.336 A 
ATOM     10  O   UNL     1     -29.735  16.157  51.586  1.00  0.00    -0.246 OA
ATOM     11  O   UNL     1     -30.234  14.560  53.073  1.00  0.00    -0.419 OA
ENDROOT
BRANCH   1  12
ATOM     12  O   UNL     1     -33.885  11.462  55.889  1.00  0.00    -0.493 OA
ATOM     13  C   UNL     1     -35.071  10.893  55.341  1.00  0.00     0.278 C 
ENDBRANCH   1  12
BRANCH   2  14
ATOM     14  O   UNL     1     -31.055  11.107  56.295  1.00  0.00    -0.490 OA
ATOM     15  C   UNL     1     -30.887   9.710  56.078  1.00  0.00     0.278 C 
ENDBRANCH   2  14
BRANCH   3  16
ATOM     16  O   UNL     1     -29.236  12.755  54.794  1.00  0.00    -0.490 OA
ATOM     17  C   UNL     1     -28.385  11.798  54.173  1.00  0.00     0.278 C 
ENDBRANCH   3  16
TORSDOF 3
ENDMDL
MODEL 7
REMARK VINA RESULT:    -5.389      4.866      8.260
REMARK INTER + INTRA:          -6.623
REMARK INTER:                  -6.349
REMARK INTRA:                  -0.275
REMARK UNBOUND:                -0.289
REMARK SMILES COc1cc2ccc(=O)oc2c(OC)c1OC
REMARK SMILES IDX 3 1 15 2 12 3 11 4 5 5 4 6 6 7 7 8 8 9 9 10 10 11 2 12 1 13
REMARK SMILES IDX 16 14 17 15 13 16 14 17
REMARK H PARENT
REMARK Flexibility Score: inf
ROOT
ATOM      1  C   UNL     1     -25.907  12.640  53.201  1.00  0.00     0.165 A 
ATOM      2  C   UNL     1     -26.737  13.498  53.977  1.00  0.00     0.207 A 
ATOM      3  C   UNL     1     -26.768  13.346  55.392  1.00  0.00     0.208 A 
ATOM      4  C   UNL     1     -25.985  12.358  56.004  1.00  0.00     0.184 A 
ATOM      5  C   UNL     1     -25.169  11.513  55.229  1.00  0.00     0.025 A 
ATOM      6  C   UNL     1     -25.133  11.656  53.843  1.00  0.00     0.062 A 
ATOM      7  C   UNL     1     -24.404  10.538  55.880  1.00  0.00     0.020 A 
ATOM      8  C   UNL     1     -24.469  10.430  57.269  1.00  0.00     0.094 A 
ATOM      9  C   UNL     1     -25.301  11.302  57.975  1.00  0.00     0.336 A 
ATOM     10  O   UNL     1     -25.377  11.223  59.229  1.00  0.00    -0.246 OA
ATOM     11  O   UNL     1     -26.017  12.218  57.329  1.00  0.00    -0.419 OA
ENDROOT
BRANCH   1  12
ATOM     12  O   UNL     1     -25.867  12.778  51.804  1.00  0.00    -0.493 OA
ATOM     13  C   UNL     1     -26.692  12.068  50.884  1.00  0.00     0.278 C 
ENDBRANCH   1  12
BRANCH   2  14
ATOM     14  O   UNL     1     -27.536  14.503  53.398  1.00  0.00    -0.490 OA
ATOM     15  C   UNL     1     -27.148  15.833  53.069  1.00  0.00     0.278 C 
ENDBRANCH   2  14
BRANCH   3  16
ATOM     16  O   UNL     1     -27.552  14.142  56.252  1.00  0.00    -0.490 OA
ATOM     17  C   UNL     1     -28.940  13.991  56.530  1.00  0.00     0.278 C 
ENDBRANCH   3  16
TORSDOF 3
ENDMDL
MODEL 8
REMARK VINA RESULT:    -5.309      6.106      7.003
REMARK INTER + INTRA:          -6.530
REMARK INTER:                  -6.269
REMARK INTRA:                  -0.261
REMARK UNBOUND:                -0.289
REMARK SMILES COc1cc2ccc(=O)oc2c(OC)c1OC
REMARK SMILES IDX 3 1 15 2 12 3 11 4 5 5 4 6 6 7 7 8 8 9 9 10 10 11 2 12 1 13
REMARK SMILES IDX 16 14 17 15 13 16 14 17
REMARK H PARENT
REMARK Flexibility Score: inf
ROOT
ATOM      1  C   UNL     1     -25.636  11.472  57.296  1.00  0.00     0.165 A 
ATOM      2  C   UNL     1     -25.217  11.842  55.987  1.00  0.00     0.207 A 
ATOM      3  C   UNL     1     -25.604  13.107  55.463  1.00  0.00     0.208 A 
ATOM      4  C   UNL     1     -26.390  13.971  56.237  1.00  0.00     0.184 A 
ATOM      5  C   UNL     1     -26.801  13.597  57.529  1.00  0.00     0.025 A 
ATOM      6  C   UNL     1     -26.426  12.360  58.050  1.00  0.00     0.062 A 
ATOM      7  C   UNL     1     -27.586  14.490  58.268  1.00  0.00     0.020 A 
ATOM      8  C   UNL     1     -27.938  15.717  57.710  1.00  0.00     0.094 A 
ATOM      9  C   UNL     1     -27.495  16.024  56.421  1.00  0.00     0.336 A 
ATOM     10  O   UNL     1     -27.801  17.126  55.895  1.00  0.00    -0.246 OA
ATOM     11  O   UNL     1     -26.751  15.155  55.742  1.00  0.00    -0.419 OA
ENDROOT
BRANCH   1  12
ATOM     12  O   UNL     1     -25.262  10.226  57.827  1.00  0.00    -0.493 OA
ATOM     13  C   UNL     1     -26.161   9.170  58.155  1.00  0.00     0.278 C 
ENDBRANCH   1  12
BRANCH   2  14
ATOM     14  O   UNL     1     -24.427  11.001  55.181  1.00  0.00    -0.490 OA
ATOM     15  C   UNL     1     -23.007  10.984  55.081  1.00  0.00     0.278 C 
ENDBRANCH   2  14
BRANCH   3  16
ATOM     16  O   UNL     1     -25.244  13.572  54.181  1.00  0.00    -0.490 OA
ATOM     17  C   UNL     1     -25.839  13.209  52.940  1.00  0.00     0.278 C 
ENDBRANCH   3  16
TORSDOF 3
ENDMDL
MODEL 9
REMARK VINA RESULT:    -5.306      4.712      6.655
REMARK INTER + INTRA:          -6.526
REMARK INTER:                  -6.264
REMARK INTRA:                  -0.262
REMARK UNBOUND:                -0.289
REMARK SMILES COc1cc2ccc(=O)oc2c(OC)c1OC
REMARK SMILES IDX 3 1 15 2 12 3 11 4 5 5 4 6 6 7 7 8 8 9 9 10 10 11 2 12 1 13
REMARK SMILES IDX 16 14 17 15 13 16 14 17
REMARK H PARENT
REMARK Flexibility Score: inf
ROOT
ATOM      1  C   UNL     1     -26.587  12.357  57.128  1.00  0.00     0.165 A 
ATOM      2  C   UNL     1     -27.452  13.327  56.547  1.00  0.00     0.207 A 
ATOM      3  C   UNL     1     -27.631  13.344  55.135  1.00  0.00     0.208 A 
ATOM      4  C   UNL     1     -26.958  12.410  54.336  1.00  0.00     0.184 A 
ATOM      5  C   UNL     1     -26.105  11.456  54.919  1.00  0.00     0.025 A 
ATOM      6  C   UNL     1     -25.923  11.432  56.301  1.00  0.00     0.062 A 
ATOM      7  C   UNL     1     -25.451  10.542  54.084  1.00  0.00     0.020 A 
ATOM      8  C   UNL     1     -25.660  10.600  52.707  1.00  0.00     0.094 A 
ATOM      9  C   UNL     1     -26.522  11.574  52.196  1.00  0.00     0.336 A 
ATOM     10  O   UNL     1     -26.726  11.646  50.956  1.00  0.00    -0.246 OA
ATOM     11  O   UNL     1     -27.129  12.429  53.014  1.00  0.00    -0.419 OA
ENDROOT
BRANCH   1  12
ATOM     12  O   UNL     1     -26.400  12.329  58.520  1.00  0.00    -0.493 OA
ATOM     13  C   UNL     1     -25.847  11.238  59.252  1.00  0.00     0.278 C 
ENDBRANCH   1  12
BRANCH   2  14
ATOM     14  O   UNL     1     -28.145  14.280  57.317  1.00  0.00    -0.490 OA
ATOM     15  C   UNL     1     -27.664  15.541  57.770  1.00  0.00     0.278 C 
ENDBRANCH   2  14
BRANCH   3  16
ATOM     16  O   UNL     1     -28.463  14.259  54.458  1.00  0.00    -0.490 OA
ATOM     17  C   UNL     1     -28.126  15.577  54.042  1.00  0.00     0.278 C 
ENDBRANCH   3  16
TORSDOF 3
ENDMDL
