MODEL 1
REMARK VINA RESULT:    -7.449      0.000      0.000
REMARK INTER + INTRA:         -10.952
REMARK INTER:                 -10.280
REMARK INTRA:                  -0.673
REMARK UNBOUND:                -0.673
REMARK SMILES C[C@@H]1OC(=O)[C@@H](C)[C@@H]1C[C@H](O)[C@@](C)(O)[C@H]1CC[C@]2(O)C3=CC(=O)[C@@H]4C[C@@H](O)[C@H](O)C[C@]4(C)[C@@H]3CC[C@]12C
REMARK SMILES IDX 12 1 13 2 10 3 9 4 8 5 7 6 6 7 4 8 2 9 3 10 5 11 1 12 11 13
REMARK SMILES IDX 15 15 16 16 36 17 17 18 18 19 35 20 37 21 20 22 34 23 33 24
REMARK SMILES IDX 21 25 31 26 22 27 24 28 30 29 32 30 23 31 25 32 28 33 26 34
REMARK SMILES IDX 19 35 29 37 27 39 14 41
REMARK H PARENT 11 14 19 36 29 38 27 40 14 42
REMARK Flexibility Score: inf
ROOT
ATOM      1  C   UNL     1     -11.645  35.983   5.110  1.00  0.00     0.091 C 
ATOM      2  C   UNL     1     -11.351  36.868   6.348  1.00  0.00     0.045 C 
ENDROOT
BRANCH   1   3
ATOM      3  C   UNL     1     -12.834  35.009   5.474  1.00  0.00     0.146 C 
BRANCH   3   4
ATOM      4  C   UNL     1     -13.773  35.545   6.599  1.00  0.00     0.043 C 
BRANCH   4   5
ATOM      5  C   UNL     1     -15.122  36.097   6.057  1.00  0.00     0.046 C 
ATOM      6  C   UNL     1     -16.566  35.316   4.092  1.00  0.00     0.020 C 
ATOM      7  C   UNL     1     -15.993  34.951   5.465  1.00  0.00     0.103 C 
ATOM      8  C   UNL     1     -17.077  34.821   6.466  1.00  0.00     0.309 C 
ATOM      9  C   UNL     1     -16.039  36.762   7.139  1.00  0.00     0.177 C 
ATOM     10  O   UNL     1     -17.053  35.814   7.415  1.00  0.00    -0.462 OA
ATOM     11  O   UNL     1     -17.927  33.892   6.471  1.00  0.00    -0.252 OA
ATOM     12  C   UNL     1     -15.370  37.217   8.438  1.00  0.00     0.053 C 
ENDBRANCH   4   5
ENDBRANCH   3   4
BRANCH   3  13
ATOM     13  O   UNL     1     -12.322  33.763   5.887  1.00  0.00    -0.390 OA
ATOM     14  H   UNL     1     -12.287  33.776   6.880  1.00  0.00     0.211 HD
ENDBRANCH   3  13
ENDBRANCH   1   3
BRANCH   1  15
ATOM     15  C   UNL     1     -12.020  36.850   3.829  1.00  0.00     0.032 C 
ATOM     16  C   UNL     1     -12.926  38.044   4.101  1.00  0.00     0.010 C 
ATOM     17  C   UNL     1     -10.924  37.387   2.818  1.00  0.00     0.006 C 
ATOM     18  C   UNL     1     -13.013  38.728   2.756  1.00  0.00     0.041 C 
ATOM     19  C   UNL     1     -11.568  38.712   2.208  1.00  0.00     0.092 C 
ATOM     20  C   UNL     1     -10.690  36.313   1.696  1.00  0.00     0.011 C 
ATOM     21  C   UNL     1      -9.557  37.688   3.495  1.00  0.00     0.015 C 
ATOM     22  C   UNL     1     -11.457  38.726   0.676  1.00  0.00    -0.031 C 
ATOM     23  C   UNL     1      -9.873  36.811   0.480  1.00  0.00     0.009 C 
ATOM     24  C   UNL     1     -10.111  38.307   0.129  1.00  0.00     0.025 C 
ATOM     25  C   UNL     1     -12.492  38.998  -0.135  1.00  0.00     0.050 C 
ATOM     26  C   UNL     1      -9.846  38.768  -1.365  1.00  0.00    -0.013 C 
ATOM     27  C   UNL     1     -12.403  38.858  -1.592  1.00  0.00     0.159 C 
ATOM     28  C   UNL     1     -11.102  38.565  -2.290  1.00  0.00     0.070 C 
ATOM     29  C   UNL     1      -8.580  38.058  -1.975  1.00  0.00     0.042 C 
ATOM     30  C   UNL     1      -9.547  40.296  -1.336  1.00  0.00     0.013 C 
ATOM     31  O   UNL     1     -13.449  39.009  -2.280  1.00  0.00    -0.295 OA
ATOM     32  C   UNL     1     -11.127  37.191  -2.980  1.00  0.00     0.047 C 
ATOM     33  C   UNL     1      -8.681  37.876  -3.496  1.00  0.00     0.143 C 
ATOM     34  C   UNL     1      -9.868  36.948  -3.858  1.00  0.00     0.143 C 
BRANCH  19  35
ATOM     35  O   UNL     1     -10.907  39.859   2.702  1.00  0.00    -0.385 OA
ATOM     36  H   UNL     1     -10.590  39.660   3.623  1.00  0.00     0.211 HD
ENDBRANCH  19  35
BRANCH  33  37
ATOM     37  O   UNL     1      -7.480  37.324  -3.972  1.00  0.00    -0.390 OA
ATOM     38  H   UNL     1      -7.126  37.951  -4.654  1.00  0.00     0.211 HD
ENDBRANCH  33  37
BRANCH  34  39
ATOM     39  O   UNL     1     -10.185  37.140  -5.214  1.00  0.00    -0.390 OA
ATOM     40  H   UNL     1     -11.017  37.681  -5.242  1.00  0.00     0.211 HD
ENDBRANCH  34  39
ENDBRANCH   1  15
BRANCH   1  41
ATOM     41  O   UNL     1     -10.492  35.218   4.847  1.00  0.00    -0.387 OA
ATOM     42  H   UNL     1     -10.037  35.038   5.710  1.00  0.00     0.211 HD
ENDBRANCH   1  41
TORSDOF 9
ENDMDL
MODEL 2
REMARK VINA RESULT:    -7.294      5.620     10.095
REMARK INTER + INTRA:         -10.739
REMARK INTER:                 -10.744
REMARK INTRA:                   0.005
REMARK UNBOUND:                -0.673
REMARK SMILES C[C@@H]1OC(=O)[C@@H](C)[C@@H]1C[C@H](O)[C@@](C)(O)[C@H]1CC[C@]2(O)C3=CC(=O)[C@@H]4C[C@@H](O)[C@H](O)C[C@]4(C)[C@@H]3CC[C@]12C
REMARK SMILES IDX 12 1 13 2 10 3 9 4 8 5 7 6 6 7 4 8 2 9 3 10 5 11 1 12 11 13
REMARK SMILES IDX 15 15 16 16 36 17 17 18 18 19 35 20 37 21 20 22 34 23 33 24
REMARK SMILES IDX 21 25 31 26 22 27 24 28 30 29 32 30 23 31 25 32 28 33 26 34
REMARK SMILES IDX 19 35 29 37 27 39 14 41
REMARK H PARENT 11 14 19 36 29 38 27 40 14 42
REMARK Flexibility Score: inf
ROOT
ATOM      1  C   UNL     1      -6.768  38.387  -0.943  1.00  0.00     0.091 C 
ATOM      2  C   UNL     1      -6.546  39.770  -1.607  1.00  0.00     0.045 C 
ENDROOT
BRANCH   1   3
ATOM      3  C   UNL     1      -7.049  37.334  -2.087  1.00  0.00     0.146 C 
BRANCH   3   4
ATOM      4  C   UNL     1      -8.459  36.669  -2.005  1.00  0.00     0.043 C 
BRANCH   4   5
ATOM      5  C   UNL     1      -9.612  37.633  -2.401  1.00  0.00     0.046 C 
ATOM      6  C   UNL     1      -9.961  39.020  -4.526  1.00  0.00     0.020 C 
ATOM      7  C   UNL     1      -9.852  37.610  -3.939  1.00  0.00     0.103 C 
ATOM      8  C   UNL     1     -11.146  36.896  -4.051  1.00  0.00     0.309 C 
ATOM      9  C   UNL     1     -11.006  37.274  -1.785  1.00  0.00     0.177 C 
ATOM     10  O   UNL     1     -11.747  36.679  -2.835  1.00  0.00    -0.462 OA
ATOM     11  O   UNL     1     -11.646  36.505  -5.138  1.00  0.00    -0.252 OA
ATOM     12  C   UNL     1     -11.013  36.369  -0.552  1.00  0.00     0.053 C 
ENDBRANCH   4   5
ENDBRANCH   3   4
BRANCH   3  13
ATOM     13  O   UNL     1      -6.079  36.313  -2.045  1.00  0.00    -0.390 OA
ATOM     14  H   UNL     1      -5.197  36.740  -2.202  1.00  0.00     0.211 HD
ENDBRANCH   3  13
ENDBRANCH   1   3
BRANCH   1  15
ATOM     15  C   UNL     1      -5.515  37.931  -0.075  1.00  0.00     0.032 C 
ATOM     16  C   UNL     1      -4.264  38.784  -0.251  1.00  0.00     0.010 C 
ATOM     17  C   UNL     1      -5.615  37.664   1.484  1.00  0.00     0.006 C 
ATOM     18  C   UNL     1      -3.302  38.201   0.759  1.00  0.00     0.041 C 
ATOM     19  C   UNL     1      -4.149  37.973   2.030  1.00  0.00     0.092 C 
ATOM     20  C   UNL     1      -5.995  36.159   1.724  1.00  0.00     0.011 C 
ATOM     21  C   UNL     1      -6.677  38.552   2.193  1.00  0.00     0.015 C 
ATOM     22  C   UNL     1      -3.652  36.844   2.946  1.00  0.00    -0.031 C 
ATOM     23  C   UNL     1      -5.841  35.676   3.186  1.00  0.00     0.009 C 
ATOM     24  C   UNL     1      -4.665  36.343   3.952  1.00  0.00     0.025 C 
ATOM     25  C   UNL     1      -2.445  36.269   2.818  1.00  0.00     0.050 C 
ATOM     26  C   UNL     1      -4.031  35.551   5.171  1.00  0.00    -0.013 C 
ATOM     27  C   UNL     1      -2.050  35.094   3.601  1.00  0.00     0.159 C 
ATOM     28  C   UNL     1      -2.900  34.556   4.720  1.00  0.00     0.070 C 
ATOM     29  C   UNL     1      -5.132  34.805   6.013  1.00  0.00     0.042 C 
ATOM     30  C   UNL     1      -3.364  36.598   6.111  1.00  0.00     0.013 C 
ATOM     31  O   UNL     1      -0.952  34.533   3.339  1.00  0.00    -0.295 OA
ATOM     32  C   UNL     1      -3.430  33.147   4.401  1.00  0.00     0.047 C 
ATOM     33  C   UNL     1      -4.601  33.530   6.681  1.00  0.00     0.143 C 
ATOM     34  C   UNL     1      -4.153  32.500   5.615  1.00  0.00     0.143 C 
BRANCH  19  35
ATOM     35  O   UNL     1      -4.139  39.172   2.777  1.00  0.00    -0.385 OA
ATOM     36  H   UNL     1      -3.811  39.901   2.185  1.00  0.00     0.211 HD
ENDBRANCH  19  35
BRANCH  33  37
ATOM     37  O   UNL     1      -5.613  32.978   7.484  1.00  0.00    -0.390 OA
ATOM     38  H   UNL     1      -5.692  33.557   8.286  1.00  0.00     0.211 HD
ENDBRANCH  33  37
BRANCH  34  39
ATOM     39  O   UNL     1      -3.308  31.560   6.231  1.00  0.00    -0.390 OA
ATOM     40  H   UNL     1      -3.819  31.162   6.983  1.00  0.00     0.211 HD
ENDBRANCH  34  39
ENDBRANCH   1  15
BRANCH   1  41
ATOM     41  O   UNL     1      -7.907  38.484  -0.121  1.00  0.00    -0.387 OA
ATOM     42  H   UNL     1      -8.225  39.423  -0.143  1.00  0.00     0.211 HD
ENDBRANCH   1  41
TORSDOF 9
ENDMDL
MODEL 3
REMARK VINA RESULT:    -7.109      5.796      8.476
REMARK INTER + INTRA:         -10.483
REMARK INTER:                  -9.842
REMARK INTRA:                  -0.641
REMARK UNBOUND:                -0.673
REMARK SMILES C[C@@H]1OC(=O)[C@@H](C)[C@@H]1C[C@H](O)[C@@](C)(O)[C@H]1CC[C@]2(O)C3=CC(=O)[C@@H]4C[C@@H](O)[C@H](O)C[C@]4(C)[C@@H]3CC[C@]12C
REMARK SMILES IDX 12 1 13 2 10 3 9 4 8 5 7 6 6 7 4 8 2 9 3 10 5 11 1 12 11 13
REMARK SMILES IDX 15 15 16 16 36 17 17 18 18 19 35 20 37 21 20 22 34 23 33 24
REMARK SMILES IDX 21 25 31 26 22 27 24 28 30 29 32 30 23 31 25 32 28 33 26 34
REMARK SMILES IDX 19 35 29 37 27 39 14 41
REMARK H PARENT 11 14 19 36 29 38 27 40 14 42
REMARK Flexibility Score: inf
ROOT
ATOM      1  C   UNL     1      -1.991  37.414   4.542  1.00  0.00     0.091 C 
ATOM      2  C   UNL     1      -0.875  38.394   4.986  1.00  0.00     0.045 C 
ENDROOT
BRANCH   1   3
ATOM      3  C   UNL     1      -2.735  36.898   5.837  1.00  0.00     0.146 C 
BRANCH   3   4
ATOM      4  C   UNL     1      -2.741  35.344   5.988  1.00  0.00     0.043 C 
BRANCH   4   5
ATOM      5  C   UNL     1      -4.166  34.728   5.902  1.00  0.00     0.046 C 
ATOM      6  C   UNL     1      -5.273  33.360   4.042  1.00  0.00     0.020 C 
ATOM      7  C   UNL     1      -4.150  33.405   5.082  1.00  0.00     0.103 C 
ATOM      8  C   UNL     1      -4.363  32.377   6.127  1.00  0.00     0.309 C 
ATOM      9  C   UNL     1      -4.788  34.323   7.280  1.00  0.00     0.177 C 
ATOM     10  O   UNL     1      -4.671  32.914   7.354  1.00  0.00    -0.462 OA
ATOM     11  O   UNL     1      -4.259  31.138   5.932  1.00  0.00    -0.252 OA
ATOM     12  C   UNL     1      -4.194  34.970   8.533  1.00  0.00     0.053 C 
ENDBRANCH   4   5
ENDBRANCH   3   4
BRANCH   3  13
ATOM     13  O   UNL     1      -4.071  37.343   5.830  1.00  0.00    -0.390 OA
ATOM     14  H   UNL     1      -4.329  37.507   6.775  1.00  0.00     0.211 HD
ENDBRANCH   3  13
ENDBRANCH   1   3
BRANCH   1  15
ATOM     15  C   UNL     1      -3.030  38.098   3.550  1.00  0.00     0.032 C 
ATOM     16  C   UNL     1      -2.568  39.418   2.943  1.00  0.00     0.010 C 
ATOM     17  C   UNL     1      -3.706  37.309   2.353  1.00  0.00     0.006 C 
ATOM     18  C   UNL     1      -3.680  39.763   1.978  1.00  0.00     0.041 C 
ATOM     19  C   UNL     1      -4.017  38.434   1.267  1.00  0.00     0.092 C 
ATOM     20  C   UNL     1      -5.035  36.644   2.863  1.00  0.00     0.011 C 
ATOM     21  C   UNL     1      -2.800  36.193   1.762  1.00  0.00     0.015 C 
ATOM     22  C   UNL     1      -5.460  38.323   0.754  1.00  0.00    -0.031 C 
ATOM     23  C   UNL     1      -5.953  36.090   1.748  1.00  0.00     0.009 C 
ATOM     24  C   UNL     1      -5.918  36.917   0.432  1.00  0.00     0.025 C 
ATOM     25  C   UNL     1      -6.298  39.370   0.676  1.00  0.00     0.050 C 
ATOM     26  C   UNL     1      -7.185  36.849  -0.519  1.00  0.00    -0.013 C 
ATOM     27  C   UNL     1      -7.714  39.216   0.329  1.00  0.00     0.159 C 
ATOM     28  C   UNL     1      -8.287  37.902  -0.130  1.00  0.00     0.070 C 
ATOM     29  C   UNL     1      -7.791  35.398  -0.575  1.00  0.00     0.042 C 
ATOM     30  C   UNL     1      -6.708  37.204  -1.958  1.00  0.00     0.013 C 
ATOM     31  O   UNL     1      -8.467  40.224   0.398  1.00  0.00    -0.295 OA
ATOM     32  C   UNL     1      -9.318  37.354   0.871  1.00  0.00     0.047 C 
ATOM     33  C   UNL     1      -9.305  35.399  -0.831  1.00  0.00     0.143 C 
ATOM     34  C   UNL     1     -10.055  36.097   0.330  1.00  0.00     0.143 C 
BRANCH  19  35
ATOM     35  O   UNL     1      -3.151  38.307   0.158  1.00  0.00    -0.385 OA
ATOM     36  H   UNL     1      -2.332  37.831   0.459  1.00  0.00     0.211 HD
ENDBRANCH  19  35
BRANCH  33  37
ATOM     37  O   UNL     1      -9.749  34.072  -0.960  1.00  0.00    -0.390 OA
ATOM     38  H   UNL     1      -9.906  33.914  -1.926  1.00  0.00     0.211 HD
ENDBRANCH  33  37
BRANCH  34  39
ATOM     39  O   UNL     1     -11.340  36.451  -0.118  1.00  0.00    -0.390 OA
ATOM     40  H   UNL     1     -11.955  36.341   0.653  1.00  0.00     0.211 HD
ENDBRANCH  34  39
ENDBRANCH   1  15
BRANCH   1  41
ATOM     41  O   UNL     1      -1.372  36.321   3.904  1.00  0.00    -0.387 OA
ATOM     42  H   UNL     1      -1.966  35.533   3.997  1.00  0.00     0.211 HD
ENDBRANCH   1  41
TORSDOF 9
ENDMDL
MODEL 4
REMARK VINA RESULT:    -7.040      4.751      7.472
REMARK INTER + INTRA:         -10.388
REMARK INTER:                 -10.177
REMARK INTRA:                  -0.211
REMARK UNBOUND:                -0.673
REMARK SMILES C[C@@H]1OC(=O)[C@@H](C)[C@@H]1C[C@H](O)[C@@](C)(O)[C@H]1CC[C@]2(O)C3=CC(=O)[C@@H]4C[C@@H](O)[C@H](O)C[C@]4(C)[C@@H]3CC[C@]12C
REMARK SMILES IDX 12 1 13 2 10 3 9 4 8 5 7 6 6 7 4 8 2 9 3 10 5 11 1 12 11 13
REMARK SMILES IDX 15 15 16 16 36 17 17 18 18 19 35 20 37 21 20 22 34 23 33 24
REMARK SMILES IDX 21 25 31 26 22 27 24 28 30 29 32 30 23 31 25 32 28 33 26 34
REMARK SMILES IDX 19 35 29 37 27 39 14 41
REMARK H PARENT 11 14 19 36 29 38 27 40 14 42
REMARK Flexibility Score: inf
ROOT
ATOM      1  C   UNL     1      -7.586  36.810   2.274  1.00  0.00     0.091 C 
ATOM      2  C   UNL     1      -8.203  35.646   3.092  1.00  0.00     0.045 C 
ENDROOT
BRANCH   1   3
ATOM      3  C   UNL     1      -6.014  36.705   2.382  1.00  0.00     0.146 C 
BRANCH   3   4
ATOM      4  C   UNL     1      -5.497  35.284   2.768  1.00  0.00     0.043 C 
BRANCH   4   5
ATOM      5  C   UNL     1      -5.012  35.190   4.242  1.00  0.00     0.046 C 
ATOM      6  C   UNL     1      -6.141  34.166   6.299  1.00  0.00     0.020 C 
ATOM      7  C   UNL     1      -5.539  33.891   4.919  1.00  0.00     0.103 C 
ATOM      8  C   UNL     1      -4.311  33.071   5.038  1.00  0.00     0.309 C 
ATOM      9  C   UNL     1      -3.458  35.116   4.417  1.00  0.00     0.177 C 
ATOM     10  O   UNL     1      -3.169  33.761   4.708  1.00  0.00    -0.462 OA
ATOM     11  O   UNL     1      -4.300  31.861   5.386  1.00  0.00    -0.252 OA
ATOM     12  C   UNL     1      -2.599  35.601   3.247  1.00  0.00     0.053 C 
ENDBRANCH   4   5
ENDBRANCH   3   4
BRANCH   3  13
ATOM     13  O   UNL     1      -5.538  37.621   3.341  1.00  0.00    -0.390 OA
ATOM     14  H   UNL     1      -5.279  37.096   4.143  1.00  0.00     0.211 HD
ENDBRANCH   3  13
ENDBRANCH   1   3
BRANCH   1  15
ATOM     15  C   UNL     1      -8.035  36.774   0.748  1.00  0.00     0.032 C 
ATOM     16  C   UNL     1      -7.526  35.575  -0.045  1.00  0.00     0.010 C 
ATOM     17  C   UNL     1      -9.545  36.951   0.303  1.00  0.00     0.006 C 
ATOM     18  C   UNL     1      -8.190  35.744  -1.392  1.00  0.00     0.041 C 
ATOM     19  C   UNL     1      -9.647  36.146  -1.070  1.00  0.00     0.092 C 
ATOM     20  C   UNL     1      -9.838  38.477   0.078  1.00  0.00     0.011 C 
ATOM     21  C   UNL     1     -10.562  36.409   1.347  1.00  0.00     0.015 C 
ATOM     22  C   UNL     1     -10.340  36.987  -2.153  1.00  0.00    -0.031 C 
ATOM     23  C   UNL     1     -11.175  38.783  -0.639  1.00  0.00     0.009 C 
ATOM     24  C   UNL     1     -11.583  37.719  -1.697  1.00  0.00     0.025 C 
ATOM     25  C   UNL     1      -9.845  37.147  -3.392  1.00  0.00     0.050 C 
ATOM     26  C   UNL     1     -12.537  38.177  -2.878  1.00  0.00    -0.013 C 
ATOM     27  C   UNL     1     -10.441  38.073  -4.360  1.00  0.00     0.159 C 
ATOM     28  C   UNL     1     -11.743  38.780  -4.094  1.00  0.00     0.070 C 
ATOM     29  C   UNL     1     -13.640  39.180  -2.375  1.00  0.00     0.042 C 
ATOM     30  C   UNL     1     -13.272  36.908  -3.402  1.00  0.00     0.013 C 
ATOM     31  O   UNL     1      -9.851  38.264  -5.457  1.00  0.00    -0.295 OA
ATOM     32  C   UNL     1     -11.549  40.302  -3.992  1.00  0.00     0.047 C 
ATOM     33  C   UNL     1     -14.084  40.165  -3.466  1.00  0.00     0.143 C 
ATOM     34  C   UNL     1     -12.900  41.065  -3.903  1.00  0.00     0.143 C 
BRANCH  19  35
ATOM     35  O   UNL     1     -10.394  34.960  -0.898  1.00  0.00    -0.385 OA
ATOM     36  H   UNL     1     -11.192  35.010  -1.489  1.00  0.00     0.211 HD
ENDBRANCH  19  35
BRANCH  33  37
ATOM     37  O   UNL     1     -15.130  40.959  -2.969  1.00  0.00    -0.390 OA
ATOM     38  H   UNL     1     -15.973  40.468  -3.148  1.00  0.00     0.211 HD
ENDBRANCH  33  37
BRANCH  34  39
ATOM     39  O   UNL     1     -13.211  41.635  -5.150  1.00  0.00    -0.390 OA
ATOM     40  H   UNL     1     -13.522  40.896  -5.736  1.00  0.00     0.211 HD
ENDBRANCH  34  39
ENDBRANCH   1  15
BRANCH   1  41
ATOM     41  O   UNL     1      -8.005  38.018   2.865  1.00  0.00    -0.387 OA
ATOM     42  H   UNL     1      -7.755  37.995   3.825  1.00  0.00     0.211 HD
ENDBRANCH   1  41
TORSDOF 9
ENDMDL
MODEL 5
REMARK VINA RESULT:    -6.962      5.416      7.397
REMARK INTER + INTRA:         -10.280
REMARK INTER:                  -9.977
REMARK INTRA:                  -0.304
REMARK UNBOUND:                -0.673
REMARK SMILES C[C@@H]1OC(=O)[C@@H](C)[C@@H]1C[C@H](O)[C@@](C)(O)[C@H]1CC[C@]2(O)C3=CC(=O)[C@@H]4C[C@@H](O)[C@H](O)C[C@]4(C)[C@@H]3CC[C@]12C
REMARK SMILES IDX 12 1 13 2 10 3 9 4 8 5 7 6 6 7 4 8 2 9 3 10 5 11 1 12 11 13
REMARK SMILES IDX 15 15 16 16 36 17 17 18 18 19 35 20 37 21 20 22 34 23 33 24
REMARK SMILES IDX 21 25 31 26 22 27 24 28 30 29 32 30 23 31 25 32 28 33 26 34
REMARK SMILES IDX 19 35 29 37 27 39 14 41
REMARK H PARENT 11 14 19 36 29 38 27 40 14 42
REMARK Flexibility Score: inf
ROOT
ATOM      1  C   UNL     1      -5.330  36.806   0.926  1.00  0.00     0.091 C 
ATOM      2  C   UNL     1      -3.853  37.137   0.592  1.00  0.00     0.045 C 
ENDROOT
BRANCH   1   3
ATOM      3  C   UNL     1      -5.493  36.818   2.497  1.00  0.00     0.146 C 
BRANCH   3   4
ATOM      4  C   UNL     1      -6.334  35.629   3.057  1.00  0.00     0.043 C 
BRANCH   4   5
ATOM      5  C   UNL     1      -5.499  34.643   3.921  1.00  0.00     0.046 C 
ATOM      6  C   UNL     1      -2.969  34.482   4.278  1.00  0.00     0.020 C 
ATOM      7  C   UNL     1      -4.223  35.338   4.479  1.00  0.00     0.103 C 
ATOM      8  C   UNL     1      -4.537  35.475   5.921  1.00  0.00     0.309 C 
ATOM      9  C   UNL     1      -6.235  34.102   5.194  1.00  0.00     0.177 C 
ATOM     10  O   UNL     1      -5.687  34.818   6.286  1.00  0.00    -0.462 OA
ATOM     11  O   UNL     1      -3.842  36.138   6.736  1.00  0.00    -0.252 OA
ATOM     12  C   UNL     1      -7.762  34.196   5.211  1.00  0.00     0.053 C 
ENDBRANCH   4   5
ENDBRANCH   3   4
BRANCH   3  13
ATOM     13  O   UNL     1      -6.105  38.019   2.905  1.00  0.00    -0.390 OA
ATOM     14  H   UNL     1      -6.225  37.967   3.889  1.00  0.00     0.211 HD
ENDBRANCH   3  13
ENDBRANCH   1   3
BRANCH   1  15
ATOM     15  C   UNL     1      -6.342  37.840   0.263  1.00  0.00     0.032 C 
ATOM     16  C   UNL     1      -5.789  39.248   0.070  1.00  0.00     0.010 C 
ATOM     17  C   UNL     1      -7.127  37.519  -1.076  1.00  0.00     0.006 C 
ATOM     18  C   UNL     1      -6.901  39.958  -0.668  1.00  0.00     0.041 C 
ATOM     19  C   UNL     1      -7.378  38.949  -1.736  1.00  0.00     0.092 C 
ATOM     20  C   UNL     1      -8.488  36.823  -0.718  1.00  0.00     0.011 C 
ATOM     21  C   UNL     1      -6.343  36.586  -2.041  1.00  0.00     0.015 C 
ATOM     22  C   UNL     1      -8.843  39.108  -2.168  1.00  0.00    -0.031 C 
ATOM     23  C   UNL     1      -9.491  36.717  -1.891  1.00  0.00     0.009 C 
ATOM     24  C   UNL     1      -9.433  37.913  -2.883  1.00  0.00     0.025 C 
ATOM     25  C   UNL     1      -9.589  40.183  -1.863  1.00  0.00     0.050 C 
ATOM     26  C   UNL     1     -10.735  38.239  -3.727  1.00  0.00    -0.013 C 
ATOM     27  C   UNL     1     -11.025  40.248  -2.153  1.00  0.00     0.159 C 
ATOM     28  C   UNL     1     -11.726  39.190  -2.962  1.00  0.00     0.070 C 
ATOM     29  C   UNL     1     -11.466  36.926  -4.195  1.00  0.00     0.042 C 
ATOM     30  C   UNL     1     -10.282  38.995  -5.011  1.00  0.00     0.013 C 
ATOM     31  O   UNL     1     -11.685  41.234  -1.726  1.00  0.00    -0.295 OA
ATOM     32  C   UNL     1     -12.764  38.429  -2.120  1.00  0.00     0.047 C 
ATOM     33  C   UNL     1     -12.982  37.116  -4.345  1.00  0.00     0.143 C 
ATOM     34  C   UNL     1     -13.627  37.463  -2.979  1.00  0.00     0.143 C 
BRANCH  19  35
ATOM     35  O   UNL     1      -6.567  39.117  -2.881  1.00  0.00    -0.385 OA
ATOM     36  H   UNL     1      -5.935  39.864  -2.704  1.00  0.00     0.211 HD
ENDBRANCH  19  35
BRANCH  33  37
ATOM     37  O   UNL     1     -13.544  35.933  -4.853  1.00  0.00    -0.390 OA
ATOM     38  H   UNL     1     -12.915  35.198  -4.633  1.00  0.00     0.211 HD
ENDBRANCH  33  37
BRANCH  34  39
ATOM     39  O   UNL     1     -14.891  38.031  -3.215  1.00  0.00    -0.390 OA
ATOM     40  H   UNL     1     -14.759  38.767  -3.868  1.00  0.00     0.211 HD
ENDBRANCH  34  39
ENDBRANCH   1  15
BRANCH   1  41
ATOM     41  O   UNL     1      -5.596  35.507   0.449  1.00  0.00    -0.387 OA
ATOM     42  H   UNL     1      -4.759  34.979   0.506  1.00  0.00     0.211 HD
ENDBRANCH   1  41
TORSDOF 9
ENDMDL
MODEL 6
REMARK VINA RESULT:    -6.911      4.989      7.091
REMARK INTER + INTRA:         -10.209
REMARK INTER:                  -9.873
REMARK INTRA:                  -0.336
REMARK UNBOUND:                -0.673
REMARK SMILES C[C@@H]1OC(=O)[C@@H](C)[C@@H]1C[C@H](O)[C@@](C)(O)[C@H]1CC[C@]2(O)C3=CC(=O)[C@@H]4C[C@@H](O)[C@H](O)C[C@]4(C)[C@@H]3CC[C@]12C
REMARK SMILES IDX 12 1 13 2 10 3 9 4 8 5 7 6 6 7 4 8 2 9 3 10 5 11 1 12 11 13
REMARK SMILES IDX 15 15 16 16 36 17 17 18 18 19 35 20 37 21 20 22 34 23 33 24
REMARK SMILES IDX 21 25 31 26 22 27 24 28 30 29 32 30 23 31 25 32 28 33 26 34
REMARK SMILES IDX 19 35 29 37 27 39 14 41
REMARK H PARENT 11 14 19 36 29 38 27 40 14 42
REMARK Flexibility Score: inf
ROOT
ATOM      1  C   UNL     1      -7.220  37.164   1.093  1.00  0.00     0.091 C 
ATOM      2  C   UNL     1      -7.450  37.845   2.466  1.00  0.00     0.045 C 
ENDROOT
BRANCH   1   3
ATOM      3  C   UNL     1      -6.470  35.796   1.343  1.00  0.00     0.146 C 
BRANCH   3   4
ATOM      4  C   UNL     1      -5.113  35.945   2.098  1.00  0.00     0.043 C 
BRANCH   4   5
ATOM      5  C   UNL     1      -5.223  35.644   3.619  1.00  0.00     0.046 C 
ATOM      6  C   UNL     1      -7.136  34.610   4.971  1.00  0.00     0.020 C 
ATOM      7  C   UNL     1      -6.094  34.379   3.873  1.00  0.00     0.103 C 
ATOM      8  C   UNL     1      -5.090  33.380   4.306  1.00  0.00     0.309 C 
ATOM      9  C   UNL     1      -3.862  35.327   4.324  1.00  0.00     0.177 C 
ATOM     10  O   UNL     1      -3.844  33.923   4.506  1.00  0.00    -0.462 OA
ATOM     11  O   UNL     1      -5.333  32.155   4.461  1.00  0.00    -0.252 OA
ATOM     12  C   UNL     1      -2.585  35.787   3.619  1.00  0.00     0.053 C 
ENDBRANCH   4   5
ENDBRANCH   3   4
BRANCH   3  13
ATOM     13  O   UNL     1      -6.220  35.157   0.112  1.00  0.00    -0.390 OA
ATOM     14  H   UNL     1      -6.153  34.184   0.297  1.00  0.00     0.211 HD
ENDBRANCH   3  13
ENDBRANCH   1   3
BRANCH   1  15
ATOM     15  C   UNL     1      -8.584  36.907   0.315  1.00  0.00     0.032 C 
ATOM     16  C   UNL     1      -9.547  35.947   1.003  1.00  0.00     0.010 C 
ATOM     17  C   UNL     1      -9.493  38.091  -0.218  1.00  0.00     0.006 C 
ATOM     18  C   UNL     1     -10.771  35.988   0.116  1.00  0.00     0.041 C 
ATOM     19  C   UNL     1     -10.967  37.482  -0.222  1.00  0.00     0.092 C 
ATOM     20  C   UNL     1      -9.042  38.470  -1.673  1.00  0.00     0.011 C 
ATOM     21  C   UNL     1      -9.417  39.370   0.664  1.00  0.00     0.015 C 
ATOM     22  C   UNL     1     -11.674  37.756  -1.558  1.00  0.00    -0.031 C 
ATOM     23  C   UNL     1     -10.017  39.400  -2.434  1.00  0.00     0.009 C 
ATOM     24  C   UNL     1     -11.514  39.164  -2.089  1.00  0.00     0.025 C 
ATOM     25  C   UNL     1     -12.313  36.808  -2.262  1.00  0.00     0.050 C 
ATOM     26  C   UNL     1     -12.597  39.575  -3.172  1.00  0.00    -0.013 C 
ATOM     27  C   UNL     1     -12.848  37.056  -3.605  1.00  0.00     0.159 C 
ATOM     28  C   UNL     1     -12.871  38.431  -4.216  1.00  0.00     0.070 C 
ATOM     29  C   UNL     1     -12.209  40.916  -3.899  1.00  0.00     0.042 C 
ATOM     30  C   UNL     1     -13.936  39.831  -2.419  1.00  0.00     0.013 C 
ATOM     31  O   UNL     1     -13.324  36.086  -4.255  1.00  0.00    -0.295 OA
ATOM     32  C   UNL     1     -11.962  38.514  -5.454  1.00  0.00     0.047 C 
ATOM     33  C   UNL     1     -12.742  40.983  -5.337  1.00  0.00     0.143 C 
ATOM     34  C   UNL     1     -12.112  39.866  -6.206  1.00  0.00     0.143 C 
BRANCH  19  35
ATOM     35  O   UNL     1     -11.746  38.058   0.807  1.00  0.00    -0.385 OA
ATOM     36  H   UNL     1     -11.655  39.047   0.745  1.00  0.00     0.211 HD
ENDBRANCH  19  35
BRANCH  33  37
ATOM     37  O   UNL     1     -12.435  42.242  -5.881  1.00  0.00    -0.390 OA
ATOM     38  H   UNL     1     -12.772  42.241  -6.814  1.00  0.00     0.211 HD
ENDBRANCH  33  37
BRANCH  34  39
ATOM     39  O   UNL     1     -12.908  39.690  -7.352  1.00  0.00    -0.390 OA
ATOM     40  H   UNL     1     -12.383  40.030  -8.123  1.00  0.00     0.211 HD
ENDBRANCH  34  39
ENDBRANCH   1  15
BRANCH   1  41
ATOM     41  O   UNL     1      -6.389  38.008   0.331  1.00  0.00    -0.387 OA
ATOM     42  H   UNL     1      -5.496  37.582   0.262  1.00  0.00     0.211 HD
ENDBRANCH   1  41
TORSDOF 9
ENDMDL
MODEL 7
REMARK VINA RESULT:    -6.806      4.613      8.234
REMARK INTER + INTRA:         -10.065
REMARK INTER:                  -9.039
REMARK INTRA:                  -1.025
REMARK UNBOUND:                -0.673
REMARK SMILES C[C@@H]1OC(=O)[C@@H](C)[C@@H]1C[C@H](O)[C@@](C)(O)[C@H]1CC[C@]2(O)C3=CC(=O)[C@@H]4C[C@@H](O)[C@H](O)C[C@]4(C)[C@@H]3CC[C@]12C
REMARK SMILES IDX 12 1 13 2 10 3 9 4 8 5 7 6 6 7 4 8 2 9 3 10 5 11 1 12 11 13
REMARK SMILES IDX 15 15 16 16 36 17 17 18 18 19 35 20 37 21 20 22 34 23 33 24
REMARK SMILES IDX 21 25 31 26 22 27 24 28 30 29 32 30 23 31 25 32 28 33 26 34
REMARK SMILES IDX 19 35 29 37 27 39 14 41
REMARK H PARENT 11 14 19 36 29 38 27 40 14 42
REMARK Flexibility Score: inf
ROOT
ATOM      1  C   UNL     1      -8.020  37.351   2.055  1.00  0.00     0.091 C 
ATOM      2  C   UNL     1      -7.988  36.026   2.858  1.00  0.00     0.045 C 
ENDROOT
BRANCH   1   3
ATOM      3  C   UNL     1      -6.573  37.986   2.098  1.00  0.00     0.146 C 
BRANCH   3   4
ATOM      4  C   UNL     1      -5.431  36.947   2.323  1.00  0.00     0.043 C 
BRANCH   4   5
ATOM      5  C   UNL     1      -4.497  36.788   1.090  1.00  0.00     0.046 C 
ATOM      6  C   UNL     1      -4.848  37.463  -1.355  1.00  0.00     0.020 C 
ATOM      7  C   UNL     1      -4.700  37.960   0.086  1.00  0.00     0.103 C 
ATOM      8  C   UNL     1      -3.449  38.738   0.245  1.00  0.00     0.309 C 
ATOM      9  C   UNL     1      -2.967  36.819   1.420  1.00  0.00     0.177 C 
ATOM     10  O   UNL     1      -2.518  38.104   1.030  1.00  0.00    -0.462 OA
ATOM     11  O   UNL     1      -3.253  39.873  -0.265  1.00  0.00    -0.252 OA
ATOM     12  C   UNL     1      -2.557  36.530   2.865  1.00  0.00     0.053 C 
ENDBRANCH   4   5
ENDBRANCH   3   4
BRANCH   3  13
ATOM     13  O   UNL     1      -6.503  38.946   3.126  1.00  0.00    -0.390 OA
ATOM     14  H   UNL     1      -5.995  39.720   2.769  1.00  0.00     0.211 HD
ENDBRANCH   3  13
ENDBRANCH   1   3
BRANCH   1  15
ATOM     15  C   UNL     1      -8.476  37.128   0.547  1.00  0.00     0.032 C 
ATOM     16  C   UNL     1      -7.966  35.844  -0.097  1.00  0.00     0.010 C 
ATOM     17  C   UNL     1      -9.990  37.244   0.093  1.00  0.00     0.006 C 
ATOM     18  C   UNL     1      -8.638  35.845  -1.451  1.00  0.00     0.041 C 
ATOM     19  C   UNL     1     -10.095  36.278  -1.172  1.00  0.00     0.092 C 
ATOM     20  C   UNL     1     -10.291  38.731  -0.315  1.00  0.00     0.011 C 
ATOM     21  C   UNL     1     -10.998  36.830   1.200  1.00  0.00     0.015 C 
ATOM     22  C   UNL     1     -10.797  36.979  -2.345  1.00  0.00    -0.031 C 
ATOM     23  C   UNL     1     -11.633  38.942  -1.055  1.00  0.00     0.009 C 
ATOM     24  C   UNL     1     -12.041  37.756  -1.973  1.00  0.00     0.025 C 
ATOM     25  C   UNL     1     -10.310  36.988  -3.596  1.00  0.00     0.050 C 
ATOM     26  C   UNL     1     -13.004  38.063  -3.196  1.00  0.00    -0.013 C 
ATOM     27  C   UNL     1     -10.916  37.788  -4.666  1.00  0.00     0.159 C 
ATOM     28  C   UNL     1     -12.219  38.517  -4.481  1.00  0.00     0.070 C 
ATOM     29  C   UNL     1     -14.109  39.115  -2.813  1.00  0.00     0.042 C 
ATOM     30  C   UNL     1     -13.736  36.737  -3.557  1.00  0.00     0.013 C 
ATOM     31  O   UNL     1     -10.332  37.846  -5.782  1.00  0.00    -0.295 OA
ATOM     32  C   UNL     1     -12.032  40.041  -4.566  1.00  0.00     0.047 C 
ATOM     33  C   UNL     1     -14.563  39.958  -4.012  1.00  0.00     0.143 C 
ATOM     34  C   UNL     1     -13.386  40.803  -4.563  1.00  0.00     0.143 C 
BRANCH  19  35
ATOM     35  O   UNL     1     -10.836  35.119  -0.852  1.00  0.00    -0.385 OA
ATOM     36  H   UNL     1     -10.392  34.340  -1.282  1.00  0.00     0.211 HD
ENDBRANCH  19  35
BRANCH  33  37
ATOM     37  O   UNL     1     -15.611  40.803  -3.609  1.00  0.00    -0.390 OA
ATOM     38  H   UNL     1     -15.537  41.631  -4.151  1.00  0.00     0.211 HD
ENDBRANCH  33  37
BRANCH  34  39
ATOM     39  O   UNL     1     -13.707  41.216  -5.867  1.00  0.00    -0.390 OA
ATOM     40  H   UNL     1     -13.979  40.404  -6.369  1.00  0.00     0.211 HD
ENDBRANCH  34  39
ENDBRANCH   1  15
BRANCH   1  41
ATOM     41  O   UNL     1      -8.920  38.222   2.701  1.00  0.00    -0.387 OA
ATOM     42  H   UNL     1      -9.224  37.786   3.539  1.00  0.00     0.211 HD
ENDBRANCH   1  41
TORSDOF 9
ENDMDL
MODEL 8
REMARK VINA RESULT:    -6.786      2.250      3.404
REMARK INTER + INTRA:         -10.037
REMARK INTER:                  -9.212
REMARK INTRA:                  -0.825
REMARK UNBOUND:                -0.673
REMARK SMILES C[C@@H]1OC(=O)[C@@H](C)[C@@H]1C[C@H](O)[C@@](C)(O)[C@H]1CC[C@]2(O)C3=CC(=O)[C@@H]4C[C@@H](O)[C@H](O)C[C@]4(C)[C@@H]3CC[C@]12C
REMARK SMILES IDX 12 1 13 2 10 3 9 4 8 5 7 6 6 7 4 8 2 9 3 10 5 11 1 12 11 13
REMARK SMILES IDX 15 15 16 16 36 17 17 18 18 19 35 20 37 21 20 22 34 23 33 24
REMARK SMILES IDX 21 25 31 26 22 27 24 28 30 29 32 30 23 31 25 32 28 33 26 34
REMARK SMILES IDX 19 35 29 37 27 39 14 41
REMARK H PARENT 11 14 19 36 29 38 27 40 14 42
REMARK Flexibility Score: inf
ROOT
ATOM      1  C   UNL     1     -13.636  36.045   6.303  1.00  0.00     0.091 C 
ATOM      2  C   UNL     1     -14.054  37.160   7.295  1.00  0.00     0.045 C 
ENDROOT
BRANCH   1   3
ATOM      3  C   UNL     1     -14.887  35.113   6.056  1.00  0.00     0.146 C 
BRANCH   3   4
ATOM      4  C   UNL     1     -16.128  35.470   6.933  1.00  0.00     0.043 C 
BRANCH   4   5
ATOM      5  C   UNL     1     -17.427  35.662   6.102  1.00  0.00     0.046 C 
ATOM      6  C   UNL     1     -17.900  37.166   4.084  1.00  0.00     0.020 C 
ATOM      7  C   UNL     1     -17.094  35.977   4.614  1.00  0.00     0.103 C 
ATOM      8  C   UNL     1     -17.492  34.727   3.926  1.00  0.00     0.309 C 
ATOM      9  C   UNL     1     -18.354  34.402   6.034  1.00  0.00     0.177 C 
ATOM     10  O   UNL     1     -18.150  33.846   4.748  1.00  0.00    -0.462 OA
ATOM     11  O   UNL     1     -17.243  34.476   2.717  1.00  0.00    -0.252 OA
ATOM     12  C   UNL     1     -18.160  33.333   7.111  1.00  0.00     0.053 C 
ENDBRANCH   4   5
ENDBRANCH   3   4
BRANCH   3  13
ATOM     13  O   UNL     1     -14.541  33.771   6.312  1.00  0.00    -0.390 OA
ATOM     14  H   UNL     1     -15.386  33.277   6.478  1.00  0.00     0.211 HD
ENDBRANCH   3  13
ENDBRANCH   1   3
BRANCH   1  15
ATOM     15  C   UNL     1     -13.113  36.637   4.921  1.00  0.00     0.032 C 
ATOM     16  C   UNL     1     -13.971  37.751   4.332  1.00  0.00     0.010 C 
ATOM     17  C   UNL     1     -11.616  37.117   4.716  1.00  0.00     0.006 C 
ATOM     18  C   UNL     1     -13.186  38.186   3.115  1.00  0.00     0.041 C 
ATOM     19  C   UNL     1     -11.716  38.241   3.588  1.00  0.00     0.092 C 
ATOM     20  C   UNL     1     -10.752  35.904   4.220  1.00  0.00     0.011 C 
ATOM     21  C   UNL     1     -10.967  37.679   6.012  1.00  0.00     0.015 C 
ATOM     22  C   UNL     1     -10.672  38.010   2.486  1.00  0.00    -0.031 C 
ATOM     23  C   UNL     1      -9.346  36.280   3.695  1.00  0.00     0.009 C 
ATOM     24  C   UNL     1      -9.286  37.659   2.980  1.00  0.00     0.025 C 
ATOM     25  C   UNL     1     -10.968  38.024   1.176  1.00  0.00     0.050 C 
ATOM     26  C   UNL     1      -8.138  37.890   1.911  1.00  0.00    -0.013 C 
ATOM     27  C   UNL     1      -9.991  37.652   0.148  1.00  0.00     0.159 C 
ATOM     28  C   UNL     1      -8.544  37.395   0.474  1.00  0.00     0.070 C 
ATOM     29  C   UNL     1      -6.781  37.235   2.367  1.00  0.00     0.042 C 
ATOM     30  C   UNL     1      -7.896  39.425   1.809  1.00  0.00     0.013 C 
ATOM     31  O   UNL     1     -10.375  37.568  -1.050  1.00  0.00    -0.295 OA
ATOM     32  C   UNL     1      -8.156  35.930   0.209  1.00  0.00     0.047 C 
ATOM     33  C   UNL     1      -5.913  36.790   1.182  1.00  0.00     0.143 C 
ATOM     34  C   UNL     1      -6.629  35.687   0.362  1.00  0.00     0.143 C 
BRANCH  19  35
ATOM     35  O   UNL     1     -11.488  39.521   4.141  1.00  0.00    -0.385 OA
ATOM     36  H   UNL     1     -11.997  40.184   3.602  1.00  0.00     0.211 HD
ENDBRANCH  19  35
BRANCH  33  37
ATOM     37  O   UNL     1      -4.687  36.305   1.668  1.00  0.00    -0.390 OA
ATOM     38  H   UNL     1      -4.895  35.740   2.457  1.00  0.00     0.211 HD
ENDBRANCH  33  37
BRANCH  34  39
ATOM     39  O   UNL     1      -6.027  35.612  -0.905  1.00  0.00    -0.390 OA
ATOM     40  H   UNL     1      -6.589  36.147  -1.525  1.00  0.00     0.211 HD
ENDBRANCH  34  39
ENDBRANCH   1  15
BRANCH   1  41
ATOM     41  O   UNL     1     -12.616  35.290   6.913  1.00  0.00    -0.387 OA
ATOM     42  H   UNL     1     -11.811  35.864   6.991  1.00  0.00     0.211 HD
ENDBRANCH   1  41
TORSDOF 9
ENDMDL
MODEL 9
REMARK VINA RESULT:    -6.779      2.388      4.683
REMARK INTER + INTRA:         -10.028
REMARK INTER:                  -9.536
REMARK INTRA:                  -0.492
REMARK UNBOUND:                -0.673
REMARK SMILES C[C@@H]1OC(=O)[C@@H](C)[C@@H]1C[C@H](O)[C@@](C)(O)[C@H]1CC[C@]2(O)C3=CC(=O)[C@@H]4C[C@@H](O)[C@H](O)C[C@]4(C)[C@@H]3CC[C@]12C
REMARK SMILES IDX 12 1 13 2 10 3 9 4 8 5 7 6 6 7 4 8 2 9 3 10 5 11 1 12 11 13
REMARK SMILES IDX 15 15 16 16 36 17 17 18 18 19 35 20 37 21 20 22 34 23 33 24
REMARK SMILES IDX 21 25 31 26 22 27 24 28 30 29 32 30 23 31 25 32 28 33 26 34
REMARK SMILES IDX 19 35 29 37 27 39 14 41
REMARK H PARENT 11 14 19 36 29 38 27 40 14 42
REMARK Flexibility Score: inf
ROOT
ATOM      1  C   UNL     1      -8.691  37.373   2.443  1.00  0.00     0.091 C 
ATOM      2  C   UNL     1      -9.105  38.807   2.859  1.00  0.00     0.045 C 
ENDROOT
BRANCH   1   3
ATOM      3  C   UNL     1      -9.649  36.353   3.175  1.00  0.00     0.146 C 
BRANCH   3   4
ATOM      4  C   UNL     1     -10.472  36.981   4.343  1.00  0.00     0.043 C 
BRANCH   4   5
ATOM      5  C   UNL     1     -11.884  36.351   4.503  1.00  0.00     0.046 C 
ATOM      6  C   UNL     1     -12.649  34.310   5.846  1.00  0.00     0.020 C 
ATOM      7  C   UNL     1     -12.053  35.719   5.915  1.00  0.00     0.103 C 
ATOM      8  C   UNL     1     -12.996  36.653   6.574  1.00  0.00     0.309 C 
ATOM      9  C   UNL     1     -13.070  37.367   4.387  1.00  0.00     0.177 C 
ATOM     10  O   UNL     1     -13.513  37.591   5.714  1.00  0.00    -0.462 OA
ATOM     11  O   UNL     1     -13.288  36.617   7.798  1.00  0.00    -0.252 OA
ATOM     12  C   UNL     1     -12.785  38.699   3.691  1.00  0.00     0.053 C 
ENDBRANCH   4   5
ENDBRANCH   3   4
BRANCH   3  13
ATOM     13  O   UNL     1      -8.898  35.280   3.694  1.00  0.00    -0.390 OA
ATOM     14  H   UNL     1      -8.645  34.702   2.927  1.00  0.00     0.211 HD
ENDBRANCH   3  13
ENDBRANCH   1   3
BRANCH   1  15
ATOM     15  C   UNL     1      -8.765  37.161   0.867  1.00  0.00     0.032 C 
ATOM     16  C   UNL     1      -8.112  35.881   0.358  1.00  0.00     0.010 C 
ATOM     17  C   UNL     1     -10.123  37.280   0.059  1.00  0.00     0.006 C 
ATOM     18  C   UNL     1      -8.435  35.891  -1.119  1.00  0.00     0.041 C 
ATOM     19  C   UNL     1      -9.916  36.323  -1.200  1.00  0.00     0.092 C 
ATOM     20  C   UNL     1     -10.318  38.770  -0.400  1.00  0.00     0.011 C 
ATOM     21  C   UNL     1     -11.371  36.858   0.885  1.00  0.00     0.015 C 
ATOM     22  C   UNL     1     -10.313  37.032  -2.504  1.00  0.00    -0.031 C 
ATOM     23  C   UNL     1     -11.439  38.987  -1.443  1.00  0.00     0.009 C 
ATOM     24  C   UNL     1     -11.610  37.807  -2.441  1.00  0.00     0.025 C 
ATOM     25  C   UNL     1      -9.535  37.050  -3.599  1.00  0.00     0.050 C 
ATOM     26  C   UNL     1     -12.247  38.123  -3.859  1.00  0.00    -0.013 C 
ATOM     27  C   UNL     1      -9.863  37.857  -4.779  1.00  0.00     0.159 C 
ATOM     28  C   UNL     1     -11.173  38.585  -4.912  1.00  0.00     0.070 C 
ATOM     29  C   UNL     1     -13.414  39.173  -3.750  1.00  0.00     0.042 C 
ATOM     30  C   UNL     1     -12.867  36.799  -4.397  1.00  0.00     0.013 C 
ATOM     31  O   UNL     1      -9.025  37.923  -5.719  1.00  0.00    -0.295 OA
ATOM     32  C   UNL     1     -10.973  40.110  -4.938  1.00  0.00     0.047 C 
ATOM     33  C   UNL     1     -13.563  40.024  -5.018  1.00  0.00     0.143 C 
ATOM     34  C   UNL     1     -12.289  40.872  -5.259  1.00  0.00     0.143 C 
BRANCH  19  35
ATOM     35  O   UNL     1     -10.711  35.162  -1.078  1.00  0.00    -0.385 OA
ATOM     36  H   UNL     1     -11.657  35.447  -0.965  1.00  0.00     0.211 HD
ENDBRANCH  19  35
BRANCH  33  37
ATOM     37  O   UNL     1     -14.678  40.866  -4.876  1.00  0.00    -0.390 OA
ATOM     38  H   UNL     1     -14.869  40.930  -3.905  1.00  0.00     0.211 HD
ENDBRANCH  33  37
BRANCH  34  39
ATOM     39  O   UNL     1     -12.282  41.295  -6.600  1.00  0.00    -0.390 OA
ATOM     40  H   UNL     1     -12.055  42.261  -6.597  1.00  0.00     0.211 HD
ENDBRANCH  34  39
ENDBRANCH   1  15
BRANCH   1  41
ATOM     41  O   UNL     1      -7.371  37.162   2.889  1.00  0.00    -0.387 OA
ATOM     42  H   UNL     1      -7.377  36.392   3.515  1.00  0.00     0.211 HD
ENDBRANCH   1  41
TORSDOF 9
ENDMDL
