MODEL 1
REMARK VINA RESULT:    -2.993      0.000      0.000
REMARK INTER + INTRA:          -4.338
REMARK INTER:                  -4.131
REMARK INTRA:                  -0.207
REMARK UNBOUND:                -0.207
REMARK SMILES CCCCCCCCO
REMARK SMILES IDX 5 1 4 2 3 3 2 4 1 5 6 6 7 7 8 8 9 9
REMARK H PARENT 9 10
REMARK Flexibility Score: inf
ROOT
ATOM      1  C   UNL     1      -1.159   8.233  -0.169  1.00  0.00     0.000 C 
ENDROOT
BRANCH   1   2
ATOM      2  C   UNL     1      -1.247   6.714   0.051  1.00  0.00    -0.000 C 
BRANCH   2   3
ATOM      3  C   UNL     1      -1.888   5.979  -1.136  1.00  0.00    -0.000 C 
BRANCH   3   4
ATOM      4  C   UNL     1      -1.543   4.485  -1.106  1.00  0.00    -0.003 C 
ATOM      5  C   UNL     1      -1.708   3.853  -2.485  1.00  0.00     0.004 C 
ENDBRANCH   3   4
ENDBRANCH   2   3
ENDBRANCH   1   2
BRANCH   1   6
ATOM      6  C   UNL     1      -0.311   8.938   0.905  1.00  0.00     0.002 C 
BRANCH   6   7
ATOM      7  C   UNL     1      -0.286   8.169   2.237  1.00  0.00     0.028 C 
BRANCH   7   8
ATOM      8  C   UNL     1      -1.329   8.657   3.247  1.00  0.00     0.156 C 
BRANCH   8   9
ATOM      9  O   UNL     1      -2.272   7.651   3.497  1.00  0.00    -0.396 OA
ATOM     10  H   UNL     1      -2.567   7.323   2.607  1.00  0.00     0.210 HD
ENDBRANCH   8   9
ENDBRANCH   7   8
ENDBRANCH   6   7
ENDBRANCH   1   6
TORSDOF 7
ENDMDL
MODEL 2
REMARK VINA RESULT:    -2.971      3.025      5.598
REMARK INTER + INTRA:          -4.307
REMARK INTER:                  -4.118
REMARK INTRA:                  -0.189
REMARK UNBOUND:                -0.207
REMARK SMILES CCCCCCCCO
REMARK SMILES IDX 5 1 4 2 3 3 2 4 1 5 6 6 7 7 8 8 9 9
REMARK H PARENT 9 10
REMARK Flexibility Score: inf
ROOT
ATOM      1  C   UNL     1      -2.466   6.153  -1.443  1.00  0.00     0.000 C 
ENDROOT
BRANCH   1   2
ATOM      2  C   UNL     1      -2.247   7.325  -0.472  1.00  0.00    -0.000 C 
BRANCH   2   3
ATOM      3  C   UNL     1      -1.119   7.059   0.535  1.00  0.00    -0.000 C 
BRANCH   3   4
ATOM      4  C   UNL     1      -1.428   7.709   1.889  1.00  0.00    -0.003 C 
ATOM      5  C   UNL     1      -0.200   8.417   2.454  1.00  0.00     0.004 C 
ENDBRANCH   3   4
ENDBRANCH   2   3
ENDBRANCH   1   2
BRANCH   1   6
ATOM      6  C   UNL     1      -1.718   4.879  -1.011  1.00  0.00     0.002 C 
BRANCH   6   7
ATOM      7  C   UNL     1      -1.155   4.091  -2.205  1.00  0.00     0.028 C 
BRANCH   7   8
ATOM      8  C   UNL     1      -2.232   3.575  -3.165  1.00  0.00     0.156 C 
BRANCH   8   9
ATOM      9  O   UNL     1      -2.260   2.175  -3.156  1.00  0.00    -0.396 OA
ATOM     10  H   UNL     1      -2.747   1.903  -3.978  1.00  0.00     0.210 HD
ENDBRANCH   8   9
ENDBRANCH   7   8
ENDBRANCH   6   7
ENDBRANCH   1   6
TORSDOF 7
ENDMDL
MODEL 3
REMARK VINA RESULT:    -2.852      8.266      9.063
REMARK INTER + INTRA:          -4.143
REMARK INTER:                  -3.891
REMARK INTRA:                  -0.252
REMARK UNBOUND:                -0.207
REMARK SMILES CCCCCCCCO
REMARK SMILES IDX 5 1 4 2 3 3 2 4 1 5 6 6 7 7 8 8 9 9
REMARK H PARENT 9 10
REMARK Flexibility Score: inf
ROOT
ATOM      1  C   UNL     1       6.755   3.743  -2.338  1.00  0.00     0.000 C 
ENDROOT
BRANCH   1   2
ATOM      2  C   UNL     1       5.490   3.357  -1.555  1.00  0.00    -0.000 C 
BRANCH   2   3
ATOM      3  C   UNL     1       5.694   3.405  -0.033  1.00  0.00    -0.000 C 
BRANCH   3   4
ATOM      4  C   UNL     1       6.972   2.661   0.372  1.00  0.00    -0.003 C 
ATOM      5  C   UNL     1       6.703   1.171   0.569  1.00  0.00     0.004 C 
ENDBRANCH   3   4
ENDBRANCH   2   3
ENDBRANCH   1   2
BRANCH   1   6
ATOM      6  C   UNL     1       6.443   4.576  -3.593  1.00  0.00     0.002 C 
BRANCH   6   7
ATOM      7  C   UNL     1       5.502   5.757  -3.301  1.00  0.00     0.028 C 
BRANCH   7   8
ATOM      8  C   UNL     1       4.449   5.989  -4.389  1.00  0.00     0.156 C 
BRANCH   8   9
ATOM      9  O   UNL     1       4.257   7.361  -4.595  1.00  0.00    -0.396 OA
ATOM     10  H   UNL     1       4.663   7.567  -5.478  1.00  0.00     0.210 HD
ENDBRANCH   8   9
ENDBRANCH   7   8
ENDBRANCH   6   7
ENDBRANCH   1   6
TORSDOF 7
ENDMDL
MODEL 4
REMARK VINA RESULT:    -2.834      8.825      9.729
REMARK INTER + INTRA:          -4.118
REMARK INTER:                  -3.883
REMARK INTRA:                  -0.235
REMARK UNBOUND:                -0.207
REMARK SMILES CCCCCCCCO
REMARK SMILES IDX 5 1 4 2 3 3 2 4 1 5 6 6 7 7 8 8 9 9
REMARK H PARENT 9 10
REMARK Flexibility Score: inf
ROOT
ATOM      1  C   UNL     1       5.607   3.486  -0.164  1.00  0.00     0.000 C 
ENDROOT
BRANCH   1   2
ATOM      2  C   UNL     1       6.721   2.935   0.742  1.00  0.00    -0.000 C 
BRANCH   2   3
ATOM      3  C   UNL     1       6.879   1.411   0.629  1.00  0.00    -0.000 C 
BRANCH   3   4
ATOM      4  C   UNL     1       7.872   0.885   1.673  1.00  0.00    -0.003 C 
ATOM      5  C   UNL     1       7.963   1.826   2.872  1.00  0.00     0.004 C 
ENDBRANCH   3   4
ENDBRANCH   2   3
ENDBRANCH   1   2
BRANCH   1   6
ATOM      6  C   UNL     1       5.620   2.854  -1.567  1.00  0.00     0.002 C 
BRANCH   6   7
ATOM      7  C   UNL     1       6.199   3.798  -2.635  1.00  0.00     0.028 C 
BRANCH   7   8
ATOM      8  C   UNL     1       5.178   4.793  -3.195  1.00  0.00     0.156 C 
BRANCH   8   9
ATOM      9  O   UNL     1       5.620   6.107  -2.996  1.00  0.00    -0.396 OA
ATOM     10  H   UNL     1       5.043   6.681  -3.565  1.00  0.00     0.210 HD
ENDBRANCH   8   9
ENDBRANCH   7   8
ENDBRANCH   6   7
ENDBRANCH   1   6
TORSDOF 7
ENDMDL
MODEL 5
REMARK VINA RESULT:    -2.805      3.861      5.069
REMARK INTER + INTRA:          -4.079
REMARK INTER:                  -3.652
REMARK INTRA:                  -0.426
REMARK UNBOUND:                -0.207
REMARK SMILES CCCCCCCCO
REMARK SMILES IDX 5 1 4 2 3 3 2 4 1 5 6 6 7 7 8 8 9 9
REMARK H PARENT 9 10
REMARK Flexibility Score: inf
ROOT
ATOM      1  C   UNL     1      -3.107   6.246  -2.022  1.00  0.00     0.000 C 
ENDROOT
BRANCH   1   2
ATOM      2  C   UNL     1      -4.400   6.533  -1.241  1.00  0.00    -0.000 C 
BRANCH   2   3
ATOM      3  C   UNL     1      -5.554   5.600  -1.638  1.00  0.00    -0.000 C 
BRANCH   3   4
ATOM      4  C   UNL     1      -5.136   4.129  -1.515  1.00  0.00    -0.003 C 
ATOM      5  C   UNL     1      -5.865   3.262  -2.537  1.00  0.00     0.004 C 
ENDBRANCH   3   4
ENDBRANCH   2   3
ENDBRANCH   1   2
BRANCH   1   6
ATOM      6  C   UNL     1      -1.921   5.914  -1.100  1.00  0.00     0.002 C 
BRANCH   6   7
ATOM      7  C   UNL     1      -1.488   4.441  -1.202  1.00  0.00     0.028 C 
BRANCH   7   8
ATOM      8  C   UNL     1      -1.567   3.873  -2.622  1.00  0.00     0.156 C 
BRANCH   8   9
ATOM      9  O   UNL     1      -1.934   2.522  -2.586  1.00  0.00    -0.396 OA
ATOM     10  H   UNL     1      -1.309   2.084  -1.950  1.00  0.00     0.210 HD
ENDBRANCH   8   9
ENDBRANCH   7   8
ENDBRANCH   6   7
ENDBRANCH   1   6
TORSDOF 7
ENDMDL
MODEL 6
REMARK VINA RESULT:    -2.800      7.515      8.239
REMARK INTER + INTRA:          -4.072
REMARK INTER:                  -3.641
REMARK INTRA:                  -0.431
REMARK UNBOUND:                -0.207
REMARK SMILES CCCCCCCCO
REMARK SMILES IDX 5 1 4 2 3 3 2 4 1 5 6 6 7 7 8 8 9 9
REMARK H PARENT 9 10
REMARK Flexibility Score: inf
ROOT
ATOM      1  C   UNL     1       6.533   4.820  -3.500  1.00  0.00     0.000 C 
ENDROOT
BRANCH   1   2
ATOM      2  C   UNL     1       5.307   5.693  -3.188  1.00  0.00    -0.000 C 
BRANCH   2   3
ATOM      3  C   UNL     1       4.694   6.329  -4.444  1.00  0.00    -0.000 C 
BRANCH   3   4
ATOM      4  C   UNL     1       4.059   5.263  -5.345  1.00  0.00    -0.003 C 
ATOM      5  C   UNL     1       3.035   4.431  -4.578  1.00  0.00     0.004 C 
ENDBRANCH   3   4
ENDBRANCH   2   3
ENDBRANCH   1   2
BRANCH   1   6
ATOM      6  C   UNL     1       6.756   3.716  -2.451  1.00  0.00     0.002 C 
BRANCH   6   7
ATOM      7  C   UNL     1       5.444   3.241  -1.805  1.00  0.00     0.028 C 
BRANCH   7   8
ATOM      8  C   UNL     1       5.564   2.961  -0.304  1.00  0.00     0.156 C 
BRANCH   8   9
ATOM      9  O   UNL     1       5.883   4.137   0.387  1.00  0.00    -0.396 OA
ATOM     10  H   UNL     1       5.109   4.328   0.979  1.00  0.00     0.210 HD
ENDBRANCH   8   9
ENDBRANCH   7   8
ENDBRANCH   6   7
ENDBRANCH   1   6
TORSDOF 7
ENDMDL
MODEL 7
REMARK VINA RESULT:    -2.799      8.456      9.135
REMARK INTER + INTRA:          -4.071
REMARK INTER:                  -3.830
REMARK INTRA:                  -0.241
REMARK UNBOUND:                -0.207
REMARK SMILES CCCCCCCCO
REMARK SMILES IDX 5 1 4 2 3 3 2 4 1 5 6 6 7 7 8 8 9 9
REMARK H PARENT 9 10
REMARK Flexibility Score: inf
ROOT
ATOM      1  C   UNL     1       5.596   3.494  -1.563  1.00  0.00     0.000 C 
ENDROOT
BRANCH   1   2
ATOM      2  C   UNL     1       6.818   3.791  -2.448  1.00  0.00    -0.000 C 
BRANCH   2   3
ATOM      3  C   UNL     1       6.454   4.571  -3.720  1.00  0.00    -0.000 C 
BRANCH   3   4
ATOM      4  C   UNL     1       5.599   5.799  -3.385  1.00  0.00    -0.003 C 
ATOM      5  C   UNL     1       4.475   5.983  -4.401  1.00  0.00     0.004 C 
ENDBRANCH   3   4
ENDBRANCH   2   3
ENDBRANCH   1   2
BRANCH   1   6
ATOM      6  C   UNL     1       5.905   3.635  -0.062  1.00  0.00     0.002 C 
BRANCH   6   7
ATOM      7  C   UNL     1       6.608   2.395   0.516  1.00  0.00     0.028 C 
BRANCH   7   8
ATOM      8  C   UNL     1       6.001   1.069   0.047  1.00  0.00     0.156 C 
BRANCH   8   9
ATOM      9  O   UNL     1       6.618  -0.006   0.700  1.00  0.00    -0.396 OA
ATOM     10  H   UNL     1       6.166  -0.090   1.580  1.00  0.00     0.210 HD
ENDBRANCH   8   9
ENDBRANCH   7   8
ENDBRANCH   6   7
ENDBRANCH   1   6
TORSDOF 7
ENDMDL
MODEL 8
REMARK VINA RESULT:    -2.733      9.466     10.197
REMARK INTER + INTRA:          -3.978
REMARK INTER:                  -3.486
REMARK INTRA:                  -0.492
REMARK UNBOUND:                -0.207
REMARK SMILES CCCCCCCCO
REMARK SMILES IDX 5 1 4 2 3 3 2 4 1 5 6 6 7 7 8 8 9 9
REMARK H PARENT 9 10
REMARK Flexibility Score: inf
ROOT
ATOM      1  C   UNL     1       5.695   3.518  -1.977  1.00  0.00     0.000 C 
ENDROOT
BRANCH   1   2
ATOM      2  C   UNL     1       5.763   3.365  -0.449  1.00  0.00    -0.000 C 
BRANCH   2   3
ATOM      3  C   UNL     1       5.418   1.944   0.022  1.00  0.00    -0.000 C 
BRANCH   3   4
ATOM      4  C   UNL     1       6.657   1.236   0.582  1.00  0.00    -0.003 C 
ATOM      5  C   UNL     1       7.473   2.172   1.469  1.00  0.00     0.004 C 
ENDBRANCH   3   4
ENDBRANCH   2   3
ENDBRANCH   1   2
BRANCH   1   6
ATOM      6  C   UNL     1       7.037   3.959  -2.588  1.00  0.00     0.002 C 
BRANCH   6   7
ATOM      7  C   UNL     1       8.151   2.918  -2.381  1.00  0.00     0.028 C 
BRANCH   7   8
ATOM      8  C   UNL     1       9.323   3.432  -1.539  1.00  0.00     0.156 C 
BRANCH   8   9
ATOM      9  O   UNL     1       9.488   4.810  -1.724  1.00  0.00    -0.396 OA
ATOM     10  H   UNL     1       9.762   4.931  -2.670  1.00  0.00     0.210 HD
ENDBRANCH   8   9
ENDBRANCH   7   8
ENDBRANCH   6   7
ENDBRANCH   1   6
TORSDOF 7
ENDMDL
MODEL 9
REMARK VINA RESULT:    -2.726      9.405     10.074
REMARK INTER + INTRA:          -3.969
REMARK INTER:                  -3.507
REMARK INTRA:                  -0.463
REMARK UNBOUND:                -0.207
REMARK SMILES CCCCCCCCO
REMARK SMILES IDX 5 1 4 2 3 3 2 4 1 5 6 6 7 7 8 8 9 9
REMARK H PARENT 9 10
REMARK Flexibility Score: inf
ROOT
ATOM      1  C   UNL     1       5.451   2.871  -0.222  1.00  0.00     0.000 C 
ENDROOT
BRANCH   1   2
ATOM      2  C   UNL     1       5.679   3.643  -1.532  1.00  0.00    -0.000 C 
BRANCH   2   3
ATOM      3  C   UNL     1       6.726   2.978  -2.439  1.00  0.00    -0.000 C 
BRANCH   3   4
ATOM      4  C   UNL     1       7.831   3.971  -2.819  1.00  0.00    -0.003 C 
ATOM      5  C   UNL     1       9.041   3.828  -1.899  1.00  0.00     0.004 C 
ENDBRANCH   3   4
ENDBRANCH   2   3
ENDBRANCH   1   2
BRANCH   1   6
ATOM      6  C   UNL     1       6.616   3.031   0.770  1.00  0.00     0.002 C 
BRANCH   6   7
ATOM      7  C   UNL     1       7.367   1.712   1.017  1.00  0.00     0.028 C 
BRANCH   7   8
ATOM      8  C   UNL     1       6.726   0.501   0.332  1.00  0.00     0.156 C 
BRANCH   8   9
ATOM      9  O   UNL     1       7.143  -0.685   0.950  1.00  0.00    -0.396 OA
ATOM     10  H   UNL     1       7.250  -1.352   0.222  1.00  0.00     0.210 HD
ENDBRANCH   8   9
ENDBRANCH   7   8
ENDBRANCH   6   7
ENDBRANCH   1   6
TORSDOF 7
ENDMDL
