MODEL 1
REMARK VINA RESULT:    -5.698      0.000      0.000
REMARK INTER + INTRA:          -6.865
REMARK INTER:                  -6.531
REMARK INTRA:                  -0.334
REMARK UNBOUND:                -0.334
REMARK SMILES COC(=O)c1ccccc1O
REMARK SMILES IDX 5 1 6 2 7 3 8 4 9 5 10 6 3 7 4 8 2 9 1 10 11 11
REMARK H PARENT 11 12
REMARK Flexibility Score: inf
ROOT
ATOM      1  C   UNL     1     128.694 127.073 123.904  1.00  0.00     0.101 A 
ATOM      2  C   UNL     1     127.902 126.312 123.021  1.00  0.00     0.019 A 
ATOM      3  C   UNL     1     127.269 126.913 121.931  1.00  0.00     0.001 A 
ATOM      4  C   UNL     1     127.414 128.280 121.704  1.00  0.00     0.004 A 
ATOM      5  C   UNL     1     128.194 129.052 122.567  1.00  0.00     0.047 A 
ATOM      6  C   UNL     1     128.837 128.461 123.666  1.00  0.00     0.130 A 
ENDROOT
BRANCH   1   7
ATOM      7  C   UNL     1     129.356 126.405 125.055  1.00  0.00     0.341 C 
ATOM      8  O   UNL     1     128.658 125.812 125.924  1.00  0.00    -0.246 OA
BRANCH   7   9
ATOM      9  O   UNL     1     130.749 126.427 125.185  1.00  0.00    -0.465 OA
ATOM     10  C   UNL     1     131.625 125.933 124.179  1.00  0.00     0.282 C 
ENDBRANCH   7   9
ENDBRANCH   1   7
BRANCH   6  11
ATOM     11  O   UNL     1     129.609 129.255 124.511  1.00  0.00    -0.507 OA
ATOM     12  H   UNL     1     130.486 128.926 124.899  1.00  0.00     0.293 HD
ENDBRANCH   6  11
TORSDOF 3
ENDMDL
MODEL 2
REMARK VINA RESULT:    -5.465      0.709      1.606
REMARK INTER + INTRA:          -6.597
REMARK INTER:                  -6.301
REMARK INTRA:                  -0.296
REMARK UNBOUND:                -0.334
REMARK SMILES COC(=O)c1ccccc1O
REMARK SMILES IDX 5 1 6 2 7 3 8 4 9 5 10 6 3 7 4 8 2 9 1 10 11 11
REMARK H PARENT 11 12
REMARK Flexibility Score: inf
ROOT
ATOM      1  C   UNL     1     128.753 127.040 123.750  1.00  0.00     0.101 A 
ATOM      2  C   UNL     1     127.842 126.316 122.955  1.00  0.00     0.019 A 
ATOM      3  C   UNL     1     127.059 126.963 121.997  1.00  0.00     0.001 A 
ATOM      4  C   UNL     1     127.170 128.341 121.817  1.00  0.00     0.004 A 
ATOM      5  C   UNL     1     128.067 129.076 122.594  1.00  0.00     0.047 A 
ATOM      6  C   UNL     1     128.860 128.438 123.560  1.00  0.00     0.130 A 
ENDROOT
BRANCH   1   7
ATOM      7  C   UNL     1     129.573 126.323 124.761  1.00  0.00     0.341 C 
ATOM      8  O   UNL     1     130.828 126.274 124.635  1.00  0.00    -0.246 OA
BRANCH   7   9
ATOM      9  O   UNL     1     128.965 125.698 125.856  1.00  0.00    -0.465 OA
ATOM     10  C   UNL     1     128.682 126.379 127.072  1.00  0.00     0.282 C 
ENDBRANCH   7   9
ENDBRANCH   1   7
BRANCH   6  11
ATOM     11  O   UNL     1     129.747 129.197 124.323  1.00  0.00    -0.507 OA
ATOM     12  H   UNL     1     130.678 129.423 123.991  1.00  0.00     0.293 HD
ENDBRANCH   6  11
TORSDOF 3
ENDMDL
MODEL 3
REMARK VINA RESULT:    -5.325      1.524      2.493
REMARK INTER + INTRA:          -6.438
REMARK INTER:                  -6.179
REMARK INTRA:                  -0.259
REMARK UNBOUND:                -0.334
REMARK SMILES COC(=O)c1ccccc1O
REMARK SMILES IDX 5 1 6 2 7 3 8 4 9 5 10 6 3 7 4 8 2 9 1 10 11 11
REMARK H PARENT 11 12
REMARK Flexibility Score: inf
ROOT
ATOM      1  C   UNL     1     129.121 127.788 124.547  1.00  0.00     0.101 A 
ATOM      2  C   UNL     1     129.030 128.906 123.692  1.00  0.00     0.019 A 
ATOM      3  C   UNL     1     128.420 128.800 122.441  1.00  0.00     0.001 A 
ATOM      4  C   UNL     1     127.893 127.580 122.020  1.00  0.00     0.004 A 
ATOM      5  C   UNL     1     127.973 126.461 122.851  1.00  0.00     0.047 A 
ATOM      6  C   UNL     1     128.583 126.554 124.112  1.00  0.00     0.130 A 
ENDROOT
BRANCH   1   7
ATOM      7  C   UNL     1     129.776 127.933 125.873  1.00  0.00     0.341 C 
ATOM      8  O   UNL     1     129.327 128.764 126.710  1.00  0.00    -0.246 OA
BRANCH   7   9
ATOM      9  O   UNL     1     130.890 127.153 126.205  1.00  0.00    -0.465 OA
ATOM     10  C   UNL     1     131.821 127.529 127.212  1.00  0.00     0.282 C 
ENDBRANCH   7   9
ENDBRANCH   1   7
BRANCH   6  11
ATOM     11  O   UNL     1     128.650 125.421 124.921  1.00  0.00    -0.507 OA
ATOM     12  H   UNL     1     128.651 125.486 125.933  1.00  0.00     0.293 HD
ENDBRANCH   6  11
TORSDOF 3
ENDMDL
MODEL 4
REMARK VINA RESULT:    -5.309      2.762      5.009
REMARK INTER + INTRA:          -6.419
REMARK INTER:                  -6.074
REMARK INTRA:                  -0.344
REMARK UNBOUND:                -0.334
REMARK SMILES COC(=O)c1ccccc1O
REMARK SMILES IDX 5 1 6 2 7 3 8 4 9 5 10 6 3 7 4 8 2 9 1 10 11 11
REMARK H PARENT 11 12
REMARK Flexibility Score: inf
ROOT
ATOM      1  C   UNL     1     129.954 126.095 127.154  1.00  0.00     0.101 A 
ATOM      2  C   UNL     1     130.924 125.099 126.924  1.00  0.00     0.019 A 
ATOM      3  C   UNL     1     130.599 123.746 127.038  1.00  0.00     0.001 A 
ATOM      4  C   UNL     1     129.304 123.364 127.384  1.00  0.00     0.004 A 
ATOM      5  C   UNL     1     128.328 124.336 127.616  1.00  0.00     0.047 A 
ATOM      6  C   UNL     1     128.641 125.699 127.504  1.00  0.00     0.130 A 
ENDROOT
BRANCH   1   7
ATOM      7  C   UNL     1     130.331 127.527 127.025  1.00  0.00     0.341 C 
ATOM      8  O   UNL     1     131.368 127.960 127.600  1.00  0.00    -0.246 OA
BRANCH   7   9
ATOM      9  O   UNL     1     129.544 128.404 126.270  1.00  0.00    -0.465 OA
ATOM     10  C   UNL     1     129.263 128.194 124.891  1.00  0.00     0.282 C 
ENDBRANCH   7   9
ENDBRANCH   1   7
BRANCH   6  11
ATOM     11  O   UNL     1     127.648 126.648 127.742  1.00  0.00    -0.507 OA
ATOM     12  H   UNL     1     127.380 126.916 128.682  1.00  0.00     0.293 HD
ENDBRANCH   6  11
TORSDOF 3
ENDMDL
MODEL 5
REMARK VINA RESULT:    -5.191      2.108      4.444
REMARK INTER + INTRA:          -6.283
REMARK INTER:                  -6.004
REMARK INTRA:                  -0.280
REMARK UNBOUND:                -0.334
REMARK SMILES COC(=O)c1ccccc1O
REMARK SMILES IDX 5 1 6 2 7 3 8 4 9 5 10 6 3 7 4 8 2 9 1 10 11 11
REMARK H PARENT 11 12
REMARK Flexibility Score: inf
ROOT
ATOM      1  C   UNL     1     129.591 126.341 125.943  1.00  0.00     0.101 A 
ATOM      2  C   UNL     1     128.784 125.219 126.217  1.00  0.00     0.019 A 
ATOM      3  C   UNL     1     129.313 124.101 126.865  1.00  0.00     0.001 A 
ATOM      4  C   UNL     1     130.653 124.082 127.248  1.00  0.00     0.004 A 
ATOM      5  C   UNL     1     131.469 125.184 126.985  1.00  0.00     0.047 A 
ATOM      6  C   UNL     1     130.950 126.315 126.336  1.00  0.00     0.130 A 
ENDROOT
BRANCH   1   7
ATOM      7  C   UNL     1     129.000 127.517 125.252  1.00  0.00     0.341 C 
ATOM      8  O   UNL     1     129.359 128.684 125.575  1.00  0.00    -0.246 OA
BRANCH   7   9
ATOM      9  O   UNL     1     128.045 127.343 124.244  1.00  0.00    -0.465 OA
ATOM     10  C   UNL     1     128.370 126.842 122.953  1.00  0.00     0.282 C 
ENDBRANCH   7   9
ENDBRANCH   1   7
BRANCH   6  11
ATOM     11  O   UNL     1     131.788 127.401 126.086  1.00  0.00    -0.507 OA
ATOM     12  H   UNL     1     131.820 127.852 125.179  1.00  0.00     0.293 HD
ENDBRANCH   6  11
TORSDOF 3
ENDMDL
MODEL 6
REMARK VINA RESULT:    -5.155      3.310      4.367
REMARK INTER + INTRA:          -6.242
REMARK INTER:                  -5.975
REMARK INTRA:                  -0.268
REMARK UNBOUND:                -0.334
REMARK SMILES COC(=O)c1ccccc1O
REMARK SMILES IDX 5 1 6 2 7 3 8 4 9 5 10 6 3 7 4 8 2 9 1 10 11 11
REMARK H PARENT 11 12
REMARK Flexibility Score: inf
ROOT
ATOM      1  C   UNL     1     129.891 125.609 126.185  1.00  0.00     0.101 A 
ATOM      2  C   UNL     1     129.964 124.229 126.463  1.00  0.00     0.019 A 
ATOM      3  C   UNL     1     129.132 123.650 127.423  1.00  0.00     0.001 A 
ATOM      4  C   UNL     1     128.217 124.435 128.122  1.00  0.00     0.004 A 
ATOM      5  C   UNL     1     128.130 125.804 127.861  1.00  0.00     0.047 A 
ATOM      6  C   UNL     1     128.959 126.399 126.898  1.00  0.00     0.130 A 
ENDROOT
BRANCH   1   7
ATOM      7  C   UNL     1     130.790 126.196 125.157  1.00  0.00     0.341 C 
ATOM      8  O   UNL     1     130.318 126.569 124.047  1.00  0.00    -0.246 OA
BRANCH   7   9
ATOM      9  O   UNL     1     132.159 126.341 125.408  1.00  0.00    -0.465 OA
ATOM     10  C   UNL     1     132.675 126.688 126.687  1.00  0.00     0.282 C 
ENDBRANCH   7   9
ENDBRANCH   1   7
BRANCH   6  11
ATOM     11  O   UNL     1     128.851 127.768 126.659  1.00  0.00    -0.507 OA
ATOM     12  H   UNL     1     128.436 128.397 127.336  1.00  0.00     0.293 HD
ENDBRANCH   6  11
TORSDOF 3
ENDMDL
MODEL 7
REMARK VINA RESULT:    -5.122      1.922      4.447
REMARK INTER + INTRA:          -6.205
REMARK INTER:                  -5.945
REMARK INTRA:                  -0.260
REMARK UNBOUND:                -0.334
REMARK SMILES COC(=O)c1ccccc1O
REMARK SMILES IDX 5 1 6 2 7 3 8 4 9 5 10 6 3 7 4 8 2 9 1 10 11 11
REMARK H PARENT 11 12
REMARK Flexibility Score: inf
ROOT
ATOM      1  C   UNL     1     129.783 127.108 125.134  1.00  0.00     0.101 A 
ATOM      2  C   UNL     1     129.647 127.923 126.276  1.00  0.00     0.019 A 
ATOM      3  C   UNL     1     130.508 127.775 127.365  1.00  0.00     0.001 A 
ATOM      4  C   UNL     1     131.517 126.814 127.334  1.00  0.00     0.004 A 
ATOM      5  C   UNL     1     131.668 125.997 126.213  1.00  0.00     0.047 A 
ATOM      6  C   UNL     1     130.810 126.135 125.110  1.00  0.00     0.130 A 
ENDROOT
BRANCH   1   7
ATOM      7  C   UNL     1     128.851 127.289 123.990  1.00  0.00     0.341 C 
ATOM      8  O   UNL     1     128.100 126.339 123.633  1.00  0.00    -0.246 OA
BRANCH   7   9
ATOM      9  O   UNL     1     128.797 128.506 123.303  1.00  0.00    -0.465 OA
ATOM     10  C   UNL     1     128.223 128.635 122.008  1.00  0.00     0.282 C 
ENDBRANCH   7   9
ENDBRANCH   1   7
BRANCH   6  11
ATOM     11  O   UNL     1     130.984 125.305 124.004  1.00  0.00    -0.507 OA
ATOM     12  H   UNL     1     130.538 124.397 123.943  1.00  0.00     0.293 HD
ENDBRANCH   6  11
TORSDOF 3
ENDMDL
MODEL 8
REMARK VINA RESULT:    -5.097      3.602      4.873
REMARK INTER + INTRA:          -6.176
REMARK INTER:                  -5.866
REMARK INTRA:                  -0.311
REMARK UNBOUND:                -0.334
REMARK SMILES COC(=O)c1ccccc1O
REMARK SMILES IDX 5 1 6 2 7 3 8 4 9 5 10 6 3 7 4 8 2 9 1 10 11 11
REMARK H PARENT 11 12
REMARK Flexibility Score: inf
ROOT
ATOM      1  C   UNL     1     129.624 126.146 126.898  1.00  0.00     0.101 A 
ATOM      2  C   UNL     1     128.695 126.133 127.959  1.00  0.00     0.019 A 
ATOM      3  C   UNL     1     128.120 124.935 128.389  1.00  0.00     0.001 A 
ATOM      4  C   UNL     1     128.459 123.733 127.770  1.00  0.00     0.004 A 
ATOM      5  C   UNL     1     129.377 123.725 126.718  1.00  0.00     0.047 A 
ATOM      6  C   UNL     1     129.964 124.921 126.276  1.00  0.00     0.130 A 
ENDROOT
BRANCH   1   7
ATOM      7  C   UNL     1     130.219 127.436 126.463  1.00  0.00     0.341 C 
ATOM      8  O   UNL     1     129.473 128.363 126.040  1.00  0.00    -0.246 OA
BRANCH   7   9
ATOM      9  O   UNL     1     131.603 127.635 126.516  1.00  0.00    -0.465 OA
ATOM     10  C   UNL     1     132.302 127.867 127.733  1.00  0.00     0.282 C 
ENDBRANCH   7   9
ENDBRANCH   1   7
BRANCH   6  11
ATOM     11  O   UNL     1     130.876 124.884 125.223  1.00  0.00    -0.507 OA
ATOM     12  H   UNL     1     131.744 125.408 125.249  1.00  0.00     0.293 HD
ENDBRANCH   6  11
TORSDOF 3
ENDMDL
MODEL 9
REMARK VINA RESULT:    -4.966      2.106      4.539
REMARK INTER + INTRA:          -6.026
REMARK INTER:                  -5.671
REMARK INTRA:                  -0.354
REMARK UNBOUND:                -0.334
REMARK SMILES COC(=O)c1ccccc1O
REMARK SMILES IDX 5 1 6 2 7 3 8 4 9 5 10 6 3 7 4 8 2 9 1 10 11 11
REMARK H PARENT 11 12
REMARK Flexibility Score: inf
ROOT
ATOM      1  C   UNL     1     129.470 126.152 125.853  1.00  0.00     0.101 A 
ATOM      2  C   UNL     1     128.624 125.971 126.966  1.00  0.00     0.019 A 
ATOM      3  C   UNL     1     128.669 124.791 127.712  1.00  0.00     0.001 A 
ATOM      4  C   UNL     1     129.555 123.774 127.361  1.00  0.00     0.004 A 
ATOM      5  C   UNL     1     130.400 123.934 126.261  1.00  0.00     0.047 A 
ATOM      6  C   UNL     1     130.367 125.115 125.503  1.00  0.00     0.130 A 
ENDROOT
BRANCH   1   7
ATOM      7  C   UNL     1     129.400 127.419 125.079  1.00  0.00     0.341 C 
ATOM      8  O   UNL     1     129.425 128.528 125.682  1.00  0.00    -0.246 OA
BRANCH   7   9
ATOM      9  O   UNL     1     129.306 127.395 123.683  1.00  0.00    -0.465 OA
ATOM     10  C   UNL     1     128.211 126.805 122.994  1.00  0.00     0.282 C 
ENDBRANCH   7   9
ENDBRANCH   1   7
BRANCH   6  11
ATOM     11  O   UNL     1     131.222 125.247 124.411  1.00  0.00    -0.507 OA
ATOM     12  H   UNL     1     131.106 124.690 123.572  1.00  0.00     0.293 HD
ENDBRANCH   6  11
TORSDOF 3
ENDMDL
