MODEL 1
REMARK VINA RESULT:    -2.694      0.000      0.000
REMARK INTER + INTRA:          -6.304
REMARK INTER:                  -4.663
REMARK INTRA:                  -1.641
REMARK UNBOUND:                -1.641
REMARK SMILES CCCCCCCCCCCCCCO
REMARK SMILES IDX 8 1 7 2 6 3 5 4 4 5 3 6 2 7 1 8 9 9 10 10 11 11 12 12 13 13
REMARK SMILES IDX 14 14 15 15
REMARK H PARENT 15 16
REMARK Flexibility Score: inf
ROOT
ATOM      1  C   UNL     1     108.372 124.838 115.222  1.00  0.00     0.000 C 
ENDROOT
BRANCH   1   2
ATOM      2  C   UNL     1     109.449 125.750 114.622  1.00  0.00    -0.000 C 
BRANCH   2   3
ATOM      3  C   UNL     1     110.592 125.981 115.618  1.00  0.00    -0.000 C 
BRANCH   3   4
ATOM      4  C   UNL     1     111.879 125.295 115.146  1.00  0.00    -0.000 C 
BRANCH   4   5
ATOM      5  C   UNL     1     112.724 124.826 116.341  1.00  0.00    -0.000 C 
BRANCH   5   6
ATOM      6  C   UNL     1     112.149 125.306 117.689  1.00  0.00    -0.000 C 
BRANCH   6   7
ATOM      7  C   UNL     1     112.557 124.425 118.882  1.00  0.00    -0.003 C 
ATOM      8  C   UNL     1     113.907 123.738 118.685  1.00  0.00     0.004 C 
ENDBRANCH   6   7
ENDBRANCH   5   6
ENDBRANCH   4   5
ENDBRANCH   3   4
ENDBRANCH   2   3
ENDBRANCH   1   2
BRANCH   1   9
ATOM      9  C   UNL     1     108.557 124.687 116.736  1.00  0.00     0.000 C 
BRANCH   9  10
ATOM     10  C   UNL     1     108.165 123.277 117.201  1.00  0.00     0.000 C 
BRANCH  10  11
ATOM     11  C   UNL     1     109.294 122.570 117.968  1.00  0.00     0.000 C 
BRANCH  11  12
ATOM     12  C   UNL     1     110.408 122.057 117.043  1.00  0.00     0.002 C 
BRANCH  12  13
ATOM     13  C   UNL     1     110.450 120.523 117.034  1.00  0.00     0.028 C 
BRANCH  13  14
ATOM     14  C   UNL     1     109.199 119.918 116.389  1.00  0.00     0.156 C 
BRANCH  14  15
ATOM     15  O   UNL     1     109.216 120.110 114.998  1.00  0.00    -0.396 OA
ATOM     16  H   UNL     1     109.469 119.241 114.591  1.00  0.00     0.210 HD
ENDBRANCH  14  15
ENDBRANCH  13  14
ENDBRANCH  12  13
ENDBRANCH  11  12
ENDBRANCH  10  11
ENDBRANCH   9  10
ENDBRANCH   1   9
TORSDOF 13
ENDMDL
MODEL 2
REMARK VINA RESULT:    -2.666      8.837     10.888
REMARK INTER + INTRA:          -6.255
REMARK INTER:                  -4.667
REMARK INTRA:                  -1.588
REMARK UNBOUND:                -1.641
REMARK SMILES CCCCCCCCCCCCCCO
REMARK SMILES IDX 8 1 7 2 6 3 5 4 4 5 3 6 2 7 1 8 9 9 10 10 11 11 12 12 13 13
REMARK SMILES IDX 14 14 15 15
REMARK H PARENT 15 16
REMARK Flexibility Score: inf
ROOT
ATOM      1  C   UNL     1     117.160 118.991 114.216  1.00  0.00     0.000 C 
ENDROOT
BRANCH   1   2
ATOM      2  C   UNL     1     115.634 119.128 114.256  1.00  0.00    -0.000 C 
BRANCH   2   3
ATOM      3  C   UNL     1     115.023 118.902 112.868  1.00  0.00    -0.000 C 
BRANCH   3   4
ATOM      4  C   UNL     1     113.835 117.935 112.940  1.00  0.00    -0.000 C 
BRANCH   4   5
ATOM      5  C   UNL     1     114.256 116.512 112.540  1.00  0.00    -0.000 C 
BRANCH   5   6
ATOM      6  C   UNL     1     114.367 115.572 113.757  1.00  0.00    -0.000 C 
BRANCH   6   7
ATOM      7  C   UNL     1     113.939 114.125 113.460  1.00  0.00    -0.003 C 
ATOM      8  C   UNL     1     114.377 113.643 112.079  1.00  0.00     0.004 C 
ENDBRANCH   6   7
ENDBRANCH   5   6
ENDBRANCH   4   5
ENDBRANCH   3   4
ENDBRANCH   2   3
ENDBRANCH   1   2
BRANCH   1   9
ATOM      9  C   UNL     1     117.691 119.157 112.787  1.00  0.00     0.000 C 
BRANCH   9  10
ATOM     10  C   UNL     1     118.618 117.994 112.406  1.00  0.00     0.000 C 
BRANCH  10  11
ATOM     11  C   UNL     1     118.226 116.674 113.090  1.00  0.00     0.000 C 
BRANCH  11  12
ATOM     12  C   UNL     1     117.743 115.611 112.093  1.00  0.00     0.002 C 
BRANCH  12  13
ATOM     13  C   UNL     1     118.236 114.215 112.498  1.00  0.00     0.028 C 
BRANCH  13  14
ATOM     14  C   UNL     1     119.349 114.283 113.548  1.00  0.00     0.156 C 
BRANCH  14  15
ATOM     15  O   UNL     1     119.213 113.244 114.483  1.00  0.00    -0.396 OA
ATOM     16  H   UNL     1     118.970 112.428 113.973  1.00  0.00     0.210 HD
ENDBRANCH  14  15
ENDBRANCH  13  14
ENDBRANCH  12  13
ENDBRANCH  11  12
ENDBRANCH  10  11
ENDBRANCH   9  10
ENDBRANCH   1   9
TORSDOF 13
ENDMDL
MODEL 3
REMARK VINA RESULT:    -2.645      9.239     10.802
REMARK INTER + INTRA:          -6.219
REMARK INTER:                  -4.675
REMARK INTRA:                  -1.544
REMARK UNBOUND:                -1.641
REMARK SMILES CCCCCCCCCCCCCCO
REMARK SMILES IDX 8 1 7 2 6 3 5 4 4 5 3 6 2 7 1 8 9 9 10 10 11 11 12 12 13 13
REMARK SMILES IDX 14 14 15 15
REMARK H PARENT 15 16
REMARK Flexibility Score: inf
ROOT
ATOM      1  C   UNL     1     114.667 116.359 113.309  1.00  0.00     0.000 C 
ENDROOT
BRANCH   1   2
ATOM      2  C   UNL     1     113.922 117.021 112.144  1.00  0.00    -0.000 C 
BRANCH   2   3
ATOM      3  C   UNL     1     114.231 118.521 112.075  1.00  0.00    -0.000 C 
BRANCH   3   4
ATOM      4  C   UNL     1     115.496 118.861 112.872  1.00  0.00    -0.000 C 
BRANCH   4   5
ATOM      5  C   UNL     1     116.650 119.253 111.936  1.00  0.00    -0.000 C 
BRANCH   5   6
ATOM      6  C   UNL     1     117.758 118.181 111.894  1.00  0.00    -0.000 C 
BRANCH   6   7
ATOM      7  C   UNL     1     118.958 118.500 112.803  1.00  0.00    -0.003 C 
ATOM      8  C   UNL     1     118.865 117.833 114.174  1.00  0.00     0.004 C 
ENDBRANCH   6   7
ENDBRANCH   5   6
ENDBRANCH   4   5
ENDBRANCH   3   4
ENDBRANCH   2   3
ENDBRANCH   1   2
BRANCH   1   9
ATOM      9  C   UNL     1     114.349 114.861 113.386  1.00  0.00     0.000 C 
BRANCH   9  10
ATOM     10  C   UNL     1     115.607 114.018 113.127  1.00  0.00     0.000 C 
BRANCH  10  11
ATOM     11  C   UNL     1     116.904 114.835 113.247  1.00  0.00     0.000 C 
BRANCH  11  12
ATOM     12  C   UNL     1     117.984 114.381 112.253  1.00  0.00     0.002 C 
BRANCH  12  13
ATOM     13  C   UNL     1     119.371 114.394 112.908  1.00  0.00     0.028 C 
BRANCH  13  14
ATOM     14  C   UNL     1     119.305 114.044 114.398  1.00  0.00     0.156 C 
BRANCH  14  15
ATOM     15  O   UNL     1     119.665 112.704 114.610  1.00  0.00    -0.396 OA
ATOM     16  H   UNL     1     119.099 112.368 115.353  1.00  0.00     0.210 HD
ENDBRANCH  14  15
ENDBRANCH  13  14
ENDBRANCH  12  13
ENDBRANCH  11  12
ENDBRANCH  10  11
ENDBRANCH   9  10
ENDBRANCH   1   9
TORSDOF 13
ENDMDL
MODEL 4
REMARK VINA RESULT:    -2.636      8.770     10.843
REMARK INTER + INTRA:          -6.204
REMARK INTER:                  -4.581
REMARK INTRA:                  -1.622
REMARK UNBOUND:                -1.641
REMARK SMILES CCCCCCCCCCCCCCO
REMARK SMILES IDX 8 1 7 2 6 3 5 4 4 5 3 6 2 7 1 8 9 9 10 10 11 11 12 12 13 13
REMARK SMILES IDX 14 14 15 15
REMARK H PARENT 15 16
REMARK Flexibility Score: inf
ROOT
ATOM      1  C   UNL     1     118.876 116.337 112.571  1.00  0.00     0.000 C 
ENDROOT
BRANCH   1   2
ATOM      2  C   UNL     1     118.816 117.441 113.633  1.00  0.00    -0.000 C 
BRANCH   2   3
ATOM      3  C   UNL     1     117.365 117.782 113.991  1.00  0.00    -0.000 C 
BRANCH   3   4
ATOM      4  C   UNL     1     116.946 119.123 113.376  1.00  0.00    -0.000 C 
BRANCH   4   5
ATOM      5  C   UNL     1     116.005 118.912 112.180  1.00  0.00    -0.000 C 
BRANCH   5   6
ATOM      6  C   UNL     1     115.367 117.508 112.178  1.00  0.00    -0.000 C 
BRANCH   6   7
ATOM      7  C   UNL     1     113.923 117.486 112.707  1.00  0.00    -0.003 C 
ATOM      8  C   UNL     1     113.105 118.698 112.265  1.00  0.00     0.004 C 
ENDBRANCH   6   7
ENDBRANCH   5   6
ENDBRANCH   4   5
ENDBRANCH   3   4
ENDBRANCH   2   3
ENDBRANCH   1   2
BRANCH   1   9
ATOM      9  C   UNL     1     119.471 115.048 113.149  1.00  0.00     0.000 C 
BRANCH   9  10
ATOM     10  C   UNL     1     118.381 114.181 113.798  1.00  0.00     0.000 C 
BRANCH  10  11
ATOM     11  C   UNL     1     117.069 114.179 112.996  1.00  0.00     0.000 C 
BRANCH  11  12
ATOM     12  C   UNL     1     115.826 114.256 113.895  1.00  0.00     0.002 C 
BRANCH  12  13
ATOM     13  C   UNL     1     116.219 114.529 115.353  1.00  0.00     0.028 C 
BRANCH  13  14
ATOM     14  C   UNL     1     115.581 113.523 116.316  1.00  0.00     0.156 C 
BRANCH  14  15
ATOM     15  O   UNL     1     114.494 112.875 115.710  1.00  0.00    -0.396 OA
ATOM     16  H   UNL     1     114.781 112.631 114.791  1.00  0.00     0.210 HD
ENDBRANCH  14  15
ENDBRANCH  13  14
ENDBRANCH  12  13
ENDBRANCH  11  12
ENDBRANCH  10  11
ENDBRANCH   9  10
ENDBRANCH   1   9
TORSDOF 13
ENDMDL
MODEL 5
REMARK VINA RESULT:    -2.634     12.886     14.778
REMARK INTER + INTRA:          -6.201
REMARK INTER:                  -4.271
REMARK INTRA:                  -1.929
REMARK UNBOUND:                -1.641
REMARK SMILES CCCCCCCCCCCCCCO
REMARK SMILES IDX 8 1 7 2 6 3 5 4 4 5 3 6 2 7 1 8 9 9 10 10 11 11 12 12 13 13
REMARK SMILES IDX 14 14 15 15
REMARK H PARENT 15 16
REMARK Flexibility Score: inf
ROOT
ATOM      1  C   UNL     1     126.101 121.904 118.315  1.00  0.00     0.000 C 
ENDROOT
BRANCH   1   2
ATOM      2  C   UNL     1     126.340 122.553 116.947  1.00  0.00    -0.000 C 
BRANCH   2   3
ATOM      3  C   UNL     1     125.477 121.892 115.865  1.00  0.00    -0.000 C 
BRANCH   3   4
ATOM      4  C   UNL     1     124.694 120.704 116.436  1.00  0.00    -0.000 C 
BRANCH   4   5
ATOM      5  C   UNL     1     123.201 121.041 116.574  1.00  0.00    -0.000 C 
BRANCH   5   6
ATOM      6  C   UNL     1     122.603 120.513 117.893  1.00  0.00    -0.000 C 
BRANCH   6   7
ATOM      7  C   UNL     1     123.465 119.437 118.575  1.00  0.00    -0.003 C 
ATOM      8  C   UNL     1     123.730 119.727 120.050  1.00  0.00     0.004 C 
ENDBRANCH   6   7
ENDBRANCH   5   6
ENDBRANCH   4   5
ENDBRANCH   3   4
ENDBRANCH   2   3
ENDBRANCH   1   2
BRANCH   1   9
ATOM      9  C   UNL     1     125.749 122.958 119.371  1.00  0.00     0.000 C 
BRANCH   9  10
ATOM     10  C   UNL     1     125.206 124.236 118.714  1.00  0.00     0.000 C 
BRANCH  10  11
ATOM     11  C   UNL     1     123.691 124.174 118.459  1.00  0.00     0.000 C 
BRANCH  11  12
ATOM     12  C   UNL     1     123.294 124.772 117.101  1.00  0.00     0.002 C 
BRANCH  12  13
ATOM     13  C   UNL     1     124.397 125.694 116.565  1.00  0.00     0.028 C 
BRANCH  13  14
ATOM     14  C   UNL     1     124.535 125.598 115.042  1.00  0.00     0.156 C 
BRANCH  14  15
ATOM     15  O   UNL     1     123.276 125.656 114.425  1.00  0.00    -0.396 OA
ATOM     16  H   UNL     1     123.430 125.926 113.482  1.00  0.00     0.210 HD
ENDBRANCH  14  15
ENDBRANCH  13  14
ENDBRANCH  12  13
ENDBRANCH  11  12
ENDBRANCH  10  11
ENDBRANCH   9  10
ENDBRANCH   1   9
TORSDOF 13
ENDMDL
MODEL 6
REMARK VINA RESULT:    -2.626      8.299     10.365
REMARK INTER + INTRA:          -6.186
REMARK INTER:                  -4.673
REMARK INTRA:                  -1.513
REMARK UNBOUND:                -1.641
REMARK SMILES CCCCCCCCCCCCCCO
REMARK SMILES IDX 8 1 7 2 6 3 5 4 4 5 3 6 2 7 1 8 9 9 10 10 11 11 12 12 13 13
REMARK SMILES IDX 14 14 15 15
REMARK H PARENT 15 16
REMARK Flexibility Score: inf
ROOT
ATOM      1  C   UNL     1     118.468 115.631 112.751  1.00  0.00     0.000 C 
ENDROOT
BRANCH   1   2
ATOM      2  C   UNL     1     118.232 117.005 113.390  1.00  0.00    -0.000 C 
BRANCH   2   3
ATOM      3  C   UNL     1     118.079 118.091 112.319  1.00  0.00    -0.000 C 
BRANCH   3   4
ATOM      4  C   UNL     1     116.977 119.087 112.699  1.00  0.00    -0.000 C 
BRANCH   4   5
ATOM      5  C   UNL     1     116.241 118.638 113.971  1.00  0.00    -0.000 C 
BRANCH   5   6
ATOM      6  C   UNL     1     114.710 118.777 113.840  1.00  0.00    -0.000 C 
BRANCH   6   7
ATOM      7  C   UNL     1     114.010 117.484 113.387  1.00  0.00    -0.003 C 
ATOM      8  C   UNL     1     114.064 117.272 111.875  1.00  0.00     0.004 C 
ENDBRANCH   6   7
ENDBRANCH   5   6
ENDBRANCH   4   5
ENDBRANCH   3   4
ENDBRANCH   2   3
ENDBRANCH   1   2
BRANCH   1   9
ATOM      9  C   UNL     1     117.795 114.521 113.566  1.00  0.00     0.000 C 
BRANCH   9  10
ATOM     10  C   UNL     1     116.286 114.772 113.697  1.00  0.00     0.000 C 
BRANCH  10  11
ATOM     11  C   UNL     1     115.457 113.940 112.705  1.00  0.00     0.000 C 
BRANCH  11  12
ATOM     12  C   UNL     1     114.008 113.733 113.171  1.00  0.00     0.002 C 
BRANCH  12  13
ATOM     13  C   UNL     1     113.893 113.892 114.693  1.00  0.00     0.028 C 
BRANCH  13  14
ATOM     14  C   UNL     1     113.035 112.790 115.321  1.00  0.00     0.156 C 
BRANCH  14  15
ATOM     15  O   UNL     1     111.747 112.785 114.762  1.00  0.00    -0.396 OA
ATOM     16  H   UNL     1     111.691 111.985 114.176  1.00  0.00     0.210 HD
ENDBRANCH  14  15
ENDBRANCH  13  14
ENDBRANCH  12  13
ENDBRANCH  11  12
ENDBRANCH  10  11
ENDBRANCH   9  10
ENDBRANCH   1   9
TORSDOF 13
ENDMDL
MODEL 7
REMARK VINA RESULT:    -2.604     11.434     13.835
REMARK INTER + INTRA:          -6.148
REMARK INTER:                  -4.468
REMARK INTRA:                  -1.679
REMARK UNBOUND:                -1.641
REMARK SMILES CCCCCCCCCCCCCCO
REMARK SMILES IDX 8 1 7 2 6 3 5 4 4 5 3 6 2 7 1 8 9 9 10 10 11 11 12 12 13 13
REMARK SMILES IDX 14 14 15 15
REMARK H PARENT 15 16
REMARK Flexibility Score: inf
ROOT
ATOM      1  C   UNL     1     109.285 112.461 116.011  1.00  0.00     0.000 C 
ENDROOT
BRANCH   1   2
ATOM      2  C   UNL     1     108.817 112.991 117.371  1.00  0.00    -0.000 C 
BRANCH   2   3
ATOM      3  C   UNL     1     109.570 112.306 118.517  1.00  0.00    -0.000 C 
BRANCH   3   4
ATOM      4  C   UNL     1     108.807 111.075 119.020  1.00  0.00    -0.000 C 
BRANCH   4   5
ATOM      5  C   UNL     1     109.544 109.778 118.648  1.00  0.00    -0.000 C 
BRANCH   5   6
ATOM      6  C   UNL     1     111.005 110.036 118.227  1.00  0.00    -0.000 C 
BRANCH   6   7
ATOM      7  C   UNL     1     111.352 109.481 116.835  1.00  0.00    -0.003 C 
ATOM      8  C   UNL     1     112.772 108.923 116.750  1.00  0.00     0.004 C 
ENDBRANCH   6   7
ENDBRANCH   5   6
ENDBRANCH   4   5
ENDBRANCH   3   4
ENDBRANCH   2   3
ENDBRANCH   1   2
BRANCH   1   9
ATOM      9  C   UNL     1     108.092 112.142 115.103  1.00  0.00     0.000 C 
BRANCH   9  10
ATOM     10  C   UNL     1     107.226 111.024 115.704  1.00  0.00     0.000 C 
BRANCH  10  11
ATOM     11  C   UNL     1     107.374 109.691 114.953  1.00  0.00     0.000 C 
BRANCH  11  12
ATOM     12  C   UNL     1     107.409 108.480 115.897  1.00  0.00     0.002 C 
BRANCH  12  13
ATOM     13  C   UNL     1     108.542 107.518 115.514  1.00  0.00     0.028 C 
BRANCH  13  14
ATOM     14  C   UNL     1     108.624 107.303 114.000  1.00  0.00     0.156 C 
BRANCH  14  15
ATOM     15  O   UNL     1     109.957 107.343 113.564  1.00  0.00    -0.396 OA
ATOM     16  H   UNL     1     109.978 107.915 112.753  1.00  0.00     0.210 HD
ENDBRANCH  14  15
ENDBRANCH  13  14
ENDBRANCH  12  13
ENDBRANCH  11  12
ENDBRANCH  10  11
ENDBRANCH   9  10
ENDBRANCH   1   9
TORSDOF 13
ENDMDL
MODEL 8
REMARK VINA RESULT:    -2.579      8.388     10.660
REMARK INTER + INTRA:          -6.104
REMARK INTER:                  -4.567
REMARK INTRA:                  -1.538
REMARK UNBOUND:                -1.641
REMARK SMILES CCCCCCCCCCCCCCO
REMARK SMILES IDX 8 1 7 2 6 3 5 4 4 5 3 6 2 7 1 8 9 9 10 10 11 11 12 12 13 13
REMARK SMILES IDX 14 14 15 15
REMARK H PARENT 15 16
REMARK Flexibility Score: inf
ROOT
ATOM      1  C   UNL     1     117.582 117.566 114.320  1.00  0.00     0.000 C 
ENDROOT
BRANCH   1   2
ATOM      2  C   UNL     1     118.906 116.884 114.682  1.00  0.00    -0.000 C 
BRANCH   2   3
ATOM      3  C   UNL     1     118.844 115.377 114.403  1.00  0.00    -0.000 C 
BRANCH   3   4
ATOM      4  C   UNL     1     119.387 115.053 113.007  1.00  0.00    -0.000 C 
BRANCH   4   5
ATOM      5  C   UNL     1     118.465 114.069 112.270  1.00  0.00    -0.000 C 
BRANCH   5   6
ATOM      6  C   UNL     1     117.120 114.713 111.875  1.00  0.00    -0.000 C 
BRANCH   6   7
ATOM      7  C   UNL     1     115.893 113.931 112.375  1.00  0.00    -0.003 C 
ATOM      8  C   UNL     1     115.489 114.298 113.801  1.00  0.00     0.004 C 
ENDBRANCH   6   7
ENDBRANCH   5   6
ENDBRANCH   4   5
ENDBRANCH   3   4
ENDBRANCH   2   3
ENDBRANCH   1   2
BRANCH   1   9
ATOM      9  C   UNL     1     117.782 118.610 113.215  1.00  0.00     0.000 C 
BRANCH   9  10
ATOM     10  C   UNL     1     116.819 118.364 112.045  1.00  0.00     0.000 C 
BRANCH  10  11
ATOM     11  C   UNL     1     115.390 118.040 112.510  1.00  0.00     0.000 C 
BRANCH  11  12
ATOM     12  C   UNL     1     114.601 119.294 112.917  1.00  0.00     0.002 C 
BRANCH  12  13
ATOM     13  C   UNL     1     113.646 118.988 114.079  1.00  0.00     0.028 C 
BRANCH  13  14
ATOM     14  C   UNL     1     113.052 120.263 114.684  1.00  0.00     0.156 C 
BRANCH  14  15
ATOM     15  O   UNL     1     111.681 120.100 114.940  1.00  0.00    -0.396 OA
ATOM     16  H   UNL     1     111.525 119.127 115.058  1.00  0.00     0.210 HD
ENDBRANCH  14  15
ENDBRANCH  13  14
ENDBRANCH  12  13
ENDBRANCH  11  12
ENDBRANCH  10  11
ENDBRANCH   9  10
ENDBRANCH   1   9
TORSDOF 13
ENDMDL
MODEL 9
REMARK VINA RESULT:    -2.564      7.889      9.964
REMARK INTER + INTRA:          -6.079
REMARK INTER:                  -4.476
REMARK INTRA:                  -1.603
REMARK UNBOUND:                -1.641
REMARK SMILES CCCCCCCCCCCCCCO
REMARK SMILES IDX 8 1 7 2 6 3 5 4 4 5 3 6 2 7 1 8 9 9 10 10 11 11 12 12 13 13
REMARK SMILES IDX 14 14 15 15
REMARK H PARENT 15 16
REMARK Flexibility Score: inf
ROOT
ATOM      1  C   UNL     1     115.507 114.561 113.668  1.00  0.00     0.000 C 
ENDROOT
BRANCH   1   2
ATOM      2  C   UNL     1     116.600 114.343 112.616  1.00  0.00    -0.000 C 
BRANCH   2   3
ATOM      3  C   UNL     1     117.996 114.473 113.238  1.00  0.00    -0.000 C 
BRANCH   3   4
ATOM      4  C   UNL     1     118.876 115.427 112.421  1.00  0.00    -0.000 C 
BRANCH   4   5
ATOM      5  C   UNL     1     118.847 116.846 113.010  1.00  0.00    -0.000 C 
BRANCH   5   6
ATOM      6  C   UNL     1     117.892 117.780 112.239  1.00  0.00    -0.000 C 
BRANCH   6   7
ATOM      7  C   UNL     1     117.647 119.126 112.941  1.00  0.00    -0.003 C 
ATOM      8  C   UNL     1     118.679 120.190 112.574  1.00  0.00     0.004 C 
ENDBRANCH   6   7
ENDBRANCH   5   6
ENDBRANCH   4   5
ENDBRANCH   3   4
ENDBRANCH   2   3
ENDBRANCH   1   2
BRANCH   1   9
ATOM      9  C   UNL     1     116.026 115.406 114.837  1.00  0.00     0.000 C 
BRANCH   9  10
ATOM     10  C   UNL     1     115.335 116.777 114.874  1.00  0.00     0.000 C 
BRANCH  10  11
ATOM     11  C   UNL     1     114.163 116.878 113.884  1.00  0.00     0.000 C 
BRANCH  11  12
ATOM     12  C   UNL     1     113.965 118.302 113.344  1.00  0.00     0.002 C 
BRANCH  12  13
ATOM     13  C   UNL     1     114.286 119.347 114.421  1.00  0.00     0.028 C 
BRANCH  13  14
ATOM     14  C   UNL     1     113.041 119.756 115.212  1.00  0.00     0.156 C 
BRANCH  14  15
ATOM     15  O   UNL     1     111.946 119.943 114.354  1.00  0.00    -0.396 OA
ATOM     16  H   UNL     1     112.312 120.251 113.484  1.00  0.00     0.210 HD
ENDBRANCH  14  15
ENDBRANCH  13  14
ENDBRANCH  12  13
ENDBRANCH  11  12
ENDBRANCH  10  11
ENDBRANCH   9  10
ENDBRANCH   1   9
TORSDOF 13
ENDMDL
