MODEL 1
REMARK VINA RESULT:    -6.306      0.000      0.000
REMARK INTER + INTRA:          -8.160
REMARK INTER:                  -7.781
REMARK INTRA:                  -0.379
REMARK UNBOUND:                -0.379
REMARK SMILES Oc1cc(O)c2cc(O)c(-c3cc(O)c(O)c(O)c3)[o+]c2c1
REMARK SMILES IDX 10 1 20 2 21 3 22 4 2 5 3 6 4 7 6 8 7 9 8 10 11 11 12 12
REMARK SMILES IDX 13 13 19 14 15 15 17 16 14 17 16 19 18 21 9 23 1 25 5 27
REMARK H PARENT 14 18 16 20 18 22 9 24 1 26 5 28
REMARK Flexibility Score: inf
ROOT
ATOM      1  C   UNL     1     -43.580 -10.591  -0.784  1.00  0.00     0.402 A 
ATOM      2  O   UNL     1     -43.009 -11.467  -1.606  1.00  0.00    -0.202 OA
ATOM      3  C   UNL     1     -43.589 -12.600  -1.984  1.00  0.00     0.368 A 
ATOM      4  C   UNL     1     -42.907 -13.459  -2.850  1.00  0.00     0.162 A 
ATOM      5  C   UNL     1     -43.495 -14.659  -3.261  1.00  0.00     0.128 A 
ATOM      6  C   UNL     1     -44.769 -15.000  -2.805  1.00  0.00     0.093 A 
ATOM      7  C   UNL     1     -45.474 -14.158  -1.937  1.00  0.00     0.136 A 
ATOM      8  C   UNL     1     -44.883 -12.937  -1.518  1.00  0.00     0.125 A 
ATOM      9  C   UNL     1     -45.520 -12.025  -0.662  1.00  0.00     0.078 A 
ATOM     10  C   UNL     1     -44.876 -10.839  -0.296  1.00  0.00     0.223 A 
ENDROOT
BRANCH   1  11
ATOM     11  C   UNL     1     -42.825  -9.368  -0.427  1.00  0.00     0.091 A 
ATOM     12  C   UNL     1     -42.091  -9.282   0.768  1.00  0.00     0.068 A 
ATOM     13  C   UNL     1     -41.365  -8.124   1.077  1.00  0.00     0.162 A 
ATOM     14  C   UNL     1     -42.794  -8.291  -1.325  1.00  0.00     0.068 A 
ATOM     15  C   UNL     1     -41.358  -7.041   0.182  1.00  0.00     0.200 A 
ATOM     16  C   UNL     1     -42.073  -7.131  -1.025  1.00  0.00     0.162 A 
BRANCH  13  17
ATOM     17  O   UNL     1     -40.645  -8.048   2.269  1.00  0.00    -0.504 OA
ATOM     18  H   UNL     1     -39.632  -8.062   2.280  1.00  0.00     0.293 HD
ENDBRANCH  13  17
BRANCH  15  19
ATOM     19  O   UNL     1     -40.644  -5.879   0.476  1.00  0.00    -0.502 OA
ATOM     20  H   UNL     1     -39.876  -5.869   1.137  1.00  0.00     0.293 HD
ENDBRANCH  15  19
BRANCH  16  21
ATOM     21  O   UNL     1     -42.079  -6.076  -1.938  1.00  0.00    -0.504 OA
ATOM     22  H   UNL     1     -42.510  -5.183  -1.727  1.00  0.00     0.293 HD
ENDBRANCH  16  21
ENDBRANCH   1  11
BRANCH  10  23
ATOM     23  O   UNL     1     -45.529  -9.910   0.515  1.00  0.00    -0.500 OA
ATOM     24  H   UNL     1     -46.251  -9.300   0.152  1.00  0.00     0.294 HD
ENDBRANCH  10  23
BRANCH   5  25
ATOM     25  O   UNL     1     -42.820 -15.519  -4.125  1.00  0.00    -0.507 OA
ATOM     26  H   UNL     1     -43.242 -16.380  -4.452  1.00  0.00     0.293 HD
ENDBRANCH   5  25
BRANCH   7  27
ATOM     27  O   UNL     1     -46.743 -14.574  -1.524  1.00  0.00    -0.507 OA
ATOM     28  H   UNL     1     -47.581 -14.491  -2.080  1.00  0.00     0.293 HD
ENDBRANCH   7  27
TORSDOF 7
ENDMDL
MODEL 2
REMARK VINA RESULT:    -6.276      6.497      8.401
REMARK INTER + INTRA:          -8.122
REMARK INTER:                  -7.759
REMARK INTRA:                  -0.363
REMARK UNBOUND:                -0.379
REMARK SMILES Oc1cc(O)c2cc(O)c(-c3cc(O)c(O)c(O)c3)[o+]c2c1
REMARK SMILES IDX 10 1 20 2 21 3 22 4 2 5 3 6 4 7 6 8 7 9 8 10 11 11 12 12
REMARK SMILES IDX 13 13 19 14 15 15 17 16 14 17 16 19 18 21 9 23 1 25 5 27
REMARK H PARENT 14 18 16 20 18 22 9 24 1 26 5 28
REMARK Flexibility Score: inf
ROOT
ATOM      1  C   UNL     1     -45.640 -14.856   4.057  1.00  0.00     0.402 A 
ATOM      2  O   UNL     1     -44.702 -15.340   3.248  1.00  0.00    -0.202 OA
ATOM      3  C   UNL     1     -44.602 -15.009   1.965  1.00  0.00     0.368 A 
ATOM      4  C   UNL     1     -43.583 -15.573   1.193  1.00  0.00     0.162 A 
ATOM      5  C   UNL     1     -43.458 -15.243  -0.160  1.00  0.00     0.128 A 
ATOM      6  C   UNL     1     -44.355 -14.346  -0.743  1.00  0.00     0.093 A 
ATOM      7  C   UNL     1     -45.385 -13.768   0.009  1.00  0.00     0.136 A 
ATOM      8  C   UNL     1     -45.516 -14.097   1.383  1.00  0.00     0.125 A 
ATOM      9  C   UNL     1     -46.508 -13.556   2.215  1.00  0.00     0.078 A 
ATOM     10  C   UNL     1     -46.571 -13.925   3.563  1.00  0.00     0.223 A 
ENDROOT
BRANCH   1  11
ATOM     11  C   UNL     1     -45.653 -15.311   5.466  1.00  0.00     0.091 A 
ATOM     12  C   UNL     1     -45.055 -14.553   6.486  1.00  0.00     0.068 A 
ATOM     13  C   UNL     1     -45.097 -14.990   7.818  1.00  0.00     0.162 A 
ATOM     14  C   UNL     1     -46.325 -16.497   5.802  1.00  0.00     0.068 A 
ATOM     15  C   UNL     1     -45.753 -16.190   8.141  1.00  0.00     0.200 A 
ATOM     16  C   UNL     1     -46.371 -16.941   7.127  1.00  0.00     0.162 A 
BRANCH  13  17
ATOM     17  O   UNL     1     -44.494 -14.233   8.821  1.00  0.00    -0.504 OA
ATOM     18  H   UNL     1     -44.026 -14.668   9.607  1.00  0.00     0.293 HD
ENDBRANCH  13  17
BRANCH  15  19
ATOM     19  O   UNL     1     -45.801 -16.642   9.460  1.00  0.00    -0.502 OA
ATOM     20  H   UNL     1     -45.118 -16.360  10.153  1.00  0.00     0.293 HD
ENDBRANCH  15  19
BRANCH  16  21
ATOM     21  O   UNL     1     -47.037 -18.132   7.416  1.00  0.00    -0.504 OA
ATOM     22  H   UNL     1     -47.921 -18.149   7.911  1.00  0.00     0.293 HD
ENDBRANCH  16  21
ENDBRANCH   1  11
BRANCH  10  23
ATOM     23  O   UNL     1     -47.526 -13.350   4.402  1.00  0.00    -0.500 OA
ATOM     24  H   UNL     1     -48.464 -13.726   4.479  1.00  0.00     0.294 HD
ENDBRANCH  10  23
BRANCH   5  25
ATOM     25  O   UNL     1     -42.443 -15.801  -0.935  1.00  0.00    -0.507 OA
ATOM     26  H   UNL     1     -42.210 -15.432  -1.848  1.00  0.00     0.293 HD
ENDBRANCH   5  25
BRANCH   7  27
ATOM     27  O   UNL     1     -46.244 -12.883  -0.650  1.00  0.00    -0.507 OA
ATOM     28  H   UNL     1     -45.977 -11.968  -0.982  1.00  0.00     0.293 HD
ENDBRANCH   7  27
TORSDOF 7
ENDMDL
MODEL 3
REMARK VINA RESULT:    -6.229      2.723      7.172
REMARK INTER + INTRA:          -8.065
REMARK INTER:                  -7.685
REMARK INTRA:                  -0.380
REMARK UNBOUND:                -0.379
REMARK SMILES Oc1cc(O)c2cc(O)c(-c3cc(O)c(O)c(O)c3)[o+]c2c1
REMARK SMILES IDX 10 1 20 2 21 3 22 4 2 5 3 6 4 7 6 8 7 9 8 10 11 11 12 12
REMARK SMILES IDX 13 13 19 14 15 15 17 16 14 17 16 19 18 21 9 23 1 25 5 27
REMARK H PARENT 14 18 16 20 18 22 9 24 1 26 5 28
REMARK Flexibility Score: inf
ROOT
ATOM      1  C   UNL     1     -45.411 -12.336   0.082  1.00  0.00     0.402 A 
ATOM      2  O   UNL     1     -45.077 -11.083  -0.217  1.00  0.00    -0.202 OA
ATOM      3  C   UNL     1     -45.482 -10.032   0.487  1.00  0.00     0.368 A 
ATOM      4  C   UNL     1     -45.081  -8.753   0.091  1.00  0.00     0.162 A 
ATOM      5  C   UNL     1     -45.495  -7.629   0.813  1.00  0.00     0.128 A 
ATOM      6  C   UNL     1     -46.312  -7.786   1.934  1.00  0.00     0.093 A 
ATOM      7  C   UNL     1     -46.728  -9.056   2.351  1.00  0.00     0.136 A 
ATOM      8  C   UNL     1     -46.309 -10.201   1.624  1.00  0.00     0.125 A 
ATOM      9  C   UNL     1     -46.665 -11.512   1.976  1.00  0.00     0.078 A 
ATOM     10  C   UNL     1     -46.209 -12.591   1.212  1.00  0.00     0.223 A 
ENDROOT
BRANCH   1  11
ATOM     11  C   UNL     1     -44.905 -13.423  -0.787  1.00  0.00     0.091 A 
ATOM     12  C   UNL     1     -45.694 -13.964  -1.816  1.00  0.00     0.068 A 
ATOM     13  C   UNL     1     -45.189 -14.978  -2.643  1.00  0.00     0.162 A 
ATOM     14  C   UNL     1     -43.592 -13.886  -0.619  1.00  0.00     0.068 A 
ATOM     15  C   UNL     1     -43.880 -15.451  -2.452  1.00  0.00     0.200 A 
ATOM     16  C   UNL     1     -43.080 -14.897  -1.438  1.00  0.00     0.162 A 
BRANCH  13  17
ATOM     17  O   UNL     1     -45.983 -15.512  -3.657  1.00  0.00    -0.504 OA
ATOM     18  H   UNL     1     -45.650 -15.583  -4.611  1.00  0.00     0.293 HD
ENDBRANCH  13  17
BRANCH  15  19
ATOM     19  O   UNL     1     -43.363 -16.462  -3.263  1.00  0.00    -0.502 OA
ATOM     20  H   UNL     1     -43.784 -17.383  -3.312  1.00  0.00     0.293 HD
ENDBRANCH  15  19
BRANCH  16  21
ATOM     21  O   UNL     1     -41.774 -15.340  -1.228  1.00  0.00    -0.504 OA
ATOM     22  H   UNL     1     -41.570 -16.226  -0.782  1.00  0.00     0.293 HD
ENDBRANCH  16  21
ENDBRANCH   1  11
BRANCH  10  23
ATOM     23  O   UNL     1     -46.522 -13.897   1.591  1.00  0.00    -0.500 OA
ATOM     24  H   UNL     1     -47.430 -14.140   1.968  1.00  0.00     0.294 HD
ENDBRANCH  10  23
BRANCH   5  25
ATOM     25  O   UNL     1     -45.098  -6.351   0.425  1.00  0.00    -0.507 OA
ATOM     26  H   UNL     1     -45.697  -5.759  -0.137  1.00  0.00     0.293 HD
ENDBRANCH   5  25
BRANCH   7  27
ATOM     27  O   UNL     1     -47.548  -9.127   3.482  1.00  0.00    -0.507 OA
ATOM     28  H   UNL     1     -48.096  -9.934   3.740  1.00  0.00     0.293 HD
ENDBRANCH   7  27
TORSDOF 7
ENDMDL
MODEL 4
REMARK VINA RESULT:    -6.161      1.169      2.705
REMARK INTER + INTRA:          -7.980
REMARK INTER:                  -7.614
REMARK INTRA:                  -0.366
REMARK UNBOUND:                -0.379
REMARK SMILES Oc1cc(O)c2cc(O)c(-c3cc(O)c(O)c(O)c3)[o+]c2c1
REMARK SMILES IDX 10 1 20 2 21 3 22 4 2 5 3 6 4 7 6 8 7 9 8 10 11 11 12 12
REMARK SMILES IDX 13 13 19 14 15 15 17 16 14 17 16 19 18 21 9 23 1 25 5 27
REMARK H PARENT 14 18 16 20 18 22 9 24 1 26 5 28
REMARK Flexibility Score: inf
ROOT
ATOM      1  C   UNL     1     -42.136 -11.118  -1.566  1.00  0.00     0.402 A 
ATOM      2  O   UNL     1     -43.391 -11.526  -1.405  1.00  0.00    -0.202 OA
ATOM      3  C   UNL     1     -43.847 -12.687  -1.860  1.00  0.00     0.368 A 
ATOM      4  C   UNL     1     -45.185 -13.027  -1.643  1.00  0.00     0.162 A 
ATOM      5  C   UNL     1     -45.689 -14.242  -2.115  1.00  0.00     0.128 A 
ATOM      6  C   UNL     1     -44.853 -15.121  -2.806  1.00  0.00     0.093 A 
ATOM      7  C   UNL     1     -43.509 -14.804  -3.037  1.00  0.00     0.136 A 
ATOM      8  C   UNL     1     -42.990 -13.573  -2.559  1.00  0.00     0.125 A 
ATOM      9  C   UNL     1     -41.654 -13.179  -2.732  1.00  0.00     0.078 A 
ATOM     10  C   UNL     1     -41.215 -11.951  -2.227  1.00  0.00     0.223 A 
ENDROOT
BRANCH   1  11
ATOM     11  C   UNL     1     -41.752  -9.795  -1.022  1.00  0.00     0.091 A 
ATOM     12  C   UNL     1     -41.382  -9.637   0.324  1.00  0.00     0.068 A 
ATOM     13  C   UNL     1     -41.001  -8.381   0.816  1.00  0.00     0.162 A 
ATOM     14  C   UNL     1     -41.700  -8.685  -1.878  1.00  0.00     0.068 A 
ATOM     15  C   UNL     1     -40.975  -7.270  -0.045  1.00  0.00     0.200 A 
ATOM     16  C   UNL     1     -41.322  -7.428  -1.397  1.00  0.00     0.162 A 
BRANCH  13  17
ATOM     17  O   UNL     1     -40.643  -8.234   2.155  1.00  0.00    -0.504 OA
ATOM     18  H   UNL     1     -40.014  -7.500   2.460  1.00  0.00     0.293 HD
ENDBRANCH  13  17
BRANCH  15  19
ATOM     19  O   UNL     1     -40.601  -6.012   0.429  1.00  0.00    -0.502 OA
ATOM     20  H   UNL     1     -41.120  -5.532   1.156  1.00  0.00     0.293 HD
ENDBRANCH  15  19
BRANCH  16  21
ATOM     21  O   UNL     1     -41.298  -6.347  -2.278  1.00  0.00    -0.504 OA
ATOM     22  H   UNL     1     -42.006  -5.622  -2.261  1.00  0.00     0.293 HD
ENDBRANCH  16  21
ENDBRANCH   1  11
BRANCH  10  23
ATOM     23  O   UNL     1     -39.875 -11.581  -2.356  1.00  0.00    -0.500 OA
ATOM     24  H   UNL     1     -39.478 -11.319  -3.250  1.00  0.00     0.294 HD
ENDBRANCH  10  23
BRANCH   5  25
ATOM     25  O   UNL     1     -47.023 -14.587  -1.901  1.00  0.00    -0.507 OA
ATOM     26  H   UNL     1     -47.672 -14.693  -2.670  1.00  0.00     0.293 HD
ENDBRANCH   5  25
BRANCH   7  27
ATOM     27  O   UNL     1     -42.739 -15.736  -3.740  1.00  0.00    -0.507 OA
ATOM     28  H   UNL     1     -41.974 -16.261  -3.343  1.00  0.00     0.293 HD
ENDBRANCH   7  27
TORSDOF 7
ENDMDL
MODEL 5
REMARK VINA RESULT:    -6.126      3.078      5.026
REMARK INTER + INTRA:          -7.937
REMARK INTER:                  -7.590
REMARK INTRA:                  -0.347
REMARK UNBOUND:                -0.379
REMARK SMILES Oc1cc(O)c2cc(O)c(-c3cc(O)c(O)c(O)c3)[o+]c2c1
REMARK SMILES IDX 10 1 20 2 21 3 22 4 2 5 3 6 4 7 6 8 7 9 8 10 11 11 12 12
REMARK SMILES IDX 13 13 19 14 15 15 17 16 14 17 16 19 18 21 9 23 1 25 5 27
REMARK H PARENT 14 18 16 20 18 22 9 24 1 26 5 28
REMARK Flexibility Score: inf
ROOT
ATOM      1  C   UNL     1     -45.263 -11.791   0.676  1.00  0.00     0.402 A 
ATOM      2  O   UNL     1     -45.835 -12.754  -0.041  1.00  0.00    -0.202 OA
ATOM      3  C   UNL     1     -45.363 -13.172  -1.211  1.00  0.00     0.368 A 
ATOM      4  C   UNL     1     -46.036 -14.190  -1.892  1.00  0.00     0.162 A 
ATOM      5  C   UNL     1     -45.562 -14.645  -3.126  1.00  0.00     0.128 A 
ATOM      6  C   UNL     1     -44.412 -14.081  -3.680  1.00  0.00     0.093 A 
ATOM      7  C   UNL     1     -43.719 -13.060  -3.018  1.00  0.00     0.136 A 
ATOM      8  C   UNL     1     -44.194 -12.594  -1.764  1.00  0.00     0.125 A 
ATOM      9  C   UNL     1     -43.558 -11.586  -1.024  1.00  0.00     0.078 A 
ATOM     10  C   UNL     1     -44.083 -11.184   0.208  1.00  0.00     0.223 A 
ENDROOT
BRANCH   1  11
ATOM     11  C   UNL     1     -45.891 -11.406   1.961  1.00  0.00     0.091 A 
ATOM     12  C   UNL     1     -45.398 -11.879   3.188  1.00  0.00     0.068 A 
ATOM     13  C   UNL     1     -45.993 -11.485   4.395  1.00  0.00     0.162 A 
ATOM     14  C   UNL     1     -46.968 -10.506   1.959  1.00  0.00     0.068 A 
ATOM     15  C   UNL     1     -47.085 -10.601   4.382  1.00  0.00     0.200 A 
ATOM     16  C   UNL     1     -47.568 -10.109   3.158  1.00  0.00     0.162 A 
BRANCH  13  17
ATOM     17  O   UNL     1     -45.498 -11.966   5.607  1.00  0.00    -0.504 OA
ATOM     18  H   UNL     1     -45.704 -11.505   6.485  1.00  0.00     0.293 HD
ENDBRANCH  13  17
BRANCH  15  19
ATOM     19  O   UNL     1     -47.691 -10.203   5.574  1.00  0.00    -0.502 OA
ATOM     20  H   UNL     1     -47.467  -9.324   6.027  1.00  0.00     0.293 HD
ENDBRANCH  15  19
BRANCH  16  21
ATOM     21  O   UNL     1     -48.646  -9.224   3.113  1.00  0.00    -0.504 OA
ATOM     22  H   UNL     1     -48.524  -8.236   2.921  1.00  0.00     0.293 HD
ENDBRANCH  16  21
ENDBRANCH   1  11
BRANCH  10  23
ATOM     23  O   UNL     1     -43.424 -10.216   0.967  1.00  0.00    -0.500 OA
ATOM     24  H   UNL     1     -43.793  -9.890   1.853  1.00  0.00     0.294 HD
ENDBRANCH  10  23
BRANCH   5  25
ATOM     25  O   UNL     1     -46.228 -15.660  -3.810  1.00  0.00    -0.507 OA
ATOM     26  H   UNL     1     -45.977 -16.634  -3.689  1.00  0.00     0.293 HD
ENDBRANCH   5  25
BRANCH   7  27
ATOM     27  O   UNL     1     -42.578 -12.545  -3.642  1.00  0.00    -0.507 OA
ATOM     28  H   UNL     1     -42.593 -11.919  -4.432  1.00  0.00     0.293 HD
ENDBRANCH   7  27
TORSDOF 7
ENDMDL
MODEL 6
REMARK VINA RESULT:    -6.101      2.473      4.050
REMARK INTER + INTRA:          -7.907
REMARK INTER:                  -7.592
REMARK INTRA:                  -0.316
REMARK UNBOUND:                -0.379
REMARK SMILES Oc1cc(O)c2cc(O)c(-c3cc(O)c(O)c(O)c3)[o+]c2c1
REMARK SMILES IDX 10 1 20 2 21 3 22 4 2 5 3 6 4 7 6 8 7 9 8 10 11 11 12 12
REMARK SMILES IDX 13 13 19 14 15 15 17 16 14 17 16 19 18 21 9 23 1 25 5 27
REMARK H PARENT 14 18 16 20 18 22 9 24 1 26 5 28
REMARK Flexibility Score: inf
ROOT
ATOM      1  C   UNL     1     -44.339 -10.980  -0.315  1.00  0.00     0.402 A 
ATOM      2  O   UNL     1     -45.116 -11.909  -0.865  1.00  0.00    -0.202 OA
ATOM      3  C   UNL     1     -44.653 -12.889  -1.633  1.00  0.00     0.368 A 
ATOM      4  C   UNL     1     -45.550 -13.817  -2.169  1.00  0.00     0.162 A 
ATOM      5  C   UNL     1     -45.088 -14.856  -2.982  1.00  0.00     0.128 A 
ATOM      6  C   UNL     1     -43.724 -14.967  -3.259  1.00  0.00     0.093 A 
ATOM      7  C   UNL     1     -42.804 -14.051  -2.735  1.00  0.00     0.136 A 
ATOM      8  C   UNL     1     -43.267 -12.994  -1.907  1.00  0.00     0.125 A 
ATOM      9  C   UNL     1     -42.418 -12.039  -1.328  1.00  0.00     0.078 A 
ATOM     10  C   UNL     1     -42.948 -11.030  -0.518  1.00  0.00     0.223 A 
ENDROOT
BRANCH   1  11
ATOM     11  C   UNL     1     -44.977  -9.931   0.513  1.00  0.00     0.091 A 
ATOM     12  C   UNL     1     -45.071  -8.602   0.067  1.00  0.00     0.068 A 
ATOM     13  C   UNL     1     -45.699  -7.629   0.857  1.00  0.00     0.162 A 
ATOM     14  C   UNL     1     -45.552 -10.280   1.745  1.00  0.00     0.068 A 
ATOM     15  C   UNL     1     -46.251  -7.983   2.099  1.00  0.00     0.200 A 
ATOM     16  C   UNL     1     -46.179  -9.315   2.539  1.00  0.00     0.162 A 
BRANCH  13  17
ATOM     17  O   UNL     1     -45.780  -6.311   0.407  1.00  0.00    -0.504 OA
ATOM     18  H   UNL     1     -45.006  -5.864  -0.070  1.00  0.00     0.293 HD
ENDBRANCH  13  17
BRANCH  15  19
ATOM     19  O   UNL     1     -46.876  -7.025   2.899  1.00  0.00    -0.502 OA
ATOM     20  H   UNL     1     -46.557  -6.814   3.837  1.00  0.00     0.293 HD
ENDBRANCH  15  19
BRANCH  16  21
ATOM     21  O   UNL     1     -46.725  -9.700   3.764  1.00  0.00    -0.504 OA
ATOM     22  H   UNL     1     -46.148  -9.907   4.570  1.00  0.00     0.293 HD
ENDBRANCH  16  21
ENDBRANCH   1  11
BRANCH  10  23
ATOM     23  O   UNL     1     -42.098 -10.109   0.098  1.00  0.00    -0.500 OA
ATOM     24  H   UNL     1     -42.350  -9.649   0.964  1.00  0.00     0.294 HD
ENDBRANCH  10  23
BRANCH   5  25
ATOM     25  O   UNL     1     -45.977 -15.784  -3.519  1.00  0.00    -0.507 OA
ATOM     26  H   UNL     1     -46.057 -15.923  -4.518  1.00  0.00     0.293 HD
ENDBRANCH   5  25
BRANCH   7  27
ATOM     27  O   UNL     1     -41.457 -14.230  -3.063  1.00  0.00    -0.507 OA
ATOM     28  H   UNL     1     -40.686 -13.829  -2.550  1.00  0.00     0.293 HD
ENDBRANCH   7  27
TORSDOF 7
ENDMDL
MODEL 7
REMARK VINA RESULT:    -6.051      6.685      8.669
REMARK INTER + INTRA:          -7.845
REMARK INTER:                  -7.466
REMARK INTRA:                  -0.379
REMARK UNBOUND:                -0.379
REMARK SMILES Oc1cc(O)c2cc(O)c(-c3cc(O)c(O)c(O)c3)[o+]c2c1
REMARK SMILES IDX 10 1 20 2 21 3 22 4 2 5 3 6 4 7 6 8 7 9 8 10 11 11 12 12
REMARK SMILES IDX 13 13 19 14 15 15 17 16 14 17 16 19 18 21 9 23 1 25 5 27
REMARK H PARENT 14 18 16 20 18 22 9 24 1 26 5 28
REMARK Flexibility Score: inf
ROOT
ATOM      1  C   UNL     1     -44.276 -15.497   4.008  1.00  0.00     0.402 A 
ATOM      2  O   UNL     1     -45.166 -15.044   3.129  1.00  0.00    -0.202 OA
ATOM      3  C   UNL     1     -44.870 -14.773   1.863  1.00  0.00     0.368 A 
ATOM      4  C   UNL     1     -45.875 -14.297   1.016  1.00  0.00     0.162 A 
ATOM      5  C   UNL     1     -45.589 -14.002  -0.321  1.00  0.00     0.128 A 
ATOM      6  C   UNL     1     -44.295 -14.183  -0.811  1.00  0.00     0.093 A 
ATOM      7  C   UNL     1     -43.271 -14.658   0.017  1.00  0.00     0.136 A 
ATOM      8  C   UNL     1     -43.555 -14.961   1.374  1.00  0.00     0.125 A 
ATOM      9  C   UNL     1     -42.595 -15.455   2.272  1.00  0.00     0.078 A 
ATOM     10  C   UNL     1     -42.952 -15.736   3.594  1.00  0.00     0.223 A 
ENDROOT
BRANCH   1  11
ATOM     11  C   UNL     1     -44.726 -15.751   5.395  1.00  0.00     0.091 A 
ATOM     12  C   UNL     1     -45.253 -16.996   5.778  1.00  0.00     0.068 A 
ATOM     13  C   UNL     1     -45.653 -17.223   7.102  1.00  0.00     0.162 A 
ATOM     14  C   UNL     1     -44.572 -14.748   6.364  1.00  0.00     0.068 A 
ATOM     15  C   UNL     1     -45.516 -16.205   8.061  1.00  0.00     0.200 A 
ATOM     16  C   UNL     1     -44.969 -14.966   7.687  1.00  0.00     0.162 A 
BRANCH  13  17
ATOM     17  O   UNL     1     -46.181 -18.461   7.469  1.00  0.00    -0.504 OA
ATOM     18  H   UNL     1     -45.996 -18.870   8.377  1.00  0.00     0.293 HD
ENDBRANCH  13  17
BRANCH  15  19
ATOM     19  O   UNL     1     -45.913 -16.414   9.382  1.00  0.00    -0.502 OA
ATOM     20  H   UNL     1     -46.404 -17.251   9.673  1.00  0.00     0.293 HD
ENDBRANCH  15  19
BRANCH  16  21
ATOM     21  O   UNL     1     -44.812 -13.938   8.617  1.00  0.00    -0.504 OA
ATOM     22  H   UNL     1     -43.957 -13.398   8.685  1.00  0.00     0.293 HD
ENDBRANCH  16  21
ENDBRANCH   1  11
BRANCH  10  23
ATOM     23  O   UNL     1     -42.011 -16.272   4.474  1.00  0.00    -0.500 OA
ATOM     24  H   UNL     1     -41.301 -15.697   4.910  1.00  0.00     0.294 HD
ENDBRANCH  10  23
BRANCH   5  25
ATOM     25  O   UNL     1     -46.587 -13.528  -1.171  1.00  0.00    -0.507 OA
ATOM     26  H   UNL     1     -46.477 -13.545  -2.177  1.00  0.00     0.293 HD
ENDBRANCH   5  25
BRANCH   7  27
ATOM     27  O   UNL     1     -42.001 -14.808  -0.550  1.00  0.00    -0.507 OA
ATOM     28  H   UNL     1     -41.735 -15.565  -1.162  1.00  0.00     0.293 HD
ENDBRANCH   7  27
TORSDOF 7
ENDMDL
MODEL 8
REMARK VINA RESULT:    -6.051      6.664      8.655
REMARK INTER + INTRA:          -7.845
REMARK INTER:                  -7.460
REMARK INTRA:                  -0.385
REMARK UNBOUND:                -0.379
REMARK SMILES Oc1cc(O)c2cc(O)c(-c3cc(O)c(O)c(O)c3)[o+]c2c1
REMARK SMILES IDX 10 1 20 2 21 3 22 4 2 5 3 6 4 7 6 8 7 9 8 10 11 11 12 12
REMARK SMILES IDX 13 13 19 14 15 15 17 16 14 17 16 19 18 21 9 23 1 25 5 27
REMARK H PARENT 14 18 16 20 18 22 9 24 1 26 5 28
REMARK Flexibility Score: inf
ROOT
ATOM      1  C   UNL     1     -44.196 -15.470   3.999  1.00  0.00     0.402 A 
ATOM      2  O   UNL     1     -45.099 -15.023   3.131  1.00  0.00    -0.202 OA
ATOM      3  C   UNL     1     -44.825 -14.769   1.856  1.00  0.00     0.368 A 
ATOM      4  C   UNL     1     -45.842 -14.298   1.021  1.00  0.00     0.162 A 
ATOM      5  C   UNL     1     -45.578 -14.022  -0.324  1.00  0.00     0.128 A 
ATOM      6  C   UNL     1     -44.294 -14.217  -0.835  1.00  0.00     0.093 A 
ATOM      7  C   UNL     1     -43.258 -14.687  -0.020  1.00  0.00     0.136 A 
ATOM      8  C   UNL     1     -43.519 -14.972   1.346  1.00  0.00     0.125 A 
ATOM      9  C   UNL     1     -42.546 -15.460   2.233  1.00  0.00     0.078 A 
ATOM     10  C   UNL     1     -42.881 -15.722   3.565  1.00  0.00     0.223 A 
ENDROOT
BRANCH   1  11
ATOM     11  C   UNL     1     -44.622 -15.704   5.397  1.00  0.00     0.091 A 
ATOM     12  C   UNL     1     -44.514 -14.700   6.374  1.00  0.00     0.068 A 
ATOM     13  C   UNL     1     -44.944 -14.934   7.688  1.00  0.00     0.162 A 
ATOM     14  C   UNL     1     -45.199 -16.935   5.746  1.00  0.00     0.068 A 
ATOM     15  C   UNL     1     -45.499 -16.178   8.032  1.00  0.00     0.200 A 
ATOM     16  C   UNL     1     -45.630 -17.177   7.053  1.00  0.00     0.162 A 
BRANCH  13  17
ATOM     17  O   UNL     1     -44.825 -13.932   8.650  1.00  0.00    -0.504 OA
ATOM     18  H   UNL     1     -44.849 -14.141   9.641  1.00  0.00     0.293 HD
ENDBRANCH  13  17
BRANCH  15  19
ATOM     19  O   UNL     1     -45.928 -16.429   9.336  1.00  0.00    -0.502 OA
ATOM     20  H   UNL     1     -46.357 -15.713   9.911  1.00  0.00     0.293 HD
ENDBRANCH  15  19
BRANCH  16  21
ATOM     21  O   UNL     1     -46.184 -18.420   7.362  1.00  0.00    -0.504 OA
ATOM     22  H   UNL     1     -46.185 -18.790   8.305  1.00  0.00     0.293 HD
ENDBRANCH  16  21
ENDBRANCH   1  11
BRANCH  10  23
ATOM     23  O   UNL     1     -41.927 -16.253   4.434  1.00  0.00    -0.500 OA
ATOM     24  H   UNL     1     -41.941 -17.227   4.710  1.00  0.00     0.294 HD
ENDBRANCH  10  23
BRANCH   5  25
ATOM     25  O   UNL     1     -46.588 -13.552  -1.161  1.00  0.00    -0.507 OA
ATOM     26  H   UNL     1     -46.489 -12.686  -1.676  1.00  0.00     0.293 HD
ENDBRANCH   5  25
BRANCH   7  27
ATOM     27  O   UNL     1     -42.000 -14.852  -0.607  1.00  0.00    -0.507 OA
ATOM     28  H   UNL     1     -41.384 -14.094  -0.862  1.00  0.00     0.293 HD
ENDBRANCH   7  27
TORSDOF 7
ENDMDL
MODEL 9
REMARK VINA RESULT:    -5.959      3.849      7.497
REMARK INTER + INTRA:          -7.732
REMARK INTER:                  -7.367
REMARK INTRA:                  -0.364
REMARK UNBOUND:                -0.379
REMARK SMILES Oc1cc(O)c2cc(O)c(-c3cc(O)c(O)c(O)c3)[o+]c2c1
REMARK SMILES IDX 10 1 20 2 21 3 22 4 2 5 3 6 4 7 6 8 7 9 8 10 11 11 12 12
REMARK SMILES IDX 13 13 19 14 15 15 17 16 14 17 16 19 18 21 9 23 1 25 5 27
REMARK H PARENT 14 18 16 20 18 22 9 24 1 26 5 28
REMARK Flexibility Score: inf
ROOT
ATOM      1  C   UNL     1     -45.722 -12.953   0.571  1.00  0.00     0.402 A 
ATOM      2  O   UNL     1     -46.254 -13.528   1.646  1.00  0.00    -0.202 OA
ATOM      3  C   UNL     1     -46.821 -12.845   2.635  1.00  0.00     0.368 A 
ATOM      4  C   UNL     1     -47.350 -13.540   3.726  1.00  0.00     0.162 A 
ATOM      5  C   UNL     1     -47.950 -12.845   4.781  1.00  0.00     0.128 A 
ATOM      6  C   UNL     1     -48.020 -11.451   4.744  1.00  0.00     0.093 A 
ATOM      7  C   UNL     1     -47.497 -10.732   3.663  1.00  0.00     0.136 A 
ATOM      8  C   UNL     1     -46.889 -11.431   2.588  1.00  0.00     0.125 A 
ATOM      9  C   UNL     1     -46.351 -10.795   1.458  1.00  0.00     0.078 A 
ATOM     10  C   UNL     1     -45.772 -11.553   0.436  1.00  0.00     0.223 A 
ENDROOT
BRANCH   1  11
ATOM     11  C   UNL     1     -45.109 -13.822  -0.459  1.00  0.00     0.091 A 
ATOM     12  C   UNL     1     -45.820 -14.214  -1.605  1.00  0.00     0.068 A 
ATOM     13  C   UNL     1     -45.214 -15.019  -2.579  1.00  0.00     0.162 A 
ATOM     14  C   UNL     1     -43.771 -14.219  -0.317  1.00  0.00     0.068 A 
ATOM     15  C   UNL     1     -43.880 -15.431  -2.418  1.00  0.00     0.200 A 
ATOM     16  C   UNL     1     -43.158 -15.024  -1.283  1.00  0.00     0.162 A 
BRANCH  13  17
ATOM     17  O   UNL     1     -45.932 -15.407  -3.710  1.00  0.00    -0.504 OA
ATOM     18  H   UNL     1     -46.381 -16.313  -3.770  1.00  0.00     0.293 HD
ENDBRANCH  13  17
BRANCH  15  19
ATOM     19  O   UNL     1     -43.263 -16.236  -3.376  1.00  0.00    -0.502 OA
ATOM     20  H   UNL     1     -43.645 -17.132  -3.656  1.00  0.00     0.293 HD
ENDBRANCH  15  19
BRANCH  16  21
ATOM     21  O   UNL     1     -41.830 -15.409  -1.098  1.00  0.00    -0.504 OA
ATOM     22  H   UNL     1     -41.125 -15.272  -1.812  1.00  0.00     0.293 HD
ENDBRANCH  16  21
ENDBRANCH   1  11
BRANCH  10  23
ATOM     23  O   UNL     1     -45.282 -10.924  -0.710  1.00  0.00    -0.500 OA
ATOM     24  H   UNL     1     -45.626 -11.156  -1.634  1.00  0.00     0.294 HD
ENDBRANCH  10  23
BRANCH   5  25
ATOM     25  O   UNL     1     -48.480 -13.532   5.871  1.00  0.00    -0.507 OA
ATOM     26  H   UNL     1     -48.478 -14.543   5.912  1.00  0.00     0.293 HD
ENDBRANCH   5  25
BRANCH   7  27
ATOM     27  O   UNL     1     -47.604  -9.338   3.704  1.00  0.00    -0.507 OA
ATOM     28  H   UNL     1     -47.639  -8.744   2.889  1.00  0.00     0.293 HD
ENDBRANCH   7  27
TORSDOF 7
ENDMDL
