MODEL 1
REMARK VINA RESULT:    -8.537      0.000      0.000
REMARK INTER + INTRA:          -9.993
REMARK INTER:                  -9.784
REMARK INTRA:                  -0.209
REMARK UNBOUND:                -0.209
REMARK SMILES CC1(C)CC[C@@]23CO[C@]4(C=C[C@H]5[C@]6(C)CC[C@H](O)[C@](C)(CO)[C@H]6CC[C@@]5(C)[C@@]4(C)C[C@H]2O)[C@@H]3C1
REMARK SMILES IDX 1 1 2 2 4 3 5 4 6 5 7 6 8 7 9 8 33 9 34 10 10 11 11 12 12 13
REMARK SMILES IDX 13 14 15 15 16 16 17 17 19 18 23 19 24 20 25 21 26 22 28 23
REMARK SMILES IDX 30 24 31 25 29 26 27 27 20 28 14 29 3 30 32 31 21 33 22 34
REMARK SMILES IDX 18 36
REMARK H PARENT 32 32 22 35 18 37
REMARK Flexibility Score: inf
ROOT
ATOM      1  C   UNL     1      25.032   2.935  13.906  1.00  0.00     0.011 C 
ATOM      2  C   UNL     1      25.014   2.220  12.531  1.00  0.00    -0.035 C 
ATOM      3  C   UNL     1      24.325   3.109  11.489  1.00  0.00     0.007 C 
ATOM      4  C   UNL     1      22.806   3.223  11.722  1.00  0.00     0.013 C 
ATOM      5  C   UNL     1      22.083   1.834  11.799  1.00  0.00     0.026 C 
ATOM      6  C   UNL     1      21.428   1.536  13.169  1.00  0.00     0.171 C 
ATOM      7  O   UNL     1      21.364   0.119  13.331  1.00  0.00    -0.369 OA
ATOM      8  C   UNL     1      22.018  -0.467  12.203  1.00  0.00     0.096 C 
ATOM      9  C   UNL     1      23.012   0.652  11.733  1.00  0.00     0.037 C 
ATOM     10  C   UNL     1      24.303   0.830  12.647  1.00  0.00     0.014 C 
ATOM     11  C   UNL     1      22.748  -1.738  12.605  1.00  0.00     0.005 C 
ATOM     12  C   UNL     1      22.270  -2.930  12.389  1.00  0.00    -0.024 C 
ATOM     13  C   UNL     1      20.789  -3.206  12.231  1.00  0.00     0.024 C 
ATOM     14  C   UNL     1      20.202  -3.905  13.577  1.00  0.00    -0.022 C 
ATOM     15  C   UNL     1      20.895  -5.264  13.760  1.00  0.00     0.010 C 
ATOM     16  C   UNL     1      20.130  -6.280  14.600  1.00  0.00     0.033 C 
ATOM     17  C   UNL     1      18.649  -6.498  14.205  1.00  0.00     0.123 C 
ATOM     18  C   UNL     1      17.881  -5.109  14.199  1.00  0.00     0.020 C 
ATOM     19  C   UNL     1      18.674  -4.096  13.251  1.00  0.00     0.006 C 
ATOM     20  C   UNL     1      17.971  -2.728  13.087  1.00  0.00     0.005 C 
ATOM     21  C   UNL     1      18.850  -1.566  12.604  1.00  0.00     0.008 C 
ATOM     22  C   UNL     1      19.951  -2.012  11.594  1.00  0.00    -0.017 C 
ATOM     23  C   UNL     1      20.929  -0.832  11.101  1.00  0.00     0.009 C 
ATOM     24  C   UNL     1      20.136   0.472  10.762  1.00  0.00     0.043 C 
ATOM     25  C   UNL     1      21.030   1.723  10.623  1.00  0.00     0.124 C 
ATOM     26  C   UNL     1      21.635  -1.278   9.757  1.00  0.00     0.015 C 
ATOM     27  C   UNL     1      19.142  -2.511  10.330  1.00  0.00     0.013 C 
ATOM     28  C   UNL     1      17.700  -4.605  15.679  1.00  0.00     0.017 C 
ATOM     29  C   UNL     1      20.421  -3.048  14.889  1.00  0.00     0.012 C 
ATOM     30  C   UNL     1      26.496   2.003  12.071  1.00  0.00     0.011 C 
ENDROOT
BRANCH  25  31
ATOM     31  O   UNL     1      20.219   2.847  10.549  1.00  0.00    -0.392 OA
ATOM     32  H   UNL     1      19.896   2.950   9.615  1.00  0.00     0.210 HD
ENDBRANCH  25  31
BRANCH  18  33
ATOM     33  C   UNL     1      16.470  -5.395  13.661  1.00  0.00     0.165 C 
BRANCH  33  34
ATOM     34  O   UNL     1      16.497  -5.595  12.257  1.00  0.00    -0.396 OA
ATOM     35  H   UNL     1      16.377  -6.567  12.058  1.00  0.00     0.210 HD
ENDBRANCH  33  34
ENDBRANCH  18  33
BRANCH  17  36
ATOM     36  O   UNL     1      18.561  -7.193  12.976  1.00  0.00    -0.392 OA
ATOM     37  H   UNL     1      18.436  -8.165  13.233  1.00  0.00     0.210 HD
ENDBRANCH  17  36
TORSDOF 4
ENDMDL
MODEL 2
REMARK VINA RESULT:    -8.537      7.090     11.057
REMARK INTER + INTRA:          -9.993
REMARK INTER:                  -9.782
REMARK INTRA:                  -0.210
REMARK UNBOUND:                -0.209
REMARK SMILES CC1(C)CC[C@@]23CO[C@]4(C=C[C@H]5[C@]6(C)CC[C@H](O)[C@](C)(CO)[C@H]6CC[C@@]5(C)[C@@]4(C)C[C@H]2O)[C@@H]3C1
REMARK SMILES IDX 1 1 2 2 4 3 5 4 6 5 7 6 8 7 9 8 33 9 34 10 10 11 11 12 12 13
REMARK SMILES IDX 13 14 15 15 16 16 17 17 19 18 23 19 24 20 25 21 26 22 28 23
REMARK SMILES IDX 30 24 31 25 29 26 27 27 20 28 14 29 3 30 32 31 21 33 22 34
REMARK SMILES IDX 18 36
REMARK H PARENT 32 32 22 35 18 37
REMARK Flexibility Score: inf
ROOT
ATOM      1  C   UNL     1      25.132  -0.199  17.676  1.00  0.00     0.011 C 
ATOM      2  C   UNL     1      24.801   0.357  19.083  1.00  0.00    -0.035 C 
ATOM      3  C   UNL     1      23.776  -0.548  19.775  1.00  0.00     0.007 C 
ATOM      4  C   UNL     1      22.375  -0.446  19.140  1.00  0.00     0.013 C 
ATOM      5  C   UNL     1      21.828   1.021  19.070  1.00  0.00     0.026 C 
ATOM      6  C   UNL     1      21.605   1.546  17.632  1.00  0.00     0.171 C 
ATOM      7  O   UNL     1      21.715   2.969  17.657  1.00  0.00    -0.369 OA
ATOM      8  C   UNL     1      22.084   3.343  18.987  1.00  0.00     0.096 C 
ATOM      9  C   UNL     1      22.806   2.065  19.540  1.00  0.00     0.037 C 
ATOM     10  C   UNL     1      24.277   1.829  18.980  1.00  0.00     0.014 C 
ATOM     11  C   UNL     1      23.007   4.550  18.970  1.00  0.00     0.005 C 
ATOM     12  C   UNL     1      22.597   5.761  19.217  1.00  0.00    -0.024 C 
ATOM     13  C   UNL     1      21.160   6.200  19.019  1.00  0.00     0.024 C 
ATOM     14  C   UNL     1      21.032   7.108  17.677  1.00  0.00    -0.022 C 
ATOM     15  C   UNL     1      21.867   8.383  17.872  1.00  0.00     0.010 C 
ATOM     16  C   UNL     1      21.457   9.572  17.011  1.00  0.00     0.033 C 
ATOM     17  C   UNL     1      19.950   9.927  17.031  1.00  0.00     0.123 C 
ATOM     18  C   UNL     1      19.088   8.652  16.643  1.00  0.00     0.020 C 
ATOM     19  C   UNL     1      19.496   7.450  17.616  1.00  0.00     0.006 C 
ATOM     20  C   UNL     1      18.656   6.171  17.399  1.00  0.00     0.005 C 
ATOM     21  C   UNL     1      19.260   4.863  17.929  1.00  0.00     0.008 C 
ATOM     22  C   UNL     1      20.076   5.056  19.243  1.00  0.00    -0.017 C 
ATOM     23  C   UNL     1      20.772   3.717  19.805  1.00  0.00     0.009 C 
ATOM     24  C   UNL     1      19.802   2.492  19.742  1.00  0.00     0.043 C 
ATOM     25  C   UNL     1      20.507   1.132  19.934  1.00  0.00     0.124 C 
ATOM     26  C   UNL     1      21.118   3.922  21.336  1.00  0.00     0.015 C 
ATOM     27  C   UNL     1      18.999   5.509  20.308  1.00  0.00     0.013 C 
ATOM     28  C   UNL     1      19.277   8.339  15.113  1.00  0.00     0.017 C 
ATOM     29  C   UNL     1      21.525   6.380  16.362  1.00  0.00     0.012 C 
ATOM     30  C   UNL     1      26.112   0.338  19.939  1.00  0.00     0.011 C 
ENDROOT
BRANCH  25  31
ATOM     31  O   UNL     1      19.609   0.116  19.637  1.00  0.00    -0.392 OA
ATOM     32  H   UNL     1      20.087  -0.602  19.143  1.00  0.00     0.210 HD
ENDBRANCH  25  31
BRANCH  18  33
ATOM     33  C   UNL     1      17.615   9.049  16.828  1.00  0.00     0.165 C 
BRANCH  33  34
ATOM     34  O   UNL     1      17.276   9.100  18.205  1.00  0.00    -0.396 OA
ATOM     35  H   UNL     1      17.087   8.176  18.534  1.00  0.00     0.210 HD
ENDBRANCH  33  34
ENDBRANCH  18  33
BRANCH  17  36
ATOM     36  O   UNL     1      19.590  10.489  18.279  1.00  0.00    -0.392 OA
ATOM     37  H   UNL     1      18.659  10.137  18.466  1.00  0.00     0.210 HD
ENDBRANCH  17  36
TORSDOF 4
ENDMDL
MODEL 3
REMARK VINA RESULT:    -8.504      2.012      2.822
REMARK INTER + INTRA:          -9.956
REMARK INTER:                  -9.827
REMARK INTRA:                  -0.128
REMARK UNBOUND:                -0.209
REMARK SMILES CC1(C)CC[C@@]23CO[C@]4(C=C[C@H]5[C@]6(C)CC[C@H](O)[C@](C)(CO)[C@H]6CC[C@@]5(C)[C@@]4(C)C[C@H]2O)[C@@H]3C1
REMARK SMILES IDX 1 1 2 2 4 3 5 4 6 5 7 6 8 7 9 8 33 9 34 10 10 11 11 12 12 13
REMARK SMILES IDX 13 14 15 15 16 16 17 17 19 18 23 19 24 20 25 21 26 22 28 23
REMARK SMILES IDX 30 24 31 25 29 26 27 27 20 28 14 29 3 30 32 31 21 33 22 34
REMARK SMILES IDX 18 36
REMARK H PARENT 32 32 22 35 18 37
REMARK Flexibility Score: inf
ROOT
ATOM      1  C   UNL     1      27.896  -1.781  12.613  1.00  0.00     0.011 C 
ATOM      2  C   UNL     1      27.088  -1.138  11.458  1.00  0.00    -0.035 C 
ATOM      3  C   UNL     1      26.857   0.350  11.746  1.00  0.00     0.007 C 
ATOM      4  C   UNL     1      25.859   0.581  12.898  1.00  0.00     0.013 C 
ATOM      5  C   UNL     1      24.484  -0.139  12.683  1.00  0.00     0.026 C 
ATOM      6  C   UNL     1      24.166  -1.226  13.736  1.00  0.00     0.171 C 
ATOM      7  O   UNL     1      23.283  -2.177  13.140  1.00  0.00    -0.369 OA
ATOM      8  C   UNL     1      23.116  -1.801  11.771  1.00  0.00     0.096 C 
ATOM      9  C   UNL     1      24.426  -0.999  11.449  1.00  0.00     0.037 C 
ATOM     10  C   UNL     1      25.730  -1.891  11.257  1.00  0.00     0.014 C 
ATOM     11  C   UNL     1      22.976  -3.030  10.889  1.00  0.00     0.005 C 
ATOM     12  C   UNL     1      21.828  -3.462  10.450  1.00  0.00    -0.024 C 
ATOM     13  C   UNL     1      20.517  -3.168  11.150  1.00  0.00     0.024 C 
ATOM     14  C   UNL     1      19.996  -4.491  11.941  1.00  0.00    -0.022 C 
ATOM     15  C   UNL     1      19.717  -5.594  10.910  1.00  0.00     0.010 C 
ATOM     16  C   UNL     1      18.736  -6.673  11.355  1.00  0.00     0.033 C 
ATOM     17  C   UNL     1      17.400  -6.162  11.947  1.00  0.00     0.123 C 
ATOM     18  C   UNL     1      17.687  -5.161  13.144  1.00  0.00     0.020 C 
ATOM     19  C   UNL     1      18.659  -4.006  12.617  1.00  0.00     0.006 C 
ATOM     20  C   UNL     1      18.941  -2.910  13.670  1.00  0.00     0.005 C 
ATOM     21  C   UNL     1      20.187  -2.046  13.434  1.00  0.00     0.008 C 
ATOM     22  C   UNL     1      20.469  -1.779  11.925  1.00  0.00    -0.017 C 
ATOM     23  C   UNL     1      21.799  -0.920  11.630  1.00  0.00     0.009 C 
ATOM     24  C   UNL     1      21.930   0.296  12.606  1.00  0.00     0.043 C 
ATOM     25  C   UNL     1      23.331   0.943  12.607  1.00  0.00     0.124 C 
ATOM     26  C   UNL     1      21.702  -0.305  10.175  1.00  0.00     0.015 C 
ATOM     27  C   UNL     1      19.235  -0.915  11.444  1.00  0.00     0.013 C 
ATOM     28  C   UNL     1      18.246  -5.964  14.377  1.00  0.00     0.017 C 
ATOM     29  C   UNL     1      21.025  -5.046  13.006  1.00  0.00     0.012 C 
ATOM     30  C   UNL     1      27.935  -1.247  10.146  1.00  0.00     0.011 C 
ENDROOT
BRANCH  25  31
ATOM     31  O   UNL     1      23.404   1.850  13.655  1.00  0.00    -0.392 OA
ATOM     32  H   UNL     1      22.945   1.465  14.448  1.00  0.00     0.210 HD
ENDBRANCH  25  31
BRANCH  18  33
ATOM     33  C   UNL     1      16.324  -4.595  13.574  1.00  0.00     0.165 C 
BRANCH  33  34
ATOM     34  O   UNL     1      15.975  -3.468  12.786  1.00  0.00    -0.396 OA
ATOM     35  H   UNL     1      16.574  -3.423  11.988  1.00  0.00     0.210 HD
ENDBRANCH  33  34
ENDBRANCH  18  33
BRANCH  17  36
ATOM     36  O   UNL     1      16.588  -5.605  10.931  1.00  0.00    -0.392 OA
ATOM     37  H   UNL     1      17.074  -5.811  10.066  1.00  0.00     0.210 HD
ENDBRANCH  17  36
TORSDOF 4
ENDMDL
MODEL 4
REMARK VINA RESULT:    -8.398      6.477     10.982
REMARK INTER + INTRA:          -9.834
REMARK INTER:                  -9.599
REMARK INTRA:                  -0.235
REMARK UNBOUND:                -0.209
REMARK SMILES CC1(C)CC[C@@]23CO[C@]4(C=C[C@H]5[C@]6(C)CC[C@H](O)[C@](C)(CO)[C@H]6CC[C@@]5(C)[C@@]4(C)C[C@H]2O)[C@@H]3C1
REMARK SMILES IDX 1 1 2 2 4 3 5 4 6 5 7 6 8 7 9 8 33 9 34 10 10 11 11 12 12 13
REMARK SMILES IDX 13 14 15 15 16 16 17 17 19 18 23 19 24 20 25 21 26 22 28 23
REMARK SMILES IDX 30 24 31 25 29 26 27 27 20 28 14 29 3 30 32 31 21 33 22 34
REMARK SMILES IDX 18 36
REMARK H PARENT 32 32 22 35 18 37
REMARK Flexibility Score: inf
ROOT
ATOM      1  C   UNL     1      31.900   7.074  19.752  1.00  0.00     0.011 C 
ATOM      2  C   UNL     1      32.500   6.758  18.360  1.00  0.00    -0.035 C 
ATOM      3  C   UNL     1      32.879   8.060  17.646  1.00  0.00     0.007 C 
ATOM      4  C   UNL     1      31.646   8.869  17.198  1.00  0.00     0.013 C 
ATOM      5  C   UNL     1      30.651   8.045  16.311  1.00  0.00     0.026 C 
ATOM      6  C   UNL     1      29.253   7.846  16.944  1.00  0.00     0.171 C 
ATOM      7  O   UNL     1      28.687   6.652  16.403  1.00  0.00    -0.369 OA
ATOM      8  C   UNL     1      29.677   6.057  15.560  1.00  0.00     0.096 C 
ATOM      9  C   UNL     1      31.029   6.598  16.143  1.00  0.00     0.037 C 
ATOM     10  C   UNL     1      31.490   5.919  17.507  1.00  0.00     0.014 C 
ATOM     11  C   UNL     1      29.599   4.541  15.625  1.00  0.00     0.005 C 
ATOM     12  C   UNL     1      29.021   3.820  14.708  1.00  0.00    -0.024 C 
ATOM     13  C   UNL     1      27.934   4.359  13.800  1.00  0.00     0.024 C 
ATOM     14  C   UNL     1      26.483   3.793  14.266  1.00  0.00    -0.022 C 
ATOM     15  C   UNL     1      26.483   2.266  14.106  1.00  0.00     0.010 C 
ATOM     16  C   UNL     1      25.109   1.623  13.956  1.00  0.00     0.033 C 
ATOM     17  C   UNL     1      24.183   2.259  12.891  1.00  0.00     0.123 C 
ATOM     18  C   UNL     1      24.029   3.814  13.168  1.00  0.00     0.020 C 
ATOM     19  C   UNL     1      25.488   4.462  13.244  1.00  0.00     0.006 C 
ATOM     20  C   UNL     1      25.471   5.998  13.419  1.00  0.00     0.005 C 
ATOM     21  C   UNL     1      26.759   6.635  13.960  1.00  0.00     0.008 C 
ATOM     22  C   UNL     1      28.050   5.913  13.470  1.00  0.00    -0.017 C 
ATOM     23  C   UNL     1      29.423   6.516  14.057  1.00  0.00     0.009 C 
ATOM     24  C   UNL     1      29.426   8.080  14.027  1.00  0.00     0.043 C 
ATOM     25  C   UNL     1      30.543   8.715  14.881  1.00  0.00     0.124 C 
ATOM     26  C   UNL     1      30.622   6.058  13.132  1.00  0.00     0.015 C 
ATOM     27  C   UNL     1      28.062   6.151  11.907  1.00  0.00     0.013 C 
ATOM     28  C   UNL     1      23.155   4.032  14.458  1.00  0.00     0.017 C 
ATOM     29  C   UNL     1      26.110   4.142  15.763  1.00  0.00     0.012 C 
ATOM     30  C   UNL     1      33.811   5.927  18.568  1.00  0.00     0.011 C 
ENDROOT
BRANCH  25  31
ATOM     31  O   UNL     1      30.320  10.082  14.967  1.00  0.00    -0.392 OA
ATOM     32  H   UNL     1      30.471  10.490  14.073  1.00  0.00     0.210 HD
ENDBRANCH  25  31
BRANCH  18  33
ATOM     33  C   UNL     1      23.220   4.387  11.993  1.00  0.00     0.165 C 
BRANCH  33  34
ATOM     34  O   UNL     1      22.021   3.655  11.801  1.00  0.00    -0.396 OA
ATOM     35  H   UNL     1      21.445   3.744  12.613  1.00  0.00     0.210 HD
ENDBRANCH  33  34
ENDBRANCH  18  33
BRANCH  17  36
ATOM     36  O   UNL     1      24.650   1.965  11.588  1.00  0.00    -0.392 OA
ATOM     37  H   UNL     1      24.186   2.633  10.986  1.00  0.00     0.210 HD
ENDBRANCH  17  36
TORSDOF 4
ENDMDL
MODEL 5
REMARK VINA RESULT:    -8.375      7.909     10.787
REMARK INTER + INTRA:          -9.808
REMARK INTER:                  -9.542
REMARK INTRA:                  -0.265
REMARK UNBOUND:                -0.209
REMARK SMILES CC1(C)CC[C@@]23CO[C@]4(C=C[C@H]5[C@]6(C)CC[C@H](O)[C@](C)(CO)[C@H]6CC[C@@]5(C)[C@@]4(C)C[C@H]2O)[C@@H]3C1
REMARK SMILES IDX 1 1 2 2 4 3 5 4 6 5 7 6 8 7 9 8 33 9 34 10 10 11 11 12 12 13
REMARK SMILES IDX 13 14 15 15 16 16 17 17 19 18 23 19 24 20 25 21 26 22 28 23
REMARK SMILES IDX 30 24 31 25 29 26 27 27 20 28 14 29 3 30 32 31 21 33 22 34
REMARK SMILES IDX 18 36
REMARK H PARENT 32 32 22 35 18 37
REMARK Flexibility Score: inf
ROOT
ATOM      1  C   UNL     1      19.287   9.402  15.340  1.00  0.00     0.011 C 
ATOM      2  C   UNL     1      18.473   8.524  16.323  1.00  0.00    -0.035 C 
ATOM      3  C   UNL     1      18.150   9.322  17.592  1.00  0.00     0.007 C 
ATOM      4  C   UNL     1      19.396   9.572  18.465  1.00  0.00     0.013 C 
ATOM      5  C   UNL     1      20.164   8.260  18.843  1.00  0.00     0.026 C 
ATOM      6  C   UNL     1      21.603   8.182  18.279  1.00  0.00     0.171 C 
ATOM      7  O   UNL     1      21.953   6.805  18.144  1.00  0.00    -0.369 OA
ATOM      8  C   UNL     1      20.799   6.037  18.494  1.00  0.00     0.096 C 
ATOM      9  C   UNL     1      19.607   7.015  18.206  1.00  0.00     0.037 C 
ATOM     10  C   UNL     1      19.259   7.213  16.665  1.00  0.00     0.014 C 
ATOM     11  C   UNL     1      20.714   4.777  17.648  1.00  0.00     0.005 C 
ATOM     12  C   UNL     1      21.079   3.605  18.081  1.00  0.00    -0.024 C 
ATOM     13  C   UNL     1      22.088   3.417  19.196  1.00  0.00     0.024 C 
ATOM     14  C   UNL     1      23.516   2.936  18.584  1.00  0.00    -0.022 C 
ATOM     15  C   UNL     1      23.322   1.565  17.919  1.00  0.00     0.010 C 
ATOM     16  C   UNL     1      24.583   0.719  17.786  1.00  0.00     0.033 C 
ATOM     17  C   UNL     1      25.424   0.559  19.076  1.00  0.00     0.123 C 
ATOM     18  C   UNL     1      25.787   1.987  19.665  1.00  0.00     0.020 C 
ATOM     19  C   UNL     1      24.433   2.815  19.858  1.00  0.00     0.006 C 
ATOM     20  C   UNL     1      24.646   4.198  20.516  1.00  0.00     0.005 C 
ATOM     21  C   UNL     1      23.523   5.225  20.319  1.00  0.00     0.008 C 
ATOM     22  C   UNL     1      22.104   4.579  20.284  1.00  0.00    -0.017 C 
ATOM     23  C   UNL     1      20.899   5.616  20.025  1.00  0.00     0.009 C 
ATOM     24  C   UNL     1      21.068   6.920  20.870  1.00  0.00     0.043 C 
ATOM     25  C   UNL     1      20.154   8.077  20.415  1.00  0.00     0.124 C 
ATOM     26  C   UNL     1      19.543   4.956  20.504  1.00  0.00     0.015 C 
ATOM     27  C   UNL     1      21.910   3.985  21.736  1.00  0.00     0.013 C 
ATOM     28  C   UNL     1      26.845   2.685  18.731  1.00  0.00     0.017 C 
ATOM     29  C   UNL     1      24.123   3.932  17.515  1.00  0.00     0.012 C 
ATOM     30  C   UNL     1      17.117   8.146  15.637  1.00  0.00     0.011 C 
ENDROOT
BRANCH  25  31
ATOM     31  O   UNL     1      20.539   9.238  21.071  1.00  0.00    -0.392 OA
ATOM     32  H   UNL     1      19.808   9.907  20.999  1.00  0.00     0.210 HD
ENDBRANCH  25  31
BRANCH  18  33
ATOM     33  C   UNL     1      26.490   1.738  21.009  1.00  0.00     0.165 C 
BRANCH  33  34
ATOM     34  O   UNL     1      27.297   0.573  20.947  1.00  0.00    -0.396 OA
ATOM     35  H   UNL     1      27.245   0.088  21.820  1.00  0.00     0.210 HD
ENDBRANCH  33  34
ENDBRANCH  18  33
BRANCH  17  36
ATOM     36  O   UNL     1      24.756  -0.276  20.003  1.00  0.00    -0.392 OA
ATOM     37  H   UNL     1      25.280  -0.184  20.864  1.00  0.00     0.210 HD
ENDBRANCH  17  36
TORSDOF 4
ENDMDL
MODEL 6
REMARK VINA RESULT:    -8.280      6.938      8.748
REMARK INTER + INTRA:          -9.698
REMARK INTER:                  -9.451
REMARK INTRA:                  -0.247
REMARK UNBOUND:                -0.209
REMARK SMILES CC1(C)CC[C@@]23CO[C@]4(C=C[C@H]5[C@]6(C)CC[C@H](O)[C@](C)(CO)[C@H]6CC[C@@]5(C)[C@@]4(C)C[C@H]2O)[C@@H]3C1
REMARK SMILES IDX 1 1 2 2 4 3 5 4 6 5 7 6 8 7 9 8 33 9 34 10 10 11 11 12 12 13
REMARK SMILES IDX 13 14 15 15 16 16 17 17 19 18 23 19 24 20 25 21 26 22 28 23
REMARK SMILES IDX 30 24 31 25 29 26 27 27 20 28 14 29 3 30 32 31 21 33 22 34
REMARK SMILES IDX 18 36
REMARK H PARENT 32 32 22 35 18 37
REMARK Flexibility Score: inf
ROOT
ATOM      1  C   UNL     1      30.471  -7.541  17.282  1.00  0.00     0.011 C 
ATOM      2  C   UNL     1      30.423  -6.075  16.782  1.00  0.00    -0.035 C 
ATOM      3  C   UNL     1      31.092  -5.151  17.806  1.00  0.00     0.007 C 
ATOM      4  C   UNL     1      30.259  -4.994  19.093  1.00  0.00     0.013 C 
ATOM      5  C   UNL     1      28.789  -4.520  18.829  1.00  0.00     0.026 C 
ATOM      6  C   UNL     1      27.707  -5.544  19.247  1.00  0.00     0.171 C 
ATOM      7  O   UNL     1      26.546  -5.315  18.448  1.00  0.00    -0.369 OA
ATOM      8  C   UNL     1      26.874  -4.290  17.507  1.00  0.00     0.096 C 
ATOM      9  C   UNL     1      28.433  -4.402  17.371  1.00  0.00     0.037 C 
ATOM     10  C   UNL     1      28.944  -5.639  16.509  1.00  0.00     0.014 C 
ATOM     11  C   UNL     1      26.172  -4.532  16.181  1.00  0.00     0.005 C 
ATOM     12  C   UNL     1      25.091  -3.900  15.824  1.00  0.00    -0.024 C 
ATOM     13  C   UNL     1      24.127  -3.290  16.822  1.00  0.00     0.024 C 
ATOM     14  C   UNL     1      22.790  -4.208  16.942  1.00  0.00    -0.022 C 
ATOM     15  C   UNL     1      22.082  -4.215  15.579  1.00  0.00     0.010 C 
ATOM     16  C   UNL     1      20.591  -4.533  15.618  1.00  0.00     0.033 C 
ATOM     17  C   UNL     1      19.757  -3.718  16.637  1.00  0.00     0.123 C 
ATOM     18  C   UNL     1      20.383  -3.864  18.088  1.00  0.00     0.020 C 
ATOM     19  C   UNL     1      21.926  -3.451  18.018  1.00  0.00     0.006 C 
ATOM     20  C   UNL     1      22.629  -3.463  19.395  1.00  0.00     0.005 C 
ATOM     21  C   UNL     1      24.161  -3.543  19.375  1.00  0.00     0.008 C 
ATOM     22  C   UNL     1      24.797  -2.781  18.173  1.00  0.00    -0.017 C 
ATOM     23  C   UNL     1      26.402  -2.884  18.084  1.00  0.00     0.009 C 
ATOM     24  C   UNL     1      27.072  -2.692  19.484  1.00  0.00     0.043 C 
ATOM     25  C   UNL     1      28.554  -3.119  19.527  1.00  0.00     0.124 C 
ATOM     26  C   UNL     1      26.942  -1.707  17.174  1.00  0.00     0.015 C 
ATOM     27  C   UNL     1      24.437  -1.265  18.437  1.00  0.00     0.013 C 
ATOM     28  C   UNL     1      20.126  -5.321  18.625  1.00  0.00     0.017 C 
ATOM     29  C   UNL     1      23.078  -5.705  17.366  1.00  0.00     0.012 C 
ATOM     30  C   UNL     1      31.240  -5.985  15.449  1.00  0.00     0.011 C 
ENDROOT
BRANCH  25  31
ATOM     31  O   UNL     1      28.981  -3.123  20.847  1.00  0.00    -0.392 OA
ATOM     32  H   UNL     1      29.858  -3.587  20.901  1.00  0.00     0.210 HD
ENDBRANCH  25  31
BRANCH  18  33
ATOM     33  C   UNL     1      19.589  -2.917  19.001  1.00  0.00     0.165 C 
BRANCH  33  34
ATOM     34  O   UNL     1      18.249  -2.790  18.554  1.00  0.00    -0.396 OA
ATOM     35  H   UNL     1      17.643  -2.697  19.343  1.00  0.00     0.210 HD
ENDBRANCH  33  34
ENDBRANCH  18  33
BRANCH  17  36
ATOM     36  O   UNL     1      19.632  -2.374  16.212  1.00  0.00    -0.392 OA
ATOM     37  H   UNL     1      18.707  -2.313  15.805  1.00  0.00     0.210 HD
ENDBRANCH  17  36
TORSDOF 4
ENDMDL
MODEL 7
REMARK VINA RESULT:    -8.261      4.347      6.490
REMARK INTER + INTRA:          -9.677
REMARK INTER:                  -9.469
REMARK INTRA:                  -0.208
REMARK UNBOUND:                -0.209
REMARK SMILES CC1(C)CC[C@@]23CO[C@]4(C=C[C@H]5[C@]6(C)CC[C@H](O)[C@](C)(CO)[C@H]6CC[C@@]5(C)[C@@]4(C)C[C@H]2O)[C@@H]3C1
REMARK SMILES IDX 1 1 2 2 4 3 5 4 6 5 7 6 8 7 9 8 33 9 34 10 10 11 11 12 12 13
REMARK SMILES IDX 13 14 15 15 16 16 17 17 19 18 23 19 24 20 25 21 26 22 28 23
REMARK SMILES IDX 30 24 31 25 29 26 27 27 20 28 14 29 3 30 32 31 21 33 22 34
REMARK SMILES IDX 18 36
REMARK H PARENT 32 32 22 35 18 37
REMARK Flexibility Score: inf
ROOT
ATOM      1  C   UNL     1      20.748   3.531  18.390  1.00  0.00     0.011 C 
ATOM      2  C   UNL     1      20.713   2.488  19.534  1.00  0.00    -0.035 C 
ATOM      3  C   UNL     1      22.121   2.293  20.108  1.00  0.00     0.007 C 
ATOM      4  C   UNL     1      23.058   1.552  19.135  1.00  0.00     0.013 C 
ATOM      5  C   UNL     1      22.487   0.176  18.648  1.00  0.00     0.026 C 
ATOM      6  C   UNL     1      22.216   0.105  17.126  1.00  0.00     0.171 C 
ATOM      7  O   UNL     1      21.191  -0.863  16.902  1.00  0.00    -0.369 OA
ATOM      8  C   UNL     1      20.750  -1.318  18.184  1.00  0.00     0.096 C 
ATOM      9  C   UNL     1      21.095  -0.120  19.137  1.00  0.00     0.037 C 
ATOM     10  C   UNL     1      20.120   1.133  19.020  1.00  0.00     0.014 C 
ATOM     11  C   UNL     1      19.260  -1.615  18.167  1.00  0.00     0.005 C 
ATOM     12  C   UNL     1      18.777  -2.820  18.064  1.00  0.00    -0.024 C 
ATOM     13  C   UNL     1      19.544  -3.962  17.431  1.00  0.00     0.024 C 
ATOM     14  C   UNL     1      18.953  -4.282  15.950  1.00  0.00    -0.022 C 
ATOM     15  C   UNL     1      17.497  -4.747  16.099  1.00  0.00     0.010 C 
ATOM     16  C   UNL     1      16.960  -5.592  14.949  1.00  0.00     0.033 C 
ATOM     17  C   UNL     1      17.848  -6.786  14.522  1.00  0.00     0.123 C 
ATOM     18  C   UNL     1      19.313  -6.276  14.184  1.00  0.00     0.020 C 
ATOM     19  C   UNL     1      19.867  -5.458  15.441  1.00  0.00     0.006 C 
ATOM     20  C   UNL     1      21.329  -4.985  15.272  1.00  0.00     0.005 C 
ATOM     21  C   UNL     1      21.780  -3.832  16.179  1.00  0.00     0.008 C 
ATOM     22  C   UNL     1      21.125  -3.875  17.592  1.00  0.00    -0.017 C 
ATOM     23  C   UNL     1      21.530  -2.653  18.559  1.00  0.00     0.009 C 
ATOM     24  C   UNL     1      23.062  -2.347  18.492  1.00  0.00     0.043 C 
ATOM     25  C   UNL     1      23.452  -0.989  19.114  1.00  0.00     0.124 C 
ATOM     26  C   UNL     1      21.231  -3.063  20.058  1.00  0.00     0.015 C 
ATOM     27  C   UNL     1      21.693  -5.199  18.245  1.00  0.00     0.013 C 
ATOM     28  C   UNL     1      19.286  -5.458  12.840  1.00  0.00     0.017 C 
ATOM     29  C   UNL     1      18.988  -3.043  14.967  1.00  0.00     0.012 C 
ATOM     30  C   UNL     1      19.801   3.046  20.679  1.00  0.00     0.011 C 
ENDROOT
BRANCH  25  31
ATOM     31  O   UNL     1      24.777  -0.717  18.803  1.00  0.00    -0.392 OA
ATOM     32  H   UNL     1      25.142  -0.085  19.477  1.00  0.00     0.210 HD
ENDBRANCH  25  31
BRANCH  18  33
ATOM     33  C   UNL     1      20.158  -7.531  13.913  1.00  0.00     0.165 C 
BRANCH  33  34
ATOM     34  O   UNL     1      20.466  -8.203  15.125  1.00  0.00    -0.396 OA
ATOM     35  H   UNL     1      21.278  -8.770  14.992  1.00  0.00     0.210 HD
ENDBRANCH  33  34
ENDBRANCH  18  33
BRANCH  17  36
ATOM     36  O   UNL     1      17.821  -7.802  15.507  1.00  0.00    -0.392 OA
ATOM     37  H   UNL     1      18.364  -8.561  15.115  1.00  0.00     0.210 HD
ENDBRANCH  17  36
TORSDOF 4
ENDMDL
MODEL 8
REMARK VINA RESULT:    -8.175      7.979     10.492
REMARK INTER + INTRA:          -9.578
REMARK INTER:                  -9.309
REMARK INTRA:                  -0.269
REMARK UNBOUND:                -0.209
REMARK SMILES CC1(C)CC[C@@]23CO[C@]4(C=C[C@H]5[C@]6(C)CC[C@H](O)[C@](C)(CO)[C@H]6CC[C@@]5(C)[C@@]4(C)C[C@H]2O)[C@@H]3C1
REMARK SMILES IDX 1 1 2 2 4 3 5 4 6 5 7 6 8 7 9 8 33 9 34 10 10 11 11 12 12 13
REMARK SMILES IDX 13 14 15 15 16 16 17 17 19 18 23 19 24 20 25 21 26 22 28 23
REMARK SMILES IDX 30 24 31 25 29 26 27 27 20 28 14 29 3 30 32 31 21 33 22 34
REMARK SMILES IDX 18 36
REMARK H PARENT 32 32 22 35 18 37
REMARK Flexibility Score: inf
ROOT
ATOM      1  C   UNL     1      30.983  -7.091  13.160  1.00  0.00     0.011 C 
ATOM      2  C   UNL     1      31.525  -6.605  14.528  1.00  0.00    -0.035 C 
ATOM      3  C   UNL     1      31.729  -7.801  15.465  1.00  0.00     0.007 C 
ATOM      4  C   UNL     1      30.396  -8.414  15.937  1.00  0.00     0.013 C 
ATOM      5  C   UNL     1      29.434  -7.373  16.605  1.00  0.00     0.026 C 
ATOM      6  C   UNL     1      28.105  -7.157  15.844  1.00  0.00     0.171 C 
ATOM      7  O   UNL     1      27.628  -5.846  16.145  1.00  0.00    -0.369 OA
ATOM      8  C   UNL     1      28.617  -5.211  16.959  1.00  0.00     0.096 C 
ATOM      9  C   UNL     1      29.943  -5.956  16.573  1.00  0.00     0.037 C 
ATOM     10  C   UNL     1      30.553  -5.552  15.159  1.00  0.00     0.014 C 
ATOM     11  C   UNL     1      28.694  -3.725  16.650  1.00  0.00     0.005 C 
ATOM     12  C   UNL     1      28.135  -2.815  17.395  1.00  0.00    -0.024 C 
ATOM     13  C   UNL     1      26.947  -3.102  18.291  1.00  0.00     0.024 C 
ATOM     14  C   UNL     1      25.590  -2.494  17.632  1.00  0.00    -0.022 C 
ATOM     15  C   UNL     1      25.732  -0.967  17.550  1.00  0.00     0.010 C 
ATOM     16  C   UNL     1      24.421  -0.190  17.491  1.00  0.00     0.033 C 
ATOM     17  C   UNL     1      23.372  -0.560  18.568  1.00  0.00     0.123 C 
ATOM     18  C   UNL     1      23.082  -2.119  18.528  1.00  0.00     0.020 C 
ATOM     19  C   UNL     1      24.473  -2.897  18.666  1.00  0.00     0.006 C 
ATOM     20  C   UNL     1      24.315  -4.434  18.734  1.00  0.00     0.005 C 
ATOM     21  C   UNL     1      25.563  -5.261  18.400  1.00  0.00     0.008 C 
ATOM     22  C   UNL     1      26.887  -4.584  18.868  1.00  0.00    -0.017 C 
ATOM     23  C   UNL     1      28.227  -5.394  18.490  1.00  0.00     0.009 C 
ATOM     24  C   UNL     1      28.073  -6.925  18.766  1.00  0.00     0.043 C 
ATOM     25  C   UNL     1      29.173  -7.787  18.110  1.00  0.00     0.124 C 
ATOM     26  C   UNL     1      29.406  -4.897  19.421  1.00  0.00     0.015 C 
ATOM     27  C   UNL     1      26.779  -4.564  20.445  1.00  0.00     0.013 C 
ATOM     28  C   UNL     1      22.273  -2.468  17.224  1.00  0.00     0.017 C 
ATOM     29  C   UNL     1      25.277  -3.048  16.184  1.00  0.00     0.012 C 
ATOM     30  C   UNL     1      32.922  -5.937  14.293  1.00  0.00     0.011 C 
ENDROOT
BRANCH  25  31
ATOM     31  O   UNL     1      28.821  -9.125  18.223  1.00  0.00    -0.392 OA
ATOM     32  H   UNL     1      29.585  -9.627  18.611  1.00  0.00     0.210 HD
ENDBRANCH  25  31
BRANCH  18  33
ATOM     33  C   UNL     1      22.151  -2.420  19.712  1.00  0.00     0.165 C 
BRANCH  33  34
ATOM     34  O   UNL     1      21.129  -1.440  19.811  1.00  0.00    -0.396 OA
ATOM     35  H   UNL     1      21.178  -0.999  20.706  1.00  0.00     0.210 HD
ENDBRANCH  33  34
ENDBRANCH  18  33
BRANCH  17  36
ATOM     36  O   UNL     1      23.786  -0.098  19.841  1.00  0.00    -0.392 OA
ATOM     37  H   UNL     1      24.718  -0.472  19.964  1.00  0.00     0.210 HD
ENDBRANCH  17  36
TORSDOF 4
ENDMDL
MODEL 9
REMARK VINA RESULT:    -8.130      2.466      8.032
REMARK INTER + INTRA:          -9.526
REMARK INTER:                  -9.262
REMARK INTRA:                  -0.265
REMARK UNBOUND:                -0.209
REMARK SMILES CC1(C)CC[C@@]23CO[C@]4(C=C[C@H]5[C@]6(C)CC[C@H](O)[C@](C)(CO)[C@H]6CC[C@@]5(C)[C@@]4(C)C[C@H]2O)[C@@H]3C1
REMARK SMILES IDX 1 1 2 2 4 3 5 4 6 5 7 6 8 7 9 8 33 9 34 10 10 11 11 12 12 13
REMARK SMILES IDX 13 14 15 15 16 16 17 17 19 18 23 19 24 20 25 21 26 22 28 23
REMARK SMILES IDX 30 24 31 25 29 26 27 27 20 28 14 29 3 30 32 31 21 33 22 34
REMARK SMILES IDX 18 36
REMARK H PARENT 32 32 22 35 18 37
REMARK Flexibility Score: inf
ROOT
ATOM      1  C   UNL     1      17.736  -6.316  14.987  1.00  0.00     0.011 C 
ATOM      2  C   UNL     1      17.333  -5.302  13.887  1.00  0.00    -0.035 C 
ATOM      3  C   UNL     1      17.105  -6.035  12.560  1.00  0.00     0.007 C 
ATOM      4  C   UNL     1      18.416  -6.555  11.939  1.00  0.00     0.013 C 
ATOM      5  C   UNL     1      19.502  -5.441  11.752  1.00  0.00     0.026 C 
ATOM      6  C   UNL     1      20.786  -5.659  12.587  1.00  0.00     0.171 C 
ATOM      7  O   UNL     1      21.384  -4.385  12.824  1.00  0.00    -0.369 OA
ATOM      8  C   UNL     1      20.508  -3.396  12.276  1.00  0.00     0.096 C 
ATOM      9  C   UNL     1      19.104  -4.096  12.301  1.00  0.00     0.037 C 
ATOM     10  C   UNL     1      18.428  -4.193  13.739  1.00  0.00     0.014 C 
ATOM     11  C   UNL     1      20.525  -2.134  13.122  1.00  0.00     0.005 C 
ATOM     12  C   UNL     1      21.206  -1.072  12.799  1.00  0.00    -0.024 C 
ATOM     13  C   UNL     1      22.429  -1.119  11.906  1.00  0.00     0.024 C 
ATOM     14  C   UNL     1      23.779  -0.940  12.796  1.00  0.00    -0.022 C 
ATOM     15  C   UNL     1      23.751   0.451  13.446  1.00  0.00     0.010 C 
ATOM     16  C   UNL     1      25.110   1.015  13.844  1.00  0.00     0.033 C 
ATOM     17  C   UNL     1      26.202   0.973  12.746  1.00  0.00     0.123 C 
ATOM     18  C   UNL     1      26.365  -0.509  12.203  1.00  0.00     0.020 C 
ATOM     19  C   UNL     1      24.932  -1.036  11.728  1.00  0.00     0.006 C 
ATOM     20  C   UNL     1      24.974  -2.443  11.088  1.00  0.00     0.005 C 
ATOM     21  C   UNL     1      23.644  -3.206  11.037  1.00  0.00     0.008 C 
ATOM     22  C   UNL     1      22.414  -2.276  10.812  1.00  0.00    -0.017 C 
ATOM     23  C   UNL     1      20.992  -3.030  10.805  1.00  0.00     0.009 C 
ATOM     24  C   UNL     1      21.045  -4.354   9.975  1.00  0.00     0.043 C 
ATOM     25  C   UNL     1      19.837  -5.285  10.213  1.00  0.00     0.124 C 
ATOM     26  C   UNL     1      19.924  -2.107  10.089  1.00  0.00     0.015 C 
ATOM     27  C   UNL     1      22.637  -1.677   9.366  1.00  0.00     0.013 C 
ATOM     28  C   UNL     1      27.050  -1.398  13.305  1.00  0.00     0.017 C 
ATOM     29  C   UNL     1      23.942  -2.025  13.936  1.00  0.00     0.012 C 
ATOM     30  C   UNL     1      15.979  -4.636  14.306  1.00  0.00     0.011 C 
ENDROOT
BRANCH  25  31
ATOM     31  O   UNL     1      20.091  -6.511   9.615  1.00  0.00    -0.392 OA
ATOM     32  H   UNL     1      19.381  -6.695   8.943  1.00  0.00     0.210 HD
ENDBRANCH  25  31
BRANCH  18  33
ATOM     33  C   UNL     1      27.353  -0.435  11.028  1.00  0.00     0.165 C 
BRANCH  33  34
ATOM     34  O   UNL     1      28.355   0.540  11.272  1.00  0.00    -0.396 OA
ATOM     35  H   UNL     1      29.119   0.116  11.756  1.00  0.00     0.210 HD
ENDBRANCH  33  34
ENDBRANCH  18  33
BRANCH  17  36
ATOM     36  O   UNL     1      25.918   1.916  11.729  1.00  0.00    -0.392 OA
ATOM     37  H   UNL     1      25.707   1.361  10.909  1.00  0.00     0.210 HD
ENDBRANCH  17  36
TORSDOF 4
ENDMDL
