MODEL 1
REMARK VINA RESULT:     0.000      0.000      0.000
REMARK INTER + INTRA:          -0.318
REMARK INTER:                   0.000
REMARK INTRA:                  -0.318
REMARK UNBOUND:                -0.318
REMARK SMILES O=c1cc(-c2ccc(O)c(O)c2)oc2cc(O)cc(O)c12
REMARK SMILES IDX 4 1 3 2 2 3 1 4 21 5 19 6 18 7 16 8 15 9 14 10 13 11 5 12
REMARK SMILES IDX 6 13 7 14 8 15 12 16 10 17 9 18 11 20 20 22 17 24
REMARK H PARENT 9 19 11 21 20 23 17 25
REMARK Flexibility Score: inf
ROOT
ATOM      1  C   UNL     1       6.620  14.485  51.559  1.00  0.00     0.138 A 
ATOM      2  C   UNL     1       5.300  14.279  51.135  1.00  0.00     0.100 A 
ATOM      3  C   UNL     1       4.688  13.044  51.360  1.00  0.00     0.197 A 
ATOM      4  O   UNL     1       3.483  12.909  51.024  1.00  0.00    -0.289 OA
ATOM      5  C   UNL     1       5.413  12.003  51.985  1.00  0.00     0.107 A 
ATOM      6  C   UNL     1       4.907  10.692  52.229  1.00  0.00     0.134 A 
ATOM      7  C   UNL     1       5.677   9.779  52.961  1.00  0.00     0.093 A 
ATOM      8  C   UNL     1       6.957  10.108  53.403  1.00  0.00     0.123 A 
ATOM      9  C   UNL     1       7.485  11.369  53.123  1.00  0.00     0.094 A 
ATOM     10  C   UNL     1       6.728  12.313  52.426  1.00  0.00     0.146 A 
ATOM     11  O   UNL     1       7.260  13.508  52.192  1.00  0.00    -0.456 OA
ENDROOT
BRANCH   1  12
ATOM     12  C   UNL     1       7.319  15.778  51.344  1.00  0.00     0.021 A 
ATOM     13  C   UNL     1       6.700  16.850  50.674  1.00  0.00     0.016 A 
ATOM     14  C   UNL     1       7.386  18.052  50.477  1.00  0.00     0.051 A 
ATOM     15  C   UNL     1       8.697  18.203  50.935  1.00  0.00     0.157 A 
ATOM     16  C   UNL     1       8.644  15.931  51.791  1.00  0.00     0.062 A 
ATOM     17  C   UNL     1       9.331  17.137  51.594  1.00  0.00     0.158 A 
BRANCH  15  18
ATOM     18  O   UNL     1       9.354  19.414  50.725  1.00  0.00    -0.504 OA
ATOM     19  H   UNL     1      10.300  19.577  51.047  1.00  0.00     0.293 HD
ENDBRANCH  15  18
BRANCH  17  20
ATOM     20  O   UNL     1      10.641  17.279  52.050  1.00  0.00    -0.504 OA
ATOM     21  H   UNL     1      11.288  17.927  51.615  1.00  0.00     0.293 HD
ENDBRANCH  17  20
ENDBRANCH   1  12
BRANCH   6  22
ATOM     22  O   UNL     1       3.674  10.230  51.758  1.00  0.00    -0.507 OA
ATOM     23  H   UNL     1       3.059   9.611  52.264  1.00  0.00     0.293 HD
ENDBRANCH   6  22
BRANCH   8  24
ATOM     24  O   UNL     1       7.701   9.169  54.115  1.00  0.00    -0.508 OA
ATOM     25  H   UNL     1       8.368   8.560  53.653  1.00  0.00     0.293 HD
ENDBRANCH   8  24
TORSDOF 5
ENDMDL
MODEL 2
REMARK VINA RESULT:     0.000      6.167      8.824
REMARK INTER + INTRA:          -0.318
REMARK INTER:                   0.000
REMARK INTRA:                  -0.318
REMARK UNBOUND:                -0.318
REMARK SMILES O=c1cc(-c2ccc(O)c(O)c2)oc2cc(O)cc(O)c12
REMARK SMILES IDX 4 1 3 2 2 3 1 4 21 5 19 6 18 7 16 8 15 9 14 10 13 11 5 12
REMARK SMILES IDX 6 13 7 14 8 15 12 16 10 17 9 18 11 20 20 22 17 24
REMARK H PARENT 9 19 11 21 20 23 17 25
REMARK Flexibility Score: inf
ROOT
ATOM      1  C   UNL     1       9.829  17.218  56.694  1.00  0.00     0.138 A 
ATOM      2  C   UNL     1      10.317  17.360  58.000  1.00  0.00     0.100 A 
ATOM      3  C   UNL     1       9.626  18.159  58.913  1.00  0.00     0.197 A 
ATOM      4  O   UNL     1      10.055  18.217  60.094  1.00  0.00    -0.289 OA
ATOM      5  C   UNL     1       8.457  18.842  58.505  1.00  0.00     0.107 A 
ATOM      6  C   UNL     1       7.694  19.715  59.336  1.00  0.00     0.134 A 
ATOM      7  C   UNL     1       6.488  20.245  58.859  1.00  0.00     0.093 A 
ATOM      8  C   UNL     1       6.050  19.984  57.562  1.00  0.00     0.123 A 
ATOM      9  C   UNL     1       6.816  19.175  56.720  1.00  0.00     0.094 A 
ATOM     10  C   UNL     1       8.005  18.604  57.179  1.00  0.00     0.146 A 
ATOM     11  O   UNL     1       8.698  17.828  56.353  1.00  0.00    -0.456 OA
ENDROOT
BRANCH   1  12
ATOM     12  C   UNL     1      10.524  16.383  55.682  1.00  0.00     0.021 A 
ATOM     13  C   UNL     1      11.729  15.717  55.977  1.00  0.00     0.016 A 
ATOM     14  C   UNL     1      12.367  14.945  55.002  1.00  0.00     0.051 A 
ATOM     15  C   UNL     1      11.824  14.830  53.720  1.00  0.00     0.157 A 
ATOM     16  C   UNL     1       9.988  16.274  54.386  1.00  0.00     0.062 A 
ATOM     17  C   UNL     1      10.629  15.499  53.409  1.00  0.00     0.158 A 
BRANCH  15  18
ATOM     18  O   UNL     1      12.483  14.052  52.771  1.00  0.00    -0.504 OA
ATOM     19  H   UNL     1      13.359  14.340  52.352  1.00  0.00     0.293 HD
ENDBRANCH  15  18
BRANCH  17  20
ATOM     20  O   UNL     1      10.082  15.393  52.131  1.00  0.00    -0.504 OA
ATOM     21  H   UNL     1       9.252  14.839  51.952  1.00  0.00     0.293 HD
ENDBRANCH  17  20
ENDBRANCH   1  12
BRANCH   6  22
ATOM     22  O   UNL     1       8.083  20.110  60.620  1.00  0.00    -0.507 OA
ATOM     23  H   UNL     1       7.504  20.045  61.443  1.00  0.00     0.293 HD
ENDBRANCH   6  22
BRANCH   8  24
ATOM     24  O   UNL     1       4.853  20.540  57.115  1.00  0.00    -0.508 OA
ATOM     25  H   UNL     1       4.113  20.793  57.760  1.00  0.00     0.293 HD
ENDBRANCH   8  24
TORSDOF 5
ENDMDL
MODEL 3
REMARK VINA RESULT:     0.000      4.131      6.265
REMARK INTER + INTRA:          -0.318
REMARK INTER:                   0.000
REMARK INTRA:                  -0.318
REMARK UNBOUND:                -0.318
REMARK SMILES O=c1cc(-c2ccc(O)c(O)c2)oc2cc(O)cc(O)c12
REMARK SMILES IDX 4 1 3 2 2 3 1 4 21 5 19 6 18 7 16 8 15 9 14 10 13 11 5 12
REMARK SMILES IDX 6 13 7 14 8 15 12 16 10 17 9 18 11 20 20 22 17 24
REMARK H PARENT 9 19 11 21 20 23 17 25
REMARK Flexibility Score: inf
ROOT
ATOM      1  C   UNL     1       9.721  16.998  54.016  1.00  0.00     0.138 A 
ATOM      2  C   UNL     1       9.384  18.161  53.310  1.00  0.00     0.100 A 
ATOM      3  C   UNL     1       8.043  18.435  53.030  1.00  0.00     0.197 A 
ATOM      4  O   UNL     1       7.767  19.516  52.449  1.00  0.00    -0.289 OA
ATOM      5  C   UNL     1       7.040  17.523  53.435  1.00  0.00     0.107 A 
ATOM      6  C   UNL     1       5.647  17.678  53.170  1.00  0.00     0.134 A 
ATOM      7  C   UNL     1       4.734  16.770  53.721  1.00  0.00     0.093 A 
ATOM      8  C   UNL     1       5.167  15.680  54.475  1.00  0.00     0.123 A 
ATOM      9  C   UNL     1       6.532  15.488  54.696  1.00  0.00     0.094 A 
ATOM     10  C   UNL     1       7.465  16.396  54.188  1.00  0.00     0.146 A 
ATOM     11  O   UNL     1       8.754  16.187  54.433  1.00  0.00    -0.456 OA
ENDROOT
BRANCH   1  12
ATOM     12  C   UNL     1      11.129  16.657  54.339  1.00  0.00     0.021 A 
ATOM     13  C   UNL     1      12.200  17.470  53.922  1.00  0.00     0.016 A 
ATOM     14  C   UNL     1      13.517  17.119  54.232  1.00  0.00     0.051 A 
ATOM     15  C   UNL     1      13.790  15.954  54.952  1.00  0.00     0.157 A 
ATOM     16  C   UNL     1      11.411  15.478  55.053  1.00  0.00     0.062 A 
ATOM     17  C   UNL     1      12.732  15.127  55.363  1.00  0.00     0.158 A 
BRANCH  15  18
ATOM     18  O   UNL     1      15.114  15.632  55.246  1.00  0.00    -0.504 OA
ATOM     19  H   UNL     1      15.881  15.902  54.643  1.00  0.00     0.293 HD
ENDBRANCH  15  18
BRANCH  17  20
ATOM     20  O   UNL     1      12.996  13.960  56.079  1.00  0.00    -0.504 OA
ATOM     21  H   UNL     1      12.702  13.051  55.740  1.00  0.00     0.293 HD
ENDBRANCH  17  20
ENDBRANCH   1  12
BRANCH   6  22
ATOM     22  O   UNL     1       5.113  18.683  52.358  1.00  0.00    -0.507 OA
ATOM     23  H   UNL     1       4.828  19.595  52.682  1.00  0.00     0.293 HD
ENDBRANCH   6  22
BRANCH   8  24
ATOM     24  O   UNL     1       4.231  14.788  54.995  1.00  0.00    -0.508 OA
ATOM     25  H   UNL     1       3.270  15.065  55.159  1.00  0.00     0.293 HD
ENDBRANCH   8  24
TORSDOF 5
ENDMDL
MODEL 4
REMARK VINA RESULT:     0.000      8.164     11.255
REMARK INTER + INTRA:          -0.318
REMARK INTER:                   0.000
REMARK INTRA:                  -0.318
REMARK UNBOUND:                -0.318
REMARK SMILES O=c1cc(-c2ccc(O)c(O)c2)oc2cc(O)cc(O)c12
REMARK SMILES IDX 4 1 3 2 2 3 1 4 21 5 19 6 18 7 16 8 15 9 14 10 13 11 5 12
REMARK SMILES IDX 6 13 7 14 8 15 12 16 10 17 9 18 11 20 20 22 17 24
REMARK H PARENT 9 19 11 21 20 23 17 25
REMARK Flexibility Score: inf
ROOT
ATOM      1  C   UNL     1      11.956  21.684  56.041  1.00  0.00     0.138 A 
ATOM      2  C   UNL     1      12.429  22.863  55.451  1.00  0.00     0.100 A 
ATOM      3  C   UNL     1      11.779  23.385  54.330  1.00  0.00     0.197 A 
ATOM      4  O   UNL     1      12.189  24.477  53.861  1.00  0.00    -0.289 OA
ATOM      5  C   UNL     1      10.667  22.703  53.782  1.00  0.00     0.107 A 
ATOM      6  C   UNL     1       9.951  23.117  52.620  1.00  0.00     0.134 A 
ATOM      7  C   UNL     1       8.795  22.426  52.238  1.00  0.00     0.093 A 
ATOM      8  C   UNL     1       8.363  21.301  52.938  1.00  0.00     0.123 A 
ATOM      9  C   UNL     1       9.086  20.853  54.046  1.00  0.00     0.094 A 
ATOM     10  C   UNL     1      10.224  21.541  54.472  1.00  0.00     0.146 A 
ATOM     11  O   UNL     1      10.877  21.093  55.539  1.00  0.00    -0.456 OA
ENDROOT
BRANCH   1  12
ATOM     12  C   UNL     1      12.611  21.085  57.232  1.00  0.00     0.021 A 
ATOM     13  C   UNL     1      13.761  21.658  57.808  1.00  0.00     0.016 A 
ATOM     14  C   UNL     1      14.362  21.066  58.923  1.00  0.00     0.051 A 
ATOM     15  C   UNL     1      13.835  19.897  59.477  1.00  0.00     0.157 A 
ATOM     16  C   UNL     1      12.092  19.900  57.785  1.00  0.00     0.062 A 
ATOM     17  C   UNL     1      12.696  19.309  58.904  1.00  0.00     0.158 A 
BRANCH  15  18
ATOM     18  O   UNL     1      14.456  19.333  60.589  1.00  0.00    -0.504 OA
ATOM     19  H   UNL     1      15.229  19.786  61.062  1.00  0.00     0.293 HD
ENDBRANCH  15  18
BRANCH  17  20
ATOM     20  O   UNL     1      12.167  18.139  59.448  1.00  0.00    -0.504 OA
ATOM     21  H   UNL     1      11.774  18.117  60.382  1.00  0.00     0.293 HD
ENDBRANCH  17  20
ENDBRANCH   1  12
BRANCH   6  22
ATOM     22  O   UNL     1      10.344  24.178  51.798  1.00  0.00    -0.507 OA
ATOM     23  H   UNL     1       9.864  25.063  51.730  1.00  0.00     0.293 HD
ENDBRANCH   6  22
BRANCH   8  24
ATOM     24  O   UNL     1       7.216  20.628  52.521  1.00  0.00    -0.508 OA
ATOM     25  H   UNL     1       7.260  19.881  51.838  1.00  0.00     0.293 HD
ENDBRANCH   8  24
TORSDOF 5
ENDMDL
MODEL 5
REMARK VINA RESULT:     0.000      8.286     12.271
REMARK INTER + INTRA:          -0.318
REMARK INTER:                   0.000
REMARK INTRA:                  -0.318
REMARK UNBOUND:                -0.318
REMARK SMILES O=c1cc(-c2ccc(O)c(O)c2)oc2cc(O)cc(O)c12
REMARK SMILES IDX 4 1 3 2 2 3 1 4 21 5 19 6 18 7 16 8 15 9 14 10 13 11 5 12
REMARK SMILES IDX 6 13 7 14 8 15 12 16 10 17 9 18 11 20 20 22 17 24
REMARK H PARENT 9 19 11 21 20 23 17 25
REMARK Flexibility Score: inf
ROOT
ATOM      1  C   UNL     1      14.585  18.167  56.002  1.00  0.00     0.138 A 
ATOM      2  C   UNL     1      13.638  18.776  56.836  1.00  0.00     0.100 A 
ATOM      3  C   UNL     1      13.822  20.100  57.238  1.00  0.00     0.197 A 
ATOM      4  O   UNL     1      12.925  20.639  57.936  1.00  0.00    -0.289 OA
ATOM      5  C   UNL     1      14.976  20.807  56.826  1.00  0.00     0.107 A 
ATOM      6  C   UNL     1      15.289  22.145  57.206  1.00  0.00     0.134 A 
ATOM      7  C   UNL     1      16.402  22.781  56.642  1.00  0.00     0.093 A 
ATOM      8  C   UNL     1      17.247  22.109  55.760  1.00  0.00     0.123 A 
ATOM      9  C   UNL     1      16.981  20.780  55.423  1.00  0.00     0.094 A 
ATOM     10  C   UNL     1      15.859  20.130  55.942  1.00  0.00     0.146 A 
ATOM     11  O   UNL     1      15.632  18.870  55.585  1.00  0.00    -0.456 OA
ENDROOT
BRANCH   1  12
ATOM     12  C   UNL     1      14.440  16.761  55.545  1.00  0.00     0.021 A 
ATOM     13  C   UNL     1      13.357  15.960  55.956  1.00  0.00     0.016 A 
ATOM     14  C   UNL     1      13.252  14.636  55.519  1.00  0.00     0.051 A 
ATOM     15  C   UNL     1      14.221  14.088  54.675  1.00  0.00     0.157 A 
ATOM     16  C   UNL     1      15.419  16.200  54.707  1.00  0.00     0.062 A 
ATOM     17  C   UNL     1      15.312  14.873  54.268  1.00  0.00     0.158 A 
BRANCH  15  18
ATOM     18  O   UNL     1      14.086  12.766  54.255  1.00  0.00    -0.504 OA
ATOM     19  H   UNL     1      13.277  12.205  54.493  1.00  0.00     0.293 HD
ENDBRANCH  15  18
BRANCH  17  20
ATOM     20  O   UNL     1      16.286  14.332  53.430  1.00  0.00    -0.504 OA
ATOM     21  H   UNL     1      16.174  14.323  52.422  1.00  0.00     0.293 HD
ENDBRANCH  17  20
ENDBRANCH   1  12
BRANCH   6  22
ATOM     22  O   UNL     1      14.561  22.881  58.145  1.00  0.00    -0.507 OA
ATOM     23  H   UNL     1      13.576  22.764  58.331  1.00  0.00     0.293 HD
ENDBRANCH   6  22
BRANCH   8  24
ATOM     24  O   UNL     1      18.354  22.768  55.230  1.00  0.00    -0.508 OA
ATOM     25  H   UNL     1      18.826  23.506  55.741  1.00  0.00     0.293 HD
ENDBRANCH   8  24
TORSDOF 5
ENDMDL
MODEL 6
REMARK VINA RESULT:     0.000      6.188      8.757
REMARK INTER + INTRA:          -0.318
REMARK INTER:                   0.000
REMARK INTRA:                  -0.318
REMARK UNBOUND:                -0.318
REMARK SMILES O=c1cc(-c2ccc(O)c(O)c2)oc2cc(O)cc(O)c12
REMARK SMILES IDX 4 1 3 2 2 3 1 4 21 5 19 6 18 7 16 8 15 9 14 10 13 11 5 12
REMARK SMILES IDX 6 13 7 14 8 15 12 16 10 17 9 18 11 20 20 22 17 24
REMARK H PARENT 9 19 11 21 20 23 17 25
REMARK Flexibility Score: inf
ROOT
ATOM      1  C   UNL     1      12.882  18.009  50.088  1.00  0.00     0.138 A 
ATOM      2  C   UNL     1      14.073  18.703  49.831  1.00  0.00     0.100 A 
ATOM      3  C   UNL     1      15.290  18.018  49.856  1.00  0.00     0.197 A 
ATOM      4  O   UNL     1      16.335  18.654  49.561  1.00  0.00    -0.289 OA
ATOM      5  C   UNL     1      15.315  16.639  50.171  1.00  0.00     0.107 A 
ATOM      6  C   UNL     1      16.498  15.848  50.266  1.00  0.00     0.134 A 
ATOM      7  C   UNL     1      16.391  14.467  50.470  1.00  0.00     0.093 A 
ATOM      8  C   UNL     1      15.149  13.858  50.643  1.00  0.00     0.123 A 
ATOM      9  C   UNL     1      13.987  14.630  50.605  1.00  0.00     0.094 A 
ATOM     10  C   UNL     1      14.059  16.005  50.370  1.00  0.00     0.146 A 
ATOM     11  O   UNL     1      12.929  16.703  50.327  1.00  0.00    -0.456 OA
ENDROOT
BRANCH   1  12
ATOM     12  C   UNL     1      11.562  18.688  50.075  1.00  0.00     0.021 A 
ATOM     13  C   UNL     1      11.443  20.070  49.835  1.00  0.00     0.016 A 
ATOM     14  C   UNL     1      10.187  20.684  49.840  1.00  0.00     0.051 A 
ATOM     15  C   UNL     1       9.034  19.937  50.088  1.00  0.00     0.157 A 
ATOM     16  C   UNL     1      10.398  17.943  50.338  1.00  0.00     0.062 A 
ATOM     17  C   UNL     1       9.139  18.559  50.342  1.00  0.00     0.158 A 
BRANCH  15  18
ATOM     18  O   UNL     1       7.796  20.578  50.084  1.00  0.00    -0.504 OA
ATOM     19  H   UNL     1       7.703  21.567  49.889  1.00  0.00     0.293 HD
ENDBRANCH  15  18
BRANCH  17  20
ATOM     20  O   UNL     1       7.992  17.808  50.595  1.00  0.00    -0.504 OA
ATOM     21  H   UNL     1       8.043  16.879  50.997  1.00  0.00     0.293 HD
ENDBRANCH  17  20
ENDBRANCH   1  12
BRANCH   6  22
ATOM     22  O   UNL     1      17.794  16.369  50.193  1.00  0.00    -0.507 OA
ATOM     23  H   UNL     1      18.523  16.196  50.868  1.00  0.00     0.293 HD
ENDBRANCH   6  22
BRANCH   8  24
ATOM     24  O   UNL     1      15.082  12.483  50.859  1.00  0.00    -0.508 OA
ATOM     25  H   UNL     1      15.750  12.007  51.454  1.00  0.00     0.293 HD
ENDBRANCH   8  24
TORSDOF 5
ENDMDL
MODEL 7
REMARK VINA RESULT:     0.000      7.933      8.972
REMARK INTER + INTRA:          -0.318
REMARK INTER:                   0.000
REMARK INTRA:                  -0.318
REMARK UNBOUND:                -0.318
REMARK SMILES O=c1cc(-c2ccc(O)c(O)c2)oc2cc(O)cc(O)c12
REMARK SMILES IDX 4 1 3 2 2 3 1 4 21 5 19 6 18 7 16 8 15 9 14 10 13 11 5 12
REMARK SMILES IDX 6 13 7 14 8 15 12 16 10 17 9 18 11 20 20 22 17 24
REMARK H PARENT 9 19 11 21 20 23 17 25
REMARK Flexibility Score: inf
ROOT
ATOM      1  C   UNL     1      10.909  19.983  56.005  1.00  0.00     0.138 A 
ATOM      2  C   UNL     1      10.154  21.043  55.485  1.00  0.00     0.100 A 
ATOM      3  C   UNL     1       8.783  21.106  55.743  1.00  0.00     0.197 A 
ATOM      4  O   UNL     1       8.143  22.101  55.315  1.00  0.00    -0.289 OA
ATOM      5  C   UNL     1       8.162  20.086  56.501  1.00  0.00     0.107 A 
ATOM      6  C   UNL     1       6.767  20.024  56.793  1.00  0.00     0.134 A 
ATOM      7  C   UNL     1       6.284  19.029  57.651  1.00  0.00     0.093 A 
ATOM      8  C   UNL     1       7.134  18.057  58.178  1.00  0.00     0.123 A 
ATOM      9  C   UNL     1       8.492  18.075  57.856  1.00  0.00     0.094 A 
ATOM     10  C   UNL     1       9.010  19.076  57.031  1.00  0.00     0.146 A 
ATOM     11  O   UNL     1      10.310  19.067  56.760  1.00  0.00    -0.456 OA
ENDROOT
BRANCH   1  12
ATOM     12  C   UNL     1      12.369  19.866  55.760  1.00  0.00     0.021 A 
ATOM     13  C   UNL     1      13.061  20.798  54.965  1.00  0.00     0.016 A 
ATOM     14  C   UNL     1      14.434  20.657  54.743  1.00  0.00     0.051 A 
ATOM     15  C   UNL     1      15.136  19.586  55.301  1.00  0.00     0.157 A 
ATOM     16  C   UNL     1      13.078  18.782  56.309  1.00  0.00     0.062 A 
ATOM     17  C   UNL     1      14.455  18.642  56.086  1.00  0.00     0.158 A 
BRANCH  15  18
ATOM     18  O   UNL     1      16.505  19.474  55.063  1.00  0.00    -0.504 OA
ATOM     19  H   UNL     1      17.061  20.256  54.739  1.00  0.00     0.293 HD
ENDBRANCH  15  18
BRANCH  17  20
ATOM     20  O   UNL     1      15.148  17.568  56.643  1.00  0.00    -0.504 OA
ATOM     21  H   UNL     1      16.156  17.585  56.753  1.00  0.00     0.293 HD
ENDBRANCH  17  20
ENDBRANCH   1  12
BRANCH   6  22
ATOM     22  O   UNL     1       5.816  20.894  56.251  1.00  0.00    -0.507 OA
ATOM     23  H   UNL     1       5.311  20.733  55.393  1.00  0.00     0.293 HD
ENDBRANCH   6  22
BRANCH   8  24
ATOM     24  O   UNL     1       6.616  17.073  59.017  1.00  0.00    -0.508 OA
ATOM     25  H   UNL     1       5.676  17.136  59.392  1.00  0.00     0.293 HD
ENDBRANCH   8  24
TORSDOF 5
ENDMDL
MODEL 8
REMARK VINA RESULT:     0.000     10.994     13.275
REMARK INTER + INTRA:          -0.318
REMARK INTER:                   0.000
REMARK INTRA:                  -0.318
REMARK UNBOUND:                -0.318
REMARK SMILES O=c1cc(-c2ccc(O)c(O)c2)oc2cc(O)cc(O)c12
REMARK SMILES IDX 4 1 3 2 2 3 1 4 21 5 19 6 18 7 16 8 15 9 14 10 13 11 5 12
REMARK SMILES IDX 6 13 7 14 8 15 12 16 10 17 9 18 11 20 20 22 17 24
REMARK H PARENT 9 19 11 21 20 23 17 25
REMARK Flexibility Score: inf
ROOT
ATOM      1  C   UNL     1      16.581  19.788  48.239  1.00  0.00     0.138 A 
ATOM      2  C   UNL     1      17.604  18.978  47.727  1.00  0.00     0.100 A 
ATOM      3  C   UNL     1      18.788  18.819  48.451  1.00  0.00     0.197 A 
ATOM      4  O   UNL     1      19.662  18.038  47.995  1.00  0.00    -0.289 OA
ATOM      5  C   UNL     1      18.958  19.500  49.679  1.00  0.00     0.107 A 
ATOM      6  C   UNL     1      20.135  19.446  50.482  1.00  0.00     0.134 A 
ATOM      7  C   UNL     1      20.145  20.069  51.736  1.00  0.00     0.093 A 
ATOM      8  C   UNL     1      19.044  20.795  52.189  1.00  0.00     0.123 A 
ATOM      9  C   UNL     1      17.905  20.900  51.389  1.00  0.00     0.094 A 
ATOM     10  C   UNL     1      17.852  20.261  50.148  1.00  0.00     0.146 A 
ATOM     11  O   UNL     1      16.745  20.372  49.422  1.00  0.00    -0.456 OA
ENDROOT
BRANCH   1  12
ATOM     12  C   UNL     1      15.304  19.993  47.511  1.00  0.00     0.021 A 
ATOM     13  C   UNL     1      15.069  19.408  46.252  1.00  0.00     0.016 A 
ATOM     14  C   UNL     1      13.860  19.626  45.585  1.00  0.00     0.051 A 
ATOM     15  C   UNL     1      12.872  20.433  46.154  1.00  0.00     0.157 A 
ATOM     16  C   UNL     1      14.310  20.815  48.073  1.00  0.00     0.062 A 
ATOM     17  C   UNL     1      13.098  21.033  47.404  1.00  0.00     0.158 A 
BRANCH  15  18
ATOM     18  O   UNL     1      11.677  20.630  45.464  1.00  0.00    -0.504 OA
ATOM     19  H   UNL     1      11.654  20.824  44.471  1.00  0.00     0.293 HD
ENDBRANCH  15  18
BRANCH  17  20
ATOM     20  O   UNL     1      12.118  21.843  47.976  1.00  0.00    -0.504 OA
ATOM     21  H   UNL     1      11.517  22.430  47.409  1.00  0.00     0.293 HD
ENDBRANCH  17  20
ENDBRANCH   1  12
BRANCH   6  22
ATOM     22  O   UNL     1      21.322  18.820  50.088  1.00  0.00    -0.507 OA
ATOM     23  H   UNL     1      21.988  19.206  49.436  1.00  0.00     0.293 HD
ENDBRANCH   6  22
BRANCH   8  24
ATOM     24  O   UNL     1      19.095  21.414  53.436  1.00  0.00    -0.508 OA
ATOM     25  H   UNL     1      18.292  21.428  54.055  1.00  0.00     0.293 HD
ENDBRANCH   8  24
TORSDOF 5
ENDMDL
MODEL 9
REMARK VINA RESULT:     0.000      6.924      8.807
REMARK INTER + INTRA:          -0.318
REMARK INTER:                   0.000
REMARK INTRA:                  -0.318
REMARK UNBOUND:                -0.318
REMARK SMILES O=c1cc(-c2ccc(O)c(O)c2)oc2cc(O)cc(O)c12
REMARK SMILES IDX 4 1 3 2 2 3 1 4 21 5 19 6 18 7 16 8 15 9 14 10 13 11 5 12
REMARK SMILES IDX 6 13 7 14 8 15 12 16 10 17 9 18 11 20 20 22 17 24
REMARK H PARENT 9 19 11 21 20 23 17 25
REMARK Flexibility Score: inf
ROOT
ATOM      1  C   UNL     1      11.526  18.860  50.033  1.00  0.00     0.138 A 
ATOM      2  C   UNL     1      10.133  18.716  50.092  1.00  0.00     0.100 A 
ATOM      3  C   UNL     1       9.396  18.636  48.909  1.00  0.00     0.197 A 
ATOM      4  O   UNL     1       8.155  18.444  48.994  1.00  0.00    -0.289 OA
ATOM      5  C   UNL     1      10.056  18.732  47.661  1.00  0.00     0.107 A 
ATOM      6  C   UNL     1       9.404  18.704  46.393  1.00  0.00     0.134 A 
ATOM      7  C   UNL     1      10.172  18.689  45.222  1.00  0.00     0.093 A 
ATOM      8  C   UNL     1      11.563  18.764  45.272  1.00  0.00     0.123 A 
ATOM      9  C   UNL     1      12.210  18.846  46.506  1.00  0.00     0.094 A 
ATOM     10  C   UNL     1      11.474  18.827  47.692  1.00  0.00     0.146 A 
ATOM     11  O   UNL     1      12.126  18.892  48.848  1.00  0.00    -0.456 OA
ENDROOT
BRANCH   1  12
ATOM     12  C   UNL     1      12.358  18.951  51.259  1.00  0.00     0.021 A 
ATOM     13  C   UNL     1      11.784  18.930  52.545  1.00  0.00     0.016 A 
ATOM     14  C   UNL     1      12.591  19.028  53.682  1.00  0.00     0.051 A 
ATOM     15  C   UNL     1      13.976  19.156  53.559  1.00  0.00     0.157 A 
ATOM     16  C   UNL     1      13.752  19.094  51.142  1.00  0.00     0.062 A 
ATOM     17  C   UNL     1      14.561  19.191  52.283  1.00  0.00     0.158 A 
BRANCH  15  18
ATOM     18  O   UNL     1      14.754  19.250  54.712  1.00  0.00    -0.504 OA
ATOM     19  H   UNL     1      15.484  19.944  54.814  1.00  0.00     0.293 HD
ENDBRANCH  15  18
BRANCH  17  20
ATOM     20  O   UNL     1      15.943  19.323  52.152  1.00  0.00    -0.504 OA
ATOM     21  H   UNL     1      16.575  19.046  52.894  1.00  0.00     0.293 HD
ENDBRANCH  17  20
ENDBRANCH   1  12
BRANCH   6  22
ATOM     22  O   UNL     1       8.016  18.715  46.227  1.00  0.00    -0.507 OA
ATOM     23  H   UNL     1       7.511  19.357  45.635  1.00  0.00     0.293 HD
ENDBRANCH   6  22
BRANCH   8  24
ATOM     24  O   UNL     1      12.295  18.762  44.086  1.00  0.00    -0.508 OA
ATOM     25  H   UNL     1      11.857  18.958  43.193  1.00  0.00     0.293 HD
ENDBRANCH   8  24
TORSDOF 5
ENDMDL
