MODEL 1
REMARK VINA RESULT:    -4.057      0.000      0.000
REMARK INTER + INTRA:          -6.200
REMARK INTER:                  -5.480
REMARK INTRA:                  -0.720
REMARK UNBOUND:                -0.720
REMARK SMILES C[C@@H](O)[C@@H](O)[C@@H](O)[C@H](O)C=O
REMARK SMILES IDX 4 1 2 2 1 3 3 4 6 6 8 7 10 8 11 9 9 10 7 12 5 14
REMARK H PARENT 3 5 9 11 7 13 5 15
REMARK Flexibility Score: inf
ROOT
ATOM      1  C   UNL     1      18.148  24.768   9.912  1.00  0.00     0.174 C 
ENDROOT
BRANCH   1   2
ATOM      2  C   UNL     1      17.434  25.757   8.946  1.00  0.00     0.142 C 
ATOM      3  C   UNL     1      18.243  27.039   8.708  1.00  0.00     0.041 C 
BRANCH   2   4
ATOM      4  O   UNL     1      17.139  25.140   7.720  1.00  0.00    -0.391 OA
ATOM      5  H   UNL     1      17.341  25.801   7.006  1.00  0.00     0.211 HD
ENDBRANCH   2   4
ENDBRANCH   1   2
BRANCH   1   6
ATOM      6  C   UNL     1      18.775  23.495   9.260  1.00  0.00     0.181 C 
BRANCH   6   7
ATOM      7  C   UNL     1      19.630  22.596  10.200  1.00  0.00     0.209 C 
BRANCH   7   8
ATOM      8  C   UNL     1      20.921  23.275  10.583  1.00  0.00     0.258 C 
ATOM      9  O   UNL     1      21.884  23.239   9.833  1.00  0.00    -0.300 OA
ENDBRANCH   7   8
BRANCH   7  10
ATOM     10  O   UNL     1      18.921  22.201  11.347  1.00  0.00    -0.383 OA
ATOM     11  H   UNL     1      18.398  22.980  11.672  1.00  0.00     0.211 HD
ENDBRANCH   7  10
ENDBRANCH   6   7
BRANCH   6  12
ATOM     12  O   UNL     1      19.492  23.838   8.098  1.00  0.00    -0.387 OA
ATOM     13  H   UNL     1      19.242  24.762   7.840  1.00  0.00     0.211 HD
ENDBRANCH   6  12
ENDBRANCH   1   6
BRANCH   1  14
ATOM     14  O   UNL     1      17.325  24.442  11.007  1.00  0.00    -0.388 OA
ATOM     15  H   UNL     1      17.745  24.792  11.832  1.00  0.00     0.211 HD
ENDBRANCH   1  14
TORSDOF 8
ENDMDL
MODEL 2
REMARK VINA RESULT:    -3.980      1.552      1.882
REMARK INTER + INTRA:          -6.097
REMARK INTER:                  -5.360
REMARK INTRA:                  -0.737
REMARK UNBOUND:                -0.720
REMARK SMILES C[C@@H](O)[C@@H](O)[C@@H](O)[C@H](O)C=O
REMARK SMILES IDX 4 1 2 2 1 3 3 4 6 6 8 7 10 8 11 9 9 10 7 12 5 14
REMARK H PARENT 3 5 9 11 7 13 5 15
REMARK Flexibility Score: inf
ROOT
ATOM      1  C   UNL     1      18.999  25.048   9.606  1.00  0.00     0.174 C 
ENDROOT
BRANCH   1   2
ATOM      2  C   UNL     1      17.760  25.762   8.994  1.00  0.00     0.142 C 
ATOM      3  C   UNL     1      17.996  27.260   8.764  1.00  0.00     0.041 C 
BRANCH   2   4
ATOM      4  O   UNL     1      17.365  25.147   7.795  1.00  0.00    -0.391 OA
ATOM      5  H   UNL     1      16.740  25.772   7.341  1.00  0.00     0.211 HD
ENDBRANCH   2   4
ENDBRANCH   1   2
BRANCH   1   6
ATOM      6  C   UNL     1      18.739  23.659  10.272  1.00  0.00     0.181 C 
BRANCH   6   7
ATOM      7  C   UNL     1      19.972  22.718  10.396  1.00  0.00     0.209 C 
BRANCH   7   8
ATOM      8  C   UNL     1      20.257  22.013   9.092  1.00  0.00     0.258 C 
ATOM      9  O   UNL     1      19.600  21.038   8.762  1.00  0.00    -0.300 OA
ENDBRANCH   7   8
BRANCH   7  10
ATOM     10  O   UNL     1      21.116  23.397  10.849  1.00  0.00    -0.383 OA
ATOM     11  H   UNL     1      21.785  22.721  11.133  1.00  0.00     0.211 HD
ENDBRANCH   7  10
ENDBRANCH   6   7
BRANCH   6  12
ATOM     12  O   UNL     1      17.664  23.003   9.642  1.00  0.00    -0.387 OA
ATOM     13  H   UNL     1      18.014  22.525   8.848  1.00  0.00     0.211 HD
ENDBRANCH   6  12
ENDBRANCH   1   6
BRANCH   1  14
ATOM     14  O   UNL     1      19.714  25.910  10.460  1.00  0.00    -0.388 OA
ATOM     15  H   UNL     1      19.152  26.702  10.649  1.00  0.00     0.211 HD
ENDBRANCH   1  14
TORSDOF 8
ENDMDL
MODEL 3
REMARK VINA RESULT:    -3.943      1.456      2.212
REMARK INTER + INTRA:          -6.047
REMARK INTER:                  -5.085
REMARK INTRA:                  -0.962
REMARK UNBOUND:                -0.720
REMARK SMILES C[C@@H](O)[C@@H](O)[C@@H](O)[C@H](O)C=O
REMARK SMILES IDX 4 1 2 2 1 3 3 4 6 6 8 7 10 8 11 9 9 10 7 12 5 14
REMARK H PARENT 3 5 9 11 7 13 5 15
REMARK Flexibility Score: inf
ROOT
ATOM      1  C   UNL     1      18.476  24.517   9.832  1.00  0.00     0.174 C 
ENDROOT
BRANCH   1   2
ATOM      2  C   UNL     1      17.960  25.840   9.196  1.00  0.00     0.142 C 
ATOM      3  C   UNL     1      19.081  26.861   8.965  1.00  0.00     0.041 C 
BRANCH   2   4
ATOM      4  O   UNL     1      17.282  25.589   7.992  1.00  0.00    -0.391 OA
ATOM      5  H   UNL     1      17.094  26.471   7.575  1.00  0.00     0.211 HD
ENDBRANCH   2   4
ENDBRANCH   1   2
BRANCH   1   6
ATOM      6  C   UNL     1      19.956  24.129   9.519  1.00  0.00     0.181 C 
BRANCH   6   7
ATOM      7  C   UNL     1      20.187  23.305   8.219  1.00  0.00     0.209 C 
BRANCH   7   8
ATOM      8  C   UNL     1      20.386  21.841   8.528  1.00  0.00     0.258 C 
ATOM      9  O   UNL     1      19.526  21.213   9.125  1.00  0.00    -0.300 OA
ENDBRANCH   7   8
BRANCH   7  10
ATOM     10  O   UNL     1      19.147  23.476   7.289  1.00  0.00    -0.383 OA
ATOM     11  H   UNL     1      19.551  23.710   6.413  1.00  0.00     0.211 HD
ENDBRANCH   7  10
ENDBRANCH   6   7
BRANCH   6  12
ATOM     12  O   UNL     1      20.547  23.498  10.630  1.00  0.00    -0.387 OA
ATOM     13  H   UNL     1      21.477  23.252  10.389  1.00  0.00     0.211 HD
ENDBRANCH   6  12
ENDBRANCH   1   6
BRANCH   1  14
ATOM     14  O   UNL     1      17.593  23.450   9.578  1.00  0.00    -0.388 OA
ATOM     15  H   UNL     1      16.895  23.446  10.280  1.00  0.00     0.211 HD
ENDBRANCH   1  14
TORSDOF 8
ENDMDL
MODEL 4
REMARK VINA RESULT:    -3.858      1.990      2.895
REMARK INTER + INTRA:          -5.932
REMARK INTER:                  -4.980
REMARK INTRA:                  -0.952
REMARK UNBOUND:                -0.720
REMARK SMILES C[C@@H](O)[C@@H](O)[C@@H](O)[C@H](O)C=O
REMARK SMILES IDX 4 1 2 2 1 3 3 4 6 6 8 7 10 8 11 9 9 10 7 12 5 14
REMARK H PARENT 3 5 9 11 7 13 5 15
REMARK Flexibility Score: inf
ROOT
ATOM      1  C   UNL     1      18.761  25.240   8.355  1.00  0.00     0.174 C 
ENDROOT
BRANCH   1   2
ATOM      2  C   UNL     1      18.959  26.698   8.861  1.00  0.00     0.142 C 
ATOM      3  C   UNL     1      17.669  27.526   8.794  1.00  0.00     0.041 C 
BRANCH   2   4
ATOM      4  O   UNL     1      19.473  26.712  10.167  1.00  0.00    -0.391 OA
ATOM      5  H   UNL     1      18.709  26.888  10.778  1.00  0.00     0.211 HD
ENDBRANCH   2   4
ENDBRANCH   1   2
BRANCH   1   6
ATOM      6  C   UNL     1      17.304  24.680   8.407  1.00  0.00     0.181 C 
BRANCH   6   7
ATOM      7  C   UNL     1      16.875  24.012   9.746  1.00  0.00     0.209 C 
BRANCH   7   8
ATOM      8  C   UNL     1      16.947  22.507   9.655  1.00  0.00     0.258 C 
ATOM      9  O   UNL     1      18.014  21.952   9.446  1.00  0.00    -0.300 OA
ENDBRANCH   7   8
BRANCH   7  10
ATOM     10  O   UNL     1      17.628  24.477  10.837  1.00  0.00    -0.383 OA
ATOM     11  H   UNL     1      17.201  24.148  11.671  1.00  0.00     0.211 HD
ENDBRANCH   7  10
ENDBRANCH   6   7
BRANCH   6  12
ATOM     12  O   UNL     1      17.065  23.824   7.315  1.00  0.00    -0.387 OA
ATOM     13  H   UNL     1      16.950  22.902   7.663  1.00  0.00     0.211 HD
ENDBRANCH   6  12
ENDBRANCH   1   6
BRANCH   1  14
ATOM     14  O   UNL     1      19.679  24.361   8.962  1.00  0.00    -0.388 OA
ATOM     15  H   UNL     1      19.177  23.605   9.357  1.00  0.00     0.211 HD
ENDBRANCH   1  14
TORSDOF 8
ENDMDL
MODEL 5
REMARK VINA RESULT:    -3.856      1.193      1.769
REMARK INTER + INTRA:          -5.929
REMARK INTER:                  -5.069
REMARK INTRA:                  -0.860
REMARK UNBOUND:                -0.720
REMARK SMILES C[C@@H](O)[C@@H](O)[C@@H](O)[C@H](O)C=O
REMARK SMILES IDX 4 1 2 2 1 3 3 4 6 6 8 7 10 8 11 9 9 10 7 12 5 14
REMARK H PARENT 3 5 9 11 7 13 5 15
REMARK Flexibility Score: inf
ROOT
ATOM      1  C   UNL     1      17.840  24.652   8.530  1.00  0.00     0.174 C 
ENDROOT
BRANCH   1   2
ATOM      2  C   UNL     1      18.771  25.860   8.836  1.00  0.00     0.142 C 
ATOM      3  C   UNL     1      18.072  27.210   8.632  1.00  0.00     0.041 C 
BRANCH   2   4
ATOM      4  O   UNL     1      19.291  25.779  10.138  1.00  0.00    -0.391 OA
ATOM      5  H   UNL     1      18.520  25.839  10.762  1.00  0.00     0.211 HD
ENDBRANCH   2   4
ENDBRANCH   1   2
BRANCH   1   6
ATOM      6  C   UNL     1      18.541  23.270   8.330  1.00  0.00     0.181 C 
BRANCH   6   7
ATOM      7  C   UNL     1      18.852  22.467   9.626  1.00  0.00     0.209 C 
BRANCH   7   8
ATOM      8  C   UNL     1      20.336  22.406   9.890  1.00  0.00     0.258 C 
ATOM      9  O   UNL     1      20.925  23.380  10.332  1.00  0.00    -0.300 OA
ENDBRANCH   7   8
BRANCH   7  10
ATOM     10  O   UNL     1      18.172  22.978  10.744  1.00  0.00    -0.383 OA
ATOM     11  H   UNL     1      18.700  22.758  11.555  1.00  0.00     0.211 HD
ENDBRANCH   7  10
ENDBRANCH   6   7
BRANCH   6  12
ATOM     12  O   UNL     1      19.695  23.413   7.535  1.00  0.00    -0.387 OA
ATOM     13  H   UNL     1      20.362  23.937   8.048  1.00  0.00     0.211 HD
ENDBRANCH   6  12
ENDBRANCH   1   6
BRANCH   1  14
ATOM     14  O   UNL     1      16.955  24.945   7.474  1.00  0.00    -0.388 OA
ATOM     15  H   UNL     1      16.681  25.893   7.547  1.00  0.00     0.211 HD
ENDBRANCH   1  14
TORSDOF 8
ENDMDL
MODEL 6
REMARK VINA RESULT:    -3.826      1.568      3.981
REMARK INTER + INTRA:          -5.889
REMARK INTER:                  -5.232
REMARK INTRA:                  -0.656
REMARK UNBOUND:                -0.720
REMARK SMILES C[C@@H](O)[C@@H](O)[C@@H](O)[C@H](O)C=O
REMARK SMILES IDX 4 1 2 2 1 3 3 4 6 6 8 7 10 8 11 9 9 10 7 12 5 14
REMARK H PARENT 3 5 9 11 7 13 5 15
REMARK Flexibility Score: inf
ROOT
ATOM      1  C   UNL     1      18.015  23.860   9.809  1.00  0.00     0.174 C 
ENDROOT
BRANCH   1   2
ATOM      2  C   UNL     1      19.142  22.964  10.398  1.00  0.00     0.142 C 
ATOM      3  C   UNL     1      18.629  21.999  11.474  1.00  0.00     0.041 C 
BRANCH   2   4
ATOM      4  O   UNL     1      19.799  22.248   9.384  1.00  0.00    -0.391 OA
ATOM      5  H   UNL     1      20.622  21.864   9.786  1.00  0.00     0.211 HD
ENDBRANCH   2   4
ENDBRANCH   1   2
BRANCH   1   6
ATOM      6  C   UNL     1      18.411  24.767   8.602  1.00  0.00     0.181 C 
BRANCH   6   7
ATOM      7  C   UNL     1      18.996  26.165   8.958  1.00  0.00     0.209 C 
BRANCH   7   8
ATOM      8  C   UNL     1      17.976  27.256   8.746  1.00  0.00     0.258 C 
ATOM      9  O   UNL     1      16.875  27.183   9.267  1.00  0.00    -0.300 OA
ENDBRANCH   7   8
BRANCH   7  10
ATOM     10  O   UNL     1      19.501  26.211  10.269  1.00  0.00    -0.383 OA
ATOM     11  H   UNL     1      20.055  27.030  10.359  1.00  0.00     0.211 HD
ENDBRANCH   7  10
ENDBRANCH   6   7
BRANCH   6  12
ATOM     12  O   UNL     1      17.337  24.884   7.699  1.00  0.00    -0.387 OA
ATOM     13  H   UNL     1      17.534  25.631   7.077  1.00  0.00     0.211 HD
ENDBRANCH   6  12
ENDBRANCH   1   6
BRANCH   1  14
ATOM     14  O   UNL     1      17.366  24.593  10.822  1.00  0.00    -0.388 OA
ATOM     15  H   UNL     1      16.571  25.034  10.430  1.00  0.00     0.211 HD
ENDBRANCH   1  14
TORSDOF 8
ENDMDL
MODEL 7
REMARK VINA RESULT:    -3.795      1.721      3.719
REMARK INTER + INTRA:          -5.847
REMARK INTER:                  -4.865
REMARK INTRA:                  -0.982
REMARK UNBOUND:                -0.720
REMARK SMILES C[C@@H](O)[C@@H](O)[C@@H](O)[C@H](O)C=O
REMARK SMILES IDX 4 1 2 2 1 3 3 4 6 6 8 7 10 8 11 9 9 10 7 12 5 14
REMARK H PARENT 3 5 9 11 7 13 5 15
REMARK Flexibility Score: inf
ROOT
ATOM      1  C   UNL     1      20.486  23.134   9.571  1.00  0.00     0.174 C 
ENDROOT
BRANCH   1   2
ATOM      2  C   UNL     1      20.751  23.305   8.048  1.00  0.00     0.142 C 
ATOM      3  C   UNL     1      21.688  22.228   7.487  1.00  0.00     0.041 C 
BRANCH   2   4
ATOM      4  O   UNL     1      19.547  23.319   7.325  1.00  0.00    -0.391 OA
ATOM      5  H   UNL     1      19.011  24.081   7.670  1.00  0.00     0.211 HD
ENDBRANCH   2   4
ENDBRANCH   1   2
BRANCH   1   6
ATOM      6  C   UNL     1      19.451  24.115  10.209  1.00  0.00     0.181 C 
BRANCH   6   7
ATOM      7  C   UNL     1      17.984  23.603  10.291  1.00  0.00     0.209 C 
BRANCH   7   8
ATOM      8  C   UNL     1      17.036  24.541   9.586  1.00  0.00     0.258 C 
ATOM      9  O   UNL     1      17.024  24.605   8.366  1.00  0.00    -0.300 OA
ENDBRANCH   7   8
BRANCH   7  10
ATOM     10  O   UNL     1      17.848  22.296   9.792  1.00  0.00    -0.383 OA
ATOM     11  H   UNL     1      17.517  21.717  10.527  1.00  0.00     0.211 HD
ENDBRANCH   7  10
ENDBRANCH   6   7
BRANCH   6  12
ATOM     12  O   UNL     1      19.513  25.374   9.580  1.00  0.00    -0.387 OA
ATOM     13  H   UNL     1      20.216  25.337   8.882  1.00  0.00     0.211 HD
ENDBRANCH   6  12
ENDBRANCH   1   6
BRANCH   1  14
ATOM     14  O   UNL     1      21.692  23.104  10.299  1.00  0.00    -0.388 OA
ATOM     15  H   UNL     1      22.066  22.189  10.249  1.00  0.00     0.211 HD
ENDBRANCH   1  14
TORSDOF 8
ENDMDL
MODEL 8
REMARK VINA RESULT:    -3.764      2.021      4.323
REMARK INTER + INTRA:          -5.804
REMARK INTER:                  -5.108
REMARK INTRA:                  -0.697
REMARK UNBOUND:                -0.720
REMARK SMILES C[C@@H](O)[C@@H](O)[C@@H](O)[C@H](O)C=O
REMARK SMILES IDX 4 1 2 2 1 3 3 4 6 6 8 7 10 8 11 9 9 10 7 12 5 14
REMARK H PARENT 3 5 9 11 7 13 5 15
REMARK Flexibility Score: inf
ROOT
ATOM      1  C   UNL     1      19.643  23.506   7.645  1.00  0.00     0.174 C 
ENDROOT
BRANCH   1   2
ATOM      2  C   UNL     1      20.936  22.683   7.917  1.00  0.00     0.142 C 
ATOM      3  C   UNL     1      21.462  21.979   6.660  1.00  0.00     0.041 C 
BRANCH   2   4
ATOM      4  O   UNL     1      21.940  23.492   8.472  1.00  0.00    -0.391 OA
ATOM      5  H   UNL     1      22.800  23.207   8.065  1.00  0.00     0.211 HD
ENDBRANCH   2   4
ENDBRANCH   1   2
BRANCH   1   6
ATOM      6  C   UNL     1      18.785  23.881   8.895  1.00  0.00     0.181 C 
BRANCH   6   7
ATOM      7  C   UNL     1      17.659  24.929   8.663  1.00  0.00     0.209 C 
BRANCH   7   8
ATOM      8  C   UNL     1      18.106  26.312   9.069  1.00  0.00     0.258 C 
ATOM      9  O   UNL     1      19.114  26.802   8.585  1.00  0.00    -0.300 OA
ENDBRANCH   7   8
BRANCH   7  10
ATOM     10  O   UNL     1      17.199  24.930   7.335  1.00  0.00    -0.383 OA
ATOM     11  H   UNL     1      17.886  24.492   6.769  1.00  0.00     0.211 HD
ENDBRANCH   7  10
ENDBRANCH   6   7
BRANCH   6  12
ATOM     12  O   UNL     1      19.616  24.259   9.968  1.00  0.00    -0.387 OA
ATOM     13  H   UNL     1      19.867  23.441  10.469  1.00  0.00     0.211 HD
ENDBRANCH   6  12
ENDBRANCH   1   6
BRANCH   1  14
ATOM     14  O   UNL     1      18.861  22.909   6.637  1.00  0.00    -0.388 OA
ATOM     15  H   UNL     1      19.175  23.239   5.759  1.00  0.00     0.211 HD
ENDBRANCH   1  14
TORSDOF 8
ENDMDL
MODEL 9
REMARK VINA RESULT:    -3.684      1.746      3.992
REMARK INTER + INTRA:          -5.697
REMARK INTER:                  -4.754
REMARK INTRA:                  -0.943
REMARK UNBOUND:                -0.720
REMARK SMILES C[C@@H](O)[C@@H](O)[C@@H](O)[C@H](O)C=O
REMARK SMILES IDX 4 1 2 2 1 3 3 4 6 6 8 7 10 8 11 9 9 10 7 12 5 14
REMARK H PARENT 3 5 9 11 7 13 5 15
REMARK Flexibility Score: inf
ROOT
ATOM      1  C   UNL     1      20.016  22.368   9.355  1.00  0.00     0.174 C 
ENDROOT
BRANCH   1   2
ATOM      2  C   UNL     1      21.262  22.321   8.424  1.00  0.00     0.142 C 
ATOM      3  C   UNL     1      20.888  22.292   6.937  1.00  0.00     0.041 C 
BRANCH   2   4
ATOM      4  O   UNL     1      22.125  23.398   8.683  1.00  0.00    -0.391 OA
ATOM      5  H   UNL     1      21.673  24.218   8.351  1.00  0.00     0.211 HD
ENDBRANCH   2   4
ENDBRANCH   1   2
BRANCH   1   6
ATOM      6  C   UNL     1      18.684  22.859   8.705  1.00  0.00     0.181 C 
BRANCH   6   7
ATOM      7  C   UNL     1      18.429  24.394   8.742  1.00  0.00     0.209 C 
BRANCH   7   8
ATOM      8  C   UNL     1      17.405  24.754   9.790  1.00  0.00     0.258 C 
ATOM      9  O   UNL     1      17.567  24.418  10.952  1.00  0.00    -0.300 OA
ENDBRANCH   7   8
BRANCH   7  10
ATOM     10  O   UNL     1      19.614  25.125   8.938  1.00  0.00    -0.383 OA
ATOM     11  H   UNL     1      20.212  24.592   9.524  1.00  0.00     0.211 HD
ENDBRANCH   7  10
ENDBRANCH   6   7
BRANCH   6  12
ATOM     12  O   UNL     1      17.587  22.151   9.233  1.00  0.00    -0.387 OA
ATOM     13  H   UNL     1      17.921  21.295   9.606  1.00  0.00     0.211 HD
ENDBRANCH   6  12
ENDBRANCH   1   6
BRANCH   1  14
ATOM     14  O   UNL     1      20.299  23.059  10.550  1.00  0.00    -0.388 OA
ATOM     15  H   UNL     1      21.178  22.756  10.888  1.00  0.00     0.211 HD
ENDBRANCH   1  14
TORSDOF 8
ENDMDL
