MODEL 1
REMARK VINA RESULT:    -5.619      0.000      0.000
REMARK INTER + INTRA:          -7.464
REMARK INTER:                  -7.918
REMARK INTRA:                   0.454
REMARK UNBOUND:                 0.454
REMARK SMILES CC1=CCC(=C(C)C)C(=O)CC(C)=CCC1
REMARK SMILES IDX 12 1 14 2 13 3 15 4 16 5 2 6 1 7 3 8 11 10 9 11 10 12 5 13
REMARK SMILES IDX 6 14 7 15 8 16 4 17
REMARK H PARENT
REMARK Flexibility Score: 60.00
ROOT
ATOM      1  C   UNL     1     -13.377 -37.749  41.493  1.00  0.00    -0.070 C 
ATOM      2  C   UNL     1     -13.385 -38.817  42.325  1.00  0.00    -0.027 C 
ATOM      3  C   UNL     1     -14.288 -36.595  41.835  1.00  0.00     0.039 C 
ENDROOT
BRANCH   2   4
ATOM      4  C   UNL     1     -12.640 -40.114  42.120  1.00  0.00     0.032 C 
BRANCH   4   5
ATOM      5  C   UNL     1     -13.404 -41.100  41.214  1.00  0.00     0.034 C 
BRANCH   5   6
ATOM      6  C   UNL     1     -12.554 -41.592  40.059  1.00  0.00    -0.077 C 
ATOM      7  C   UNL     1     -11.450 -42.576  40.351  1.00  0.00     0.039 C 
ATOM      8  C   UNL     1     -12.746 -41.218  38.774  1.00  0.00    -0.023 CG0
ATOM      9  G   UNL     1     -13.816 -40.274  38.280  1.00  0.00     0.000 G0
ENDBRANCH   5   6
ENDBRANCH   4   5
ENDBRANCH   2   4
BRANCH   1  10
ATOM     10  C   UNL     1     -12.560 -37.681  40.213  1.00  0.00     0.111 C 
BRANCH  10  11
ATOM     11  C   UNL     1     -13.432 -37.827  38.991  1.00  0.00     0.163 C 
ATOM     12  O   UNL     1     -14.350 -36.982  38.811  1.00  0.00    -0.294 OA
BRANCH  11  13
ATOM     13  C   UNL     1     -13.200 -38.904  37.977  1.00  0.00    -0.002 C 
ATOM     14  C   UNL     1     -12.534 -38.660  36.808  1.00  0.00    -0.069 C 
ATOM     15  C   UNL     1     -12.059 -37.272  36.441  1.00  0.00     0.039 C 
ATOM     16  C   UNL     1     -12.271 -39.764  35.806  1.00  0.00     0.039 C 
BRANCH  13  17
ATOM     17  C   UNL     1     -13.802 -40.267  38.269  1.00  0.00     0.066 CG0
ATOM     18  G   UNL     1     -12.727 -41.208  38.757  1.00  0.00     0.000 G0
ENDBRANCH  13  17
ENDBRANCH  11  13
ENDBRANCH  10  11
ENDBRANCH   1  10
TORSDOF 0
ENDMDL
MODEL 2
REMARK VINA RESULT:    -5.548      2.751      4.814
REMARK INTER + INTRA:          -7.364
REMARK INTER:                  -8.144
REMARK INTRA:                   0.780
REMARK UNBOUND:                 0.454
REMARK SMILES CC1=CCC(=C(C)C)C(=O)CC(C)=CCC1
REMARK SMILES IDX 12 1 14 2 13 3 15 4 16 5 2 6 1 7 3 8 11 10 9 11 10 12 5 13
REMARK SMILES IDX 6 14 7 15 8 16 4 17
REMARK H PARENT
REMARK Flexibility Score: 60.00
ROOT
ATOM      1  C   UNL     1     -13.841 -37.489  40.242  1.00  0.00    -0.070 C 
ATOM      2  C   UNL     1     -14.442 -36.404  39.698  1.00  0.00    -0.027 C 
ATOM      3  C   UNL     1     -13.430 -37.402  41.692  1.00  0.00     0.039 C 
ENDROOT
BRANCH   2   4
ATOM      4  C   UNL     1     -14.837 -36.234  38.251  1.00  0.00     0.032 C 
BRANCH   4   5
ATOM      5  C   UNL     1     -13.642 -36.390  37.289  1.00  0.00     0.034 C 
BRANCH   5   6
ATOM      6  C   UNL     1     -12.426 -35.614  37.757  1.00  0.00    -0.077 C 
ATOM      7  C   UNL     1     -12.556 -34.124  37.941  1.00  0.00     0.039 C 
ATOM      8  C   UNL     1     -11.236 -36.187  38.044  1.00  0.00    -0.023 CG0
ATOM      9  G   UNL     1     -10.922 -37.661  37.955  1.00  0.00     0.000 G0
ENDBRANCH   5   6
ENDBRANCH   4   5
ENDBRANCH   2   4
BRANCH   1  10
ATOM     10  C   UNL     1     -13.503 -38.748  39.462  1.00  0.00     0.111 C 
BRANCH  10  11
ATOM     11  C   UNL     1     -12.077 -39.180  39.698  1.00  0.00     0.163 C 
ATOM     12  O   UNL     1     -11.876 -40.336  40.159  1.00  0.00    -0.294 OA
BRANCH  11  13
ATOM     13  C   UNL     1     -10.915 -38.302  39.353  1.00  0.00    -0.002 C 
ATOM     14  C   UNL     1      -9.940 -38.008  40.266  1.00  0.00    -0.069 C 
ATOM     15  C   UNL     1     -10.020 -38.493  41.696  1.00  0.00     0.039 C 
ATOM     16  C   UNL     1      -8.749 -37.149  39.897  1.00  0.00     0.039 C 
BRANCH  13  17
ATOM     17  C   UNL     1     -10.903 -37.688  37.964  1.00  0.00     0.066 CG0
ATOM     18  G   UNL     1     -11.231 -36.217  38.052  1.00  0.00     0.000 G0
ENDBRANCH  13  17
ENDBRANCH  11  13
ENDBRANCH  10  11
ENDBRANCH   1  10
TORSDOF 0
ENDMDL
MODEL 3
REMARK VINA RESULT:    -5.516      1.947      3.430
REMARK INTER + INTRA:          -7.319
REMARK INTER:                  -8.122
REMARK INTRA:                   0.803
REMARK UNBOUND:                 0.454
REMARK SMILES CC1=CCC(=C(C)C)C(=O)CC(C)=CCC1
REMARK SMILES IDX 12 1 14 2 13 3 15 4 16 5 2 6 1 7 3 8 11 10 9 11 10 12 5 13
REMARK SMILES IDX 6 14 7 15 8 16 4 17
REMARK H PARENT
REMARK Flexibility Score: 60.00
ROOT
ATOM      1  C   UNL     1     -13.103 -39.429  37.888  1.00  0.00    -0.070 C 
ATOM      2  C   UNL     1     -13.232 -40.752  38.147  1.00  0.00    -0.027 C 
ATOM      3  C   UNL     1     -12.273 -39.033  36.692  1.00  0.00     0.039 C 
ENDROOT
BRANCH   2   4
ATOM      4  C   UNL     1     -13.922 -41.365  39.342  1.00  0.00     0.032 C 
BRANCH   4   5
ATOM      5  C   UNL     1     -13.418 -40.786  40.678  1.00  0.00     0.034 C 
BRANCH   5   6
ATOM      6  C   UNL     1     -11.910 -40.874  40.809  1.00  0.00    -0.077 C 
ATOM      7  C   UNL     1     -11.258 -42.225  40.663  1.00  0.00     0.039 C 
ATOM      8  C   UNL     1     -11.112 -39.805  41.022  1.00  0.00    -0.023 CG0
ATOM      9  G   UNL     1     -11.572 -38.373  41.159  1.00  0.00     0.000 G0
ENDBRANCH   5   6
ENDBRANCH   4   5
ENDBRANCH   2   4
BRANCH   1  10
ATOM     10  C   UNL     1     -13.687 -38.335  38.767  1.00  0.00     0.111 C 
BRANCH  10  11
ATOM     11  C   UNL     1     -12.657 -37.286  39.103  1.00  0.00     0.163 C 
ATOM     12  O   UNL     1     -12.892 -36.094  38.765  1.00  0.00    -0.294 OA
BRANCH  11  13
ATOM     13  C   UNL     1     -11.410 -37.614  39.863  1.00  0.00    -0.002 C 
ATOM     14  C   UNL     1     -10.169 -37.312  39.372  1.00  0.00    -0.069 C 
ATOM     15  C   UNL     1      -9.985 -36.696  38.003  1.00  0.00     0.039 C 
ATOM     16  C   UNL     1      -8.914 -37.614  40.164  1.00  0.00     0.039 C 
BRANCH  13  17
ATOM     17  C   UNL     1     -11.576 -38.367  41.170  1.00  0.00     0.066 CG0
ATOM     18  G   UNL     1     -11.129 -39.799  40.997  1.00  0.00     0.000 G0
ENDBRANCH  13  17
ENDBRANCH  11  13
ENDBRANCH  10  11
ENDBRANCH   1  10
TORSDOF 0
ENDMDL
MODEL 4
REMARK VINA RESULT:    -5.509      2.264      5.726
REMARK INTER + INTRA:          -7.310
REMARK INTER:                  -7.715
REMARK INTRA:                   0.406
REMARK UNBOUND:                 0.454
REMARK SMILES CC1=CCC(=C(C)C)C(=O)CC(C)=CCC1
REMARK SMILES IDX 12 1 14 2 13 3 15 4 16 5 2 6 1 7 3 8 11 10 9 11 10 12 5 13
REMARK SMILES IDX 6 14 7 15 8 16 4 17
REMARK H PARENT
REMARK Flexibility Score: 60.00
ROOT
ATOM      1  C   UNL     1     -11.891 -38.624  36.376  1.00  0.00    -0.070 C 
ATOM      2  C   UNL     1     -11.868 -37.497  35.627  1.00  0.00    -0.027 C 
ATOM      3  C   UNL     1     -12.084 -39.935  35.654  1.00  0.00     0.039 C 
ENDROOT
BRANCH   2   4
ATOM      4  C   UNL     1     -11.793 -36.080  36.145  1.00  0.00     0.032 C 
BRANCH   4   5
ATOM      5  C   UNL     1     -13.184 -35.473  36.412  1.00  0.00     0.034 C 
BRANCH   5   6
ATOM      6  C   UNL     1     -13.287 -34.862  37.796  1.00  0.00    -0.077 C 
ATOM      7  C   UNL     1     -12.677 -33.503  38.024  1.00  0.00     0.039 C 
ATOM      8  C   UNL     1     -13.919 -35.456  38.833  1.00  0.00    -0.023 CG0
ATOM      9  G   UNL     1     -14.618 -36.794  38.791  1.00  0.00     0.000 G0
ENDBRANCH   5   6
ENDBRANCH   4   5
ENDBRANCH   2   4
BRANCH   1  10
ATOM     10  C   UNL     1     -11.801 -38.632  37.894  1.00  0.00     0.111 C 
BRANCH  10  11
ATOM     11  C   UNL     1     -13.149 -38.865  38.528  1.00  0.00     0.163 C 
ATOM     12  O   UNL     1     -13.734 -39.958  38.297  1.00  0.00    -0.294 OA
BRANCH  11  13
ATOM     13  C   UNL     1     -13.774 -37.865  39.451  1.00  0.00    -0.002 C 
ATOM     14  C   UNL     1     -13.631 -37.953  40.808  1.00  0.00    -0.069 C 
ATOM     15  C   UNL     1     -12.896 -39.106  41.455  1.00  0.00     0.039 C 
ATOM     16  C   UNL     1     -14.233 -36.917  41.733  1.00  0.00     0.039 C 
BRANCH  13  17
ATOM     17  C   UNL     1     -14.637 -36.788  38.820  1.00  0.00     0.066 CG0
ATOM     18  G   UNL     1     -13.906 -35.468  38.840  1.00  0.00     0.000 G0
ENDBRANCH  13  17
ENDBRANCH  11  13
ENDBRANCH  10  11
ENDBRANCH   1  10
TORSDOF 0
ENDMDL
MODEL 5
REMARK VINA RESULT:    -5.321      2.177      3.643
REMARK INTER + INTRA:          -7.045
REMARK INTER:                  -7.402
REMARK INTRA:                   0.358
REMARK UNBOUND:                 0.454
REMARK SMILES CC1=CCC(=C(C)C)C(=O)CC(C)=CCC1
REMARK SMILES IDX 12 1 14 2 13 3 15 4 16 5 2 6 1 7 3 8 11 10 9 11 10 12 5 13
REMARK SMILES IDX 6 14 7 15 8 16 4 17
REMARK H PARENT
REMARK Flexibility Score: 60.00
ROOT
ATOM      1  C   UNL     1     -12.330 -40.368  41.018  1.00  0.00    -0.070 C 
ATOM      2  C   UNL     1     -13.219 -41.057  40.265  1.00  0.00    -0.027 C 
ATOM      3  C   UNL     1     -12.611 -40.256  42.497  1.00  0.00     0.039 C 
ENDROOT
BRANCH   2   4
ATOM      4  C   UNL     1     -13.193 -41.203  38.762  1.00  0.00     0.032 C 
BRANCH   4   5
ATOM      5  C   UNL     1     -13.671 -39.931  38.035  1.00  0.00     0.034 C 
BRANCH   5   6
ATOM      6  C   UNL     1     -12.748 -39.542  36.896  1.00  0.00    -0.077 C 
ATOM      7  C   UNL     1     -12.620 -40.485  35.727  1.00  0.00     0.039 C 
ATOM      8  C   UNL     1     -12.053 -38.384  36.856  1.00  0.00    -0.023 CG0
ATOM      9  G   UNL     1     -12.077 -37.303  37.909  1.00  0.00     0.000 G0
ENDBRANCH   5   6
ENDBRANCH   4   5
ENDBRANCH   2   4
BRANCH   1  10
ATOM     10  C   UNL     1     -11.116 -39.652  40.450  1.00  0.00     0.111 C 
BRANCH  10  11
ATOM     11  C   UNL     1     -11.398 -38.191  40.204  1.00  0.00     0.163 C 
ATOM     12  O   UNL     1     -11.952 -37.531  41.124  1.00  0.00    -0.294 OA
BRANCH  11  13
ATOM     13  C   UNL     1     -10.993 -37.509  38.935  1.00  0.00    -0.002 C 
ATOM     14  C   UNL     1      -9.720 -37.048  38.740  1.00  0.00    -0.069 C 
ATOM     15  C   UNL     1      -8.670 -37.138  39.825  1.00  0.00     0.039 C 
ATOM     16  C   UNL     1      -9.309 -36.393  37.439  1.00  0.00     0.039 C 
BRANCH  13  17
ATOM     17  C   UNL     1     -12.078 -37.281  37.898  1.00  0.00     0.066 CG0
ATOM     18  G   UNL     1     -12.045 -38.387  36.870  1.00  0.00     0.000 G0
ENDBRANCH  13  17
ENDBRANCH  11  13
ENDBRANCH  10  11
ENDBRANCH   1  10
TORSDOF 0
ENDMDL
MODEL 6
REMARK VINA RESULT:    -5.180      2.857      4.975
REMARK INTER + INTRA:          -6.846
REMARK INTER:                  -7.494
REMARK INTRA:                   0.648
REMARK UNBOUND:                 0.454
REMARK SMILES CC1=CCC(=C(C)C)C(=O)CC(C)=CCC1
REMARK SMILES IDX 12 1 14 2 13 3 15 4 16 5 2 6 1 7 3 8 11 10 9 11 10 12 5 13
REMARK SMILES IDX 6 14 7 15 8 16 4 17
REMARK H PARENT
REMARK Flexibility Score: 60.00
ROOT
ATOM      1  C   UNL     1     -12.072 -35.986  36.822  1.00  0.00    -0.070 C 
ATOM      2  C   UNL     1     -13.420 -36.036  36.935  1.00  0.00    -0.027 C 
ATOM      3  C   UNL     1     -11.474 -36.326  35.479  1.00  0.00     0.039 C 
ENDROOT
BRANCH   2   4
ATOM      4  C   UNL     1     -14.219 -35.840  38.202  1.00  0.00     0.032 C 
BRANCH   4   5
ATOM      5  C   UNL     1     -14.513 -37.168  38.927  1.00  0.00     0.034 C 
BRANCH   5   6
ATOM      6  C   UNL     1     -13.911 -37.205  40.319  1.00  0.00    -0.077 C 
ATOM      7  C   UNL     1     -14.700 -36.607  41.455  1.00  0.00     0.039 C 
ATOM      8  C   UNL     1     -12.716 -37.768  40.605  1.00  0.00    -0.023 CG0
ATOM      9  G   UNL     1     -11.799 -38.445  39.614  1.00  0.00     0.000 G0
ENDBRANCH   5   6
ENDBRANCH   4   5
ENDBRANCH   2   4
BRANCH   1  10
ATOM     10  C   UNL     1     -11.138 -35.676  37.980  1.00  0.00     0.111 C 
BRANCH  10  11
ATOM     11  C   UNL     1     -10.251 -36.851  38.307  1.00  0.00     0.163 C 
ATOM     12  O   UNL     1      -9.278 -37.092  37.541  1.00  0.00    -0.294 OA
BRANCH  11  13
ATOM     13  C   UNL     1     -10.465 -37.691  39.527  1.00  0.00    -0.002 C 
ATOM     14  C   UNL     1      -9.498 -37.827  40.485  1.00  0.00    -0.069 C 
ATOM     15  C   UNL     1      -8.133 -37.196  40.328  1.00  0.00     0.039 C 
ATOM     16  C   UNL     1      -9.737 -38.647  41.735  1.00  0.00     0.039 C 
BRANCH  13  17
ATOM     17  C   UNL     1     -11.778 -38.448  39.622  1.00  0.00     0.066 CG0
ATOM     18  G   UNL     1     -12.694 -37.762  40.607  1.00  0.00     0.000 G0
ENDBRANCH  13  17
ENDBRANCH  11  13
ENDBRANCH  10  11
ENDBRANCH   1  10
TORSDOF 0
ENDMDL
MODEL 7
REMARK VINA RESULT:    -5.094      1.826      4.117
REMARK INTER + INTRA:          -6.724
REMARK INTER:                  -7.542
REMARK INTRA:                   0.818
REMARK UNBOUND:                 0.454
REMARK SMILES CC1=CCC(=C(C)C)C(=O)CC(C)=CCC1
REMARK SMILES IDX 12 1 14 2 13 3 15 4 16 5 2 6 1 7 3 8 11 10 9 11 10 12 5 13
REMARK SMILES IDX 6 14 7 15 8 16 4 17
REMARK H PARENT
REMARK Flexibility Score: 60.00
ROOT
ATOM      1  C   UNL     1     -12.347 -41.566  40.185  1.00  0.00    -0.070 C 
ATOM      2  C   UNL     1     -12.344 -42.050  38.921  1.00  0.00    -0.027 C 
ATOM      3  C   UNL     1     -11.216 -41.987  41.093  1.00  0.00     0.039 C 
ENDROOT
BRANCH   2   4
ATOM      4  C   UNL     1     -13.424 -41.846  37.885  1.00  0.00     0.032 C 
BRANCH   4   5
ATOM      5  C   UNL     1     -13.887 -40.379  37.792  1.00  0.00     0.034 C 
BRANCH   5   6
ATOM      6  C   UNL     1     -12.823 -39.480  37.193  1.00  0.00    -0.077 C 
ATOM      7  C   UNL     1     -12.246 -39.851  35.851  1.00  0.00     0.039 C 
ATOM      8  C   UNL     1     -12.379 -38.348  37.783  1.00  0.00    -0.023 CG0
ATOM      9  G   UNL     1     -12.858 -37.794  39.103  1.00  0.00     0.000 G0
ENDBRANCH   5   6
ENDBRANCH   4   5
ENDBRANCH   2   4
BRANCH   1  10
ATOM     10  C   UNL     1     -13.449 -40.687  40.752  1.00  0.00     0.111 C 
BRANCH  10  11
ATOM     11  C   UNL     1     -12.922 -39.338  41.173  1.00  0.00     0.163 C 
ATOM     12  O   UNL     1     -13.140 -38.958  42.355  1.00  0.00    -0.294 OA
BRANCH  11  13
ATOM     13  C   UNL     1     -12.114 -38.480  40.250  1.00  0.00    -0.002 C 
ATOM     14  C   UNL     1     -10.779 -38.263  40.454  1.00  0.00    -0.069 C 
ATOM     15  C   UNL     1     -10.061 -38.818  41.664  1.00  0.00     0.039 C 
ATOM     16  C   UNL     1      -9.962 -37.425  39.494  1.00  0.00     0.039 C 
BRANCH  13  17
ATOM     17  C   UNL     1     -12.857 -37.798  39.115  1.00  0.00     0.066 CG0
ATOM     18  G   UNL     1     -12.379 -38.342  37.790  1.00  0.00     0.000 G0
ENDBRANCH  13  17
ENDBRANCH  11  13
ENDBRANCH  10  11
ENDBRANCH   1  10
TORSDOF 0
ENDMDL
MODEL 8
REMARK VINA RESULT:    -4.979      1.697      4.043
REMARK INTER + INTRA:          -6.563
REMARK INTER:                  -7.513
REMARK INTRA:                   0.950
REMARK UNBOUND:                 0.454
REMARK SMILES CC1=CCC(=C(C)C)C(=O)CC(C)=CCC1
REMARK SMILES IDX 12 1 14 2 13 3 15 4 16 5 2 6 1 7 3 8 11 10 9 11 10 12 5 13
REMARK SMILES IDX 6 14 7 15 8 16 4 17
REMARK H PARENT
REMARK Flexibility Score: 60.00
ROOT
ATOM      1  C   UNL     1     -11.133 -37.511  39.894  1.00  0.00    -0.070 C 
ATOM      2  C   UNL     1     -10.836 -36.748  38.816  1.00  0.00    -0.027 C 
ATOM      3  C   UNL     1     -10.005 -38.291  40.525  1.00  0.00     0.039 C 
ENDROOT
BRANCH   2   4
ATOM      4  C   UNL     1     -11.820 -35.975  37.970  1.00  0.00     0.032 C 
BRANCH   4   5
ATOM      5  C   UNL     1     -13.004 -36.841  37.500  1.00  0.00     0.034 C 
BRANCH   5   6
ATOM      6  C   UNL     1     -12.546 -38.124  36.833  1.00  0.00    -0.077 C 
ATOM      7  C   UNL     1     -11.598 -38.024  35.666  1.00  0.00     0.039 C 
ATOM      8  C   UNL     1     -12.918 -39.357  37.243  1.00  0.00    -0.023 CG0
ATOM      9  G   UNL     1     -13.828 -39.662  38.409  1.00  0.00     0.000 G0
ENDBRANCH   5   6
ENDBRANCH   4   5
ENDBRANCH   2   4
BRANCH   1  10
ATOM     10  C   UNL     1     -12.536 -37.675  40.453  1.00  0.00     0.111 C 
BRANCH  10  11
ATOM     11  C   UNL     1     -12.861 -39.124  40.721  1.00  0.00     0.163 C 
ATOM     12  O   UNL     1     -13.020 -39.484  41.919  1.00  0.00    -0.294 OA
BRANCH  11  13
ATOM     13  C   UNL     1     -13.046 -40.112  39.613  1.00  0.00    -0.002 C 
ATOM     14  C   UNL     1     -12.467 -41.351  39.650  1.00  0.00    -0.069 C 
ATOM     15  C   UNL     1     -11.548 -41.763  40.778  1.00  0.00     0.039 C 
ATOM     16  C   UNL     1     -12.691 -42.359  38.543  1.00  0.00     0.039 C 
BRANCH  13  17
ATOM     17  C   UNL     1     -13.846 -39.655  38.406  1.00  0.00     0.066 CG0
ATOM     18  G   UNL     1     -12.913 -39.351  37.259  1.00  0.00     0.000 G0
ENDBRANCH  13  17
ENDBRANCH  11  13
ENDBRANCH  10  11
ENDBRANCH   1  10
TORSDOF 0
ENDMDL
MODEL 9
REMARK VINA RESULT:    -4.932      2.090      3.098
REMARK INTER + INTRA:          -6.496
REMARK INTER:                  -7.186
REMARK INTRA:                   0.690
REMARK UNBOUND:                 0.454
REMARK SMILES CC1=CCC(=C(C)C)C(=O)CC(C)=CCC1
REMARK SMILES IDX 12 1 14 2 13 3 15 4 16 5 2 6 1 7 3 8 11 10 9 11 10 12 5 13
REMARK SMILES IDX 6 14 7 15 8 16 4 17
REMARK H PARENT
REMARK Flexibility Score: 60.00
ROOT
ATOM      1  C   UNL     1     -13.645 -36.289  38.583  1.00  0.00    -0.070 C 
ATOM      2  C   UNL     1     -13.783 -36.322  39.930  1.00  0.00    -0.027 C 
ATOM      3  C   UNL     1     -13.303 -34.962  37.952  1.00  0.00     0.039 C 
ENDROOT
BRANCH   2   4
ATOM      4  C   UNL     1     -14.224 -37.508  40.754  1.00  0.00     0.032 C 
BRANCH   4   5
ATOM      5  C   UNL     1     -13.055 -38.170  41.510  1.00  0.00     0.034 C 
BRANCH   5   6
ATOM      6  C   UNL     1     -12.568 -39.430  40.822  1.00  0.00    -0.077 C 
ATOM      7  C   UNL     1     -13.233 -40.737  41.170  1.00  0.00     0.039 C 
ATOM      8  C   UNL     1     -11.588 -39.446  39.891  1.00  0.00    -0.023 CG0
ATOM      9  G   UNL     1     -10.831 -38.241  39.386  1.00  0.00     0.000 G0
ENDBRANCH   5   6
ENDBRANCH   4   5
ENDBRANCH   2   4
BRANCH   1  10
ATOM     10  C   UNL     1     -13.881 -37.488  37.680  1.00  0.00     0.111 C 
BRANCH  10  11
ATOM     11  C   UNL     1     -12.650 -38.353  37.575  1.00  0.00     0.163 C 
ATOM     12  O   UNL     1     -12.776 -39.508  37.085  1.00  0.00    -0.294 OA
BRANCH  11  13
ATOM     13  C   UNL     1     -11.297 -37.859  37.983  1.00  0.00    -0.002 C 
ATOM     14  C   UNL     1     -10.498 -37.157  37.124  1.00  0.00    -0.069 C 
ATOM     15  C   UNL     1     -10.906 -36.905  35.689  1.00  0.00     0.039 C 
ATOM     16  C   UNL     1      -9.147 -36.629  37.557  1.00  0.00     0.039 C 
BRANCH  13  17
ATOM     17  C   UNL     1     -10.816 -38.236  39.373  1.00  0.00     0.066 CG0
ATOM     18  G   UNL     1     -11.585 -39.435  39.874  1.00  0.00     0.000 G0
ENDBRANCH  13  17
ENDBRANCH  11  13
ENDBRANCH  10  11
ENDBRANCH   1  10
TORSDOF 0
ENDMDL
